#------------------------------------------------------------------------------
#$Date: 2020-11-06 15:13:06 +0200 (Fri, 06 Nov 2020) $
#$Revision: 258972 $
#$URL: file:///home/coder/svn-repositories/cod/cif/7/15/76/7157692.cif $
#------------------------------------------------------------------------------
#
# This file is available in the Crystallography Open Database (COD),
# http://www.crystallography.net/
#
# All data on this site have been placed in the public domain by the
# contributors.
#
data_7157692
loop_
_publ_author_name
'Chan, Chieh-Kai'
'Lai, Chien-Yu'
'Wang, Cheng-Chung'
_publ_section_title
;
 TMSOTf-catalyzed synthesis of substituted quinazolines using
 hexamethyldisilazane as a nitrogen source under neat and microwave
 irradiation conditions.
;
_journal_issue                   36
_journal_name_full               'Organic &amp; biomolecular chemistry'
_journal_page_first              7201
_journal_page_last               7212
_journal_paper_doi               10.1039/d0ob01507e
_journal_volume                  18
_journal_year                    2020
_chemical_formula_moiety         'C20 H12 F2 N2'
_chemical_formula_sum            'C20 H12 F2 N2'
_chemical_formula_weight         318.32
_space_group_crystal_system      triclinic
_space_group_IT_number           2
_space_group_name_Hall           '-P 1'
_space_group_name_H-M_alt        'P -1'
_atom_sites_solution_hydrogens   geom
_audit_creation_method           SHELXL-2018/3
_audit_update_record
;
2020-04-01 deposited with the CCDC.	2020-08-31 downloaded from the CCDC.
;
_cell_angle_alpha                94.7750(10)
_cell_angle_beta                 108.4430(10)
_cell_angle_gamma                100.7540(10)
_cell_formula_units_Z            2
_cell_length_a                   7.8602(2)
_cell_length_b                   8.9830(2)
_cell_length_c                   11.3189(3)
_cell_measurement_reflns_used    9906
_cell_measurement_temperature    100.0(2)
_cell_measurement_theta_max      27.06
_cell_measurement_theta_min      2.79
_cell_volume                     736.11(3)
_computing_cell_refinement       'SAINT V8.40A (Bruker Nano, Inc., 2019)'
_computing_data_collection       'Bruker Instrument Service v2012.12.0.3'
_computing_data_reduction        'SAINT V8.40A (Bruker Nano, Inc., 2019)'
_computing_molecular_graphics    'shelXle (C.B. Huebschle, rev 958)'
_computing_publication_material  'WinGX publication routines (Farrugia, 2014)'
_computing_structure_refinement  'SHELXL-2018/3 (Sheldrick, 2018)'
_computing_structure_solution    'SHELXT 2014/5 (Sheldrick, 2014)'
_diffrn_ambient_temperature      100.0(2)
_diffrn_measured_fraction_theta_full 0.998
_diffrn_measured_fraction_theta_max 0.998
_diffrn_measurement_device_type  'Bruker APEX-II CCD'
_diffrn_measurement_method       '\f and \w scans'
_diffrn_radiation_type           MoK\a
_diffrn_radiation_wavelength     0.71073
_diffrn_reflns_av_R_equivalents  0.0347
_diffrn_reflns_av_unetI/netI     0.0181
_diffrn_reflns_Laue_measured_fraction_full 0.998
_diffrn_reflns_Laue_measured_fraction_max 0.998
_diffrn_reflns_limit_h_max       10
_diffrn_reflns_limit_h_min       -10
_diffrn_reflns_limit_k_max       11
_diffrn_reflns_limit_k_min       -11
_diffrn_reflns_limit_l_max       14
_diffrn_reflns_limit_l_min       -14
_diffrn_reflns_number            31661
_diffrn_reflns_point_group_measured_fraction_full 0.998
_diffrn_reflns_point_group_measured_fraction_max 0.998
_diffrn_reflns_theta_full        25.242
_diffrn_reflns_theta_max         27.100
_diffrn_reflns_theta_min         1.919
_exptl_absorpt_coefficient_mu    0.103
_exptl_absorpt_correction_T_max  1
_exptl_absorpt_correction_T_min  0.9803
_exptl_absorpt_correction_type   numerical
_exptl_absorpt_process_details   'Bruker SADABS, 1996'
_exptl_crystal_colour            colourless
_exptl_crystal_density_diffrn    1.436
_exptl_crystal_density_meas      ?
_exptl_crystal_density_method    'not measured'
_exptl_crystal_description       prism
_exptl_crystal_F_000             328
_exptl_crystal_size_max          0.240
_exptl_crystal_size_mid          0.227
_exptl_crystal_size_min          0.207
_refine_diff_density_max         0.270
_refine_diff_density_min         -0.245
_refine_diff_density_rms         0.047
_refine_ls_extinction_method     none
_refine_ls_goodness_of_fit_ref   1.057
_refine_ls_hydrogen_treatment    constr
_refine_ls_matrix_type           full
_refine_ls_number_parameters     217
_refine_ls_number_reflns         3247
_refine_ls_number_restraints     0
_refine_ls_restrained_S_all      1.057
_refine_ls_R_factor_all          0.0391
_refine_ls_R_factor_gt           0.0346
_refine_ls_shift/su_max          0.000
_refine_ls_shift/su_mean         0.000
_refine_ls_structure_factor_coef Fsqd
_refine_ls_weighting_details
'w=1/[\s^2^(Fo^2^)+(0.0333P)^2^+0.3862P] where P=(Fo^2^+2Fc^2^)/3'
_refine_ls_weighting_scheme      calc
_refine_ls_wR_factor_gt          0.0839
_refine_ls_wR_factor_ref         0.0874
_reflns_Friedel_coverage         0.000
_reflns_number_gt                2902
_reflns_number_total             3247
_reflns_threshold_expression     'I > 2\s(I)'
_cod_data_source_file            d0ob01507e2.cif
_cod_data_source_block           i17847
_cod_depositor_comments
;
The following automatic conversions were performed:

data item '_exptl_crystal_density_meas' value 'none' was changed to
'?' -- the value is perceived as not measured.

Automatic conversion script
Id: cif_fix_values 7556 2019-12-06 15:28:31Z antanas 

 Adding full bibliography for 7157689--7157694.cif.
;
_cod_database_code               7157692
_shelx_shelxl_version_number     2018/3
_shelx_space_group_comment
;
The symmetry employed for this shelxl refinement is uniquely defined
by the following loop, which should always be used as a source of
symmetry information in preference to the above space-group names.
They are only intended as comments.
;
_shelx_estimated_absorpt_t_min   0.976
_shelx_estimated_absorpt_t_max   0.979
_shelx_res_file
;
TITL i17847_a.res in P-1
    i17847.res
    created by SHELXL-2018/3 at 12:34:22 on 31-Mar-2020
REM Old TITL i17847 in P-1
REM SHELXT solution in P-1
REM R1 0.098,  Rweak 0.003,  Alpha 0.026,  Orientation as input
REM Formula found by SHELXT:  C20 F2 N2
CELL  0.71073   7.8602   8.9830  11.3189   94.775  108.443  100.754
ZERR    2.000   0.0002   0.0002   0.0003    0.001    0.001    0.001
LATT  1
SFAC C H F N
UNIT 40 24 4 4
ACTA
TEMP -173.150
SIZE 0.207 0.227 0.24
L.S. 10
BOND $H
LIST 6
OMIT -1 -2 3
OMIT 2 0 3
FMAP 2
PLAN 3
WGHT    0.033300    0.386200
FVAR       1.02993
F1    3   -0.095643   -0.024818    0.228672    11.00000    0.02258    0.02372 =
         0.02544    0.00876    0.00685    0.00201
N1    4    0.371859    0.144681    0.298286    11.00000    0.01625    0.01596 =
         0.01490   -0.00045    0.00545    0.00272
C1    1    0.232703    0.202634    0.303203    11.00000    0.01535    0.01453 =
         0.01408    0.00133    0.00545    0.00212
F2    3    0.240453    0.400967    0.124785    11.00000    0.02674    0.02623 =
         0.02145    0.00449    0.00543   -0.00458
N2    4    0.209919    0.273453    0.406184    11.00000    0.01519    0.01629 =
         0.01367    0.00132    0.00512    0.00381
C2    1    0.516570    0.167572    0.408666    11.00000    0.01515    0.01265 =
         0.01632    0.00203    0.00553    0.00211
C3    1    0.673895    0.112974    0.407930    11.00000    0.01942    0.01582 =
         0.01977    0.00032    0.00874    0.00494
AFIX  43
H3    2    0.673486    0.055007    0.333668    11.00000   -1.20000
AFIX   0
C4    1    0.826348    0.143651    0.514040    11.00000    0.01582    0.01767 =
         0.02590    0.00444    0.00835    0.00665
AFIX  43
H4    2    0.931237    0.105894    0.513404    11.00000   -1.20000
AFIX   0
C5    1    0.829488    0.230904    0.624595    11.00000    0.01466    0.01950 =
         0.01801    0.00444    0.00298    0.00313
AFIX  43
H5    2    0.937603    0.253546    0.697019    11.00000   -1.20000
AFIX   0
C6    1    0.678167    0.283307    0.628545    11.00000    0.01682    0.01679 =
         0.01477    0.00228    0.00494    0.00310
AFIX  43
H6    2    0.682259    0.342776    0.703245    11.00000   -1.20000
AFIX   0
C7    1    0.515052    0.248890    0.521114    11.00000    0.01465    0.01327 =
         0.01443    0.00240    0.00508    0.00286
C8    1    0.348047    0.294479    0.514514    11.00000    0.01472    0.01252 =
         0.01395    0.00253    0.00527    0.00187
C9    1    0.318105    0.368410    0.626405    11.00000    0.01198    0.01554 =
         0.01462   -0.00031    0.00501    0.00033
C10   1    0.373071    0.317514    0.743197    11.00000    0.01525    0.01830 =
         0.01566    0.00185    0.00449    0.00319
AFIX  43
H10   2    0.430540    0.233001    0.752140    11.00000   -1.20000
AFIX   0
C11   1    0.344159    0.389728    0.846060    11.00000    0.01849    0.02538 =
         0.01300    0.00100    0.00524    0.00021
AFIX  43
H11   2    0.381537    0.354458    0.925088    11.00000   -1.20000
AFIX   0
C12   1    0.260678    0.513440    0.833563    11.00000    0.02196    0.02327 =
         0.01870   -0.00512    0.01092    0.00032
AFIX  43
H12   2    0.244345    0.564840    0.904638    11.00000   -1.20000
AFIX   0
C13   1    0.200996    0.562131    0.717168    11.00000    0.02237    0.01695 =
         0.02620    0.00014    0.01239    0.00484
AFIX  43
H13   2    0.141013    0.645164    0.708220    11.00000   -1.20000
AFIX   0
C14   1    0.228829    0.489707    0.613924    11.00000    0.01716    0.01707 =
         0.01774    0.00254    0.00707    0.00340
AFIX  43
H14   2    0.186899    0.522855    0.534323    11.00000   -1.20000
AFIX   0
C15   1    0.078915    0.187502    0.181090    11.00000    0.01577    0.01837 =
         0.01265   -0.00117    0.00507    0.00646
C16   1   -0.078941    0.071996    0.145411    11.00000    0.01878    0.01758 =
         0.01759    0.00284    0.00702    0.00670
C17   1   -0.216740    0.048535    0.029604    11.00000    0.01575    0.02090 =
         0.02312   -0.00260    0.00201    0.00415
AFIX  43
H17   2   -0.322100   -0.033397    0.008404    11.00000   -1.20000
AFIX   0
C18   1   -0.196807    0.148117   -0.054869    11.00000    0.02209    0.02573 =
         0.01446   -0.00215    0.00019    0.01084
AFIX  43
H18   2   -0.289019    0.133365   -0.135577    11.00000   -1.20000
AFIX   0
C19   1   -0.044537    0.268596   -0.023223    11.00000    0.02720    0.02242 =
         0.01409    0.00265    0.00667    0.01001
AFIX  43
H19   2   -0.032478    0.338370   -0.080257    11.00000   -1.20000
AFIX   0
C20   1    0.089459    0.284737    0.093472    11.00000    0.01963    0.01817 =
         0.01645   -0.00077    0.00660    0.00277
HKLF 4




REM  i17847_a.res in P-1
REM wR2 = 0.087445, GooF = S = 1.05697, Restrained GooF = 1.05697 for all data
REM R1 = 0.034594 for 2902 Fo > 4sig(Fo) and 0.039138 for all 3247 data
REM 217 parameters refined using 0 restraints

END

WGHT      0.0331      0.3870

REM Highest difference peak  0.270,  deepest hole -0.245,  1-sigma level  0.047
Q1    1   0.1503  0.1948  0.2385  11.00000  0.05    0.27
Q2    1   0.5836  0.2452  0.5811  11.00000  0.05    0.24
Q3    1   0.3291  0.3281  0.5752  11.00000  0.05    0.24
;
_shelx_res_checksum              10552
_shelx_hkl_file
;
  -1   0   0  212.38    4.90
  -1   0   0  204.98    4.90
  -1   0   0  210.28    5.00
  -1   0   0  205.88    4.80
  -1   0   0  209.48    4.90
   1   0   0  213.78    4.90
   1   0   0  208.08    4.80
   1   0   0  208.98    5.10
   1   0   0  214.68    4.80
  -3   0   0    6.50    1.10
  -3   0   0    4.60    1.00
  -3   0   0    8.70    1.50
  -3   0   0    8.90    1.50
   3   0   0    7.60    1.30
   3   0   0    6.30    1.30
   3   0   0   11.90    1.60
   3   0   0    9.60    1.70
   3   0   0    7.90    1.30
   3   0   0    6.00    1.20
  -4   0   0    9.50    1.90
  -4   0   0   10.10    1.70
  -4   0   0    6.90    1.40
  -4   0   0   10.00    1.80
  -4   0   0   10.00    1.70
  -4   0   0    9.40    1.70
   4   0   0    7.80    1.50
   4   0   0    9.10    1.70
   4   0   0    8.70    1.50
   4   0   0    8.90    1.90
   4   0   0    7.40    1.40
   4   0   0    9.60    1.70
  -5   0   0    5.30    1.20
  -5   0   0    4.80    1.50
  -5   0   0    6.00    1.60
  -5   0   0    4.80    1.50
  -5   0   0    6.70    1.50
  -5   0   0    6.20    1.60
   5   0   0    5.60    1.50
   5   0   0    4.50    1.50
   5   0   0    3.50    1.30
   5   0   0    4.40    1.80
   5   0   0    5.10    1.40
   5   0   0    6.70    1.50
  -6   0   0    5.40    1.70
  -6   0   0    7.00    2.00
  -6   0   0    5.00    1.70
  -6   0   0    5.80    1.60
  -6   0   0    2.70    1.40
  -6   0   0    6.90    1.80
   6   0   0    5.80    1.60
   6   0   0    5.80    2.00
   6   0   0    6.70    1.90
   6   0   0    6.90    1.90
   6   0   0    2.40    1.50
   6   0   0    5.10    1.60
  -7   0   0 1230.18   31.20
  -7   0   0 1249.47   30.70
  -7   0   0 1230.08   31.50
  -7   0   0 1234.58   30.90
  -7   0   0 1228.78   27.60
  -7   0   0 1175.58   29.80
   7   0   0 1238.38   30.40
   7   0   0 1235.28   29.40
   7   0   0 1228.08   30.40
   7   0   0 1256.27   31.00
   7   0   0 1240.68   33.40
  -8   0   0   10.00    2.70
  -8   0   0    6.20    1.60
  -8   0   0   11.90    2.70
  -8   0   0   12.10    3.00
  -8   0   0   10.70    2.90
  -8   0   0    9.10    2.90
   8   0   0    5.80    3.10
   8   0   0   14.40    3.30
   8   0   0    9.70    2.40
  -9   0   0   42.20    5.90
  -9   0   0   41.20    5.60
  -9   0   0   39.20    6.50
  -9   0   0   37.20    5.10
   9   0   0   44.40    7.20
   9   0   0   50.29    6.30
   9  -1   0   -0.70    1.90
   9  -1   0   -0.40    2.70
   9  -1   0   -0.40    2.50
   9  -1   0    0.80    2.30
  -9   1   0    4.30    2.60
  -9   1   0   -2.90    1.50
  -9   1   0   -3.50    2.00
   8  -1   0  240.38   10.90
   8  -1   0  251.97   11.10
   8  -1   0  239.08   12.80
   8  -1   0  247.98    9.70
   8  -1   0  258.67   11.00
   8  -1   0  261.97   10.80
  -8   1   0  244.48   11.40
  -8   1   0  262.87   11.70
  -8   1   0  252.77   11.10
  -8   1   0  250.97   10.50
  -8   1   0  234.88   10.50
   7  -1   0  654.33   21.70
   7  -1   0  677.33   19.40
   7  -1   0  690.43   17.80
   7  -1   0  657.13   18.90
  -7   1   0  643.64   14.90
  -7   1   0  657.03   19.90
  -7   1   0  679.83   19.40
  -7   1   0  679.03   19.90
  -7   1   0  657.13   18.80
  -7   1   0  656.73   20.50
   6  -1   0  103.69    5.60
   6  -1   0   96.39    5.60
   6  -1   0   97.09    6.60
   6  -1   0   99.29    5.50
   6  -1   0  107.39    5.50
   6  -1   0   97.89    4.90
  -6   1   0   94.69    5.30
  -6   1   0   95.59    5.60
  -6   1   0  100.29    6.10
  -6   1   0   99.19    5.20
  -6   1   0  103.99    5.90
  -6   1   0   94.79    3.70
  -6   1   0   95.29    5.00
   5  -1   0  136.79    5.30
   5  -1   0  123.99    5.90
   5  -1   0  136.39    7.10
   5  -1   0  136.99    6.00
   5  -1   0  130.89    5.80
   5  -1   0  132.49    5.80
  -5   1   0  134.49    5.50
  -5   1   0  126.19    5.80
  -5   1   0  134.19    5.80
  -5   1   0  140.49    6.30
  -5   1   0  132.09    4.30
  -5   1   0  132.79    6.40
  -5   1   0  130.69    5.60
   4  -1   0   63.49    3.50
   4  -1   0   70.79    3.20
   4  -1   0   69.29    4.40
   4  -1   0   75.89    3.70
   4  -1   0   69.79    3.80
   4  -1   0   73.39    3.70
  -4   1   0   69.39    3.50
  -4   1   0   70.29    3.70
  -4   1   0   73.49    3.40
  -4   1   0   63.59    3.90
  -4   1   0   72.29    3.90
  -4   1   0   77.89    3.90
   3  -1   0   75.19    3.30
   3  -1   0   71.89    3.90
   3  -1   0   70.19    2.70
   3  -1   0   67.99    3.10
   3  -1   0   73.39    3.30
  -3   1   0   69.29    2.80
  -3   1   0   66.09    2.30
  -3   1   0   73.69    3.20
  -3   1   0   69.89    3.10
   2  -1   0  122.99    3.70
   2  -1   0  122.49    3.20
   2  -1   0  122.59    3.80
   2  -1   0  123.59    3.90
  -2   1   0  124.79    3.80
  -2   1   0  117.29    3.80
  -2   1   0  117.39    3.70
  -2   1   0  120.19    3.80
  -2   1   0  121.99    3.20
  -2   1   0  119.89    2.80
   1  -1   0 1821.42   55.39
  -1   1   0 1737.73   54.59
   0   1   0    2.40    0.40
  -1  -1   0    2.10    0.50
  -1  -1   0    1.60    0.60
  -1  -1   0    2.10    0.60
  -1  -1   0    2.30    0.60
  -1  -1   0    3.20    0.80
  -1  -1   0    2.20    0.60
   1   1   0    2.00    0.60
   1   1   0    2.50    0.60
   1   1   0    2.50    0.60
   1   1   0    2.30    0.50
   1   1   0    2.70    0.80
   1   1   0    2.10    0.60
   1   1   0    2.00    0.60
  -2  -1   0 3996.30  127.39
  -3  -1   0  235.88    8.50
  -3  -1   0  230.58    7.20
  -3  -1   0  227.08    7.60
  -3  -1   0  235.88    7.50
  -3  -1   0  215.18    7.20
   3   1   0  242.68    7.70
   3   1   0  242.88    7.80
   3   1   0  231.68    7.40
   3   1   0  219.48    7.30
   3   1   0  226.78    7.20
   3   1   0  226.28    7.50
   3   1   0  244.98    7.60
  -4  -1   0  947.01   22.30
  -4  -1   0  976.00   22.10
  -4  -1   0  923.51   22.30
  -4  -1   0  954.00   22.70
  -4  -1   0  951.90   22.20
  -4  -1   0  954.60   22.30
   4   1   0  930.01   22.20
   4   1   0  949.21   22.20
   4   1   0  916.81   22.80
   4   1   0  906.61   21.80
   4   1   0  965.70   22.20
   4   1   0  921.51   22.40
   4   1   0  914.01   22.40
  -5  -1   0   80.89    5.10
  -5  -1   0   80.39    4.60
  -5  -1   0   73.69    4.60
  -5  -1   0   77.99    4.90
  -5  -1   0   82.49    4.90
  -5  -1   0   82.99    5.20
  -5  -1   0   78.39    4.90
   5   1   0   80.79    4.90
   5   1   0   89.09    5.00
   5   1   0   84.99    5.10
   5   1   0   73.39    4.60
   5   1   0   84.39    5.50
   5   1   0   79.39    4.70
  -6  -1   0  112.49    5.80
  -6  -1   0  111.89    6.30
  -6  -1   0   98.39    6.20
  -6  -1   0  114.69    6.30
  -6  -1   0  107.09    6.30
  -6  -1   0  111.19    6.40
  -6  -1   0  113.69    6.70
   6   1   0   97.29    5.80
   6   1   0  102.79    6.00
   6   1   0  102.79    6.90
   6   1   0   99.79    5.80
   6   1   0  105.59    6.20
  -7  -1   0  293.17   12.00
  -7  -1   0  281.17   11.30
  -7  -1   0  280.87   11.70
  -7  -1   0  299.47   12.00
  -7  -1   0  295.07   12.40
  -7  -1   0  282.17   10.40
   7   1   0  292.17   11.50
   7   1   0  275.07   11.60
   7   1   0  278.57   11.10
   7   1   0  272.67   11.40
   7   1   0  285.87   13.10
  -8  -1   0   27.60    4.60
  -8  -1   0   31.00    4.60
  -8  -1   0   26.10    4.40
  -8  -1   0   24.80    4.40
  -8  -1   0   26.50    3.70
  -8  -1   0   26.10    4.40
   8   1   0   25.80    4.50
   8   1   0   21.60    3.90
   8   1   0   28.30    5.30
  -9  -1   0   19.10    3.20
  -9  -1   0   23.30    4.80
  -9  -1   0   24.00    4.50
  -9  -1   0   14.20    3.90
  -9  -1   0   27.30    4.80
   9   1   0   19.00    4.10
   9   1   0   21.90    5.40
   9   1   0   19.00    4.80
   9  -2   0   50.19    5.90
   9  -2   0   40.80    7.10
   9  -2   0   36.30    4.20
  -9   2   0   44.60    6.90
  -9   2   0   41.40    5.70
  -9   2   0   39.10    5.00
   8  -2   0  125.49    7.50
   8  -2   0  118.59    6.80
   8  -2   0  117.69    9.00
   8  -2   0  109.89    5.60
   8  -2   0  111.09    6.70
  -8   2   0  120.29    7.00
  -8   2   0  117.49    8.00
  -8   2   0  108.09    6.50
  -8   2   0   96.59    7.00
  -8   2   0  128.39    7.40
  -8   2   0  121.89    7.50
   7  -2   0   16.60    3.80
   7  -2   0   14.40    2.30
   7  -2   0   16.80    3.00
  -7   2   0   22.00    3.20
  -7   2   0   13.70    3.00
  -7   2   0   15.70    3.50
  -7   2   0   18.70    3.30
  -7   2   0   15.80    2.70
  -7   2   0   12.90    2.30
   6  -2   0  439.06   12.90
   6  -2   0  419.86   11.30
   6  -2   0  423.46   12.50
   6  -2   0  421.96   13.10
   6  -2   0  430.36   15.50
  -6   2   0  416.96   12.50
  -6   2   0  434.06   14.70
  -6   2   0  428.56   12.90
  -6   2   0  448.66   13.40
  -6   2   0  420.76   14.00
  -6   2   0  415.76   13.40
   5  -2   0   15.10    1.50
   5  -2   0   15.40    3.10
   5  -2   0   14.40    2.10
   5  -2   0   17.70    2.30
   5  -2   0   16.20    2.40
  -5   2   0   18.30    2.40
  -5   2   0   18.50    2.60
  -5   2   0   17.50    2.90
  -5   2   0   15.30    2.30
  -5   2   0   14.10    1.70
  -5   2   0   13.80    2.00
   4  -2   0   65.99    4.50
   4  -2   0   74.49    3.50
   4  -2   0   80.69    2.90
   4  -2   0   75.39    3.60
   4  -2   0   67.59    3.70
  -4   2   0   79.79    4.00
  -4   2   0   77.09    3.60
  -4   2   0   69.89    4.40
  -4   2   0   69.29    2.80
  -4   2   0   76.79    3.80
  -4   2   0   76.19    3.70
   3  -2   0  131.69    4.60
   3  -2   0  136.09    5.80
   3  -2   0  140.39    4.60
   3  -2   0  133.39    3.50
  -3   2   0  138.39    3.50
  -3   2   0  129.69    4.80
  -3   2   0  129.39    4.60
  -3   2   0  133.59    3.20
  -3   2   0  136.49    5.60
  -3   2   0  141.49    4.80
  -3   2   0  134.29    4.60
   2  -2   0  261.07    6.70
   2  -2   0  265.97    6.20
   2  -2   0  259.57    7.80
   2  -2   0  256.67    6.50
   2  -2   0  270.97    7.60
  -2   2   0  271.67    6.80
  -2   2   0  255.27    6.10
  -2   2   0  267.97    6.80
  -2   2   0  265.27    6.70
  -2   2   0  251.67    7.60
  -2   2   0  266.97    6.90
   1  -2   0 1088.89   49.99
  -1   2   0 1109.89   50.29
  -1  -2   0 3978.10  123.89
   1   2   0 3971.20  125.39
  -2  -2   0  831.22   18.90
  -2  -2   0  822.92   19.00
  -2  -2   0  892.81   19.10
  -2  -2   0  845.62   20.90
  -2  -2   0  824.72   19.20
  -2  -2   0  833.72   19.00
   2   2   0  844.12   19.30
   2   2   0  801.82   18.70
   2   2   0  813.52   18.90
   2   2   0  814.22   18.70
   2   2   0  835.92   19.10
   2   2   0  865.81   19.00
   2   2   0  859.41   19.30
  -3  -2   0  254.77    8.50
  -3  -2   0  252.17    8.60
  -3  -2   0  265.57    8.50
  -3  -2   0  248.28    8.20
  -3  -2   0  271.57    8.50
  -3  -2   0  263.27    8.80
   3   2   0  233.68    7.90
   3   2   0  257.17    8.30
   3   2   0  239.28    8.40
   3   2   0  240.18    8.30
   3   2   0  248.58    8.40
   3   2   0  237.48    8.20
   3   2   0  246.18    8.20
  -4  -2   0   17.80    2.60
  -4  -2   0   18.00    2.80
  -4  -2   0   10.50    2.10
  -4  -2   0   14.40    2.50
  -4  -2   0   15.60    2.40
  -4  -2   0   17.20    2.60
   4   2   0   17.70    2.70
   4   2   0   19.50    3.00
   4   2   0   18.60    2.50
   4   2   0   19.00    2.80
   4   2   0   18.30    2.70
   4   2   0   19.80    2.80
   4   2   0   16.00    2.90
  -5  -2   0   29.80    3.80
  -5  -2   0   35.60    3.40
  -5  -2   0   23.80    3.40
  -5  -2   0   32.60    3.20
  -5  -2   0   28.10    3.80
  -5  -2   0   31.30    3.00
  -5  -2   0   30.30    3.20
   5   2   0   31.70    3.20
   5   2   0   31.70    3.40
   5   2   0   22.10    4.20
   5   2   0   29.00    3.70
   5   2   0   34.60    4.10
   5   2   0   28.30    3.70
   5   2   0   31.20    3.80
  -6  -2   0  202.68    9.20
  -6  -2   0  197.98    9.30
  -6  -2   0  197.18    9.20
  -6  -2   0  174.78    9.10
  -6  -2   0  173.38    8.70
  -6  -2   0  212.38    9.10
  -6  -2   0  197.48    8.90
   6   2   0  190.98    8.80
   6   2   0  187.78    8.90
   6   2   0  206.48    9.10
   6   2   0  192.48    9.20
   6   2   0  206.98    9.30
   6   2   0  194.48    9.80
  -7  -2   0  201.28    9.90
  -7  -2   0  188.78    9.40
  -7  -2   0  204.48    9.40
  -7  -2   0  204.28   10.30
  -7  -2   0  198.58    9.90
   7   2   0  210.28   10.40
   7   2   0  154.78   10.60
   7   2   0  198.38   10.80
   7   2   0  203.88    9.90
   7   2   0  203.28    9.70
  -8  -2   0   13.00    3.00
  -8  -2   0   15.00    3.30
  -8  -2   0   13.30    3.80
  -8  -2   0   20.80    3.90
   8   2   0   13.10    3.60
   8   2   0   12.30    3.30
   8   2   0   12.80    3.60
   8   2   0   15.00    3.70
   9  -3   0  329.37   16.40
   9  -3   0  282.07   12.00
  -9   3   0  273.47   11.50
  -9   3   0  298.87   12.20
   8  -3   0   34.70    3.50
   8  -3   0   35.80    4.40
   8  -3   0   44.10    4.60
   8  -3   0   36.60    3.90
   8  -3   0   42.00    6.60
   8  -3   0   43.40    3.10
  -8   3   0   36.50    5.60
  -8   3   0   34.50    4.40
  -8   3   0   37.20    5.30
  -8   3   0   39.40    3.90
  -8   3   0   36.80    4.80
  -8   3   0   38.40    3.70
   7  -3   0   16.00    2.70
   7  -3   0   19.50    4.40
   7  -3   0   17.50    2.00
   7  -3   0   12.80    2.50
  -7   3   0   19.10    3.90
  -7   3   0   12.00    3.10
  -7   3   0   14.70    2.70
  -7   3   0   13.50    2.70
  -7   3   0   13.60    2.30
  -7   3   0   12.50    2.70
   6  -3   0  116.19    5.90
   6  -3   0  106.99    5.10
   6  -3   0  110.09    5.40
   6  -3   0  104.89    5.40
   6  -3   0  103.79    3.90
   6  -3   0  105.89    7.30
  -6   3   0  108.19    5.90
  -6   3   0  108.49    5.70
  -6   3   0  111.29    6.90
  -6   3   0  103.99    5.40
  -6   3   0  100.89    5.10
   5  -3   0  245.08    8.30
   5  -3   0  255.57    8.00
   5  -3   0  243.28   10.40
   5  -3   0  267.47    6.90
   5  -3   0  242.28    8.10
  -5   3   0  241.38    8.10
  -5   3   0  258.87    8.70
  -5   3   0  264.87    8.50
  -5   3   0  241.08    9.80
  -5   3   0  249.78    8.80
   4  -3   0  131.69    6.60
   4  -3   0  121.89    4.90
   4  -3   0  127.99    4.80
   4  -3   0  125.49    4.90
  -4   3   0  123.09    5.10
  -4   3   0  128.89    6.20
  -4   3   0  129.89    5.30
  -4   3   0  123.49    4.90
  -4   3   0  127.09    5.10
   3  -3   0 1268.97   28.70
   3  -3   0 1240.78   26.20
   3  -3   0 1247.88   25.40
   3  -3   0 1271.77   26.30
   3  -3   0 1263.97   26.10
  -3   3   0 1248.38   28.20
  -3   3   0 1269.17   26.50
  -3   3   0 1250.67   26.50
  -3   3   0 1305.67   26.80
  -3   3   0 1262.77   26.30
   2  -3   0   39.70    2.20
   2  -3   0   44.50    2.40
   2  -3   0   42.80    2.30
   2  -3   0   36.70    2.80
   2  -3   0   44.00    2.80
  -2   3   0   38.90    2.30
  -2   3   0   38.80    2.20
  -2   3   0   43.30    2.30
  -2   3   0   39.90    1.40
  -2   3   0   44.20    2.40
  -2   3   0   40.60    2.80
   1  -3   0   48.10    2.80
   1  -3   0   45.50    2.50
   1  -3   0   44.70    2.40
   1  -3   0   50.39    2.80
   1  -3   0   43.30    2.30
  -1   3   0   45.10    2.10
  -1   3   0   45.50    2.30
  -1   3   0   42.90    2.40
  -1   3   0   45.50    2.40
  -1   3   0   47.30    2.50
  -1   3   0   46.60    2.70
  -1   3   0   46.90    2.90
   0  -3   0   27.00    2.00
   0  -3   0   25.00    1.80
   0  -3   0   24.80    1.90
   0  -3   0   29.10    2.30
   0  -3   0   29.20    2.10
   0  -3   0   27.00    2.30
   0  -3   0   27.00    1.90
   0   3   0   27.30    2.00
   0   3   0   24.30    1.80
   0   3   0   26.80    1.90
   0   3   0   27.10    1.90
   0   3   0   22.20    2.00
   0   3   0   24.70    1.90
   0   3   0   25.30    2.00
  -1  -3   0  234.68    7.40
  -1  -3   0  235.68    7.20
  -1  -3   0  231.68    7.30
  -1  -3   0  219.58    7.10
  -1  -3   0  224.58    7.20
  -1  -3   0  227.78    7.50
  -1  -3   0  234.08    7.50
   1   3   0  219.38    7.10
   1   3   0  218.48    6.90
   1   3   0  228.08    7.40
   1   3   0  223.28    7.30
   1   3   0  234.08    7.40
   1   3   0  226.88    7.20
  -2  -3   0  603.24   15.50
  -2  -3   0  591.04   15.60
  -2  -3   0  608.24   15.20
  -2  -3   0  588.44   15.10
  -2  -3   0  602.54   15.50
  -2  -3   0  606.04   15.50
  -2  -3   0  586.44   15.20
   2   3   0  582.94   15.40
   2   3   0  618.04   15.50
   2   3   0  617.44   15.30
   2   3   0  613.54   15.10
   2   3   0  582.34   14.90
  -3  -3   0  428.16   12.60
  -3  -3   0  408.16   12.10
  -3  -3   0  413.56   12.30
  -3  -3   0  408.96   12.30
  -3  -3   0  411.06   12.60
  -3  -3   0  405.76   12.70
   3   3   0  407.56   12.60
   3   3   0  419.96   12.30
   3   3   0  396.76   12.30
   3   3   0  404.46   12.10
   3   3   0  419.66   12.50
   3   3   0  429.76   12.30
   3   3   0  401.06   11.90
  -4  -3   0  543.45   15.80
  -4  -3   0  563.44   16.70
  -4  -3   0  550.64   16.50
  -4  -3   0  552.44   16.10
  -4  -3   0  544.75   15.70
  -4  -3   0  550.54   16.30
   4   3   0  538.05   16.00
   4   3   0  597.04   18.80
   4   3   0  536.75   15.90
   4   3   0  543.05   15.80
   4   3   0  529.65   15.60
   4   3   0  534.65   15.90
   4   3   0  562.74   15.70
  -5  -3   0   72.79    5.40
  -5  -3   0   75.29    5.30
  -5  -3   0   81.99    5.70
  -5  -3   0   76.19    5.40
  -5  -3   0   78.89    5.50
  -5  -3   0   70.89    5.00
  -5  -3   0   72.39    5.20
   5   3   0   76.19    5.60
   5   3   0   78.79    5.50
   5   3   0   67.69    5.00
   5   3   0   75.59    5.50
   5   3   0   82.89    5.30
   5   3   0   70.79    5.10
   5   3   0   65.39    5.00
  -6  -3   0   60.89    5.50
  -6  -3   0   60.39    5.00
  -6  -3   0   55.19    5.00
  -6  -3   0   52.39    5.60
  -6  -3   0   52.09    5.20
  -6  -3   0   52.29    4.80
   6   3   0   64.99    5.50
   6   3   0   59.39    5.10
   6   3   0   52.09    4.80
   6   3   0   63.49    5.60
   6   3   0   59.69    5.10
   6   3   0   55.09    5.00
   6   3   0   58.89    5.40
  -7  -3   0   20.90    4.20
  -7  -3   0   17.20    4.00
  -7  -3   0   13.60    3.10
  -7  -3   0   17.90    3.50
  -7  -3   0   23.40    4.20
  -7  -3   0   19.30    4.00
   7   3   0   23.10    4.00
   7   3   0   14.50    3.10
   7   3   0   20.80    4.60
   7   3   0   19.50    4.00
   7   3   0    9.60    2.90
  -8  -3   0   73.39    6.70
  -8  -3   0   79.19    7.10
  -8  -3   0   70.29    7.00
  -8  -3   0   74.39    6.40
  -8  -3   0   65.59    6.60
   8   3   0   78.99    7.20
   8   3   0   71.89    6.80
   8   3   0   85.09    7.80
   9  -4   0    0.70    2.30
   9  -4   0    0.00    2.40
   9  -4   0   -1.00    2.40
  -9   4   0    1.90    3.00
  -9   4   0    3.60    2.70
  -9   4   0    3.60    2.00
  -9   4   0    1.10    2.10
  -9   4   0    4.20    2.20
   8  -4   0   17.00    4.60
   8  -4   0    2.20    2.50
   8  -4   0   14.90    2.90
   8  -4   0   14.40    2.70
   8  -4   0   11.80    2.70
  -8   4   0   12.30    2.60
  -8   4   0    8.10    2.10
  -8   4   0    9.30    3.10
  -8   4   0   12.40    3.60
  -8   4   0   13.50    2.90
   7  -4   0   -1.00    1.00
   7  -4   0    0.30    1.80
   7  -4   0    1.30    1.50
   7  -4   0    1.70    1.20
  -7   4   0    1.20    1.20
  -7   4   0    2.10    1.30
  -7   4   0    2.70    1.40
  -7   4   0    1.60    1.60
  -7   4   0    4.50    2.10
   6  -4   0  199.18   10.30
   6  -4   0  201.58    7.30
   6  -4   0  201.28    7.60
  -6   4   0  201.38    9.70
  -6   4   0  210.98    8.00
  -6   4   0  202.48    7.70
  -6   4   0  200.28    8.40
  -6   4   0  210.18    8.20
   5  -4   0  307.17    9.10
   5  -4   0  291.57    9.30
   5  -4   0  300.07    9.20
   5  -4   0  310.37   12.20
  -5   4   0  313.27    9.50
  -5   4   0  312.97    9.90
  -5   4   0  313.27   11.70
  -5   4   0  317.27    9.80
  -5   4   0  309.67   10.10
   4  -4   0    8.30    1.30
   4  -4   0   10.40    1.70
   4  -4   0    8.10    1.40
   4  -4   0    8.60    1.50
   4  -4   0    9.60    2.10
  -4   4   0    6.40    1.80
  -4   4   0   10.50    1.70
  -4   4   0    8.70    1.60
  -4   4   0    8.50    1.60
  -4   4   0    9.60    1.70
   3  -4   0  178.78    5.90
   3  -4   0  190.18    7.80
   3  -4   0  164.38    6.50
   3  -4   0  180.88    5.90
   3  -4   0  188.38    6.10
   3  -4   0  183.68    7.20
  -3   4   0  176.58    6.20
  -3   4   0  174.88    7.30
  -3   4   0  187.38    6.20
  -3   4   0  181.48    6.10
  -3   4   0  171.18    6.10
   2  -4   0  176.98    6.30
   2  -4   0  157.68    6.40
   2  -4   0  168.88    5.60
   2  -4   0  169.18    5.80
  -2   4   0  180.08    6.00
  -2   4   0  164.88    6.60
  -2   4   0  164.98    5.80
  -2   4   0  172.68    5.10
  -2   4   0  165.58    5.60
  -2   4   0  159.38    5.60
   1  -4   0  566.84   14.80
   1  -4   0  556.74   13.80
   1  -4   0  563.24   13.60
   1  -4   0  558.94   13.60
   1  -4   0  563.74   14.40
  -1   4   0  577.34   13.80
  -1   4   0  571.54   13.10
  -1   4   0  552.94   13.80
  -1   4   0  577.24   15.10
  -1   4   0  554.64   13.50
  -1   4   0  562.94   15.90
  -1   4   0  562.34   13.90
   0  -4   0   76.89    3.90
   0  -4   0   80.99    3.90
   0  -4   0   77.39    4.30
   0  -4   0   73.69    4.00
   0  -4   0   78.59    4.60
   0  -4   0   78.79    4.00
   0  -4   0   76.19    3.90
   0  -4   0   78.69    3.90
   0   4   0   77.99    4.30
   0   4   0   84.39    4.00
   0   4   0   83.49    3.90
   0   4   0   77.49    3.90
   0   4   0   72.49    3.90
   0   4   0   78.59    3.80
  -1  -4   0  407.86   11.90
  -1  -4   0  398.56   11.40
  -1  -4   0  406.66   11.60
  -1  -4   0  395.66   11.60
  -1  -4   0  403.06   12.00
  -1  -4   0  415.56   12.90
  -1  -4   0  403.26   11.60
  -1  -4   0  396.66   11.40
   1   4   0  398.96   11.50
   1   4   0  387.06   11.60
   1   4   0  412.76   11.70
   1   4   0  401.76   11.60
   1   4   0  396.76   11.20
   1   4   0  408.76   11.90
   1   4   0  433.76   11.80
  -2  -4   0   33.40    3.10
  -2  -4   0   35.90    3.10
  -2  -4   0   37.10    3.60
  -2  -4   0   37.40    3.30
  -2  -4   0   47.90    3.50
  -2  -4   0   42.10    3.40
  -2  -4   0   37.10    3.10
  -2  -4   0   37.30    3.10
   2   4   0   47.80    3.50
   2   4   0   43.60    3.30
   2   4   0   37.50    3.20
   2   4   0   41.30    3.40
   2   4   0   41.60    3.10
  -3  -4   0  430.96   13.60
  -3  -4   0  409.26   13.10
  -3  -4   0  443.56   13.60
  -3  -4   0  424.16   13.20
  -3  -4   0  448.46   14.60
  -3  -4   0  436.06   13.20
  -3  -4   0  418.86   13.70
  -3  -4   0  400.96   13.20
   3   4   0  436.96   13.20
   3   4   0  411.26   12.80
   3   4   0  425.56   13.10
   3   4   0  402.46   12.90
   3   4   0  433.06   13.50
   3   4   0  431.56   13.50
  -4  -4   0  311.37   12.10
  -4  -4   0  326.07   12.00
  -4  -4   0  315.97   11.90
  -4  -4   0  313.67   11.50
  -4  -4   0  342.17   12.10
  -4  -4   0  311.27   12.50
  -4  -4   0  293.37   11.40
  -4  -4   0  316.17   11.50
   4   4   0  319.37   11.80
   4   4   0  317.57   11.50
   4   4   0  353.96   11.70
   4   4   0  287.97   11.40
   4   4   0  324.57   11.80
   4   4   0  313.87   11.40
  -5  -4   0   46.70    4.60
  -5  -4   0   47.40    4.60
  -5  -4   0   56.59    4.90
  -5  -4   0   45.30    6.30
  -5  -4   0   45.40    4.60
  -5  -4   0   42.60    4.40
  -5  -4   0   54.99    5.20
  -5  -4   0   33.90    4.60
   5   4   0   45.10    4.70
   5   4   0   52.19    4.70
   5   4   0   43.40    5.20
   5   4   0   43.20    4.40
   5   4   0   52.19    4.60
   5   4   0   53.59    4.60
  -6  -4   0   64.69    5.90
  -6  -4   0   62.19    5.70
  -6  -4   0   52.69    7.00
  -6  -4   0   58.89    5.50
  -6  -4   0   55.19    5.60
  -6  -4   0   56.69    5.70
   6   4   0   55.49    5.20
   6   4   0   51.99    5.10
   6   4   0   45.90    6.60
   6   4   0   60.79    5.50
   6   4   0   60.89    5.40
   6   4   0   66.39    5.70
  -7  -4   0   48.30    6.10
  -7  -4   0   38.60    5.20
  -7  -4   0   43.40    6.40
  -7  -4   0   45.00    6.30
  -7  -4   0   46.30    6.00
  -7  -4   0   44.70    6.80
   7   4   0   35.20    5.00
   7   4   0   48.80    6.60
   7   4   0   42.40    5.80
   9  -5   0   21.40    3.60
   9  -5   0   25.70    5.70
  -9   5   0   20.80    4.80
  -9   5   0   20.00    3.60
  -9   5   0   18.30    3.10
  -9   5   0   19.40    3.60
  -9   5   0   19.50    3.80
   8  -5   0   -0.10    1.30
   8  -5   0    2.00    1.80
   8  -5   0    0.00    2.60
   8  -5   0    1.00    2.70
  -8   5   0    1.10    1.80
  -8   5   0    1.20    1.70
  -8   5   0   -0.10    1.40
  -8   5   0    0.00    1.20
  -8   5   0    4.70    1.90
   7  -5   0   -2.10    1.50
   7  -5   0    1.00    1.20
   7  -5   0    0.60    1.20
   7  -5   0   -0.70    1.10
  -7   5   0   -1.00    1.10
  -7   5   0    0.00    1.00
  -7   5   0    1.50    1.80
  -7   5   0    0.20    1.00
  -7   5   0    0.50    1.10
   6  -5   0  124.79    5.60
   6  -5   0  128.39    5.90
   6  -5   0  118.39    8.20
   6  -5   0  124.99    5.50
   6  -5   0  119.49    5.80
  -6   5   0  128.09    5.90
  -6   5   0  110.49    6.90
  -6   5   0  121.99    6.00
  -6   5   0  126.89    9.20
   5  -5   0    3.80    1.30
   5  -5   0    3.20    1.10
   5  -5   0    5.20    1.30
   5  -5   0    3.00    0.90
   5  -5   0    4.10    1.30
   5  -5   0    1.60    1.70
  -5   5   0    3.10    1.20
  -5   5   0    4.50    1.30
  -5   5   0    3.40    1.20
  -5   5   0    2.90    1.50
  -5   5   0    3.30    1.30
   4  -5   0    3.20    1.00
   4  -5   0    5.30    1.40
   4  -5   0    3.30    1.00
   4  -5   0    5.30    1.60
   4  -5   0    6.80    1.80
   4  -5   0    7.60    2.30
  -4   5   0    6.80    1.50
  -4   5   0    5.00    1.60
  -4   5   0    3.60    1.20
  -4   5   0    4.50    1.50
  -4   5   0    4.20    1.30
   3  -5   0  465.15   12.70
   3  -5   0  457.85   12.10
   3  -5   0  447.46   13.60
   3  -5   0  462.75   11.90
   3  -5   0  443.76   11.80
  -3   5   0  440.26    9.60
  -3   5   0  437.26   12.30
  -3   5   0  456.65   12.10
  -3   5   0  461.65   12.40
  -3   5   0  441.86   12.10
  -3   5   0  448.26   13.80
   2  -5   0  325.97    9.40
   2  -5   0  324.97    9.60
   2  -5   0  312.97   10.50
   2  -5   0  314.87    9.30
   2  -5   0  324.87   10.50
  -2   5   0  319.77    9.50
  -2   5   0  326.47    9.80
  -2   5   0  336.57   10.80
  -2   5   0  317.17    8.30
  -2   5   0  321.07   11.10
  -2   5   0  322.07    9.70
  -2   5   0  322.57    9.60
   1  -5   0   21.50    2.30
   1  -5   0   24.30    2.50
   1  -5   0   25.20    2.80
   1  -5   0   22.50    2.20
   1  -5   0   21.80    2.10
  -1   5   0   20.90    2.70
  -1   5   0   21.80    2.00
  -1   5   0   23.20    2.50
  -1   5   0   22.30    2.30
  -1   5   0   20.00    2.10
  -1   5   0   24.60    2.30
  -1   5   0   21.80    2.20
   0  -5   0   22.40    2.30
   0  -5   0   23.20    2.90
   0  -5   0   24.40    2.50
   0  -5   0   21.90    2.70
   0  -5   0   20.40    2.60
   0  -5   0   20.00    3.10
   0  -5   0   18.90    2.70
   0   5   0   22.50    2.20
   0   5   0   18.50    2.50
   0   5   0   20.00    2.70
   0   5   0   25.10    2.30
   0   5   0   24.00    2.60
   0   5   0   19.30    2.60
  -1  -5   0  157.48    7.00
  -1  -5   0  156.48    6.60
  -1  -5   0  160.98    7.10
  -1  -5   0  151.68    6.60
  -1  -5   0  159.58    6.90
  -1  -5   0  150.68    6.70
  -1  -5   0  158.28    7.30
  -1  -5   0  160.58    7.90
   1   5   0  159.48    6.90
   1   5   0  147.79    6.60
   1   5   0  158.88    7.00
   1   5   0  161.78    7.10
   1   5   0  150.58    6.40
   1   5   0  143.89    6.60
   1   5   0  166.68    6.90
  -2  -5   0  143.49    6.80
  -2  -5   0  130.19    6.70
  -2  -5   0  160.28    7.10
  -2  -5   0  127.79    7.50
  -2  -5   0  137.59    6.80
  -2  -5   0  148.09    6.80
  -2  -5   0  131.79    6.80
   2   5   0  131.99    6.70
   2   5   0  143.39    6.60
   2   5   0  136.29    6.90
   2   5   0  145.59    6.90
   2   5   0  141.89    6.70
   2   5   0  143.39    6.90
  -3  -5   0  113.49    6.40
  -3  -5   0  114.79    6.50
  -3  -5   0  115.79    6.40
  -3  -5   0  119.09    6.80
  -3  -5   0  124.29    6.90
  -3  -5   0  112.09    6.50
  -3  -5   0  111.19    6.70
   3   5   0  109.39    6.00
   3   5   0  108.49    6.30
   3   5   0  112.49    6.30
   3   5   0  124.69    6.60
   3   5   0  126.79    6.90
   3   5   0  114.89    6.30
  -4  -5   0  144.19    7.70
  -4  -5   0  146.49    8.70
  -4  -5   0  132.59    7.40
  -4  -5   0  139.69    7.80
  -4  -5   0  135.79    7.70
  -4  -5   0  143.89    8.00
  -4  -5   0  137.29    7.60
   4   5   0  137.59    7.40
   4   5   0  148.39    8.20
   4   5   0  136.89    7.40
   4   5   0  135.59    7.70
   4   5   0  133.39    7.30
   4   5   0  135.99    7.40
  -5  -5   0   12.50    3.00
  -5  -5   0   13.50    3.00
  -5  -5   0    5.40    2.50
  -5  -5   0   11.50    3.50
  -5  -5   0   10.10    2.80
  -5  -5   0   13.70    3.40
  -5  -5   0    8.40    2.90
   5   5   0   13.60    3.10
   5   5   0   15.90    3.30
   5   5   0   10.60    2.90
   5   5   0   10.00    2.80
   5   5   0   18.10    3.50
  -6  -5   0    2.80    2.10
  -6  -5   0    2.20    2.00
  -6  -5   0   -0.40    2.30
  -6  -5   0    0.00    1.50
  -6  -5   0   -0.10    1.60
  -6  -5   0    1.00    1.60
  -6  -5   0    6.50    2.70
   6   5   0    0.10    2.00
   6   5   0    0.70    1.90
   6   5   0    5.20    2.30
   6   5   0    3.80    2.40
   6   5   0    4.80    2.10
   6   5   0    0.10    2.20
  -7  -5   0    1.50    3.00
  -7  -5   0    5.00    2.60
  -7  -5   0    7.80    2.40
  -7  -5   0    6.80    3.60
  -7  -5   0    3.10    3.10
   7   5   0   11.50    3.30
   7   5   0   10.70    3.70
   7   5   0    4.90    3.00
   7   5   0    8.90    2.80
   9  -6   0   43.50    7.80
   9  -6   0   50.69    5.30
  -9   6   0   53.79    4.90
  -9   6   0   58.69    7.70
  -9   6   0   47.30    4.40
  -9   6   0   43.90    4.50
  -9   6   0   52.39    5.10
   8  -6   0   51.19    7.50
   8  -6   0   39.30    4.40
   8  -6   0   38.50    3.90
  -8   6   0   42.70    4.10
  -8   6   0   42.70    4.10
  -8   6   0   36.30    3.50
  -8   6   0   46.30    6.30
  -8   6   0   48.50    4.60
   7  -6   0   58.99    6.30
   7  -6   0   57.59    6.10
   7  -6   0   64.89    4.40
   7  -6   0   68.19    5.00
   7  -6   0   56.79    3.90
  -7   6   0   55.39    4.80
  -7   6   0   57.49    4.60
  -7   6   0   68.89    6.30
  -7   6   0   68.79    4.80
  -7   6   0   60.49    4.30
   6  -6   0   68.49    2.70
   6  -6   0   74.49    6.70
   6  -6   0   74.89    4.30
   6  -6   0   79.89    4.60
  -6   6   0   75.99    4.80
  -6   6   0   78.59    4.60
  -6   6   0   70.89    4.60
  -6   6   0   74.29    6.10
  -6   6   0   72.49    5.00
   5  -6   0   12.30    2.10
   5  -6   0   19.30    2.20
   5  -6   0   19.50    2.50
   5  -6   0   15.00    2.20
   5  -6   0   15.20    2.30
  -5   6   0   21.20    2.90
  -5   6   0   16.30    2.50
  -5   6   0   22.40    3.80
  -5   6   0   19.90    2.80
  -5   6   0   17.60    2.60
   4  -6   0   10.60    2.10
   4  -6   0   12.60    2.10
   4  -6   0   10.70    2.00
   4  -6   0   12.30    2.00
   4  -6   0    8.40    2.30
   4  -6   0   10.20    1.90
  -4   6   0   11.80    2.10
  -4   6   0   12.20    2.30
  -4   6   0   13.10    2.60
  -4   6   0   12.70    2.20
  -4   6   0    8.00    1.70
   3  -6   0   36.00    2.70
   3  -6   0   33.40    3.20
   3  -6   0   32.20    2.70
   3  -6   0   32.90    3.30
   3  -6   0   35.10    2.90
  -3   6   0   33.80    2.90
  -3   6   0   34.90    3.70
  -3   6   0   35.60    3.00
  -3   6   0   41.70    3.80
  -3   6   0   28.80    2.70
  -3   6   0   35.20    2.00
  -3   6   0   32.20    2.80
   2  -6   0    9.90    1.70
   2  -6   0   12.90    2.40
   2  -6   0   14.80    2.30
   2  -6   0   17.00    3.00
   2  -6   0   13.70    2.10
  -2   6   0   13.10    2.10
  -2   6   0   11.90    2.40
  -2   6   0   13.90    2.30
  -2   6   0   12.90    1.80
  -2   6   0   14.60    2.30
  -2   6   0   12.90    2.30
  -2   6   0   15.70    2.90
   1  -6   0  106.09    6.40
   1  -6   0  112.79    5.60
   1  -6   0  108.39    5.70
   1  -6   0  112.19    5.30
   1  -6   0  103.19    5.80
  -1   6   0  112.29    5.90
  -1   6   0  111.89    5.60
  -1   6   0   99.69    5.10
  -1   6   0  106.09    5.00
  -1   6   0  112.09    5.50
  -1   6   0  116.29    6.50
  -1   6   0  113.59    5.60
   0  -6   0    3.80    1.60
   0  -6   0    3.10    1.20
   0  -6   0    3.50    1.30
   0  -6   0    4.40    1.70
   0  -6   0    2.80    1.00
   0  -6   0    3.80    1.40
   0  -6   0    2.40    1.40
   0   6   0    2.70    1.10
   0   6   0    2.90    1.20
   0   6   0    1.30    1.10
   0   6   0    2.70    1.10
   0   6   0    2.40    1.10
   0   6   0    2.30    1.10
   0   6   0    2.20    1.10
  -1  -6   0  359.36   13.70
  -1  -6   0  341.67   12.00
  -1  -6   0  349.47   11.70
  -1  -6   0  345.27   12.00
  -1  -6   0  349.57   12.60
  -1  -6   0  341.17   11.50
  -1  -6   0  342.27   11.70
   1   6   0  349.27   11.50
   1   6   0  348.27   11.70
   1   6   0  349.07   11.90
   1   6   0  330.37   11.50
   1   6   0  340.67   12.00
   1   6   0  350.06   12.00
   1   6   0  340.27   12.20
  -2  -6   0    3.10    1.30
  -2  -6   0    1.10    1.50
  -2  -6   0    0.60    1.20
  -2  -6   0   -2.30    1.10
  -2  -6   0    0.90    1.20
  -2  -6   0    0.80    1.10
  -2  -6   0   -1.10    0.80
   2   6   0    0.00    1.00
   2   6   0   -0.70    1.10
   2   6   0    1.60    1.20
   2   6   0    1.70    1.40
   2   6   0    0.10    1.20
   2   6   0    0.60    1.20
  -3  -6   0   63.49    5.20
  -3  -6   0   58.59    5.10
  -3  -6   0   66.09    5.20
  -3  -6   0   67.49    5.20
  -3  -6   0   61.99    5.10
  -3  -6   0   66.69    5.40
  -3  -6   0   66.79    6.20
   3   6   0   66.79    5.10
   3   6   0   62.39    5.00
   3   6   0   74.99    5.50
   3   6   0   72.29    5.10
   3   6   0   61.69    5.20
   3   6   0   70.69    5.60
   3   6   0   71.89    5.60
  -4  -6   0  203.78    9.90
  -4  -6   0  198.88    9.70
  -4  -6   0  203.28    9.80
  -4  -6   0  202.38   10.10
  -4  -6   0  200.38   10.20
  -4  -6   0  207.78   11.40
  -4  -6   0  206.38   10.30
   4   6   0  209.78   10.00
   4   6   0  217.78   10.70
   4   6   0  203.68    9.70
   4   6   0  202.08    9.50
   4   6   0  194.98    9.90
   4   6   0  183.68    9.40
  -5  -6   0    9.30    3.20
  -5  -6   0    7.30    2.80
  -5  -6   0    8.70    3.10
  -5  -6   0    7.60    2.20
  -5  -6   0   15.40    4.20
  -5  -6   0    6.00    3.00
   5   6   0   12.80    3.60
   5   6   0    8.60    2.90
   5   6   0   13.30    3.00
   5   6   0    7.50    2.60
   5   6   0    9.50    2.60
   5   6   0    7.00    3.30
   5   6   0   13.40    3.30
  -6  -6   0    7.40    3.00
  -6  -6   0    9.60    3.30
  -6  -6   0    6.50    3.00
  -6  -6   0   12.20    3.70
  -6  -6   0   10.70    3.60
   6   6   0    6.20    2.80
   6   6   0   13.10    3.60
   6   6   0    9.80    3.40
   6   6   0    8.90    3.10
   6   6   0    3.90    2.70
   8  -7   0    5.40    2.10
   8  -7   0    8.00    3.40
   8  -7   0    5.90    2.00
  -8   7   0    4.60    1.90
  -8   7   0    9.30    2.50
  -8   7   0    6.90    2.20
   7  -7   0   46.00    3.70
   7  -7   0   52.09    7.40
   7  -7   0   47.50    3.90
   7  -7   0   48.40    4.10
  -7   7   0   46.10    4.00
  -7   7   0   46.70    6.50
  -7   7   0   44.90    4.00
  -7   7   0   57.89    4.80
  -7   7   0   46.90    4.30
   6  -7   0   71.09    4.30
   6  -7   0   66.19    3.70
   6  -7   0   72.79    4.40
  -6   7   0   66.29    6.20
  -6   7   0   59.59    4.50
  -6   7   0   61.69    4.50
  -6   7   0   68.09    5.00
  -6   7   0   65.19    4.50
   5  -7   0    2.60    1.20
   5  -7   0    0.60    1.20
   5  -7   0    1.40    1.40
   5  -7   0    1.70    1.10
   5  -7   0    2.50    1.10
  -5   7   0    3.20    1.50
  -5   7   0    1.80    1.10
  -5   7   0    1.90    1.30
  -5   7   0    0.80    1.40
  -5   7   0    2.20    1.90
   4  -7   0   12.40    2.10
   4  -7   0   11.90    2.20
   4  -7   0   11.10    2.90
   4  -7   0   14.70    2.90
   4  -7   0   12.60    2.00
   4  -7   0   13.50    2.30
  -4   7   0    8.50    2.40
  -4   7   0   13.00    2.30
  -4   7   0   11.90    3.10
  -4   7   0    9.80    2.20
  -4   7   0   13.00    1.20
  -4   7   0   12.10    2.50
  -4   7   0   10.90    2.20
   3  -7   0  388.06   11.70
   3  -7   0  410.76   13.90
   3  -7   0  358.06   11.30
   3  -7   0  386.16   12.00
   3  -7   0  389.96   13.40
  -3   7   0  394.76   12.40
  -3   7   0  371.46    9.90
  -3   7   0  385.96   11.90
  -3   7   0  377.56   12.00
  -3   7   0  401.36   13.90
  -3   7   0  385.76   12.40
  -3   7   0  350.66   13.80
   2  -7   0   15.30    2.60
   2  -7   0   11.30    2.30
   2  -7   0   15.30    3.20
   2  -7   0   19.60    3.30
  -2   7   0   22.50    3.50
  -2   7   0   17.20    2.80
  -2   7   0   15.00    3.10
  -2   7   0   18.00    2.40
  -2   7   0   17.70    2.70
  -2   7   0   11.60    2.80
  -2   7   0   15.10    2.50
   1  -7   0    2.90    1.50
   1  -7   0    2.10    1.30
   1  -7   0    3.80    1.40
   1  -7   0    2.60    1.50
   1  -7   0    2.60    1.50
   1  -7   0    1.60    1.70
  -1   7   0    2.40    1.40
  -1   7   0    0.70    1.30
  -1   7   0    3.50    1.80
  -1   7   0    2.80    1.30
  -1   7   0    3.80    1.50
  -1   7   0    2.70    1.40
  -1   7   0    2.80    1.40
   0  -7   0  203.78    9.00
   0  -7   0  206.38    8.60
   0  -7   0  215.88   10.60
   0  -7   0  217.98    9.30
   0  -7   0  208.28    8.80
   0  -7   0  203.48    9.70
   0  -7   0  218.18    9.00
   0   7   0  221.08    9.10
   0   7   0  203.78    8.50
   0   7   0  210.08    9.20
   0   7   0  211.18    9.70
   0   7   0  215.48    9.30
   0   7   0  208.18    8.60
   0   7   0  211.28    9.00
  -1  -7   0   -0.40    1.40
  -1  -7   0    1.30    1.60
  -1  -7   0   -0.40    1.40
  -1  -7   0   -0.60    1.50
  -1  -7   0   -1.70    1.10
  -1  -7   0    0.20    0.90
  -1  -7   0    1.10    1.60
   1   7   0   -0.10    1.20
   1   7   0    0.50    1.30
   1   7   0    1.00    1.20
   1   7   0    0.10    1.10
   1   7   0   -0.60    1.20
   1   7   0    0.00    1.30
   1   7   0   -2.60    1.10
  -2  -7   0   -0.50    1.90
  -2  -7   0    2.50    1.50
  -2  -7   0    0.90    1.50
  -2  -7   0    2.80    1.40
  -2  -7   0    1.30    1.70
  -2  -7   0    0.80    1.40
  -2  -7   0    3.80    2.10
   2   7   0    3.80    1.80
   2   7   0    3.90    1.70
   2   7   0    1.60    1.60
   2   7   0    1.70    1.40
   2   7   0    1.20    1.80
   2   7   0    0.20    1.00
  -3  -7   0  218.48   10.80
  -3  -7   0  180.88   11.10
  -3  -7   0  242.08   11.00
  -3  -7   0  204.08    9.80
  -3  -7   0  198.88    9.90
  -3  -7   0  200.18    9.80
  -3  -7   0  199.98   10.30
   3   7   0  194.78   10.00
   3   7   0  203.58    9.80
   3   7   0  206.18   10.40
   3   7   0  205.18   10.00
   3   7   0  215.38    9.80
   3   7   0  196.48   10.30
   3   7   0  219.98   10.40
  -4  -7   0  192.78   11.90
  -4  -7   0  203.68   10.60
  -4  -7   0  213.48   11.10
  -4  -7   0  207.88   10.50
  -4  -7   0  213.68   10.90
   4   7   0  174.68    9.70
   4   7   0  217.68   10.90
   4   7   0  199.78   10.90
   4   7   0  186.68   10.30
   4   7   0  227.08   10.90
   4   7   0  222.38   10.70
  -5  -7   0   44.20    6.20
  -5  -7   0   52.69    6.80
  -5  -7   0   48.70    7.20
  -5  -7   0   37.40    5.70
  -5  -7   0   45.90    7.10
  -5  -7   0   32.00    5.30
   5   7   0   38.30    6.20
   5   7   0   38.90    5.50
   5   7   0   36.50    5.30
   5   7   0   42.70    6.00
   5   7   0   44.10    6.40
   5   7   0   50.59    5.30
  -6  -7   0   51.29    6.80
  -6  -7   0   51.59    7.00
  -6  -7   0   50.49    7.00
  -6  -7   0   48.70    7.60
   6   7   0   44.40    6.70
   6   7   0   44.40    6.60
   6   7   0   62.39    8.40
   6   7   0   59.99    6.20
  -8   8   0   26.60    3.80
  -8   8   0   30.90    4.30
  -8   8   0   31.00    4.10
  -8   8   0   28.60    5.60
   7  -8   0   10.80    2.30
   7  -8   0    7.80    2.60
   7  -8   0   11.00    2.60
  -7   8   0   11.20    3.90
  -7   8   0   12.40    2.80
  -7   8   0   11.50    2.60
  -7   8   0   17.50    2.90
  -7   8   0    4.30    2.20
   6  -8   0   63.19    4.40
   6  -8   0   66.39    4.40
   6  -8   0   65.49    4.30
   6  -8   0   70.09    4.50
  -6   8   0   61.19    6.20
  -6   8   0   59.69    4.60
  -6   8   0   68.09    5.00
  -6   8   0   59.99    4.60
  -6   8   0   64.89    5.10
   5  -8   0   19.70    3.00
   5  -8   0   16.90    2.80
   5  -8   0   21.10    3.50
  -5   8   0   18.10    2.90
  -5   8   0   17.20    2.80
  -5   8   0   20.80    3.30
  -5   8   0   18.30    2.90
  -5   8   0   13.60    3.70
  -5   8   0   22.50    4.00
   4  -8   0  117.99    5.80
   4  -8   0  113.99    5.80
   4  -8   0  107.29    6.80
  -4   8   0  109.39    3.80
  -4   8   0  114.69    6.30
  -4   8   0  125.19    6.30
  -4   8   0  128.09    8.00
  -4   8   0  109.59    7.70
  -4   8   0  124.89    6.60
  -4   8   0  110.59    6.30
   3  -8   0   65.59    4.70
   3  -8   0   71.59    5.60
   3  -8   0   71.29    6.60
  -3   8   0   59.29    5.80
  -3   8   0   68.79    3.70
  -3   8   0   70.99    4.70
  -3   8   0   63.39    5.50
  -3   8   0   66.79    4.70
  -3   8   0   66.19    4.90
  -3   8   0   65.89    4.80
   2  -8   0   12.30    2.90
   2  -8   0   12.10    2.50
   2  -8   0   11.40    2.60
   2  -8   0    9.10    2.90
  -2   8   0   10.00    2.70
  -2   8   0   13.10    3.00
  -2   8   0    9.20    2.10
  -2   8   0   12.10    2.10
  -2   8   0    9.10    2.50
  -2   8   0   12.70    2.60
  -2   8   0   15.80    2.90
   1  -8   0   14.40    2.90
   1  -8   0   14.20    2.70
   1  -8   0   16.30    3.20
   1  -8   0   18.70    3.10
   1  -8   0   16.60    3.80
  -1   8   0   14.30    4.00
  -1   8   0   15.40    3.10
  -1   8   0   20.80    3.60
  -1   8   0   19.70    3.00
  -1   8   0   16.90    3.10
  -1   8   0   18.20    3.70
   0  -8   0   54.39    4.80
   0  -8   0   39.60    4.10
   0  -8   0   49.30    4.50
   0  -8   0   48.60    5.50
   0  -8   0   49.40    4.20
   0   8   0   44.30    4.50
   0   8   0   48.90    4.90
   0   8   0   50.69    4.70
   0   8   0   39.90    4.10
   0   8   0   52.19    4.50
   0   8   0   39.40    4.10
  -1  -8   0  153.38    8.10
  -1  -8   0  138.69    8.10
  -1  -8   0  154.58    8.30
  -1  -8   0  149.09    8.90
  -1  -8   0  133.29    7.80
  -1  -8   0  148.99    9.80
  -1  -8   0  149.99    8.30
   1   8   0  159.28    8.00
   1   8   0  150.98    8.60
   1   8   0  143.29    8.30
   1   8   0  144.29    8.00
   1   8   0  133.79    7.80
   1   8   0  152.68    8.30
   1   8   0  128.29    7.70
  -2  -8   0   44.60    5.40
  -2  -8   0   44.60    5.40
  -2  -8   0   34.40    4.90
  -2  -8   0   40.30    6.40
  -2  -8   0   36.50    6.10
  -2  -8   0   42.10    4.20
   2   8   0   35.40    5.00
   2   8   0   36.90    5.40
   2   8   0   40.90    5.00
   2   8   0   40.60    5.30
   2   8   0   46.90    4.80
   2   8   0   46.20    4.70
  -3  -8   0   19.40    5.10
  -3  -8   0   14.70    4.00
  -3  -8   0   15.90    3.60
  -3  -8   0   17.20    3.90
  -3  -8   0   15.10    3.90
   3   8   0   11.30    3.10
   3   8   0   15.80    3.70
   3   8   0   17.70    3.70
   3   8   0    9.70    3.10
   3   8   0   20.30    4.30
   3   8   0   11.10    3.60
   3   8   0   17.10    3.50
  -4  -8   0    5.00    2.40
  -4  -8   0    9.70    2.70
  -4  -8   0    6.90    3.30
  -4  -8   0   11.30    3.40
  -4  -8   0    2.40    3.20
   4   8   0   10.00    3.30
   4   8   0   10.60    3.00
   4   8   0    6.10    2.30
   4   8   0    8.30    3.50
   4   8   0    7.20    2.70
   4   8   0    6.40    2.60
  -5  -8   0   -0.80    2.20
  -5  -8   0   -0.80    2.70
  -5  -8   0   -1.00    2.70
   5   8   0   -4.60    2.50
   5   8   0    1.80    2.50
   5   8   0    3.70    3.90
   5   8   0   -0.70    2.10
   7  -9   0   44.70    6.60
   7  -9   0   77.09    5.20
  -7   9   0   60.29    4.80
  -7   9   0   71.79    7.10
  -7   9   0   63.49    5.00
  -7   9   0   71.69    5.60
   6  -9   0   -0.40    1.80
   6  -9   0   -1.60    1.50
   6  -9   0    1.00    1.70
  -6   9   0   -3.10    1.60
  -6   9   0    2.00    1.60
  -6   9   0    2.90    1.70
  -6   9   0    0.20    1.60
  -6   9   0    1.00    2.00
  -6   9   0    1.30    1.80
   5  -9   0   -1.30    1.80
   5  -9   0    0.50    1.40
   5  -9   0    0.90    1.40
   5  -9   0    0.40    1.30
   5  -9   0   -1.20    1.60
   5  -9   0   -1.90    1.60
  -5   9   0    0.10    1.70
  -5   9   0   -0.50    1.30
  -5   9   0    0.20    1.30
  -5   9   0   -1.50    1.20
  -5   9   0   -1.40    1.70
  -5   9   0    2.40    1.50
   4  -9   0    0.00    1.60
   4  -9   0    0.70    1.70
   4  -9   0    3.00    1.90
   4  -9   0    2.80    1.70
  -4   9   0    1.50    1.70
  -4   9   0    1.20    1.40
  -4   9   0    3.50    1.60
  -4   9   0    1.30    1.90
  -4   9   0    0.40    1.30
  -4   9   0   -1.70    1.80
  -4   9   0    1.30    0.80
   3  -9   0   15.90    2.90
   3  -9   0   12.80    3.40
   3  -9   0   13.60    2.80
  -3   9   0   14.80    3.30
  -3   9   0   14.30    2.90
  -3   9   0   18.30    3.30
  -3   9   0   11.60    3.30
  -3   9   0   16.80    3.00
  -3   9   0   10.20    2.60
  -3   9   0   13.60    2.20
   2  -9   0    0.30    1.60
   2  -9   0   -0.60    1.50
   2  -9   0   -0.30    1.40
   2  -9   0   -0.60    1.30
  -2   9   0    0.00    1.80
  -2   9   0   -3.20    1.10
  -2   9   0   -0.40    1.40
  -2   9   0   -0.40    1.20
  -2   9   0   -2.10    1.40
  -2   9   0   -1.20    1.20
  -2   9   0    0.40    1.60
   1  -9   0   60.69    5.10
   1  -9   0   68.59    6.70
   1  -9   0   65.89    5.00
   1  -9   0   63.89    5.30
  -1   9   0   64.29    5.60
  -1   9   0   63.49    5.10
  -1   9   0   60.59    5.20
  -1   9   0   64.79    5.90
  -1   9   0   58.89    5.20
  -1   9   0   79.69    5.50
  -1   9   0   73.89    6.20
   0  -9   0  369.86   15.70
   0  -9   0  343.87   13.30
   0  -9   0  335.87   15.90
   0  -9   0  346.37   13.10
   0   9   0  356.96   13.90
   0   9   0  344.27   13.90
   0   9   0  324.77   12.80
   0   9   0  353.86   14.10
   0   9   0  351.86   13.50
   0   9   0  346.67   13.00
   0   9   0  359.06   14.70
  -1  -9   0   32.50    5.00
  -1  -9   0   33.10    4.70
  -1  -9   0   32.00    4.90
  -1  -9   0   35.50    5.50
  -1  -9   0   30.40    4.60
  -1  -9   0   32.80    5.90
   1   9   0   27.10    4.50
   1   9   0   23.50    4.70
   1   9   0   26.50    4.10
   1   9   0   21.60    3.70
   1   9   0   34.40    4.80
  -2  -9   0   22.70    5.40
  -2  -9   0   29.80    5.00
  -2  -9   0   34.00    4.70
  -2  -9   0   26.00    4.50
  -2  -9   0   36.70    5.60
   2   9   0   29.90    4.90
   2   9   0   37.80    5.20
   2   9   0   32.30    4.70
   2   9   0   30.80    5.40
   2   9   0   31.20    4.90
   2   9   0   23.90    4.30
  -3  -9   0   25.00    4.50
  -3  -9   0   25.10    6.00
  -3  -9   0   35.80    5.40
  -3  -9   0   36.00    5.30
   3   9   0   29.70    5.20
   3   9   0   24.60    4.20
   3   9   0   29.70    5.00
   3   9   0   31.10    5.30
   3   9   0   27.00    4.50
   3   9   0   26.70    4.90
  -4  -9   0   99.89    8.50
  -4  -9   0   89.29    9.50
  -4  -9   0  110.69    9.00
   4   9   0   96.19    7.50
   4   9   0  109.29    8.20
   4   9   0  103.99    9.20
   4   9   0  115.09    8.50
   4   9   0   84.39    7.70
   4   9   0  109.39    8.20
   6 -10   0  113.39    7.90
  -6  10   0  120.39    7.50
  -6  10   0  122.79    7.50
  -6  10   0  122.19    9.60
  -6  10   0  113.79    6.80
  -6  10   0  131.69    9.50
  -6  10   0  113.99    7.00
   5 -10   0   -1.60    1.50
  -5  10   0    1.40    1.70
  -5  10   0    0.90    2.40
  -5  10   0    1.80    1.60
  -5  10   0    0.40    1.80
  -5  10   0   -0.70    1.40
  -5  10   0    1.00    2.90
   4 -10   0   23.70    4.60
   4 -10   0   18.30    3.30
   4 -10   0   23.50    3.50
  -4  10   0   24.10    4.70
  -4  10   0   21.00    4.50
  -4  10   0   23.60    3.60
  -4  10   0   22.90    3.50
  -4  10   0   19.90    3.60
  -4  10   0   17.30    4.20
   3 -10   0  385.66   15.00
   3 -10   0  401.06   16.90
   3 -10   0  393.86   15.80
  -3  10   0  379.76   14.10
  -3  10   0  371.96   14.60
  -3  10   0  397.76   14.00
  -3  10   0  367.36   15.60
  -3  10   0  397.26   14.50
  -3  10   0  395.06   16.80
   2 -10   0   77.69    5.80
   2 -10   0   79.09    6.60
   2 -10   0   73.09    7.30
  -2  10   0   68.79    5.10
  -2  10   0   76.29    6.20
  -2  10   0   65.29    5.30
  -2  10   0   69.99    5.70
  -2  10   0   73.99    6.60
  -2  10   0   71.49    6.50
  -2  10   0   72.09    6.20
   1 -10   0   20.80    3.70
   1 -10   0   25.10    5.40
   1 -10   0   16.90    3.80
   1 -10   0   21.90    3.80
  -1  10   0   19.60    4.50
  -1  10   0   22.50    3.80
  -1  10   0   26.80    4.50
  -1  10   0   22.10    4.30
  -1  10   0   16.80    3.10
  -1  10   0   21.90    3.90
  -1  10   0   26.00    3.80
   0 -10   0   -1.30    1.50
   0 -10   0    2.70    2.50
   0 -10   0    2.40    2.50
   0 -10   0   -1.10    2.30
   0  10   0   -0.10    1.90
   0  10   0    0.60    1.40
   0  10   0    0.40    2.10
   0  10   0    2.40    2.60
   0  10   0    1.00    1.90
   0  10   0    2.80    2.80
   0  10   0   -0.20    1.90
  -1 -10   0   34.00    5.40
  -1 -10   0   35.20    5.80
  -1 -10   0   33.30    6.50
  -1 -10   0   35.00    5.20
   1  10   0   29.70    4.50
   1  10   0   34.10    5.60
   1  10   0   28.10    5.10
   1  10   0   23.00    4.20
   1  10   0   25.20    4.60
  -2 -10   0   16.10    5.10
  -2 -10   0   19.90    4.50
  -2 -10   0   17.50    4.10
   2  10   0   14.00    3.70
   2  10   0   12.60    4.30
   2  10   0    9.50    2.80
   4 -11   0   -0.40    2.30
   4 -11   0    1.00    2.50
   4 -11   0    1.60    2.30
  -4  11   0    1.50    1.40
  -4  11   0    0.50    2.00
  -4  11   0    4.70    2.00
  -4  11   0    1.30    2.80
  -4  11   0    0.70    2.70
  -4  11   0    2.20    2.80
  -4  11   0   11.40    3.60
   3 -11   0   44.80    5.40
   3 -11   0   56.29    7.90
  -3  11   0   74.79    7.20
  -3  11   0   61.29    4.70
  -3  11   0   71.39    5.90
  -3  11   0   58.79    6.00
  -3  11   0   66.39    5.60
  -3  11   0   67.99    6.20
  -3  11   0   53.49    6.80
   2 -11   0  271.37   15.10
  -2  11   0  279.67   14.30
  -2  11   0  278.87   13.70
  -2  11   0  259.27   12.70
  -2  11   0  274.07   11.90
  -2  11   0  257.97   10.80
  -2  11   0  289.07   12.50
   1 -11   0  155.78    9.50
   1 -11   0  181.38   12.50
  -1  11   0  151.98    9.40
  -1  11   0  181.28   10.60
  -1  11   0  166.98    9.50
  -1  11   0  167.18    8.80
  -1  11   0  183.68   10.00
  -1  11   0  164.08   10.80
  -1  11   0  164.48   10.40
   0 -11   0   -1.40    2.40
   0 -11   0    0.20    2.60
   0 -11   0    2.40    3.00
   0  11   0    7.00    3.50
   0  11   0    6.10    3.20
   0  11   0    4.10    2.60
   0  11   0    3.20    2.60
   0  11   0    2.80    3.30
   0  11   0    6.90    3.30
   0  11  -1   29.00    4.30
   0  11  -1   19.10    3.50
   0  11  -1   33.00    5.50
   0  11  -1   29.60    5.10
   0  11  -1   37.60    5.70
   0  11  -1   28.90    5.20
   0 -11   1   34.40    6.90
  -1  11  -1   28.50    4.20
  -1  11  -1   29.10    5.10
  -1  11  -1   25.00    4.40
  -1  11  -1   18.80    3.50
  -1  11  -1   26.70    4.80
  -1  11  -1   35.70    5.40
   1 -11   1   20.70    5.30
  -2  11  -1   16.90    3.20
  -2  11  -1   15.60    3.20
  -2  11  -1   10.70    3.10
  -2  11  -1   22.10    4.00
  -2  11  -1   16.10    3.10
  -2  11  -1   17.60    3.80
  -2  11  -1   12.50    3.60
   2 -11   1   13.80    4.30
   2 -11   1   19.50    3.60
  -3  11  -1    2.20    2.30
  -3  11  -1    0.50    1.70
  -3  11  -1    0.60    1.70
  -3  11  -1   -0.90    1.30
  -3  11  -1   -1.20    2.20
  -3  11  -1   -0.10    2.00
   3 -11   1   -1.10    2.10
   3 -11   1   -0.60    2.00
   3 -11   1    0.60    2.10
  -4  11  -1    9.70    2.40
  -4  11  -1    6.50    3.70
  -4  11  -1    5.80    1.60
  -4  11  -1    9.90    3.30
  -4  11  -1    8.50    3.00
  -4  11  -1    9.10    2.60
  -4  11  -1    9.50    3.10
   4 -11   1    8.40    2.80
   4 -11   1    2.30    2.30
   4 -11   1    9.70    3.60
   2  10  -1    3.00    2.80
   2  10  -1    9.20    3.40
   2  10  -1    5.40    3.60
  -2 -10   1    2.70    3.20
  -2 -10   1    1.90    2.90
  -2 -10   1    4.10    2.80
  -2 -10   1    4.10    2.90
   1  10  -1  145.29    9.10
   1  10  -1  152.48    9.80
   1  10  -1  156.18    9.00
   1  10  -1  150.18    8.60
   1  10  -1  165.58   10.20
   1  10  -1  159.88    9.70
  -1 -10   1  169.58    9.70
  -1 -10   1  153.28   11.50
  -1 -10   1  171.98    9.10
  -1 -10   1  159.78    9.40
   0  10  -1   13.60    3.00
   0  10  -1   15.20    3.30
   0  10  -1   22.80    4.10
   0  10  -1   11.80    3.40
   0  10  -1   18.00    3.90
   0  10  -1   16.30    3.60
   0 -10   1   17.30    3.30
   0 -10   1   18.80    5.30
   0 -10   1   15.10    3.50
  -1  10  -1    2.20    1.80
  -1  10  -1    3.70    2.30
  -1  10  -1    2.00    2.50
  -1  10  -1   -3.00    1.60
  -1  10  -1    1.50    1.60
  -1  10  -1    1.60    1.50
  -1  10  -1    7.30    2.40
   1 -10   1    3.50    2.30
   1 -10   1    2.80    2.60
  -2  10  -1   16.20    3.10
  -2  10  -1   17.50    3.20
  -2  10  -1   19.30    3.10
  -2  10  -1   16.90    3.30
  -2  10  -1   14.10    3.10
  -2  10  -1   13.00    3.50
  -2  10  -1   15.50    3.90
   2 -10   1   16.40    3.50
   2 -10   1   13.20    4.20
   2 -10   1   29.20    5.60
  -3  10  -1    1.60    1.60
  -3  10  -1    0.10    2.00
  -3  10  -1   -1.40    1.70
  -3  10  -1   -0.80    1.30
  -3  10  -1    2.50    2.10
  -3  10  -1   -0.10    1.70
  -3  10  -1    1.90    1.60
   3 -10   1   -2.30    2.20
   3 -10   1   -0.80    1.50
   3 -10   1    3.20    1.80
   3 -10   1    1.20    2.10
  -4  10  -1   10.60    2.50
  -4  10  -1    2.90    1.80
  -4  10  -1    5.40    1.90
  -4  10  -1    6.20    3.20
  -4  10  -1    5.70    2.80
  -4  10  -1    6.10    1.40
  -4  10  -1    8.00    2.80
   4 -10   1    8.70    3.20
   4 -10   1   10.20    2.40
   4 -10   1    4.30    2.70
   4 -10   1    5.80    1.90
  -5  10  -1   51.59    5.00
  -5  10  -1   55.59    4.70
  -5  10  -1   57.19    7.00
  -5  10  -1   47.50    4.80
  -5  10  -1   64.09    5.00
   5 -10   1   62.99    5.90
   5 -10   1   42.80    4.30
  -6  10  -1  192.68   12.20
  -6  10  -1  180.68   13.30
  -6  10  -1  199.08    9.30
  -6  10  -1  185.68    8.40
  -6  10  -1  220.88    9.60
  -6  10  -1  197.38    8.80
   6 -10   1  200.48   10.00
   4   9  -1   -0.70    2.10
   4   9  -1   -1.90    1.40
   4   9  -1    1.20    2.10
   4   9  -1    2.40    2.30
   4   9  -1    0.70    3.10
  -4  -9   1    3.40    2.50
  -4  -9   1    1.80    2.60
   3   9  -1    2.30    1.80
   3   9  -1   -1.60    1.80
   3   9  -1    4.20    2.20
   3   9  -1   -2.50    1.90
   3   9  -1   -1.40    2.60
   3   9  -1    0.70    1.80
  -3  -9   1    0.90    2.40
  -3  -9   1    1.10    1.80
  -3  -9   1    0.40    2.30
  -3  -9   1    0.70    2.70
   2   9  -1    9.50    3.30
   2   9  -1    7.50    3.20
   2   9  -1    6.20    2.30
   2   9  -1   13.00    3.20
   2   9  -1    5.00    2.60
   2   9  -1    4.80    2.20
  -2  -9   1    5.30    2.90
  -2  -9   1    6.50    2.70
  -2  -9   1    5.20    3.50
  -2  -9   1    6.80    2.40
   1   9  -1  283.17   11.40
   1   9  -1  271.17   12.30
   1   9  -1  266.47   12.60
   1   9  -1  265.07   11.60
   1   9  -1  267.17   12.00
   1   9  -1  290.17   12.20
   1   9  -1  270.07   11.60
  -1  -9   1  267.47   11.60
  -1  -9   1  262.77   12.00
  -1  -9   1  297.47   12.20
  -1  -9   1  266.37   14.30
  -1  -9   1  260.17   11.60
  -1  -9   1  286.17   11.60
  -1  -9   1  262.17   13.10
   0   9  -1  239.08   11.00
   0   9  -1  235.78    9.90
   0   9  -1  232.38   10.30
   0   9  -1  226.78   10.50
   0   9  -1  247.28   10.50
   0   9  -1  229.58   11.60
   0  -9   1  228.58    9.90
   0  -9   1  229.38   10.60
   0  -9   1  234.88   10.30
   0  -9   1  242.38   10.50
   0  -9   1  236.68   13.00
  -1   9  -1  321.57   12.60
  -1   9  -1  330.17   12.50
  -1   9  -1  326.37   12.20
  -1   9  -1  303.37   11.50
  -1   9  -1  323.77   15.00
  -1   9  -1  329.67   14.10
  -1   9  -1  317.27   11.70
   1  -9   1  327.17   12.50
   1  -9   1  346.37   15.40
   1  -9   1  353.86   13.50
   1  -9   1  318.77   11.90
  -2   9  -1    2.60    1.80
  -2   9  -1    2.70    1.60
  -2   9  -1   -1.00    1.30
  -2   9  -1    3.20    1.70
  -2   9  -1    0.80    1.20
  -2   9  -1    2.40    2.00
  -2   9  -1    0.50    1.30
   2  -9   1    4.40    2.60
   2  -9   1   -1.00    1.50
   2  -9   1    2.10    1.50
  -3   9  -1  141.59    8.40
  -3   9  -1  127.99    6.60
  -3   9  -1  140.29    7.20
  -3   9  -1  131.89    7.00
  -3   9  -1  136.29    8.90
  -3   9  -1  131.39    5.90
  -3   9  -1  126.29    7.10
   3  -9   1  141.39    6.50
   3  -9   1  131.89    6.60
   3  -9   1  138.49    6.50
   3  -9   1  126.79    8.40
  -4   9  -1    4.90    1.60
  -4   9  -1    7.50    2.70
  -4   9  -1    7.20    2.00
  -4   9  -1    5.80    1.20
  -4   9  -1    4.10    1.50
  -4   9  -1    8.00    2.70
  -4   9  -1    7.20    2.10
   4  -9   1    7.10    2.60
   4  -9   1    6.10    2.70
   4  -9   1    4.40    1.60
   4  -9   1    8.40    2.00
   4  -9   1    7.80    1.80
  -5   9  -1   -0.60    1.30
  -5   9  -1    3.20    2.20
  -5   9  -1    3.00    1.60
  -5   9  -1    2.70    2.00
  -5   9  -1   -1.30    1.60
  -5   9  -1    0.80    1.30
   5  -9   1    4.60    1.50
   5  -9   1    4.80    2.30
   5  -9   1    1.20    1.50
  -6   9  -1   99.19    5.80
  -6   9  -1   93.69    5.50
  -6   9  -1   80.19    7.40
  -6   9  -1  102.39    6.10
  -6   9  -1   84.09    7.70
  -6   9  -1   93.09    5.80
   6  -9   1   90.89    6.00
   6  -9   1   93.39    4.60
  -7   9  -1   51.89    4.50
  -7   9  -1   54.89    7.40
  -7   9  -1   42.00    4.00
  -7   9  -1   44.20    4.10
  -7   9  -1   55.29    7.30
   5   8  -1    0.30    2.00
   5   8  -1    3.40    2.50
   5   8  -1    5.60    3.80
   5   8  -1   -0.30    1.70
   5   8  -1    5.60    2.90
  -5  -8   1    1.50    2.70
  -5  -8   1    3.90    3.20
  -5  -8   1    1.70    2.80
   4   8  -1   62.19    5.90
   4   8  -1   64.99    6.00
   4   8  -1   58.39    5.50
   4   8  -1   56.89    7.00
   4   8  -1   63.79    5.90
   4   8  -1   51.19    6.50
  -4  -8   1   52.99    5.60
  -4  -8   1   60.79    7.20
  -4  -8   1   63.59    6.30
  -4  -8   1   66.79    6.20
   3   8  -1   12.90    3.20
   3   8  -1   12.40    3.10
   3   8  -1   13.70    3.20
   3   8  -1   16.60    3.60
   3   8  -1   11.60    3.60
   3   8  -1   10.70    2.90
   3   8  -1   16.50    3.30
  -3  -8   1   11.20    2.80
  -3  -8   1   13.00    3.10
  -3  -8   1   10.60    4.10
  -3  -8   1    6.70    3.50
  -3  -8   1   14.30    3.60
  -3  -8   1   13.90    3.30
  -3  -8   1   14.50    3.40
   2   8  -1    1.50    1.10
   2   8  -1    1.50    1.50
   2   8  -1    0.50    1.20
   2   8  -1   -1.30    1.20
   2   8  -1    0.60    1.90
   2   8  -1   -2.30    1.70
  -2  -8   1    0.00    1.20
  -2  -8   1    6.30    2.20
  -2  -8   1   -1.60    1.40
  -2  -8   1   -2.60    1.70
  -2  -8   1    0.80    1.80
   1   8  -1   61.49    5.20
   1   8  -1   49.30    4.70
   1   8  -1   48.20    4.90
   1   8  -1   58.29    5.20
   1   8  -1   53.89    4.60
   1   8  -1   55.59    4.90
   1   8  -1   59.49    4.70
  -1  -8   1   58.29    4.90
  -1  -8   1   53.39    5.60
  -1  -8   1   47.80    5.60
  -1  -8   1   54.99    5.20
  -1  -8   1   59.89    4.80
  -1  -8   1   49.99    4.70
   0   8  -1   54.89    4.70
   0   8  -1   61.79    4.80
   0   8  -1   53.19    5.10
   0   8  -1   66.59    5.20
   0   8  -1   59.89    4.60
   0   8  -1   64.39    5.10
   0   8  -1   46.10    4.20
   0  -8   1   66.89    5.10
   0  -8   1   52.09    4.40
   0  -8   1   60.59    4.60
   0  -8   1   73.09    6.60
   0  -8   1   61.59    4.90
  -1   8  -1   24.20    3.70
  -1   8  -1   22.90    3.30
  -1   8  -1   23.80    4.30
  -1   8  -1   13.60    3.10
  -1   8  -1   16.40    2.80
  -1   8  -1   18.80    3.20
  -1   8  -1   17.80    2.90
   1  -8   1   19.80    3.90
   1  -8   1   19.50    3.30
   1  -8   1   22.90    3.30
   1  -8   1   21.00    3.20
  -2   8  -1    3.00    1.70
  -2   8  -1    6.40    1.80
  -2   8  -1    5.50    1.50
  -2   8  -1    1.70    1.50
  -2   8  -1    5.00    1.60
  -2   8  -1    2.50    1.80
  -2   8  -1    2.90    1.30
   2  -8   1    1.20    1.50
   2  -8   1    5.00    2.40
   2  -8   1    3.90    1.90
   2  -8   1    3.30    1.30
   2  -8   1    4.60    1.60
  -3   8  -1    0.40    1.20
  -3   8  -1   -1.20    0.80
  -3   8  -1    2.30    1.90
  -3   8  -1   -0.80    1.00
  -3   8  -1    1.60    1.00
  -3   8  -1   -0.80    0.90
  -3   8  -1   -2.40    1.20
   3  -8   1    0.10    1.10
   3  -8   1    1.10    1.20
   3  -8   1    1.80    1.10
   3  -8   1    0.00    1.70
   3  -8   1   -0.90    1.10
   3  -8   1    0.00    1.00
  -4   8  -1  192.88    8.00
  -4   8  -1  194.58    5.60
  -4   8  -1  192.78   10.50
  -4   8  -1  196.68    8.20
  -4   8  -1  197.48    9.90
  -4   8  -1  197.18    7.80
  -4   8  -1  183.18    7.90
   4  -8   1  205.18    9.80
   4  -8   1  203.58    7.50
   4  -8   1  182.08    9.10
  -5   8  -1  245.48   11.60
  -5   8  -1  218.48   11.70
  -5   8  -1  233.58    8.90
  -5   8  -1  231.68    9.10
  -5   8  -1  238.88    9.20
  -5   8  -1  242.38    9.00
   5  -8   1  232.38    7.90
   5  -8   1  247.58   10.20
  -6   8  -1  184.88    8.20
  -6   8  -1  180.28   10.50
  -6   8  -1  191.38    7.90
  -6   8  -1  179.58    7.90
   6  -8   1  193.08    6.70
   6  -8   1  176.28    7.70
  -7   8  -1   11.60    2.50
  -7   8  -1   14.90    2.40
  -7   8  -1   11.40    2.50
  -7   8  -1   12.00    3.80
  -7   8  -1   12.70    2.80
   7  -8   1   12.90    2.00
   7  -8   1   14.20    1.90
   7  -8   1   13.50    2.00
   6   7  -1   -0.60    2.50
   6   7  -1    3.90    2.80
   6   7  -1    4.20    2.90
   6   7  -1    5.20    2.60
  -6  -7   1    1.50    2.10
  -6  -7   1    1.50    2.70
  -6  -7   1   -0.80    2.90
  -6  -7   1    4.50    2.80
   5   7  -1    9.70    3.00
   5   7  -1    5.60    2.00
   5   7  -1    2.10    2.20
   5   7  -1    4.50    2.70
   5   7  -1    2.50    2.00
   5   7  -1    3.90    3.20
  -5  -7   1    5.00    2.20
  -5  -7   1    6.30    2.40
  -5  -7   1    7.90    3.00
  -5  -7   1    4.00    3.20
  -5  -7   1    5.00    2.60
   4   7  -1   96.79    7.00
   4   7  -1  100.29    7.20
   4   7  -1   85.99    6.50
   4   7  -1   89.39    6.70
   4   7  -1   98.79    6.90
   4   7  -1   99.19    7.50
   4   7  -1   96.79    7.20
  -4  -7   1   99.29    6.90
  -4  -7   1   85.69    6.80
  -4  -7   1   93.89    6.70
  -4  -7   1   97.39    6.90
  -4  -7   1   95.19    7.20
  -4  -7   1   85.89    7.80
   3   7  -1  116.09    7.30
   3   7  -1  124.29    7.90
   3   7  -1  125.09    7.20
   3   7  -1  112.59    7.10
   3   7  -1  124.79    7.60
   3   7  -1  127.79    7.20
   3   7  -1  112.79    7.30
  -3  -7   1  122.29    7.50
  -3  -7   1  117.89    7.80
  -3  -7   1  115.29    8.60
  -3  -7   1  117.99    7.40
  -3  -7   1  104.89    6.80
  -3  -7   1  124.29    7.20
  -3  -7   1  123.19    7.60
   2   7  -1   64.19    5.20
   2   7  -1   55.99    4.90
   2   7  -1   63.79    5.30
   2   7  -1   47.00    4.40
   2   7  -1   54.79    5.00
   2   7  -1   56.89    4.60
  -2  -7   1   47.60    4.40
  -2  -7   1   51.09    4.60
  -2  -7   1   58.49    4.50
  -2  -7   1   46.50    4.30
  -2  -7   1   50.49    4.50
  -2  -7   1   49.40    4.80
  -2  -7   1   48.20    5.60
   1   7  -1  519.45   15.50
   1   7  -1  490.75   16.30
   1   7  -1  467.75   15.30
   1   7  -1  515.65   15.80
   1   7  -1  481.15   15.70
   1   7  -1  504.75   15.50
   1   7  -1  512.05   15.10
  -1  -7   1  504.65   15.50
  -1  -7   1  485.85   14.90
  -1  -7   1  502.25   18.10
  -1  -7   1  496.45   15.40
  -1  -7   1  489.35   16.70
  -1  -7   1  484.55   15.60
  -1  -7   1  479.25   15.10
   0   7  -1   25.20    3.20
   0   7  -1   21.60    3.20
   0   7  -1   23.90    3.30
   0   7  -1   28.70    3.50
   0   7  -1   25.20    3.40
   0   7  -1   22.90    3.70
   0   7  -1   28.70    3.60
   0  -7   1   23.30    3.30
   0  -7   1   26.30    4.50
   0  -7   1   19.50    3.50
   0  -7   1   18.40    2.90
   0  -7   1   28.80    3.50
   0  -7   1   23.10    3.40
  -1   7  -1  216.38   10.00
  -1   7  -1  228.18    8.70
  -1   7  -1  235.18    8.50
  -1   7  -1  239.38    8.60
  -1   7  -1  209.38    8.40
  -1   7  -1  237.68    9.50
   1  -7   1  214.58   10.60
   1  -7   1  236.78   10.70
   1  -7   1  228.08    8.40
   1  -7   1  232.98    8.50
   1  -7   1  239.58    8.90
  -2   7  -1  235.58    8.40
  -2   7  -1  227.58    7.80
  -2   7  -1  233.78    8.80
  -2   7  -1  246.18    8.80
  -2   7  -1  244.28    9.80
  -2   7  -1  230.58    8.60
  -2   7  -1  223.58   10.30
   2  -7   1  241.08    9.80
   2  -7   1  236.28    8.50
   2  -7   1  249.97    8.50
   2  -7   1  228.58    8.10
   2  -7   1  239.18   10.40
  -3   7  -1   13.40    2.20
  -3   7  -1   17.10    2.60
  -3   7  -1   16.60    3.10
  -3   7  -1   15.90    2.30
  -3   7  -1   14.30    2.20
  -3   7  -1   16.00    1.90
  -3   7  -1   11.40    2.60
   3  -7   1   10.60    1.90
   3  -7   1   12.60    2.20
   3  -7   1   15.10    2.90
   3  -7   1    9.90    2.60
  -4   7  -1   29.70    4.70
  -4   7  -1   25.40    2.60
  -4   7  -1   24.80    2.50
  -4   7  -1   30.00    2.90
  -4   7  -1   24.30    4.00
  -4   7  -1   24.80    2.60
  -4   7  -1   23.90    1.40
   4  -7   1   22.10    2.30
   4  -7   1   21.70    2.50
   4  -7   1   22.60    2.20
   4  -7   1   26.90    3.60
   4  -7   1   26.40    3.70
   4  -7   1   20.30    2.10
  -5   7  -1    2.20    1.30
  -5   7  -1    0.60    1.90
  -5   7  -1    0.90    1.10
  -5   7  -1    0.70    1.20
  -5   7  -1    2.40    1.30
   5  -7   1    0.60    1.00
   5  -7   1    2.50    1.10
   5  -7   1    0.10    0.80
   5  -7   1    1.40    1.40
   5  -7   1    1.30    1.10
  -6   7  -1   18.20    2.60
  -6   7  -1   17.00    2.80
  -6   7  -1   16.30    2.60
  -6   7  -1   16.50    2.60
  -6   7  -1   23.70    4.60
   6  -7   1   17.40    2.50
   6  -7   1   17.10    2.30
   6  -7   1   19.50    2.30
  -7   7  -1    9.90    2.40
  -7   7  -1   14.10    2.70
  -7   7  -1   15.50    3.80
  -7   7  -1   13.80    2.50
   7  -7   1   13.00    4.10
   7  -7   1    9.80    1.90
   7  -7   1   10.90    1.90
   7  -7   1   13.00    2.10
   7  -7   1   14.50    2.10
  -8   7  -1    7.00    2.10
  -8   7  -1   15.00    3.00
  -8   7  -1    6.80    2.10
  -8   7  -1   15.10    4.10
  -8   7  -1    8.10    2.70
   8  -7   1    9.20    2.20
   8  -7   1    6.60    2.20
   8  -7   1    5.20    3.10
   7   6  -1   33.50    5.70
   7   6  -1   30.70    5.00
   7   6  -1   39.70    6.10
   7   6  -1   28.00    4.50
  -7  -6   1   31.20    5.60
  -7  -6   1   28.70    4.90
  -7  -6   1   42.00    6.70
  -7  -6   1   37.10    6.10
   6   6  -1   14.80    3.60
   6   6  -1   14.10    4.10
   6   6  -1   15.70    4.00
   6   6  -1   16.00    4.00
  -6  -6   1   12.20    3.70
  -6  -6   1    4.40    3.30
  -6  -6   1   20.00    4.80
  -6  -6   1   16.60    3.20
  -6  -6   1   13.10    3.80
  -6  -6   1   12.50    3.40
   5   6  -1   10.30    2.80
   5   6  -1   11.30    2.70
   5   6  -1   12.20    3.00
   5   6  -1   15.40    3.50
   5   6  -1    7.50    2.70
   5   6  -1   13.40    3.20
  -5  -6   1   11.40    3.20
  -5  -6   1   13.80    3.50
  -5  -6   1   13.10    3.50
  -5  -6   1    6.10    2.80
  -5  -6   1   10.90    2.80
  -5  -6   1   12.90    3.10
   4   6  -1  148.09    8.00
   4   6  -1  149.29    7.90
   4   6  -1  142.59    7.80
   4   6  -1  140.29    7.90
   4   6  -1  150.18    8.70
  -4  -6   1  145.79    9.30
  -4  -6   1  143.39    8.10
  -4  -6   1  132.79    8.20
  -4  -6   1  145.99    8.40
  -4  -6   1  140.29    7.70
  -4  -6   1  130.29    7.90
  -4  -6   1  148.69    8.00
   3   6  -1    3.40    1.60
   3   6  -1    2.70    1.60
   3   6  -1    4.10    1.80
   3   6  -1    5.00    2.00
   3   6  -1    6.40    2.00
  -3  -6   1    2.50    1.80
  -3  -6   1    3.40    2.30
  -3  -6   1    6.30    1.90
  -3  -6   1    5.50    1.90
  -3  -6   1    4.90    1.70
  -3  -6   1    3.80    2.00
  -3  -6   1    3.40    1.70
   2   6  -1   -0.40    1.10
   2   6  -1    1.20    1.20
   2   6  -1    1.00    1.00
   2   6  -1    2.40    1.20
   2   6  -1    2.50    1.30
   2   6  -1    0.70    1.50
  -2  -6   1   -2.00    1.00
  -2  -6   1   -0.60    1.20
  -2  -6   1    0.80    1.60
  -2  -6   1    2.00    1.30
  -2  -6   1    2.20    1.20
  -2  -6   1    0.90    1.30
  -2  -6   1    1.00    1.10
   1   6  -1  174.38    7.60
   1   6  -1  174.98    8.10
   1   6  -1  165.38    7.30
   1   6  -1  172.18    8.90
   1   6  -1  153.88    6.90
   1   6  -1  173.68    7.70
   1   6  -1  164.78    7.30
  -1  -6   1  174.18    7.40
  -1  -6   1  156.08    8.50
  -1  -6   1  170.18    7.40
  -1  -6   1  164.98    7.50
  -1  -6   1  168.18    7.30
  -1  -6   1  185.28    7.50
  -1  -6   1  167.38    8.20
   0   6  -1  193.98    7.60
   0   6  -1  189.98    7.60
   0   6  -1  205.88    8.00
   0   6  -1  195.08    7.40
   0   6  -1  192.78    8.60
   0   6  -1  178.08    7.40
   0   6  -1  194.68    7.80
   0  -6   1  197.88    7.90
   0  -6   1  187.78    9.00
   0  -6   1  192.88    7.50
   0  -6   1  194.78    7.50
   0  -6   1  200.28    7.50
   0  -6   1  205.48    7.90
   0  -6   1  194.58    8.70
  -1   6  -1   45.50    3.20
  -1   6  -1   47.50    3.30
  -1   6  -1   50.19    3.40
  -1   6  -1   44.40    3.30
  -1   6  -1   43.80    3.80
  -1   6  -1   48.30    3.40
  -1   6  -1   51.09    3.80
   1  -6   1   46.10    3.20
   1  -6   1   45.90    3.30
   1  -6   1   38.90    3.40
   1  -6   1   46.20    4.10
  -2   6  -1    0.20    0.70
  -2   6  -1    0.60    0.80
  -2   6  -1   -0.30    0.60
  -2   6  -1    0.20    0.90
  -2   6  -1   -0.60    0.50
  -2   6  -1    0.30    0.70
  -2   6  -1    0.00    1.10
   2  -6   1    0.90    0.70
   2  -6   1    2.30    1.40
   2  -6   1   -1.30    0.90
  -3   6  -1  111.89    5.00
  -3   6  -1  106.69    4.80
  -3   6  -1  116.99    4.00
  -3   6  -1  110.19    6.20
  -3   6  -1  107.69    5.00
  -3   6  -1  106.49    6.50
  -3   6  -1  100.89    4.90
   3  -6   1  107.69    5.90
   3  -6   1  114.79    4.60
   3  -6   1  111.09    4.60
   3  -6   1  111.49    4.70
   3  -6   1  106.19    4.50
   3  -6   1  108.49    6.20
  -4   6  -1    4.00    1.20
  -4   6  -1    2.50    0.40
  -4   6  -1    2.50    0.40
  -4   6  -1    2.00    1.00
  -4   6  -1    3.80    1.20
  -4   6  -1    1.80    1.10
  -4   6  -1    0.40    1.10
   4  -6   1    4.00    1.50
   4  -6   1    2.00    0.90
   4  -6   1    2.50    0.90
   4  -6   1    2.70    0.90
   4  -6   1    1.10    0.80
  -5   6  -1   68.19    4.20
  -5   6  -1   65.59    3.90
  -5   6  -1   66.69    4.00
  -5   6  -1   62.79    4.00
  -5   6  -1   67.49    5.50
   5  -6   1   60.69    3.40
   5  -6   1   65.79    3.50
   5  -6   1   59.39    5.70
   5  -6   1   62.69    3.50
   5  -6   1   62.69    3.30
   5  -6   1   66.39    4.00
  -6   6  -1    9.80    2.30
  -6   6  -1    8.10    2.10
  -6   6  -1    9.10    1.80
  -6   6  -1   14.80    3.50
  -6   6  -1   15.10    2.40
   6  -6   1   12.80    2.00
   6  -6   1   10.50    1.80
   6  -6   1    9.70    3.10
   6  -6   1   10.50    1.70
  -7   6  -1    9.10    2.10
  -7   6  -1    9.10    2.20
  -7   6  -1   12.40    3.40
  -7   6  -1   10.20    2.10
  -7   6  -1   10.00    2.10
   7  -6   1   12.00    2.10
   7  -6   1    6.70    3.10
   7  -6   1   12.20    2.00
   7  -6   1    9.70    1.90
  -8   6  -1    3.30    2.80
  -8   6  -1    3.10    1.70
  -8   6  -1    0.00    1.60
  -8   6  -1   -1.90    1.40
  -8   6  -1   -1.00    1.50
   8  -6   1    1.10    1.90
   8  -6   1   -1.70    1.60
   8  -6   1    1.80    1.80
   8  -6   1    0.60    1.70
   7   5  -1  165.98   10.30
   7   5  -1  165.38   10.10
   7   5  -1  163.68    9.60
   7   5  -1  169.58   10.40
  -7  -5   1  187.78   10.50
  -7  -5   1  180.18   11.00
  -7  -5   1  166.08   10.70
  -7  -5   1  143.29   10.90
  -7  -5   1  179.98   10.50
  -7  -5   1  168.18   10.30
   6   5  -1  139.69    8.70
   6   5  -1  136.49    8.40
   6   5  -1  140.59    9.00
   6   5  -1  142.09    8.60
   6   5  -1  132.09    8.20
   6   5  -1  126.19    8.30
  -6  -5   1  147.99    9.50
  -6  -5   1  141.19    8.50
  -6  -5   1  141.99    9.10
  -6  -5   1  141.29    9.00
  -6  -5   1  130.99    8.40
  -6  -5   1  139.49    9.00
   5   5  -1  476.45   16.00
   5   5  -1  470.35   16.10
   5   5  -1  465.95   16.40
   5   5  -1  433.06   15.30
   5   5  -1  482.65   16.30
  -5  -5   1  445.36   15.60
  -5  -5   1  467.95   16.50
  -5  -5   1  452.65   17.30
  -5  -5   1  476.95   16.10
  -5  -5   1  437.46   15.60
  -5  -5   1  458.55   16.40
  -5  -5   1  468.15   16.40
   4   5  -1    4.10    1.50
   4   5  -1    6.70    2.30
   4   5  -1    7.20    2.40
   4   5  -1    6.40    2.20
   4   5  -1    3.40    1.60
   4   5  -1    4.60    1.80
  -4  -5   1    7.40    2.50
  -4  -5   1    6.70    1.90
  -4  -5   1    6.00    2.00
  -4  -5   1    8.50    2.80
  -4  -5   1    5.90    2.10
  -4  -5   1    5.70    2.30
  -4  -5   1    6.60    2.20
   3   5  -1   38.90    3.50
   3   5  -1   44.90    3.70
   3   5  -1   44.60    3.80
   3   5  -1   39.60    3.70
   3   5  -1   39.90    3.70
   3   5  -1   47.40    4.00
  -3  -5   1   37.50    3.70
  -3  -5   1   39.10    3.60
  -3  -5   1   38.60    3.60
  -3  -5   1   38.00    4.20
  -3  -5   1   46.30    4.20
  -3  -5   1   45.60    4.50
  -3  -5   1   42.60    3.90
   2   5  -1  489.25   14.60
   2   5  -1  495.95   13.90
   2   5  -1  475.25   14.00
  -2  -5   1  486.45   13.90
  -2  -5   1  476.15   14.00
  -2  -5   1  467.05   14.40
  -2  -5   1  479.55   14.50
  -2  -5   1  487.25   16.00
  -2  -5   1  463.25   13.80
   1   5  -1   72.09    4.20
   1   5  -1   70.09    4.30
   1   5  -1   70.59    4.10
   1   5  -1   68.69    4.50
   1   5  -1   79.69    4.40
   1   5  -1   65.59    4.30
   1   5  -1   77.39    4.40
  -1  -5   1   65.29    3.90
  -1  -5   1   65.09    4.10
  -1  -5   1   72.79    4.80
  -1  -5   1   83.99    4.70
  -1  -5   1   75.89    4.30
  -1  -5   1   73.39    4.20
  -1  -5   1   69.39    5.00
   0   5  -1  201.68    7.00
   0   5  -1  220.78    7.70
   0   5  -1  200.88    8.20
   0   5  -1  209.88    7.40
   0   5  -1  213.38    7.40
   0   5  -1  213.48    7.50
   0  -5   1  220.48    7.60
   0  -5   1  196.38    8.60
   0  -5   1  211.98    7.30
   0  -5   1  214.68    7.30
   0  -5   1  213.98    7.50
   0  -5   1  209.38    8.40
   0  -5   1  195.28    7.00
  -1   5  -1  471.15   14.10
  -1   5  -1  460.15   12.10
  -1   5  -1  484.25   12.30
  -1   5  -1  481.25   12.60
  -1   5  -1  469.95   12.40
  -1   5  -1  487.45   12.50
  -1   5  -1  468.85   13.10
   1  -5   1  500.15   13.40
   1  -5   1  465.45   12.10
   1  -5   1  468.45   12.40
   1  -5   1  475.95   14.20
  -2   5  -1 1633.94   34.70
  -2   5  -1 1661.43   34.80
  -2   5  -1 1726.13   36.70
  -2   5  -1 1689.73   37.60
  -2   5  -1 1704.23   33.90
  -2   5  -1 1640.84   34.40
  -2   5  -1 1665.43   34.60
   2  -5   1 1712.23   34.60
   2  -5   1 1639.94   34.20
   2  -5   1 1684.23   34.20
   2  -5   1 1648.44   34.10
   2  -5   1 1711.43   36.80
   2  -5   1 1691.13   36.50
  -3   5  -1  548.75   13.60
  -3   5  -1  533.85   13.20
  -3   5  -1  526.45   13.40
  -3   5  -1  538.65   11.80
  -3   5  -1  527.75   15.50
  -3   5  -1  536.85   13.20
   3  -5   1  542.05   14.60
   3  -5   1  539.45   12.80
   3  -5   1  530.95   12.80
   3  -5   1  550.14   12.80
   3  -5   1  553.64   15.40
   3  -5   1  531.25   12.70
  -4   5  -1  124.39    5.30
  -4   5  -1  131.89    2.90
  -4   5  -1  127.89    5.20
  -4   5  -1  126.79    5.10
  -4   5  -1  123.09    2.80
  -4   5  -1  126.09    6.80
  -4   5  -1  132.99    5.20
   4  -5   1  130.69    4.80
   4  -5   1  130.79    4.70
   4  -5   1  125.39    4.80
   4  -5   1  129.49    4.80
   4  -5   1  127.79    7.30
   4  -5   1  122.99    5.40
  -5   5  -1   29.00    2.80
  -5   5  -1   31.50    2.60
  -5   5  -1   31.50    2.60
  -5   5  -1   33.70    2.80
  -5   5  -1   28.50    4.10
   5  -5   1   26.80    4.40
   5  -5   1   35.00    2.40
   5  -5   1   32.20    2.50
   5  -5   1   34.50    2.40
   5  -5   1   30.50    2.40
  -6   5  -1   79.09    4.30
  -6   5  -1   81.29    4.70
  -6   5  -1   75.19    6.10
  -6   5  -1   81.39    4.60
   6  -5   1   80.09    4.00
   6  -5   1   84.39    4.10
   6  -5   1   81.09    4.20
   6  -5   1   83.79    4.40
   6  -5   1   74.99    6.60
  -7   5  -1   -0.10    1.00
  -7   5  -1   -0.30    1.30
  -7   5  -1    0.80    1.20
  -7   5  -1    0.00    1.20
  -7   5  -1    2.10    1.00
   7  -5   1   -1.00    1.80
   7  -5   1    1.50    1.30
   7  -5   1    1.10    1.10
   7  -5   1    1.40    1.40
  -8   5  -1   17.70    2.90
  -8   5  -1   16.70    2.90
  -8   5  -1   16.40    3.60
  -8   5  -1   27.90    4.10
  -8   5  -1   20.00    2.90
   8  -5   1   27.50    3.40
   8  -5   1   25.00    5.40
   8  -5   1   19.80    3.00
   8  -5   1   22.50    3.10
  -9   5  -1   27.50    4.00
  -9   5  -1   27.30    5.10
  -9   5  -1   24.80    4.10
  -9   5  -1   29.10    4.10
  -9   5  -1   25.70    3.70
   9  -5   1   23.70    5.90
   9  -5   1   31.50    4.20
   8   4  -1  156.68   10.20
   8   4  -1  177.58   11.20
   8   4  -1  147.89    9.80
  -8  -4   1  151.38   10.40
  -8  -4   1  147.19    9.60
  -8  -4   1  161.38   10.20
  -8  -4   1  150.88   10.40
  -8  -4   1  158.48    9.90
   7   4  -1  638.44   21.80
   7   4  -1  678.83   22.60
   7   4  -1  702.83   22.80
   7   4  -1  659.53   21.70
   7   4  -1  703.33   22.40
   7   4  -1  698.63   22.50
   7   4  -1  660.53   21.50
  -7  -4   1  684.33   22.90
  -7  -4   1  682.23   22.40
  -7  -4   1  704.33   22.60
  -7  -4   1  685.43   22.20
  -7  -4   1  708.23   22.10
  -7  -4   1  664.43   22.60
   6   4  -1   50.99    4.90
   6   4  -1   51.69    5.40
   6   4  -1   50.79    5.00
   6   4  -1   47.80    4.90
   6   4  -1   58.19    5.40
   6   4  -1   49.40    4.80
  -6  -4   1   47.10    5.00
  -6  -4   1   50.59    4.90
  -6  -4   1   49.60    5.10
  -6  -4   1   44.70    4.90
  -6  -4   1   52.79    5.40
  -6  -4   1   43.20    4.50
   5   4  -1  179.98    8.90
   5   4  -1  189.78    9.10
   5   4  -1  182.38    8.90
   5   4  -1  202.48    9.20
   5   4  -1  200.98    8.90
   5   4  -1  192.58    9.50
   5   4  -1  170.68    8.70
  -5  -4   1  189.78    8.90
  -5  -4   1  190.48    9.00
  -5  -4   1  183.08    8.80
  -5  -4   1  198.68    9.50
  -5  -4   1  192.98    9.30
  -5  -4   1  195.88    9.20
   4   4  -1  107.19    6.20
   4   4  -1  118.79    6.30
   4   4  -1  112.19    6.50
   4   4  -1  123.49    6.80
   4   4  -1  104.69    6.30
   4   4  -1  120.29    6.50
   4   4  -1  116.99    6.10
  -4  -4   1  117.29    6.60
  -4  -4   1  123.09    6.80
  -4  -4   1  101.99    6.90
  -4  -4   1  104.79    6.00
  -4  -4   1  123.59    6.50
  -4  -4   1  121.59    7.20
   3   4  -1   96.59    5.10
   3   4  -1   98.59    5.40
   3   4  -1  102.59    5.50
   3   4  -1  103.89    5.30
   3   4  -1   95.59    5.40
   3   4  -1  101.09    5.70
  -3  -4   1   99.89    6.40
  -3  -4   1   96.79    5.50
  -3  -4   1   85.39    5.00
  -3  -4   1   84.59    5.20
  -3  -4   1   95.79    6.00
  -3  -4   1   94.29    5.50
  -3  -4   1   97.09    5.20
   2   4  -1  314.37   10.40
   2   4  -1  320.27   10.40
   2   4  -1  320.87   10.20
   2   4  -1  322.67   10.10
   2   4  -1  323.77   10.40
  -2  -4   1  324.37   10.30
  -2  -4   1  320.67    9.80
  -2  -4   1  315.47    9.90
  -2  -4   1  311.07   10.20
  -2  -4   1  303.87   10.50
  -2  -4   1  311.77   11.20
  -2  -4   1  298.57    9.70
   1   4  -1  484.65   12.40
   1   4  -1  451.05   12.10
   1   4  -1  474.45   12.50
   1   4  -1  457.15   13.10
   1   4  -1  467.65   12.90
  -1  -4   1  480.85   12.50
  -1  -4   1  478.05   12.70
  -1  -4   1  472.25   12.30
  -1  -4   1  472.15   12.50
  -1  -4   1  468.55   12.60
  -1  -4   1  480.15   14.20
  -1  -4   1  462.35   13.30
   0   4  -1 1556.34   31.50
   0   4  -1 1527.45   31.30
   0   4  -1 1517.65   31.40
   0   4  -1 1507.25   31.10
   0   4  -1 1464.45   32.40
   0   4  -1 1518.25   30.80
   0   4  -1 1438.16   30.90
   0  -4   1 1535.85   33.20
   0  -4   1 1480.65   32.10
   0  -4   1 1456.45   32.50
   0  -4   1 1474.15   31.10
   0  -4   1 1451.15   30.90
   0  -4   1 1448.36   30.80
  -1   4  -1    8.40    1.30
  -1   4  -1   10.90    1.50
  -1   4  -1   10.30    1.50
  -1   4  -1    8.60    1.80
  -1   4  -1    8.90    1.60
  -1   4  -1    8.20    1.30
  -1   4  -1    8.30    1.30
   1  -4   1    9.10    1.30
   1  -4   1   10.50    1.70
   1  -4   1   11.80    1.50
   1  -4   1   10.00    1.90
  -2   4  -1  424.66   10.30
  -2   4  -1  437.86   10.40
  -2   4  -1  422.46   11.90
  -2   4  -1  425.76   10.40
  -2   4  -1  418.06   10.40
   2  -4   1  421.96   10.00
   2  -4   1  389.06   10.60
   2  -4   1  427.66   11.70
   2  -4   1  419.66   10.00
   2  -4   1  422.26   10.20
   2  -4   1  446.96   12.00
  -3   4  -1   81.39    2.60
  -3   4  -1   82.89    3.50
  -3   4  -1   83.89    4.70
  -3   4  -1   83.89    3.60
  -3   4  -1   86.49    3.70
  -3   4  -1   75.39    3.40
   3  -4   1   79.49    4.90
   3  -4   1   77.69    3.20
   3  -4   1   85.19    4.00
   3  -4   1   80.99    3.30
   3  -4   1   84.99    3.20
   3  -4   1   80.59    3.20
  -4   4  -1   93.09    5.40
  -4   4  -1   91.39    4.20
  -4   4  -1   89.29    3.90
  -4   4  -1   85.69    3.90
  -4   4  -1   87.79    3.90
  -4   4  -1   85.19    2.50
   4  -4   1   83.69    3.70
   4  -4   1   81.59    3.70
   4  -4   1   87.39    3.70
   4  -4   1   84.99    3.60
   4  -4   1   86.09    5.60
   4  -4   1   90.09    3.60
  -5   4  -1    7.70    1.60
  -5   4  -1    5.20    0.70
  -5   4  -1    7.90    1.60
  -5   4  -1    7.80    1.60
  -5   4  -1    3.40    1.40
  -5   4  -1    6.00    1.50
   5  -4   1    7.30    1.30
   5  -4   1    5.00    1.30
   5  -4   1    7.00    1.50
   5  -4   1    6.50    1.30
  -6   4  -1    1.00    1.00
  -6   4  -1    3.30    1.40
  -6   4  -1    0.80    1.80
  -6   4  -1    3.10    1.60
  -6   4  -1    1.60    1.00
   6  -4   1    1.90    1.20
   6  -4   1    2.50    2.10
   6  -4   1    2.20    0.90
   6  -4   1    2.10    1.30
   6  -4   1    1.20    0.90
  -7   4  -1   24.90    3.20
  -7   4  -1   18.60    3.70
  -7   4  -1   15.30    2.90
  -7   4  -1   26.30    3.10
  -7   4  -1   23.80    3.40
   7  -4   1   18.50    4.50
   7  -4   1   14.70    3.90
   7  -4   1   15.20    2.50
  -8   4  -1   16.70    3.10
  -8   4  -1   10.70    2.50
  -8   4  -1   15.90    2.90
  -8   4  -1   16.90    2.90
  -8   4  -1   13.50    3.60
  -8   4  -1   11.40    3.10
   8  -4   1   11.50    4.40
   8  -4   1   14.00    2.40
   8  -4   1   18.10    3.10
  -9   4  -1   -0.20    2.40
  -9   4  -1    5.00    2.10
  -9   4  -1    3.50    2.20
  -9   4  -1    3.50    2.40
  -9   4  -1    3.90    2.10
   9  -4   1    1.10    2.30
   9  -4   1   -2.50    2.10
   9  -4   1    1.70    2.70
   8   3  -1   26.50    4.90
   8   3  -1   27.30    5.20
   8   3  -1   26.20    5.20
  -8  -3   1   28.60    4.70
  -8  -3   1   22.50    4.70
  -8  -3   1   22.80    4.40
  -8  -3   1   25.50    4.50
  -8  -3   1   26.20    4.50
   7   3  -1   -0.20    1.90
   7   3  -1    1.30    1.40
   7   3  -1    1.70    1.70
   7   3  -1    1.30    1.80
   7   3  -1    4.80    2.60
  -7  -3   1    4.80    2.00
  -7  -3   1    1.60    1.90
  -7  -3   1    1.90    1.90
  -7  -3   1    2.20    1.90
  -7  -3   1    5.10    2.10
   6   3  -1  119.09    7.20
   6   3  -1  126.19    7.50
   6   3  -1  119.39    7.10
   6   3  -1  108.49    7.10
   6   3  -1  129.09    7.60
   6   3  -1  118.79    7.20
   6   3  -1  113.89    6.70
  -6  -3   1  127.29    7.60
  -6  -3   1  109.29    7.00
  -6  -3   1  112.49    6.90
  -6  -3   1  105.49    6.90
  -6  -3   1  124.89    7.70
  -6  -3   1  115.19    6.90
   5   3  -1  329.57   11.60
   5   3  -1  321.07   11.80
   5   3  -1  322.17   12.00
   5   3  -1  335.07   12.20
   5   3  -1  329.77   11.90
   5   3  -1  304.77   11.60
   5   3  -1  323.37   11.80
  -5  -3   1  298.67   11.30
  -5  -3   1  293.77   11.50
  -5  -3   1  356.46   12.60
  -5  -3   1  331.77   12.00
  -5  -3   1  337.37   12.00
  -5  -3   1  330.07   12.20
   4   3  -1   -0.50    1.10
   4   3  -1    7.20    2.30
   4   3  -1    3.80    1.50
   4   3  -1    5.30    1.60
   4   3  -1    4.50    1.40
   4   3  -1    3.60    1.60
   4   3  -1    6.20    1.60
  -4  -3   1    7.00    1.80
  -4  -3   1    2.40    1.40
  -4  -3   1    4.40    1.60
  -4  -3   1    1.80    1.10
  -4  -3   1    3.30    1.30
  -4  -3   1    4.70    1.90
   3   3  -1  798.82   20.00
   3   3  -1  810.82   20.10
   3   3  -1  810.22   20.30
   3   3  -1  808.52   20.30
   3   3  -1  830.22   19.60
   3   3  -1  836.42   20.10
   3   3  -1  797.42   19.60
  -3  -3   1  824.92   20.40
  -3  -3   1  822.22   21.00
  -3  -3   1  857.81   20.00
  -3  -3   1  766.12   19.90
  -3  -3   1  812.22   19.90
  -3  -3   1  809.22   20.30
   2   3  -1   13.60    2.00
   2   3  -1   13.90    1.90
   2   3  -1   19.30    2.40
   2   3  -1   17.00    1.80
   2   3  -1   17.20    2.30
   2   3  -1   17.20    2.20
   2   3  -1   18.80    2.30
  -2  -3   1   19.70    2.80
  -2  -3   1   19.20    2.10
  -2  -3   1   17.20    2.20
  -2  -3   1   17.40    1.80
  -2  -3   1   13.10    2.00
  -2  -3   1   15.60    2.10
  -2  -3   1   15.30    2.00
   1   3  -1  519.85   12.70
   1   3  -1  545.05   12.60
   1   3  -1  528.25   12.50
   1   3  -1  515.85   12.90
   1   3  -1  533.05   13.40
   1   3  -1  530.45   12.80
   1   3  -1  512.35   13.10
  -1  -3   1  531.65   12.90
  -1  -3   1  503.55   12.50
  -1  -3   1  519.35   12.40
  -1  -3   1  511.85   12.80
  -1  -3   1  509.85   13.40
  -1  -3   1  525.25   14.00
  -1  -3   1  519.75   12.60
   0   3  -1 1413.66   29.80
   0   3  -1 1435.46   29.00
   0  -3   1 1382.96   28.60
  -1   3  -1  535.25   13.30
  -1   3  -1  516.85   12.60
  -1   3  -1  526.85   11.50
  -1   3  -1  512.95   11.60
  -1   3  -1  520.15   11.50
  -1   3  -1  534.95   11.70
   1  -3   1  514.45   12.90
   1  -3   1  528.95   12.60
   1  -3   1  521.05   11.50
   1  -3   1  529.65   11.40
  -2   3  -1  108.79    3.60
  -2   3  -1  114.49    3.70
  -2   3  -1  114.79    4.80
  -2   3  -1  115.09    3.70
  -2   3  -1  115.39    4.10
   2  -3   1  107.89    3.40
   2  -3   1  110.09    4.30
   2  -3   1  111.19    3.40
   2  -3   1  105.49    3.30
   2  -3   1  111.59    4.70
   2  -3   1  108.29    4.90
  -3   3  -1   27.50    1.90
  -3   3  -1   23.90    1.70
  -3   3  -1   26.80    1.30
  -3   3  -1   26.10    2.50
  -3   3  -1   26.20    1.80
  -3   3  -1   25.00    1.80
   3  -3   1   23.50    1.60
   3  -3   1   26.00    2.60
   3  -3   1   23.60    1.80
   3  -3   1   27.60    1.80
   3  -3   1   25.40    1.60
   3  -3   1   24.00    1.60
  -4   3  -1  374.96    9.80
  -4   3  -1  386.16   10.20
  -4   3  -1  389.06   10.40
  -4   3  -1  366.36   11.90
  -4   3  -1  391.26   10.00
  -4   3  -1  340.77    9.10
  -4   3  -1  368.76    8.70
   4  -3   1  385.26    9.70
   4  -3   1  382.86   12.70
   4  -3   1  384.86    9.50
   4  -3   1  373.36    9.90
   4  -3   1  386.96   10.00
  -5   3  -1   11.60    2.30
  -5   3  -1    8.60    1.20
  -5   3  -1    6.50    1.50
  -5   3  -1    7.60    1.60
  -5   3  -1    6.50    0.90
  -5   3  -1    7.60    1.60
  -5   3  -1    7.10    1.40
   5  -3   1    6.70    2.30
   5  -3   1    8.00    1.60
   5  -3   1    7.70    1.60
   5  -3   1    9.00    1.30
   5  -3   1    8.40    1.50
   5  -3   1    5.50    1.40
  -6   3  -1  231.78    8.20
  -6   3  -1  238.48   10.60
  -6   3  -1  245.08    9.10
  -6   3  -1  229.98    8.60
  -6   3  -1  232.18    7.30
  -6   3  -1  236.48    8.40
   6  -3   1  237.08    8.20
   6  -3   1  235.58    8.40
   6  -3   1  230.08    7.10
   6  -3   1  231.48    8.00
   6  -3   1  223.38   11.00
  -7   3  -1   46.60    5.60
  -7   3  -1   44.10    3.90
  -7   3  -1   51.19    3.90
  -7   3  -1   54.69    5.10
  -7   3  -1   60.39    4.70
  -7   3  -1   46.70    3.70
   7  -3   1   47.80    4.00
   7  -3   1   48.40    3.20
   7  -3   1   50.39    6.60
  -8   3  -1   -2.00    1.20
  -8   3  -1    0.80    1.90
  -8   3  -1   -1.60    1.40
  -8   3  -1   -2.50    1.20
  -8   3  -1   -0.60    1.90
   8  -3   1    2.50    1.30
   8  -3   1    0.20    1.40
   8  -3   1    1.50    1.60
   8  -3   1   -3.10    1.20
   8  -3   1   -0.20    2.10
  -9   3  -1   16.40    3.40
  -9   3  -1    9.50    3.00
  -9   3  -1    9.70    3.00
  -9   3  -1   10.70    3.50
  -9   3  -1   12.40    3.50
   9  -3   1   11.40    2.80
   9  -3   1    7.20    3.00
   9  -3   1   14.60    4.20
   9   2  -1   49.00    6.50
   9   2  -1   49.99    6.70
   9   2  -1   53.09    7.30
  -9  -2   1   46.10    6.50
  -9  -2   1   50.19    7.30
  -9  -2   1   30.70    6.40
  -9  -2   1   43.60    6.10
   8   2  -1   74.69    7.20
   8   2  -1   88.49    6.50
   8   2  -1   74.49    6.40
   8   2  -1   69.29    6.10
  -8  -2   1   70.89    5.60
  -8  -2   1   80.49    6.70
  -8  -2   1   76.69    6.70
  -8  -2   1   72.99    6.70
  -8  -2   1   80.69    6.60
   7   2  -1  364.26   14.80
   7   2  -1  356.26   13.40
   7   2  -1  375.36   14.20
   7   2  -1  354.16   13.60
   7   2  -1  390.46   14.20
  -7  -2   1  355.06   12.90
  -7  -2   1  362.26   13.60
  -7  -2   1  364.46   14.10
  -7  -2   1  368.56   14.60
  -7  -2   1  364.46   14.00
  -7  -2   1  379.46   14.30
   6   2  -1  379.56   13.60
   6   2  -1  390.86   13.40
   6   2  -1  399.36   13.70
   6   2  -1  396.86   14.30
   6   2  -1  381.16   13.30
   6   2  -1  399.86   14.00
  -6  -2   1  384.26   13.70
  -6  -2   1  398.56   13.70
  -6  -2   1  411.96   14.40
  -6  -2   1  404.46   13.30
  -6  -2   1  393.46   13.80
  -6  -2   1  359.96   12.90
   5   2  -1   58.49    4.50
   5   2  -1   60.79    4.50
   5   2  -1   66.89    5.20
   5   2  -1   59.99    4.60
   5   2  -1   60.69    4.50
   5   2  -1   66.59    4.60
  -5  -2   1   65.69    4.50
  -5  -2   1   57.99    4.40
  -5  -2   1   57.69    4.10
  -5  -2   1   65.69    4.60
  -5  -2   1   55.99    4.40
  -5  -2   1   66.69    4.80
   4   2  -1  481.45   14.00
   4   2  -1  485.05   14.00
   4   2  -1  513.25   14.20
   4   2  -1  512.55   14.50
   4   2  -1  482.05   13.80
   4   2  -1  502.25   14.10
   4   2  -1  497.35   14.30
  -4  -2   1  496.35   14.40
  -4  -2   1  483.75   14.00
  -4  -2   1  479.75   13.70
  -4  -2   1  509.85   14.20
  -4  -2   1  494.75   14.10
  -4  -2   1  492.05   14.20
   3   2  -1   91.79    4.50
   3   2  -1   99.69    4.90
   3   2  -1   97.59    4.50
   3   2  -1  102.59    4.70
   3   2  -1  107.79    4.70
   3   2  -1  109.99    5.00
   3   2  -1   93.29    4.70
  -3  -2   1  103.19    5.80
  -3  -2   1   97.49    4.50
  -3  -2   1  103.99    5.00
  -3  -2   1  100.29    4.70
  -3  -2   1   96.59    4.70
  -3  -2   1   94.19    4.60
   2   2  -1 1306.57   27.90
   2   2  -1 1287.97   27.10
   2   2  -1 1325.77   27.40
   2   2  -1 1302.67   27.60
   2   2  -1 1305.07   28.00
  -2  -2   1 1276.17   27.80
  -2  -2   1 1356.36   28.50
  -2  -2   1 1331.07   28.00
   1   2  -1 9500.85  229.78
  -1  -2   1 9999.00  233.28
   0   2  -1 4694.83  119.49
   0  -2   1 4759.52  116.89
  -1   2  -1    6.30    1.00
  -1   2  -1    6.90    0.60
  -1   2  -1    6.20    0.60
  -1   2  -1    6.10    0.60
  -1   2  -1    8.30    1.30
  -1   2  -1    7.10    0.60
   1  -2   1    6.50    0.50
   1  -2   1    7.20    1.20
   1  -2   1    6.60    0.60
   1  -2   1    7.40    1.00
   1  -2   1    6.30    0.60
   1  -2   1    6.60    0.60
   1  -2   1    7.70    1.20
  -2   2  -1  388.76    8.40
  -2   2  -1  381.36   10.10
  -2   2  -1  389.66    8.60
  -2   2  -1  394.36    8.60
  -2   2  -1  377.96    8.60
  -2   2  -1  370.06    9.00
  -2   2  -1  390.36    8.70
   2  -2   1  386.36    9.20
   2  -2   1  401.06   10.50
   2  -2   1  391.36    8.30
   2  -2   1  377.06    8.50
   2  -2   1  385.96    8.50
   2  -2   1  384.16    8.40
  -3   2  -1  843.72   18.20
  -3   2  -1  842.82   17.40
  -3   2  -1  819.62   17.60
  -3   2  -1  842.02   18.00
  -3   2  -1  840.22   17.80
  -3   2  -1  821.52   17.90
   3  -2   1  832.22   17.40
   3  -2   1  848.82   17.80
   3  -2   1  850.91   20.40
   3  -2   1  842.32   17.60
   3  -2   1  871.51   18.00
  -4   2  -1   10.00    1.30
  -4   2  -1   12.90    1.80
  -4   2  -1   10.80    1.60
  -4   2  -1   10.00    1.50
  -4   2  -1   11.40    1.40
  -4   2  -1   10.10    1.60
   4  -2   1   13.50    1.70
   4  -2   1   12.90    1.50
   4  -2   1   10.70    1.50
   4  -2   1    9.50    1.40
   4  -2   1   15.40    2.60
  -5   2  -1   46.50    3.00
  -5   2  -1   44.80    3.10
  -5   2  -1   44.10    3.30
  -5   2  -1   53.79    3.10
  -5   2  -1   48.00    3.20
   5  -2   1   46.50    3.10
   5  -2   1   46.40    2.80
   5  -2   1   42.50    3.00
   5  -2   1   46.60    4.30
   5  -2   1   48.70    3.00
  -6   2  -1  177.68    7.80
  -6   2  -1  172.48    7.40
  -6   2  -1  177.88    6.80
  -6   2  -1  179.68    7.30
  -6   2  -1  181.38    7.10
  -6   2  -1  164.78    8.00
   6  -2   1  169.98    9.30
   6  -2   1  180.38    7.30
   6  -2   1  179.88    8.50
   6  -2   1  180.38    7.30
   6  -2   1  172.48    6.50
   6  -2   1  160.38    6.70
  -7   2  -1   29.90    4.00
  -7   2  -1   28.50    3.00
  -7   2  -1   29.10    1.60
  -7   2  -1   33.50    3.50
  -7   2  -1   24.60    3.40
  -7   2  -1   29.50    3.00
  -7   2  -1   37.00    4.70
  -7   2  -1   26.30    2.30
   7  -2   1   24.90    3.40
   7  -2   1   29.70    2.90
   7  -2   1   27.40    5.00
   7  -2   1   35.50    3.40
  -8   2  -1    5.90    2.10
  -8   2  -1    9.80    2.40
  -8   2  -1   12.20    3.20
  -8   2  -1    6.00    2.20
  -8   2  -1    6.30    2.10
   8  -2   1    7.90    2.20
   8  -2   1    8.50    2.30
   8  -2   1   10.90    3.70
   8  -2   1    6.10    2.40
  -9   2  -1   21.10    4.40
  -9   2  -1   21.60    4.40
  -9   2  -1   15.80    3.60
  -9   2  -1   25.40    4.10
  -9   2  -1   23.90    4.10
   9  -2   1   16.00    4.50
   9  -2   1   19.00    3.20
   9   1  -1  108.29    8.00
   9   1  -1  112.89    9.10
   9   1  -1   96.69    6.90
   9   1  -1   96.29    7.90
  -9  -1   1   99.49    7.80
  -9  -1   1   96.59    7.80
  -9  -1   1   83.69    7.30
  -9  -1   1   89.89    5.50
  -9  -1   1   94.09    7.20
   8   1  -1    3.80    2.30
   8   1  -1    7.30    2.70
   8   1  -1    3.90    2.50
   8   1  -1    1.80    1.60
  -8  -1   1    7.10    2.20
  -8  -1   1    6.10    2.70
  -8  -1   1    1.70    2.00
  -8  -1   1    7.00    2.40
  -8  -1   1    2.60    1.70
  -8  -1   1   -1.30    2.00
   7   1  -1  166.18    8.50
   7   1  -1  187.78    9.90
   7   1  -1  167.48    8.50
   7   1  -1  162.48    8.60
   7   1  -1  158.88    7.80
   7   1  -1  157.88    8.60
  -7  -1   1  159.78    8.60
  -7  -1   1  165.98    8.70
  -7  -1   1  166.98    9.10
  -7  -1   1  165.28    8.30
  -7  -1   1  158.98    8.30
  -7  -1   1  170.48    7.50
   6   1  -1   34.80    3.60
   6   1  -1   29.50    3.80
   6   1  -1   27.30    4.10
   6   1  -1   28.60    3.60
   6   1  -1   28.20    3.90
   6   1  -1   27.90    3.90
  -6  -1   1   22.60    3.50
  -6  -1   1   28.50    2.90
  -6  -1   1   26.70    3.60
  -6  -1   1   27.90    4.00
  -6  -1   1   31.60    3.20
  -6  -1   1   26.30    3.70
   5   1  -1    0.40    0.80
   5   1  -1    1.00    0.80
   5   1  -1    0.20    1.00
   5   1  -1   -0.40    0.90
   5   1  -1    0.60    0.80
   5   1  -1    0.30    0.70
  -5  -1   1    0.90    1.00
  -5  -1   1    2.00    1.30
  -5  -1   1    0.30    1.00
  -5  -1   1    0.80    1.10
  -5  -1   1    0.10    0.80
  -5  -1   1   -0.80    0.70
   4   1  -1    0.50    0.80
   4   1  -1    0.80    1.10
   4   1  -1   -0.10    0.60
   4   1  -1    1.40    0.60
   4   1  -1    1.70    1.00
   4   1  -1    0.70    0.70
   4   1  -1    0.00    0.80
  -4  -1   1   -0.10    0.60
  -4  -1   1    0.60    0.90
  -4  -1   1    0.90    0.90
  -4  -1   1   -0.10    0.60
  -4  -1   1    1.20    0.90
  -4  -1   1    0.50    0.70
   3   1  -1 2149.19   97.49
  -3  -1   1 2038.80   98.39
  -2  -1   1 1306.27   26.90
   1   1  -1 2437.96   76.29
  -1  -1   1 2438.86   77.09
   0   1  -1  257.07    6.10
   0   1  -1  281.37    5.60
   0   1  -1  282.57    5.60
   0   1  -1  272.67    5.50
   0   1  -1  270.97    5.50
   0   1  -1  271.07    5.50
   0  -1   1  255.77    6.10
   0  -1   1  284.87    6.60
   0  -1   1  232.38    5.40
  -1   1  -1  121.79    3.70
  -1   1  -1  119.49    2.80
  -1   1  -1  118.69    2.80
  -1   1  -1  128.39    3.30
  -1   1  -1  115.59    3.50
  -1   1  -1  119.89    2.70
  -1   1  -1  120.79    2.70
   1  -1   1  122.29    2.70
   1  -1   1  113.59    3.20
   1  -1   1  119.09    2.70
   1  -1   1  121.39    3.60
   1  -1   1  119.99    3.80
   1  -1   1  120.39    2.70
  -2   1  -1  323.57    7.40
  -2   1  -1  318.97    7.40
  -2   1  -1  315.17    7.50
  -2   1  -1  320.37    7.40
  -2   1  -1  304.27    7.60
  -2   1  -1  326.77    7.60
   2  -1   1  327.87    7.40
   2  -1   1  322.87    7.60
   2  -1   1  307.77    7.30
   2  -1   1  317.97    7.40
   2  -1   1  319.87    8.70
  -3   1  -1   27.50    2.10
  -3   1  -1   26.60    1.80
  -3   1  -1   28.50    1.90
  -3   1  -1   30.40    2.00
  -3   1  -1   27.90    2.00
  -3   1  -1   34.80    2.10
   3  -1   1   26.80    1.80
   3  -1   1   28.40    2.50
   3  -1   1   31.40    2.00
   3  -1   1   28.70    1.90
  -4   1  -1  429.16   11.10
  -4   1  -1  424.26   11.10
  -4   1  -1  426.66   11.60
  -4   1  -1  422.96   11.20
  -4   1  -1  427.36   11.40
  -4   1  -1  429.66   12.10
   4  -1   1  392.26   11.10
   4  -1   1  434.06   13.20
   4  -1   1  413.36   11.00
   4  -1   1  426.76   11.00
   4  -1   1  427.46   11.40
  -5   1  -1   75.69    4.70
  -5   1  -1   79.69    4.60
  -5   1  -1   79.99    4.20
  -5   1  -1   75.09    4.20
  -5   1  -1   80.89    4.40
  -5   1  -1   73.09    4.30
   5  -1   1   79.29    4.50
   5  -1   1   77.09    4.00
   5  -1   1   79.39    4.30
   5  -1   1   73.79    5.40
   5  -1   1   77.69    4.30
  -6   1  -1 1500.95   33.80
  -6   1  -1 1469.65   33.40
  -6   1  -1 1507.45   35.10
  -6   1  -1 1512.15   34.70
  -6   1  -1 1469.35   33.30
  -6   1  -1 1492.05   34.10
   6  -1   1 1496.65   33.10
   6  -1   1 1490.05   33.90
   6  -1   1 1577.24   34.30
   6  -1   1 1461.05   37.10
  -7   1  -1  178.78    8.40
  -7   1  -1  164.58    7.80
  -7   1  -1  163.48    7.70
  -7   1  -1  173.78    8.70
  -7   1  -1  163.48    7.90
  -7   1  -1  180.18    8.70
   7  -1   1  180.78    8.40
   7  -1   1  176.78   10.20
   7  -1   1  162.28    7.30
  -8   1  -1   11.20    2.80
  -8   1  -1   12.10    2.60
  -8   1  -1   17.00    3.30
  -8   1  -1   10.00    2.00
  -8   1  -1   12.00    3.00
  -8   1  -1   10.30    2.90
   8  -1   1    9.20    2.30
   8  -1   1    8.90    2.60
   8  -1   1   11.20    3.80
  -9   1  -1   11.10    3.10
  -9   1  -1   13.10    3.60
  -9   1  -1    7.30    3.30
  -9   1  -1    7.00    2.90
   9  -1   1    1.00    2.20
   9  -1   1   -0.90    2.30
   9  -1   1    9.90    4.30
   9   0  -1   -2.10    2.40
   9   0  -1    1.30    1.80
   9   0  -1    2.00    2.30
   9   0  -1   -1.40    1.70
  -9   0   1    0.70    1.60
  -9   0   1    1.90    2.30
  -9   0   1   -0.60    2.30
  -9   0   1   -0.70    2.00
   8   0  -1   36.60    4.30
   8   0  -1   29.10    4.30
   8   0  -1   23.60    5.00
   8   0  -1   33.30    4.60
   8   0  -1   29.60    4.50
   8   0  -1   37.50    4.70
  -8   0   1   36.00    5.20
  -8   0   1   32.10    4.70
  -8   0   1   29.00    4.60
  -8   0   1   33.50    4.50
  -8   0   1   35.60    4.60
   7   0  -1    0.10    1.90
   7   0  -1    1.50    1.50
   7   0  -1    2.90    1.90
   7   0  -1    1.20    1.50
   7   0  -1   -0.50    1.00
   7   0  -1   -0.40    1.00
  -7   0   1    1.20    1.60
  -7   0   1   -0.30    0.90
  -7   0   1   -0.60    1.40
  -7   0   1    1.90    1.20
  -7   0   1   -0.70    1.30
  -7   0   1    0.00    1.20
   6   0  -1  454.45   13.80
   6   0  -1  448.26   13.10
   6   0  -1  430.86   15.20
   6   0  -1  430.86   14.00
   6   0  -1  452.45   13.90
   6   0  -1  432.76   13.90
  -6   0   1  457.25   14.60
  -6   0   1  441.66   13.80
  -6   0   1  451.05   14.20
  -6   0   1  419.76   14.20
  -6   0   1  457.65   13.70
  -6   0   1  438.86   11.70
   5   0  -1   51.79    3.80
   5   0  -1   41.70    3.40
   5   0  -1   60.19    3.60
   5   0  -1   56.19    4.30
   5   0  -1   47.50    3.50
  -5   0   1   50.49    3.90
  -5   0   1   47.80    3.70
  -5   0   1   48.10    3.70
  -5   0   1   43.20    3.40
  -5   0   1   49.20    3.40
   4   0  -1   58.79    3.50
   4   0  -1   64.79    3.60
   4   0  -1   71.79    4.20
   4   0  -1   62.99    3.80
   4   0  -1   68.59    3.80
   4   0  -1   65.89    3.40
  -4   0   1   60.49    3.80
  -4   0   1   60.99    3.70
  -4   0   1   66.09    3.60
  -4   0   1   61.19    3.80
  -4   0   1   64.89    3.00
  -4   0   1   63.59    3.60
   3   0  -1   10.00    1.50
   3   0  -1    7.80    1.40
   3   0  -1   13.00    1.90
   3   0  -1    9.40    1.50
   3   0  -1   10.90    1.40
   3   0  -1    9.60    1.50
  -3   0   1   10.80    1.50
  -3   0   1   10.30    1.60
  -3   0   1    9.90    1.00
  -3   0   1   10.70    1.60
  -3   0   1   11.50    1.70
  -3   0   1   10.50    1.50
   2   0  -1  499.65   10.60
   2   0  -1  494.15   11.60
   2   0  -1  467.35   11.40
   2   0  -1  509.85   11.50
   2   0  -1  498.15   11.60
   2   0  -1  512.25   11.20
   2   0  -1  529.65   11.60
  -2   0   1  491.45   11.40
  -2   0   1  506.95   11.60
  -2   0   1  533.15   11.70
  -2   0   1  497.35   10.70
  -2   0   1  516.95   11.80
  -2   0   1  507.25   11.70
   1   0  -1 2130.39   67.09
  -1   0   1 2105.99   67.79
   0   0   1  570.74   11.80
  -1   0  -1 3351.46   86.79
   1   0   1 3359.66   88.59
  -2   0  -1    0.60    0.50
  -2   0  -1    1.20    0.50
  -2   0  -1    1.00    0.50
  -2   0  -1    0.20    0.40
  -2   0  -1    0.70    0.40
   2   0   1    0.70    0.50
   2   0   1    1.50    0.60
   2   0   1    1.20    0.80
   2   0   1    0.10    0.40
   2   0   1    0.30    0.40
  -3   0  -1  405.96   10.80
  -3   0  -1  416.06   10.70
  -3   0  -1  405.16   10.90
  -3   0  -1  416.76   11.00
  -3   0  -1  427.66   10.80
  -3   0  -1  419.76   10.50
   3   0   1  395.86   10.40
   3   0   1  405.26   10.60
   3   0   1  429.46   11.80
   3   0   1  418.86   10.70
   3   0   1  424.66   10.70
   3   0   1  415.26   10.80
  -4   0  -1  203.08    7.00
  -4   0  -1  215.28    7.40
  -4   0  -1  202.28    7.40
  -4   0  -1  190.68    7.20
  -4   0  -1  191.68    7.00
  -4   0  -1  198.38    7.10
   4   0   1  203.58    7.00
   4   0   1  204.78    7.10
   4   0   1  205.48    7.30
   4   0   1  199.98    8.10
   4   0   1  202.08    7.10
   4   0   1  212.48    7.20
  -5   0  -1   13.00    2.30
  -5   0  -1   10.80    2.00
  -5   0  -1   13.00    2.40
  -5   0  -1   12.40    2.30
  -5   0  -1    9.90    1.90
  -5   0  -1   12.10    2.20
   5   0   1   11.00    2.00
   5   0   1   10.90    2.70
   5   0   1   10.50    2.20
   5   0   1   14.40    2.20
   5   0   1   11.00    2.10
   5   0   1   12.40    2.10
  -6   0  -1  956.80   24.20
  -6   0  -1  932.31   24.50
  -6   0  -1 1004.70   24.50
  -6   0  -1  924.11   24.10
  -6   0  -1  969.10   24.90
  -6   0  -1  988.70   26.20
   6   0   1  960.00   26.80
   6   0   1  939.01   24.00
   6   0   1  955.90   23.90
   6   0   1  921.01   24.00
   6   0   1  979.60   23.80
  -7   0  -1    3.90    1.80
  -7   0  -1    0.70    1.60
  -7   0  -1   -1.30    1.30
  -7   0  -1    1.00    1.60
  -7   0  -1   -0.10    1.30
  -7   0  -1    0.40    1.20
  -7   0  -1    2.70    1.50
   7   0   1    1.60    1.50
   7   0   1    1.00    2.00
   7   0   1   -0.70    1.30
   7   0   1   -1.40    1.30
  -8   0  -1    7.90    2.60
  -8   0  -1    8.00    2.60
  -8   0  -1    7.70    2.70
  -8   0  -1    6.00    2.40
  -8   0  -1    9.70    2.10
  -8   0  -1    1.80    2.40
   8   0   1    8.00    2.60
   8   0   1   14.20    3.40
   8   0   1    6.30    3.10
   8   0   1    6.60    2.10
  -9   0  -1    4.50    3.10
  -9   0  -1   -1.00    1.80
  -9   0  -1   -1.20    2.70
  -9   0  -1   -2.10    2.40
  -9   0  -1   -2.10    1.50
   9   0   1   -4.70    2.50
   9   0   1    1.00    2.30
   9   0   1   -3.30    2.60
   9   0   1    0.20    2.60
   9  -1  -1   50.29    7.20
   9  -1  -1   57.29    5.70
   9  -1  -1   57.29    8.00
   9  -1  -1   52.49    4.70
  -9   1   1   40.80    5.20
  -9   1   1   42.90    5.80
  -9   1   1   39.30    5.30
  -9   1   1   46.20    6.00
  -9   1   1   46.00    4.60
   8  -1  -1   32.90    5.60
   8  -1  -1   29.40    4.00
   8  -1  -1   42.00    5.30
   8  -1  -1   29.90    4.20
   8  -1  -1   34.80    3.40
  -8   1   1   37.00    4.90
  -8   1   1   34.60    4.30
  -8   1   1   42.80    5.60
  -8   1   1   34.70    4.70
  -8   1   1   29.40    4.10
   7  -1  -1   80.19    5.50
   7  -1  -1   70.49    6.30
   7  -1  -1   75.59    5.50
   7  -1  -1   75.39    4.50
   7  -1  -1   73.69    5.10
  -7   1   1   81.89    5.50
  -7   1   1   78.59    5.20
  -7   1   1   83.09    5.70
  -7   1   1   78.79    5.60
  -7   1   1   74.19    2.50
  -7   1   1   74.59    5.60
   6  -1  -1   66.69    4.50
   6  -1  -1   44.90    6.30
   6  -1  -1   57.59    4.10
   6  -1  -1   65.39    4.50
   6  -1  -1   57.39    3.50
   6  -1  -1   66.39    4.70
  -6   1   1   59.39    2.40
  -6   1   1   58.79    4.50
  -6   1   1   60.09    4.60
  -6   1   1   65.19    4.50
  -6   1   1   56.59    4.20
  -6   1   1   60.29    4.10
   5  -1  -1   51.69    3.70
   5  -1  -1   54.59    4.40
   5  -1  -1   53.59    3.10
   5  -1  -1   46.90    3.60
   5  -1  -1   57.79    3.70
   5  -1  -1   55.79    3.70
  -5   1   1   55.99    4.10
  -5   1   1   52.29    3.60
  -5   1   1   51.99    2.00
  -5   1   1   52.99    4.10
  -5   1   1   50.99    3.80
  -5   1   1   53.29    3.60
   4  -1  -1  730.73   18.50
   4  -1  -1  717.73   17.30
   4  -1  -1  727.63   15.90
   4  -1  -1  708.33   17.40
   4  -1  -1  704.93   17.20
   4  -1  -1  724.53   17.00
  -4   1   1  712.73   14.20
  -4   1   1  720.23   17.40
  -4   1   1  715.73   17.20
  -4   1   1  692.33   17.80
  -4   1   1  722.83   17.00
  -4   1   1  723.93   17.70
   3  -1  -1    2.40    0.60
   3  -1  -1    1.00    0.60
   3  -1  -1    0.90    0.50
   3  -1  -1    0.40    0.50
   3  -1  -1    1.20    0.70
   3  -1  -1    1.70    0.90
  -3   1   1    1.60    0.60
  -3   1   1   -0.10    0.60
  -3   1   1    1.10    0.60
  -3   1   1    0.80    0.60
  -3   1   1    1.20    0.60
   2  -1  -1  572.44   13.20
   2  -1  -1  575.64   13.50
   2  -1  -1  584.14   13.10
   2  -1  -1  576.14   13.10
   2  -1  -1  602.14   13.00
  -2   1   1  611.84   13.30
  -2   1   1  590.04   13.10
  -2   1   1  579.54   13.30
  -2   1   1  606.44   13.10
  -2   1   1  580.34   13.30
   1  -1  -1  365.46    8.40
   1  -1  -1  367.66    8.40
   1  -1  -1  381.16    8.60
   1  -1  -1  377.56    8.70
   1  -1  -1  375.66    7.60
   1  -1  -1  375.06    8.60
  -1   1   1  381.16    8.60
  -1   1   1  384.76    8.50
  -1   1   1  380.66    8.50
  -1   1   1  358.56    8.50
  -1   1   1  347.07    8.50
  -1   1   1  373.16    7.60
  -1   1   1  389.56    8.60
   0  -1  -1  160.78    4.40
   0  -1  -1  166.98    4.50
   0  -1  -1  159.28    4.10
   0  -1  -1  159.98    4.50
   0  -1  -1  153.58    4.20
   0  -1  -1  165.48    4.40
   0  -1  -1  157.58    4.40
   0   1   1  161.58    4.10
   0   1   1  165.78    4.50
   0   1   1  160.58    4.40
   0   1   1  163.58    4.50
   0   1   1  168.28    4.40
   0   1   1  159.98    4.40
   0   1   1  174.58    4.30
  -1  -1  -1  469.35   11.10
  -1  -1  -1  493.55   11.30
  -1  -1  -1  503.75   11.00
  -1  -1  -1  479.95   11.10
  -1  -1  -1  495.95   11.10
  -1  -1  -1  471.65   11.10
   1   1   1  462.95   10.80
   1   1   1  494.25   11.10
   1   1   1  468.75   10.50
   1   1   1  472.25   11.00
   1   1   1  488.45   11.10
   1   1   1  461.15   10.90
  -2  -1  -1  229.28    6.90
  -2  -1  -1  238.88    7.20
  -2  -1  -1  223.48    7.00
  -2  -1  -1  241.98    6.80
  -2  -1  -1  242.88    6.90
  -2  -1  -1  246.08    8.00
   2   1   1  239.08    6.80
   2   1   1  233.48    7.10
   2   1   1  241.78    7.10
   2   1   1  248.28    7.00
   2   1   1  246.78    7.40
   2   1   1  238.68    6.80
   2   1   1  227.28    7.10
  -3  -1  -1  235.78    7.80
  -3  -1  -1  229.88    7.50
  -3  -1  -1  224.28    7.70
  -3  -1  -1  245.78    7.60
  -3  -1  -1  236.28    7.70
  -3  -1  -1  218.58    7.40
   3   1   1  228.28    8.00
   3   1   1  224.78    7.60
   3   1   1  245.48    7.70
   3   1   1  234.28    7.40
   3   1   1  223.18    7.60
   3   1   1  226.08    7.60
   3   1   1  220.48    7.30
  -4  -1  -1    8.20    1.80
  -4  -1  -1    6.70    1.60
  -4  -1  -1    7.90    1.60
  -4  -1  -1    7.40    1.70
  -4  -1  -1   10.20    1.90
  -4  -1  -1    6.70    1.60
   4   1   1    9.30    2.10
   4   1   1    9.10    1.70
   4   1   1    8.00    1.80
   4   1   1    7.70    1.50
   4   1   1   10.50    1.90
   4   1   1    7.90    1.60
  -5  -1  -1   98.79    5.50
  -5  -1  -1   97.39    5.70
  -5  -1  -1   94.39    5.30
  -5  -1  -1   93.29    5.60
  -5  -1  -1  109.39    5.60
  -5  -1  -1  101.59    5.70
   5   1   1   99.39    5.60
   5   1   1   97.69    5.60
   5   1   1   96.79    5.30
   5   1   1  102.79    5.50
  -6  -1  -1  218.68    9.50
  -6  -1  -1  215.78    9.00
  -6  -1  -1  201.68   10.80
  -6  -1  -1  207.98    9.20
  -6  -1  -1  212.98    9.30
  -6  -1  -1  213.78    9.30
   6   1   1  207.68    8.90
   6   1   1  224.08    9.30
   6   1   1  202.88    8.80
   6   1   1  212.98   10.50
   6   1   1  200.98    9.00
  -7  -1  -1    1.50    1.70
  -7  -1  -1    4.30    2.00
  -7  -1  -1    6.20    1.80
  -7  -1  -1    3.70    2.30
  -7  -1  -1    5.60    1.90
  -7  -1  -1    7.00    2.40
   7   1   1    4.00    2.20
   7   1   1    6.20    2.40
   7   1   1    1.20    1.50
   7   1   1    5.70    2.60
  -8  -1  -1   90.49    6.80
  -8  -1  -1   93.19    7.40
  -8  -1  -1   98.09    7.30
  -8  -1  -1  103.09    7.20
  -8  -1  -1  107.29    6.40
  -8  -1  -1   92.59    6.80
   8   1   1   92.49   11.20
   8   1   1   89.59    8.00
   8   1   1   73.69    6.30
   8   1   1  105.39    7.30
   9  -2  -1   73.09    7.70
   9  -2  -1   72.29    5.30
   9  -2  -1   60.79    6.10
   9  -2  -1   61.29    5.70
  -9   2   1   69.79    5.80
  -9   2   1   50.89    6.70
  -9   2   1   52.79    5.20
  -9   2   1   65.69    6.20
  -9   2   1   65.29    5.70
   8  -2  -1  226.18   10.10
   8  -2  -1  209.88    9.40
   8  -2  -1  212.68   10.30
   8  -2  -1  203.98   11.80
   8  -2  -1  227.08    8.10
  -8   2   1  219.98    9.50
  -8   2   1  232.28   10.00
  -8   2   1  215.28   11.10
  -8   2   1  225.28   10.30
  -8   2   1  214.18   10.50
  -8   2   1  227.68   10.90
   7  -2  -1  246.68   12.00
   7  -2  -1  261.67   10.50
   7  -2  -1  253.27    8.10
   7  -2  -1  272.07   10.40
  -7   2   1  260.37   10.90
  -7   2   1  241.08   10.80
  -7   2   1  250.37   10.00
  -7   2   1  245.58   10.20
  -7   2   1  255.17   11.20
   6  -2  -1   84.99    5.30
   6  -2  -1   92.89    5.20
   6  -2  -1   91.69    3.90
   6  -2  -1   80.99    4.70
   6  -2  -1   92.19    5.30
   6  -2  -1   89.49    6.30
  -6   2   1   87.19    5.20
  -6   2   1   88.69    5.10
  -6   2   1   91.79    5.00
  -6   2   1   87.89    5.50
  -6   2   1   99.19    6.10
  -6   2   1   82.79    5.50
   5  -2  -1  102.49    5.20
   5  -2  -1  105.19    5.40
   5  -2  -1  112.29    6.30
   5  -2  -1  109.19    3.90
   5  -2  -1  111.79    5.90
  -5   2   1  115.19    5.70
  -5   2   1   98.99    5.70
  -5   2   1  116.99    5.20
  -5   2   1  108.29    5.40
  -5   2   1  112.99    5.30
   4  -2  -1  605.54   15.30
   4  -2  -1  629.84   15.40
   4  -2  -1  614.04   16.90
   4  -2  -1  617.24   15.10
   4  -2  -1  627.94   15.70
  -4   2   1  628.54   15.20
  -4   2   1  649.54   15.70
  -4   2   1  641.64   15.90
  -4   2   1  618.74   16.40
  -4   2   1  594.14   15.20
   3  -2  -1 1379.76   29.40
   3  -2  -1 1364.56   30.50
   3  -2  -1 1422.76   29.30
  -3   2   1 1414.66   29.40
  -3   2   1 1386.76   29.10
  -3   2   1 1425.66   29.80
  -3   2   1 1436.16   30.60
  -2   2   1 5364.86  158.88
   0  -2  -1   77.49    3.30
   0  -2  -1   67.89    2.90
   0  -2  -1   74.69    3.20
   0  -2  -1   73.79    3.10
   0  -2  -1   72.79    3.20
   0  -2  -1   77.09    3.10
   0  -2  -1   72.99    3.10
   0   2   1   72.19    3.20
   0   2   1   80.19    3.20
   0   2   1   73.09    3.10
   0   2   1   70.39    3.10
   0   2   1   78.49    3.00
   0   2   1   74.99    3.20
   0   2   1   72.79    3.00
  -1  -2  -1 3157.68  112.09
  -2  -2  -1   79.19    4.00
  -2  -2  -1   79.99    3.90
  -2  -2  -1   81.09    3.90
  -2  -2  -1   79.69    3.80
  -2  -2  -1   82.59    4.10
   2   2   1   84.99    3.90
   2   2   1   77.79    3.90
   2   2   1   81.49    4.00
   2   2   1   77.99    3.60
   2   2   1   71.99    3.80
  -3  -2  -1 1840.62   39.30
  -3  -2  -1 1863.11   39.20
  -3  -2  -1 1891.91   38.70
  -3  -2  -1 1867.41   39.00
  -3  -2  -1 1873.81   39.60
  -3  -2  -1 1851.51   38.80
   3   2   1 1795.02   39.30
   3   2   1 1806.22   38.50
   3   2   1 1844.22   39.20
   3   2   1 1811.52   38.50
   3   2   1 1825.62   38.70
   3   2   1 1794.82   39.00
  -4  -2  -1  411.16   12.70
  -4  -2  -1  403.86   12.40
  -4  -2  -1  411.56   12.30
  -4  -2  -1  398.56   12.70
  -4  -2  -1  404.66   13.00
  -4  -2  -1  416.26   12.40
   4   2   1  399.16   12.30
   4   2   1  380.56   11.90
   4   2   1  390.46   12.90
   4   2   1  394.96   12.20
   4   2   1  403.96   12.60
   4   2   1  405.56   12.60
  -5  -2  -1  425.16   13.80
  -5  -2  -1  392.86   13.30
  -5  -2  -1  394.46   12.90
  -5  -2  -1  377.16   13.30
  -5  -2  -1  398.26   13.10
  -5  -2  -1  396.86   13.00
   5   2   1  391.46   13.30
   5   2   1  390.46   13.00
   5   2   1  399.16   13.20
   5   2   1  394.96   13.10
   5   2   1  373.36   12.50
   5   2   1  392.96   14.00
  -6  -2  -1  112.99    7.20
  -6  -2  -1  120.29    6.90
  -6  -2  -1   92.39    7.30
  -6  -2  -1  115.09    7.20
  -6  -2  -1  116.39    7.00
  -6  -2  -1  109.49    6.70
   6   2   1  109.89    6.50
   6   2   1  121.69    7.00
   6   2   1  104.89    6.50
   6   2   1  117.39    7.60
   6   2   1  115.99    7.00
  -7  -2  -1   80.49    6.70
  -7  -2  -1   96.49    6.50
  -7  -2  -1  103.49    7.20
  -7  -2  -1   87.29    6.60
  -7  -2  -1  109.49    7.30
  -7  -2  -1  107.79    7.40
   7   2   1   83.99    6.40
   7   2   1  100.29    7.90
   7   2   1   91.39    6.80
   7   2   1   98.59    6.50
  -8  -2  -1   76.99    6.80
  -8  -2  -1   93.89    7.40
  -8  -2  -1   76.89    6.90
  -8  -2  -1   78.39    6.20
  -8  -2  -1   85.29    7.00
   8   2   1   75.89    7.80
   8   2   1   89.49    7.20
   8   2   1   85.49    8.10
   8   2   1   80.09    7.90
   9  -3  -1   64.09    8.50
   9  -3  -1   67.29    6.30
  -9   3   1   72.89    6.00
  -9   3   1   77.89    7.10
  -9   3   1   61.59    6.00
  -9   3   1   67.69    5.50
  -9   3   1   55.89    5.10
   8  -3  -1   91.79    6.30
   8  -3  -1   88.59    5.80
   8  -3  -1   95.49    8.00
   8  -3  -1   90.29    4.10
  -8   3   1   92.59    6.10
  -8   3   1   95.89    6.50
  -8   3   1   81.09    6.50
  -8   3   1   78.99    5.40
  -8   3   1   95.09    7.20
  -8   3   1   87.19    6.40
   7  -3  -1    3.50    1.00
   7  -3  -1    2.70    1.40
   7  -3  -1    4.60    2.70
   7  -3  -1    6.20    2.20
  -7   3   1    3.70    1.90
  -7   3   1    4.10    1.80
  -7   3   1    2.80    1.70
  -7   3   1    6.20    1.80
  -7   3   1    2.90    1.60
  -7   3   1    4.80    1.80
   6  -3  -1    3.90    1.20
   6  -3  -1    2.90    2.00
   6  -3  -1    4.90    1.50
   6  -3  -1    4.70    0.80
   6  -3  -1    4.20    1.70
  -6   3   1    4.70    1.70
  -6   3   1    3.70    1.40
  -6   3   1    4.10    1.50
  -6   3   1    2.90    1.40
  -6   3   1    3.50    1.70
   5  -3  -1   48.40    3.60
   5  -3  -1   47.50    4.40
   5  -3  -1   54.59    1.80
   5  -3  -1   48.40    3.30
   5  -3  -1   53.29    3.50
  -5   3   1   52.59    4.30
  -5   3   1   53.19    3.80
  -5   3   1   53.69    3.70
  -5   3   1   60.79    3.70
  -5   3   1   49.30    3.50
   4  -3  -1   49.30    3.10
   4  -3  -1   47.10    3.90
   4  -3  -1   46.00    3.10
   4  -3  -1   48.60    3.00
  -4   3   1   42.40    3.10
  -4   3   1   44.80    3.10
  -4   3   1   51.59    3.80
  -4   3   1   47.40    3.10
  -4   3   1   43.80    2.90
   3  -3  -1 2722.03  117.79
  -3   3   1 2914.01  121.99
   2  -3  -1   44.50    2.60
   2  -3  -1   39.00    2.50
   2  -3  -1   45.60    3.00
   2  -3  -1   42.10    2.50
   2  -3  -1   43.30    1.60
   2  -3  -1   38.60    2.50
  -2   3   1   43.50    2.60
  -2   3   1   43.40    1.60
  -2   3   1   44.40    2.80
  -2   3   1   42.80    3.00
  -2   3   1   42.90    2.50
  -2   3   1   42.60    2.60
   1  -3  -1   25.60    1.90
   1  -3  -1   26.00    1.90
   1  -3  -1   23.40    2.00
   1  -3  -1   27.50    2.00
   1  -3  -1   28.10    1.70
   1  -3  -1   26.60    2.20
  -1   3   1   23.90    2.10
  -1   3   1   25.00    2.00
  -1   3   1   28.30    2.20
  -1   3   1   24.40    1.60
  -1   3   1   27.20    2.10
  -1   3   1   27.30    2.00
  -1   3   1   23.70    2.00
   0  -3  -1   14.60    1.90
   0  -3  -1   17.60    2.10
   0  -3  -1   13.40    1.80
   0  -3  -1   11.10    1.60
   0  -3  -1   14.90    1.90
   0  -3  -1   15.80    1.60
   0  -3  -1   13.60    1.90
   0   3   1   14.10    1.90
   0   3   1   15.80    1.60
   0   3   1   15.80    1.70
   0   3   1   15.00    1.50
   0   3   1   15.40    1.90
   0   3   1   16.80    1.70
   0   3   1   18.10    1.90
  -1  -3  -1  207.48    7.00
  -1  -3  -1  185.18    6.70
  -1  -3  -1  189.58    6.90
  -1  -3  -1  196.18    7.00
  -1  -3  -1  211.98    7.20
  -1  -3  -1  200.08    6.90
  -1  -3  -1  196.38    7.00
   1   3   1  217.18    7.00
   1   3   1  212.38    6.90
   1   3   1  204.18    6.90
   1   3   1  196.98    7.00
   1   3   1  199.68    7.00
   1   3   1  203.28    7.00
  -2  -3  -1  405.36   11.80
  -2  -3  -1  374.36   12.50
  -2  -3  -1  380.16   11.50
  -2  -3  -1  359.76   11.40
  -2  -3  -1  375.16   11.20
  -2  -3  -1  387.76   11.70
  -2  -3  -1  373.76   11.10
   2   3   1  389.66   11.60
   2   3   1  393.26   11.10
   2   3   1  399.56   11.60
   2   3   1  385.46   11.30
   2   3   1  389.76   11.50
   2   3   1  390.56   10.90
   2   3   1  391.86   11.50
  -3  -3  -1  317.97   10.40
  -3  -3  -1  319.37   10.50
  -3  -3  -1  317.27   10.80
  -3  -3  -1  311.47   10.40
  -3  -3  -1  307.97   10.80
  -3  -3  -1  305.27   10.80
  -3  -3  -1  327.77   11.20
   3   3   1  308.37   10.40
   3   3   1  321.77   10.70
   3   3   1  329.57   10.90
   3   3   1  334.47   10.30
   3   3   1  326.97   10.30
  -4  -3  -1   46.50    3.90
  -4  -3  -1   52.79    4.40
  -4  -3  -1   51.29    4.20
  -4  -3  -1   50.99    4.40
  -4  -3  -1   52.29    4.00
   4   3   1   55.69    4.30
   4   3   1   44.80    4.50
   4   3   1   53.59    3.90
   4   3   1   60.79    4.60
   4   3   1   55.69    4.10
   4   3   1   47.60    4.00
  -5  -3  -1  107.79    6.50
  -5  -3  -1  114.89    7.00
  -5  -3  -1  106.99    6.70
  -5  -3  -1  110.99    6.50
  -5  -3  -1  115.29    6.60
  -5  -3  -1  118.59    7.00
   5   3   1  115.49    6.60
   5   3   1  123.79    6.70
   5   3   1  121.19    6.80
   5   3   1  124.99    7.00
   5   3   1  130.99    7.00
   5   3   1  116.39    7.10
  -6  -3  -1   27.70    4.20
  -6  -3  -1   31.40    4.90
  -6  -3  -1   26.40    3.90
  -6  -3  -1   24.50    4.10
  -6  -3  -1   31.50    4.60
  -6  -3  -1   29.40    4.60
   6   3   1   34.90    5.30
   6   3   1   20.70    3.80
   6   3   1   21.20    3.80
  -7  -3  -1   52.29    5.50
  -7  -3  -1   56.29    5.70
  -7  -3  -1   54.89    5.20
  -7  -3  -1   50.79    6.30
  -7  -3  -1   48.10    6.10
  -7  -3  -1   54.39    5.30
  -7  -3  -1   50.49    6.40
   7   3   1   54.59    5.40
   7   3   1   41.20    6.20
   7   3   1   44.70    4.80
   7   3   1   46.40    5.80
  -8  -3  -1    1.60    3.00
  -8  -3  -1    1.00    2.20
  -8  -3  -1    1.70    2.90
  -8  -3  -1    1.10    2.50
  -8  -3  -1    2.30    2.20
   8   3   1    1.70    2.90
   8   3   1    0.40    2.60
   8   3   1   -0.70    1.90
   9  -4  -1   72.79    7.30
   9  -4  -1   78.49    6.20
   9  -4  -1   80.19    8.20
  -9   4   1   75.79    7.00
  -9   4   1   83.69    6.40
  -9   4   1   84.89    6.60
  -9   4   1   74.99    6.40
  -9   4   1   83.09    5.90
   8  -4  -1   18.60    3.40
   8  -4  -1   22.00    3.20
   8  -4  -1   17.90    3.40
   8  -4  -1   19.20    4.70
   8  -4  -1   19.80    3.20
  -8   4   1   18.40    3.50
  -8   4   1   15.20    3.70
  -8   4   1   21.10    3.20
  -8   4   1   22.30    3.70
  -8   4   1   13.90    3.00
   7  -4  -1   99.59    7.60
   7  -4  -1   94.49    5.70
   7  -4  -1   97.89    5.90
  -7   4   1   96.29    6.20
  -7   4   1  105.39    7.20
  -7   4   1   96.89    5.50
  -7   4   1   96.89    5.70
  -7   4   1   93.59    6.00
   6  -4  -1  191.88    7.70
   6  -4  -1  171.68    7.50
   6  -4  -1  183.38    9.70
   6  -4  -1  200.98    8.10
   6  -4  -1  198.48    7.50
  -6   4   1  194.88    7.70
  -6   4   1  173.88    8.70
  -6   4   1  197.28    8.20
  -6   4   1  199.58    9.50
  -6   4   1  183.48    8.20
   5  -4  -1  521.55   13.90
   5  -4  -1  506.45   14.30
   5  -4  -1  492.15   13.90
   5  -4  -1  520.05   16.80
  -5   4   1  513.95   14.10
  -5   4   1  507.05   16.00
  -5   4   1  513.45   14.40
  -5   4   1  529.25   14.90
  -5   4   1  523.15   14.50
   4  -4  -1    2.90    1.30
   4  -4  -1    1.60    0.70
   4  -4  -1    0.70    1.30
   4  -4  -1    0.10    0.60
   4  -4  -1    0.00    0.50
   4  -4  -1    1.10    0.80
   4  -4  -1    2.40    1.10
  -4   4   1    2.40    1.10
  -4   4   1    1.30    0.90
  -4   4   1    3.00    1.10
  -4   4   1    2.10    0.90
  -4   4   1    0.60    1.00
   3  -4  -1  409.46   11.60
   3  -4  -1  434.86   12.80
   3  -4  -1  432.56   11.10
   3  -4  -1  419.86   11.60
   3  -4  -1  412.36   11.30
  -3   4   1  436.26   11.90
  -3   4   1  435.66   12.00
  -3   4   1  422.26   11.60
  -3   4   1  426.06   11.60
  -3   4   1  436.36   12.90
   2  -4  -1   45.30    3.00
   2  -4  -1   46.30    3.30
   2  -4  -1   56.19    3.30
   2  -4  -1   50.49    3.00
   2  -4  -1   46.20    3.10
   2  -4  -1   46.80    2.90
   2  -4  -1   45.10    2.20
  -2   4   1   52.09    3.50
  -2   4   1   44.30    3.00
  -2   4   1   45.10    2.90
  -2   4   1   45.50    2.90
  -2   4   1   50.49    3.20
  -2   4   1   45.70    2.10
   1  -4  -1  179.18    6.60
   1  -4  -1  176.58    6.40
   1  -4  -1  157.78    6.10
   1  -4  -1  162.48    6.10
   1  -4  -1  174.38    5.80
   1  -4  -1  175.38    6.70
  -1   4   1  176.98    6.50
  -1   4   1  189.48    6.90
  -1   4   1  181.48    6.50
  -1   4   1  175.28    6.90
  -1   4   1  179.58    6.30
  -1   4   1  181.08    5.70
  -1   4   1  187.78    6.60
   0  -4  -1  415.86   11.60
   0  -4  -1  441.16   12.10
   0  -4  -1  447.76   12.30
   0  -4  -1  428.26   12.10
   0  -4  -1  407.76   11.70
   0  -4  -1  451.85   12.40
   0   4   1  423.86   11.90
   0   4   1  419.86   12.10
   0   4   1  422.16   12.20
   0   4   1  416.06   11.90
   0   4   1  412.66   11.40
   0   4   1  419.06   12.00
   0   4   1  453.95   12.00
  -1  -4  -1  306.07   10.00
  -1  -4  -1  290.77    9.70
  -1  -4  -1  311.07   10.00
  -1  -4  -1  295.27    9.90
  -1  -4  -1  325.47   10.30
  -1  -4  -1  323.87   10.20
  -1  -4  -1  298.67    9.70
   1   4   1  314.37    9.90
   1   4   1  297.27    9.60
   1   4   1  311.87    9.80
   1   4   1  304.87   10.00
   1   4   1  319.67   10.20
   1   4   1  305.87   10.00
   1   4   1  328.27   10.10
  -2  -4  -1  276.37   10.00
  -2  -4  -1  267.97    9.80
  -2  -4  -1  273.87    9.80
  -2  -4  -1  277.87    9.70
  -2  -4  -1  268.27    9.50
  -2  -4  -1  273.87    9.90
  -2  -4  -1  278.87    9.60
   2   4   1  273.37    9.70
   2   4   1  276.27    9.70
   2   4   1  258.67    9.70
   2   4   1  261.97    9.20
   2   4   1  273.87    9.60
   2   4   1  277.57    9.30
  -3  -4  -1  119.69    6.40
  -3  -4  -1  124.49    6.30
  -3  -4  -1  113.89    6.40
  -3  -4  -1  108.39    6.20
  -3  -4  -1  115.19    6.40
  -3  -4  -1  108.49    6.40
  -3  -4  -1  124.49    6.30
   3   4   1  122.49    6.10
   3   4   1  120.99    6.30
   3   4   1  111.29    6.20
   3   4   1  124.99    6.10
   3   4   1  120.59    6.60
   3   4   1  120.29    6.30
   3   4   1  120.89    6.40
  -4  -4  -1  215.08    9.80
  -4  -4  -1  227.88    9.50
  -4  -4  -1  186.88    8.90
  -4  -4  -1  211.98    9.50
  -4  -4  -1  202.48    9.30
  -4  -4  -1  204.38    9.00
  -4  -4  -1  200.28    9.40
   4   4   1  195.98    8.80
   4   4   1  194.38    8.60
   4   4   1  220.28    9.00
   4   4   1  208.78    9.30
   4   4   1  199.88    9.20
   4   4   1  215.58    9.60
  -5  -4  -1   13.30    2.90
  -5  -4  -1    9.90    3.00
  -5  -4  -1    7.70    2.00
  -5  -4  -1    9.40    2.80
  -5  -4  -1   12.70    3.20
  -5  -4  -1   13.90    3.30
  -5  -4  -1   12.70    2.90
  -5  -4  -1   11.60    2.80
   5   4   1   11.20    2.80
   5   4   1   17.10    3.50
   5   4   1   11.80    3.10
   5   4   1   11.40    2.50
   5   4   1    7.40    2.30
  -6  -4  -1   11.20    3.10
  -6  -4  -1    8.20    2.90
  -6  -4  -1   14.00    3.50
  -6  -4  -1    9.40    3.20
  -6  -4  -1   10.50    2.70
  -6  -4  -1   14.40    3.20
  -6  -4  -1   14.80    3.60
   6   4   1   13.80    3.20
   6   4   1   13.80    3.30
   6   4   1   10.00    2.70
   6   4   1   15.70    3.90
   6   4   1   11.30    3.00
   6   4   1   16.40    3.30
  -7  -4  -1   71.09    6.90
  -7  -4  -1   67.49    6.50
  -7  -4  -1   68.39    6.40
  -7  -4  -1   55.19    6.80
  -7  -4  -1   64.99    6.60
   7   4   1   58.19    5.50
   7   4   1   64.59    6.70
   7   4   1   59.69    6.20
   9  -5  -1   76.69    9.90
   9  -5  -1   70.09    5.80
  -9   5   1   63.09    5.90
  -9   5   1   69.49    5.50
  -9   5   1   77.99    7.60
  -9   5   1   56.39    7.80
  -9   5   1   57.99    5.40
   8  -5  -1   42.80    6.80
   8  -5  -1   42.60    5.40
   8  -5  -1   42.60    3.90
  -8   5   1   34.80    4.90
  -8   5   1   39.20    3.90
  -8   5   1   44.20    4.20
  -8   5   1   41.80    4.40
  -8   5   1   37.20    5.50
   7  -5  -1  112.49    6.40
   7  -5  -1  105.59    8.20
  -7   5   1  112.99    6.80
  -7   5   1  105.89    6.00
  -7   5   1  117.89    6.70
  -7   5   1  117.69    8.00
  -7   5   1  118.09    7.50
   6  -5  -1   12.80    2.20
   6  -5  -1    8.50    2.00
   6  -5  -1    9.20    3.20
   6  -5  -1    8.50    2.10
  -6   5   1   12.30    2.50
  -6   5   1    6.00    1.80
  -6   5   1   11.80    2.80
   5  -5  -1    0.10    0.80
   5  -5  -1    0.70    0.90
   5  -5  -1   -1.10    1.30
   5  -5  -1    0.00    0.60
   5  -5  -1   -0.80    0.80
   5  -5  -1   -0.10    0.70
  -5   5   1    0.50    0.90
  -5   5   1    0.40    0.90
  -5   5   1   -0.80    1.20
  -5   5   1    0.20    1.00
  -5   5   1    0.40    0.90
   4  -5  -1  167.68    7.80
   4  -5  -1  181.38    7.00
   4  -5  -1  168.88    6.10
   4  -5  -1  182.78    7.00
   4  -5  -1  164.48    6.60
  -4   5   1  178.28    8.20
  -4   5   1  180.98    7.10
  -4   5   1  172.68    7.10
  -4   5   1  173.68    7.20
  -4   5   1  172.98    6.90
   3  -5  -1    2.70    1.00
   3  -5  -1    4.30    1.40
   3  -5  -1    1.80    0.90
   3  -5  -1    4.60    1.50
   3  -5  -1    1.90    1.20
  -3   5   1    2.80    1.20
  -3   5   1    4.10    1.40
  -3   5   1    3.00    1.20
  -3   5   1    3.50    0.90
  -3   5   1    3.00    1.30
  -3   5   1    2.30    1.00
   2  -5  -1  105.19    5.10
   2  -5  -1  116.29    5.20
   2  -5  -1  114.69    5.40
   2  -5  -1  114.99    5.80
   2  -5  -1  111.79    5.20
   2  -5  -1  109.79    5.60
  -2   5   1  119.49    5.50
  -2   5   1  122.89    5.40
  -2   5   1  101.49    5.60
  -2   5   1  115.09    5.30
  -2   5   1  114.39    5.50
  -2   5   1  104.09    5.80
  -2   5   1  111.79    4.10
   1  -5  -1   19.50    2.40
   1  -5  -1   19.70    2.50
   1  -5  -1   18.80    2.70
   1  -5  -1   22.10    2.70
   1  -5  -1   20.10    2.80
   1  -5  -1   19.50    2.60
  -1   5   1   23.30    3.10
  -1   5   1   18.40    2.50
  -1   5   1   24.20    2.30
  -1   5   1   19.70    1.90
  -1   5   1   15.70    2.40
  -1   5   1   13.50    2.40
   0  -5  -1  191.88    7.80
   0  -5  -1  204.08    7.80
   0  -5  -1  207.58    8.10
   0  -5  -1  196.68    7.50
   0  -5  -1  198.88    7.60
   0  -5  -1  203.88    8.20
   0   5   1  192.38    7.80
   0   5   1  198.38    8.00
   0   5   1  198.88    7.80
   0   5   1  198.08    7.60
   0   5   1  198.68    8.00
   0   5   1  199.88    7.80
   0   5   1  197.78    7.30
  -1  -5  -1  166.38    7.30
  -1  -5  -1  176.58    7.70
  -1  -5  -1  169.38    7.40
  -1  -5  -1  180.08    7.80
  -1  -5  -1  174.68    7.40
  -1  -5  -1  163.18    7.30
  -1  -5  -1  157.38    7.20
   1   5   1  163.98    7.10
   1   5   1  159.78    7.30
   1   5   1  167.48    7.40
   1   5   1  173.68    7.40
   1   5   1  164.78    7.30
   1   5   1  173.88    7.70
   1   5   1  156.28    6.90
  -2  -5  -1    2.50    1.40
  -2  -5  -1    0.00    0.70
  -2  -5  -1   -1.00    0.60
  -2  -5  -1    0.00    1.20
  -2  -5  -1    2.30    1.20
  -2  -5  -1    2.70    1.50
   2   5   1   -1.00    0.90
   2   5   1   -0.10    0.90
   2   5   1   -0.20    0.70
   2   5   1   -0.40    0.60
   2   5   1    0.30    1.10
   2   5   1    0.00    1.30
  -3  -5  -1  202.18    9.50
  -3  -5  -1  197.48    9.00
  -3  -5  -1  213.78    9.50
  -3  -5  -1  219.48    9.40
  -3  -5  -1  205.18    9.40
  -3  -5  -1  204.88    9.30
  -3  -5  -1  197.48    8.90
   3   5   1  221.98    9.50
   3   5   1  217.28    9.40
   3   5   1  204.58    9.00
   3   5   1  202.18    9.40
   3   5   1  206.18    9.10
   3   5   1  197.98    8.60
   3   5   1  201.28    8.70
  -4  -5  -1   21.90    3.60
  -4  -5  -1   14.20    2.90
  -4  -5  -1   17.00    3.90
  -4  -5  -1   20.70    4.00
  -4  -5  -1   13.70    3.30
  -4  -5  -1   17.40    3.20
  -4  -5  -1   20.00    3.60
   4   5   1   15.20    3.00
   4   5   1   19.70    3.60
   4   5   1   13.30    3.00
   4   5   1   15.40    3.20
   4   5   1   14.60    3.00
   4   5   1   19.80    3.30
  -5  -5  -1   31.70    4.60
  -5  -5  -1   20.00    3.90
  -5  -5  -1   23.80    4.50
  -5  -5  -1   12.70    3.50
  -5  -5  -1   22.00    3.70
  -5  -5  -1   22.00    4.10
  -5  -5  -1   23.00    3.80
   5   5   1   20.90    3.70
   5   5   1   21.40    3.80
   5   5   1   21.10    3.90
   5   5   1   17.50    3.90
   5   5   1   21.40    3.70
   5   5   1   19.20    3.90
   5   5   1   16.30    3.90
  -6  -5  -1   15.60    3.40
  -6  -5  -1   18.60    4.10
  -6  -5  -1   13.00    3.20
  -6  -5  -1   17.00    3.80
  -6  -5  -1   13.30    4.30
  -6  -5  -1   15.60    3.80
  -6  -5  -1   15.50    4.20
  -6  -5  -1   15.80    3.70
   6   5   1   13.40    3.50
   6   5   1   20.50    4.00
   6   5   1   17.40    4.70
   6   5   1   14.40    3.70
   6   5   1   13.50    3.40
   6   5   1   13.80    3.30
  -7  -5  -1    7.70    3.70
  -7  -5  -1    3.20    4.80
  -7  -5  -1    1.20    1.90
  -7  -5  -1    8.00    3.70
  -7  -5  -1    3.20    2.80
   7   5   1    8.80    3.10
   7   5   1    8.80    3.70
   7   5   1    7.50    3.20
   7   5   1    8.40    3.20
   9  -6  -1    1.60    2.50
   9  -6  -1    0.60    1.90
   9  -6  -1    3.10    4.30
  -9   6   1    6.30    2.80
  -9   6   1    4.20    2.40
  -9   6   1    0.40    2.50
  -9   6   1    7.10    2.80
  -9   6   1    1.20    2.00
   8  -6  -1   26.60    3.80
   8  -6  -1   16.10    2.90
   8  -6  -1   24.80    5.50
  -8   6   1   17.80    3.40
  -8   6   1   16.20    3.90
  -8   6   1   17.90    3.60
  -8   6   1   20.20    3.30
  -8   6   1   20.80    3.90
   7  -6  -1   13.40    2.40
   7  -6  -1   14.50    4.10
   7  -6  -1   15.00    2.50
   7  -6  -1   13.90    2.80
  -7   6   1   15.90    2.90
  -7   6   1    8.30    2.50
  -7   6   1   16.90    3.60
  -7   6   1    9.40    2.50
  -7   6   1   15.00    2.80
   6  -6  -1  346.87   11.50
   6  -6  -1  379.46   15.40
   6  -6  -1  327.77    7.90
  -6   6   1  385.26   12.60
  -6   6   1  358.26   14.30
  -6   6   1  352.16   12.60
  -6   6   1  366.26   12.00
  -6   6   1  352.66   12.10
   5  -6  -1   28.90    2.60
   5  -6  -1   29.70    4.20
   5  -6  -1   29.10    2.80
   5  -6  -1   33.60    3.00
   5  -6  -1   31.00    3.00
  -5   6   1   36.90    3.60
  -5   6   1   31.30    3.10
  -5   6   1   37.50    3.40
  -5   6   1   29.60    3.70
  -5   6   1   36.90    4.80
   4  -6  -1  113.29    5.60
   4  -6  -1  120.79    5.90
   4  -6  -1  116.59    6.70
   4  -6  -1  113.29    5.70
   4  -6  -1  116.19    5.60
   4  -6  -1  115.19    5.60
  -4   6   1  112.69    5.90
  -4   6   1  124.69    7.00
  -4   6   1  120.19    5.90
  -4   6   1  123.09    6.00
  -4   6   1  126.29    6.30
   3  -6  -1   17.50    2.50
   3  -6  -1   12.70    2.20
   3  -6  -1   19.40    3.10
   3  -6  -1   15.50    2.70
   3  -6  -1   17.30    2.50
  -3   6   1   15.20    2.90
  -3   6   1   20.70    2.80
  -3   6   1   15.50    1.40
  -3   6   1   18.20    2.70
  -3   6   1   16.50    2.70
  -3   6   1   16.00    3.00
   2  -6  -1   14.20    2.30
   2  -6  -1   18.00    2.80
   2  -6  -1   14.50    2.40
   2  -6  -1   13.20    2.30
   2  -6  -1   13.60    2.70
  -2   6   1   13.90    1.80
  -2   6   1   15.70    2.60
  -2   6   1   13.60    2.30
  -2   6   1   13.30    2.40
  -2   6   1   16.90    2.90
  -2   6   1   14.80    2.70
  -2   6   1   15.60    2.50
   1  -6  -1   68.29    4.60
   1  -6  -1   71.89    5.00
   1  -6  -1   71.39    4.30
   1  -6  -1   76.59    5.40
   1  -6  -1   72.89    4.60
   1  -6  -1   73.69    5.40
  -1   6   1   79.79    5.00
  -1   6   1   70.39    4.00
  -1   6   1   75.49    5.10
  -1   6   1   76.09    5.00
  -1   6   1   68.09    4.40
  -1   6   1   64.69    4.50
  -1   6   1   67.99    4.50
   0  -6  -1    9.40    2.40
   0  -6  -1    8.10    1.80
   0  -6  -1    5.80    1.80
   0  -6  -1    5.30    1.50
   0  -6  -1    4.30    2.00
   0  -6  -1    7.00    1.80
   0  -6  -1    8.20    2.00
   0   6   1    9.40    2.20
   0   6   1    6.10    1.80
   0   6   1    7.80    2.10
   0   6   1    7.30    2.00
   0   6   1    8.30    2.00
   0   6   1    6.80    1.80
   0   6   1    5.20    1.50
  -1  -6  -1    7.60    2.10
  -1  -6  -1    5.70    1.90
  -1  -6  -1    9.50    2.20
  -1  -6  -1    7.30    2.10
  -1  -6  -1   10.90    2.60
  -1  -6  -1    7.90    1.90
  -1  -6  -1   10.30    3.40
  -1  -6  -1    8.30    2.10
   1   6   1    5.90    2.00
   1   6   1    8.40    2.20
   1   6   1    7.90    2.20
   1   6   1    6.50    2.00
   1   6   1    8.30    2.00
   1   6   1    7.70    2.10
   1   6   1    5.90    2.00
  -2  -6  -1   12.60    2.80
  -2  -6  -1    9.00    2.40
  -2  -6  -1    9.30    2.40
  -2  -6  -1   13.00    2.60
  -2  -6  -1   11.10    2.50
  -2  -6  -1   12.80    2.80
  -2  -6  -1    7.30    2.90
  -2  -6  -1   11.90    2.70
   2   6   1   17.30    3.40
   2   6   1   10.60    2.30
   2   6   1   11.50    2.60
   2   6   1   14.90    2.90
   2   6   1    8.00    2.10
   2   6   1   13.90    2.80
  -3  -6  -1   41.90    6.00
  -3  -6  -1   37.90    4.90
  -3  -6  -1   35.20    4.50
  -3  -6  -1   37.30    4.90
  -3  -6  -1   38.70    5.10
  -3  -6  -1   39.00    5.00
  -3  -6  -1   46.60    4.50
  -3  -6  -1   43.00    5.30
   3   6   1   37.10    4.90
   3   6   1   36.10    4.50
   3   6   1   40.90    4.00
   3   6   1   39.00    5.10
   3   6   1   36.40    4.80
   3   6   1   36.40    3.90
  -4  -6  -1   49.00    5.10
  -4  -6  -1   54.29    5.40
  -4  -6  -1   49.80    4.90
  -4  -6  -1   49.40    5.20
  -4  -6  -1   61.69    5.90
  -4  -6  -1   58.19    5.90
  -4  -6  -1   53.79    5.20
   4   6   1   64.99    5.30
   4   6   1   52.09    5.10
   4   6   1   51.19    5.10
   4   6   1   49.80    4.90
   4   6   1   56.09    5.60
   4   6   1   48.20    4.50
  -5  -6  -1    2.30    2.20
  -5  -6  -1    0.90    1.90
  -5  -6  -1   -5.30    1.80
  -5  -6  -1   -2.70    2.30
  -5  -6  -1    0.30    1.60
  -5  -6  -1    1.20    1.80
  -5  -6  -1    0.90    2.20
  -5  -6  -1   -0.10    1.60
   5   6   1   -0.70    1.40
   5   6   1    2.40    2.10
   5   6   1   -4.60    2.20
   5   6   1    0.50    2.00
   5   6   1    1.80    1.90
  -6  -6  -1   -4.60    2.50
  -6  -6  -1   -1.10    1.70
  -6  -6  -1    2.80    3.40
  -6  -6  -1    0.70    2.10
  -6  -6  -1   -0.90    2.40
   6   6   1   -2.40    1.90
   6   6   1   -3.40    2.40
   6   6   1   -1.00    1.60
   6   6   1   -0.70    1.80
   8  -7  -1   34.40    4.10
  -8   7   1   32.90    5.40
  -8   7   1   29.10    4.00
  -8   7   1   43.40    5.30
  -8   7   1   24.90    3.60
  -8   7   1   29.80    4.10
   7  -7  -1    9.00    2.50
   7  -7  -1    4.30    1.90
   7  -7  -1    7.50    2.10
   7  -7  -1    5.70    1.90
  -7   7   1    8.70    2.80
  -7   7   1    4.00    1.60
  -7   7   1    5.40    2.20
  -7   7   1    3.10    1.90
  -7   7   1    7.60    2.30
   6  -7  -1   84.39    5.10
   6  -7  -1   84.49    5.10
   6  -7  -1   76.59    4.00
  -6   7   1   74.69    5.60
  -6   7   1   80.19    5.50
  -6   7   1   76.59    5.40
  -6   7   1   85.69    5.40
  -6   7   1   67.29    6.00
   5  -7  -1    9.10    2.10
   5  -7  -1    8.90    2.20
   5  -7  -1    6.50    2.40
   5  -7  -1    7.70    2.00
  -5   7   1    8.20    2.10
  -5   7   1    9.20    2.70
  -5   7   1    9.70    2.30
  -5   7   1    9.20    2.10
  -5   7   1    6.60    2.20
   4  -7  -1   92.69    5.30
   4  -7  -1   91.79    5.30
   4  -7  -1   66.89    4.60
   4  -7  -1   88.59    5.50
   4  -7  -1   96.59    6.30
   4  -7  -1   84.39    5.00
  -4   7   1   93.29    6.50
  -4   7   1   86.69    5.30
  -4   7   1   93.89    5.40
  -4   7   1   90.09    6.40
  -4   7   1   90.79    5.60
  -4   7   1   96.49    6.70
   3  -7  -1   62.59    4.40
   3  -7  -1   70.69    5.40
   3  -7  -1   71.39    4.70
   3  -7  -1   71.99    4.60
   3  -7  -1   71.19    5.20
  -3   7   1   66.59    4.80
  -3   7   1   61.59    5.20
  -3   7   1   67.99    5.50
  -3   7   1   62.49    4.60
  -3   7   1   63.79    3.30
  -3   7   1   66.19    4.60
  -3   7   1   71.79    4.60
   2  -7  -1    4.20    1.60
   2  -7  -1    7.20    2.40
   2  -7  -1    2.70    1.40
   2  -7  -1    6.10    2.10
   2  -7  -1    3.40    1.40
   2  -7  -1    6.80    2.10
  -2   7   1    4.10    1.80
  -2   7   1    4.20    1.60
  -2   7   1    2.40    1.60
  -2   7   1    6.00    1.90
  -2   7   1    5.80    1.40
  -2   7   1    5.20    1.70
  -2   7   1    6.20    1.70
   1  -7  -1   37.80    3.80
   1  -7  -1   34.90    3.40
   1  -7  -1   40.40    4.00
   1  -7  -1   36.50    3.40
  -1   7   1   34.90    4.40
  -1   7   1   40.80    3.90
  -1   7   1   33.90    4.40
  -1   7   1   37.80    3.40
  -1   7   1   41.50    3.50
  -1   7   1   37.60    3.60
  -1   7   1   40.30    3.70
   0  -7  -1   17.60    3.30
   0  -7  -1   21.90    3.30
   0  -7  -1   18.50    3.20
   0  -7  -1   19.40    3.20
   0  -7  -1   19.80    3.20
   0  -7  -1   21.10    3.50
   0  -7  -1   20.50    4.00
   0   7   1   22.30    3.60
   0   7   1   26.40    4.00
   0   7   1   24.50    3.40
   0   7   1   20.70    3.50
   0   7   1   23.50    3.40
   0   7   1   25.30    3.50
   0   7   1   28.50    3.90
  -1  -7  -1  108.89    6.60
  -1  -7  -1  108.39    6.70
  -1  -7  -1  107.99    6.80
  -1  -7  -1  100.59    6.70
  -1  -7  -1   97.69    7.30
  -1  -7  -1  110.69    6.80
  -1  -7  -1  107.59    6.60
  -1  -7  -1  108.89    6.60
   1   7   1  107.29    6.60
   1   7   1  101.89    6.60
   1   7   1  108.19    6.50
   1   7   1  100.59    6.40
   1   7   1   99.29    6.70
   1   7   1   98.09    6.40
   1   7   1  102.89    6.20
  -2  -7  -1    9.00    2.50
  -2  -7  -1    6.20    2.30
  -2  -7  -1    9.90    2.70
  -2  -7  -1    6.70    2.50
  -2  -7  -1    4.00    2.30
  -2  -7  -1    7.20    2.90
  -2  -7  -1    8.00    2.50
  -2  -7  -1    2.00    2.10
   2   7   1    8.10    2.30
   2   7   1    6.80    2.30
   2   7   1    8.10    2.40
   2   7   1    8.60    2.60
   2   7   1    4.40    1.50
   2   7   1    2.10    2.00
  -3  -7  -1   40.20    5.40
  -3  -7  -1   26.10    5.10
  -3  -7  -1   41.70    5.60
  -3  -7  -1   41.00    5.20
  -3  -7  -1   32.40    4.80
  -3  -7  -1   33.70    5.00
  -3  -7  -1   36.30    5.10
   3   7   1   35.30    4.90
   3   7   1   32.80    4.70
   3   7   1   39.00    5.50
   3   7   1   38.90    5.20
   3   7   1   35.70    4.90
   3   7   1   42.50    4.30
   3   7   1   29.00    4.50
  -4  -7  -1   40.50    5.50
  -4  -7  -1   44.10    5.60
  -4  -7  -1   46.40    6.10
  -4  -7  -1   43.20    5.70
  -4  -7  -1   46.60    7.20
  -4  -7  -1   39.00    5.70
   4   7   1   53.99    5.50
   4   7   1   39.10    5.20
   4   7   1   53.69    6.90
   4   7   1   46.20    4.90
   4   7   1   39.40    5.50
   4   7   1   56.49    5.70
  -5  -7  -1   -3.10    3.00
  -5  -7  -1    1.30    2.20
  -5  -7  -1   -0.30    2.00
  -5  -7  -1    1.60    2.60
  -5  -7  -1   -0.60    2.40
   5   7   1    0.50    3.00
   5   7   1   -0.80    1.90
   5   7   1   -0.70    2.10
   5   7   1    0.00    2.20
   5   7   1    0.70    1.90
   8  -8  -1   -0.40    2.20
   8  -8  -1    3.30    2.50
  -8   8   1   -1.60    1.90
  -8   8   1    9.70    3.80
  -8   8   1    5.90    2.50
  -8   8   1    6.60    2.40
  -8   8   1    3.20    2.10
   7  -8  -1    0.60    0.70
   7  -8  -1    2.50    1.90
  -7   8   1    4.30    1.80
  -7   8   1    2.10    2.10
  -7   8   1   -0.40    1.70
  -7   8   1   -1.70    1.40
  -7   8   1    4.50    1.80
   6  -8  -1   24.40    3.30
   6  -8  -1   22.60    3.20
   6  -8  -1   22.00    3.30
   6  -8  -1   17.60    2.90
   6  -8  -1   26.90    3.30
  -6   8   1   24.30    4.50
  -6   8   1   17.20    3.10
  -6   8   1   22.30    3.60
  -6   8   1   18.90    3.30
  -6   8   1   17.30    3.20
   5  -8  -1   25.60    4.10
   5  -8  -1   21.90    3.70
   5  -8  -1   28.40    4.00
   5  -8  -1   20.10    4.80
  -5   8   1   29.70    4.10
  -5   8   1   24.90    3.70
  -5   8   1   27.30    4.60
  -5   8   1   15.50    2.80
  -5   8   1   33.50    4.20
  -5   8   1   25.70    4.20
   4  -8  -1   46.80    4.50
   4  -8  -1   39.60    3.70
   4  -8  -1   40.60    3.60
  -4   8   1   42.30    4.10
  -4   8   1   44.90    4.90
  -4   8   1   45.90    5.70
  -4   8   1   41.40    3.90
  -4   8   1   42.20    2.20
  -4   8   1   40.90    4.20
  -4   8   1   40.40    3.90
   3  -8  -1  127.99    7.20
   3  -8  -1  152.08    7.50
   3  -8  -1  166.78    8.80
  -3   8   1  160.28    7.60
  -3   8   1  163.18    7.90
  -3   8   1  153.28    8.00
  -3   8   1  171.88    8.20
  -3   8   1  156.48    9.10
  -3   8   1  161.68    6.10
   2  -8  -1    7.40    2.50
   2  -8  -1    3.40    1.70
   2  -8  -1    7.10    2.80
  -2   8   1   13.00    2.90
  -2   8   1    6.30    2.20
  -2   8   1   11.90    2.70
  -2   8   1   10.00    2.00
  -2   8   1    7.40    2.00
  -2   8   1    8.20    2.30
  -2   8   1    6.70    2.30
   1  -8  -1    8.00    2.50
   1  -8  -1    6.50    2.10
   1  -8  -1    4.90    2.50
   1  -8  -1    7.40    2.30
   1  -8  -1    4.20    1.50
  -1   8   1    6.80    1.80
  -1   8   1    1.80    1.70
  -1   8   1    4.20    2.60
  -1   8   1    5.60    2.00
  -1   8   1    2.90    1.90
  -1   8   1    3.80    1.80
   0  -8  -1   63.19    5.00
   0  -8  -1   71.39    5.50
   0  -8  -1   71.69    5.60
   0  -8  -1   61.89    5.40
   0  -8  -1   67.09    5.60
   0  -8  -1   59.29    6.00
   0   8   1   56.19    5.00
   0   8   1   61.09    5.30
   0   8   1   74.69    5.90
   0   8   1   62.49    5.50
   0   8   1   62.99    4.90
   0   8   1   60.39    5.40
  -1  -8  -1   11.10    2.80
  -1  -8  -1   10.60    3.60
  -1  -8  -1   12.30    2.90
  -1  -8  -1   14.20    3.40
  -1  -8  -1   10.30    3.00
  -1  -8  -1   15.30    3.40
  -1  -8  -1    7.70    2.60
   1   8   1   10.40    3.10
   1   8   1   11.90    2.90
   1   8   1   10.90    2.70
   1   8   1   11.60    3.00
   1   8   1    5.90    2.30
   1   8   1   12.70    3.00
  -2  -8  -1    3.00    2.00
  -2  -8  -1   -0.10    1.70
  -2  -8  -1    0.40    1.40
  -2  -8  -1    2.90    2.60
  -2  -8  -1   -1.60    1.90
   2   8   1   -1.60    2.10
   2   8   1    0.10    1.40
   2   8   1    0.10    1.80
   2   8   1   -2.90    1.40
   2   8   1    1.20    2.10
  -3  -8  -1   20.00    5.10
  -3  -8  -1   22.80    4.60
  -3  -8  -1   27.40    4.60
  -3  -8  -1   26.20    4.60
  -3  -8  -1   19.20    4.00
  -3  -8  -1   22.10    4.10
   3   8   1   22.80    4.30
   3   8   1   26.20    4.60
   3   8   1   23.80    4.30
   3   8   1   23.40    4.30
   3   8   1   24.90    4.30
   3   8   1   24.60    4.70
  -4  -8  -1    0.90    2.70
  -4  -8  -1    2.20    2.30
  -4  -8  -1    4.30    2.70
  -4  -8  -1    1.50    2.50
   4   8   1    0.10    1.70
   4   8   1    3.80    3.20
   4   8   1    2.90    2.30
   4   8   1    0.70    2.10
   4   8   1   -1.70    3.00
   4   8   1   -1.20    2.30
   7  -9  -1    3.00    2.60
   7  -9  -1   -0.20    1.90
   7  -9  -1    0.70    1.60
  -7   9   1   -0.20    2.00
  -7   9   1   -0.90    1.40
  -7   9   1   -1.50    1.80
  -7   9   1   -0.30    1.80
  -7   9   1    2.00    2.70
   6  -9  -1   76.19    5.30
   6  -9  -1   70.99    5.20
   6  -9  -1   70.59    5.20
  -6   9   1   64.59    5.60
  -6   9   1   58.59    5.20
  -6   9   1   56.59    5.40
  -6   9   1   62.09    7.80
  -6   9   1   53.79    6.90
  -6   9   1   61.99    5.40
   5  -9  -1   78.19    5.60
   5  -9  -1   82.09    5.50
   5  -9  -1   75.69    6.90
   5  -9  -1   82.89    7.20
  -5   9   1   76.99    5.80
  -5   9   1   82.79    5.80
  -5   9   1   75.19    6.90
  -5   9   1   80.59    5.70
  -5   9   1   83.09    7.30
  -5   9   1   73.29    6.50
   4  -9  -1    0.10    1.80
   4  -9  -1    2.20    1.50
   4  -9  -1   -0.70    1.20
   4  -9  -1   -0.40    1.80
   4  -9  -1    0.20    1.60
   4  -9  -1    0.10    1.80
  -4   9   1    1.60    1.50
  -4   9   1    0.60    0.70
  -4   9   1    0.10    1.70
  -4   9   1    0.60    1.20
  -4   9   1    2.40    1.80
  -4   9   1    1.40    2.40
  -4   9   1    0.90    1.60
   3  -9  -1   30.30    5.10
   3  -9  -1   24.20    3.90
  -3   9   1   25.70    3.00
  -3   9   1   29.40    4.30
  -3   9   1   17.70    3.70
  -3   9   1   22.90    4.10
  -3   9   1   28.00    4.90
  -3   9   1   19.10    3.30
  -3   9   1   20.80    3.60
   2  -9  -1   -0.30    1.50
   2  -9  -1   -0.40    1.70
   2  -9  -1   -1.20    1.80
   2  -9  -1   -0.30    1.50
  -2   9   1   -0.30    1.50
  -2   9   1   -1.10    1.60
  -2   9   1   -1.10    1.60
  -2   9   1    2.20    1.60
  -2   9   1    0.10    1.70
  -2   9   1    0.80    1.30
  -2   9   1   -0.40    1.60
   1  -9  -1   16.20    3.40
   1  -9  -1   16.30    3.10
   1  -9  -1   19.60    4.80
  -1   9   1   23.50    3.90
  -1   9   1   13.30    3.20
  -1   9   1   17.20    3.20
  -1   9   1   15.10    2.90
  -1   9   1   19.90    3.60
  -1   9   1   19.20    3.80
  -1   9   1   11.80    3.10
   0  -9  -1   16.70    3.30
   0  -9  -1   16.40    3.70
   0  -9  -1   26.10    5.30
   0  -9  -1   16.60    3.60
   0  -9  -1   18.40    3.70
   0   9   1   20.30    3.70
   0   9   1   19.90    3.80
   0   9   1   20.60    4.00
   0   9   1   12.80    3.10
   0   9   1   17.80    3.50
   0   9   1   14.80    3.50
   0   9   1   10.10    3.10
  -1  -9  -1   74.19    6.70
  -1  -9  -1   57.39    5.50
  -1  -9  -1   69.79    6.70
  -1  -9  -1   82.59    6.80
  -1  -9  -1   81.29    8.00
  -1  -9  -1   73.59    6.30
  -1  -9  -1   90.19    6.90
   1   9   1   72.29    6.00
   1   9   1   74.59    6.20
   1   9   1   56.59    5.30
   1   9   1   74.59    6.70
   1   9   1   62.69    6.00
   1   9   1   50.59    5.40
  -2  -9  -1    2.10    2.80
  -2  -9  -1    0.20    2.20
  -2  -9  -1    1.00    2.10
  -2  -9  -1   -1.10    1.80
  -2  -9  -1    1.60    2.40
   2   9   1   -1.60    1.90
   2   9   1    2.00    2.20
   2   9   1    1.20    2.10
   2   9   1   -2.80    2.30
   2   9   1   -2.70    2.20
  -3  -9  -1   69.29    7.00
  -3  -9  -1   69.39    6.40
  -3  -9  -1   58.69    8.70
   3   9   1   62.99    6.50
   3   9   1   69.09    6.50
   3   9   1   78.79    6.50
   3   9   1   76.59    6.80
   3   9   1   59.49    7.70
   6 -10  -1    5.40    2.80
   6 -10  -1   15.20    3.50
  -6  10   1   15.40    4.50
  -6  10   1   11.30    2.60
  -6  10   1   16.20    3.30
  -6  10   1    7.50    3.70
  -6  10   1    7.20    2.80
  -6  10   1    9.10    3.30
   5 -10  -1    3.70    2.40
  -5  10   1    1.90    2.10
  -5  10   1    3.50    2.50
  -5  10   1    0.10    2.40
  -5  10   1    5.00    2.40
  -5  10   1    3.90    2.20
  -5  10   1    3.20    2.30
   4 -10  -1    7.20    2.70
  -4  10   1    3.70    2.00
  -4  10   1    2.30    2.20
  -4  10   1    4.70    1.50
  -4  10   1    8.20    3.10
  -4  10   1    7.50    2.30
  -4  10   1    8.50    2.30
  -4  10   1    3.00    2.30
   3 -10  -1  255.97   13.30
   3 -10  -1  287.87   11.70
   3 -10  -1  269.07   13.40
  -3  10   1  268.07   12.30
  -3  10   1  290.57   13.50
  -3  10   1  261.17    9.70
  -3  10   1  281.57   12.10
  -3  10   1  270.17   11.90
  -3  10   1  300.57   14.20
  -3  10   1  281.17   11.60
   2 -10  -1  399.56   16.30
   2 -10  -1  411.06   17.90
   2 -10  -1  422.76   15.00
   2 -10  -1  393.46   14.80
  -2  10   1  412.36   15.00
  -2  10   1  396.06   15.40
  -2  10   1  420.36   17.30
  -2  10   1  406.36   16.50
  -2  10   1  404.66   13.50
  -2  10   1  424.46   15.60
  -2  10   1  413.86   16.10
   1 -10  -1  133.19    8.80
   1 -10  -1  138.19    8.40
   1 -10  -1  122.19    7.70
   1 -10  -1  118.69    9.70
  -1  10   1  144.89    8.40
  -1  10   1  124.59    8.70
  -1  10   1  121.29    8.30
  -1  10   1  130.29    8.00
  -1  10   1  126.99    7.30
  -1  10   1  127.49    8.70
  -1  10   1  123.99    9.00
   0 -10  -1   42.30    5.50
   0 -10  -1   40.80    6.50
   0 -10  -1   44.30    6.10
   0 -10  -1   34.70    6.60
   0  10   1   54.39    6.80
   0  10   1   43.10    6.00
   0  10   1   42.90    5.90
   0  10   1   50.19    5.30
   0  10   1   43.90    5.70
   0  10   1   34.50    5.40
   0  10   1   38.80    5.20
  -1 -10  -1   10.40    3.40
  -1 -10  -1    1.60    2.70
  -1 -10  -1    4.90    3.50
   1  10   1    4.80    2.70
   1  10   1    6.90    2.90
   1  10   1    4.60    2.80
   1  10   1    8.60    3.10
  -2 -10  -1    1.00    3.10
  -2 -10  -1    0.90    2.90
  -2 -10  -1    1.00    3.10
   2  10   1    0.90    2.60
   2  10   1   -1.80    3.30
   2  10   1    1.60    2.40
   2  10   1    1.00    2.30
   4 -11  -1   -3.00    2.20
   4 -11  -1    1.30    2.20
   4 -11  -1    0.30    2.40
  -4  11   1   -2.10    2.60
  -4  11   1   -1.00    1.40
  -4  11   1    3.80    2.50
  -4  11   1   -2.80    2.40
  -4  11   1   -1.50    2.00
  -4  11   1   -0.40    2.50
  -4  11   1   -4.20    1.80
   3 -11  -1   19.80    5.00
  -3  11   1   21.40    4.60
  -3  11   1   25.20    4.20
  -3  11   1   25.10    5.00
  -3  11   1   18.20    3.10
  -3  11   1   19.30    4.00
  -3  11   1   21.90    4.30
  -3  11   1   20.40    5.40
   2 -11  -1  144.09   10.80
  -2  11   1  147.49    9.70
  -2  11   1  121.79    9.10
  -2  11   1  132.89    9.10
  -2  11   1  135.39    8.60
  -2  11   1  134.69    7.60
  -2  11   1  137.49    9.80
  -2  11   1  146.09    8.70
   1 -11  -1   40.20    7.40
   1 -11  -1   43.70    5.80
  -1  11   1   32.40    4.80
  -1  11   1   29.80    5.50
  -1  11   1   36.70    6.20
  -1  11   1   37.40    5.90
  -1  11   1   32.80    4.90
  -1  11   1   33.20    5.50
  -1  11   1   37.60    5.40
   0 -11  -1    8.30    4.30
   0 -11  -1   -0.40    2.10
   0 -11  -1    2.20    3.30
   0  11   1    2.40    2.30
   0  11   1    4.30    3.20
   0  11   1   11.20    3.40
   0  11   1   -5.70    3.10
   0  11   1    2.80    2.60
   1  11  -2   11.70    3.00
   1  11  -2   11.40    3.30
   1  11  -2   16.80    4.40
   1  11  -2    7.90    3.00
   1  11  -2   13.80    4.20
  -1 -11   2   10.40    3.60
  -1 -11   2   13.00    4.20
  -1 -11   2    0.70    2.40
   0  11  -2   11.30    3.80
   0  11  -2   23.30    4.50
   0  11  -2   23.30    5.00
   0  11  -2   16.60    3.30
   0  11  -2   13.10    3.30
   0  11  -2   10.80    3.10
   0  11  -2   14.80    4.50
   0 -11   2   14.40    4.70
   0 -11   2   20.80    4.00
  -1  11  -2   22.60    3.80
  -1  11  -2   21.90    4.30
  -1  11  -2   19.10    4.50
  -1  11  -2   16.60    3.90
  -1  11  -2   21.10    4.50
  -1  11  -2   16.90    3.80
  -1  11  -2   20.00    3.70
   1 -11   2   20.50    3.60
   1 -11   2   19.40    4.30
   1 -11   2   14.30    4.40
  -2  11  -2    1.30    2.10
  -2  11  -2    8.80    2.30
  -2  11  -2    4.80    2.90
  -2  11  -2    2.50    2.20
  -2  11  -2    5.40    2.70
  -2  11  -2    4.70    2.30
   2 -11   2    7.10    3.20
   2 -11   2    8.30    2.30
   2 -11   2    6.10    3.50
   2 -11   2    5.90    3.60
  -3  11  -2    3.00    2.60
  -3  11  -2    4.20    2.10
  -3  11  -2    3.10    1.70
  -3  11  -2   -0.70    2.10
  -3  11  -2    1.70    1.90
  -3  11  -2    3.80    2.70
  -3  11  -2    3.90    1.90
   3 -11   2   -1.50    1.80
   3 -11   2    1.00    2.50
   3 -11   2    3.60    2.10
  -4  11  -2   22.80    3.30
  -4  11  -2   18.80    3.60
  -4  11  -2   20.30    2.60
  -4  11  -2   17.10    3.50
  -4  11  -2   21.90    3.40
  -4  11  -2   21.90    4.90
  -4  11  -2   15.10    3.80
   4 -11   2   20.90    5.00
   3  10  -2   11.40    3.60
   3  10  -2    7.70    2.90
   3  10  -2   -0.70    2.00
   3  10  -2    6.10    2.90
   3  10  -2    6.80    3.20
  -3 -10   2    5.50    4.00
  -3 -10   2   -0.60    3.00
  -3 -10   2    1.00    3.00
  -3 -10   2    7.10    3.30
   2  10  -2   21.20    4.70
   2  10  -2   20.00    4.10
   2  10  -2   23.50    4.80
   2  10  -2   21.30    3.80
  -2 -10   2   19.30    4.20
  -2 -10   2   19.40    5.50
  -2 -10   2   19.90    4.50
  -2 -10   2   21.80    4.30
   1  10  -2   13.50    3.40
   1  10  -2   14.10    3.70
   1  10  -2   18.30    3.40
   1  10  -2   19.20    3.70
   1  10  -2   13.00    3.10
   1  10  -2   15.50    3.90
  -1 -10   2   16.00    3.80
  -1 -10   2   19.00    3.80
  -1 -10   2   25.90    5.80
   0  10  -2  134.69    9.50
   0  10  -2  154.68    9.10
   0  10  -2  168.18    8.30
   0  10  -2  144.89    9.50
   0  10  -2  150.98    8.30
   0  10  -2  154.88    8.80
   0  10  -2  134.39    9.60
   0 -10   2  155.18    8.20
   0 -10   2  179.88   11.90
  -1  10  -2  174.68    9.20
  -1  10  -2  206.48   10.30
  -1  10  -2  190.98    9.10
  -1  10  -2  178.98    8.70
  -1  10  -2  200.08   11.30
  -1  10  -2  192.28    9.40
  -1  10  -2  193.38    8.80
   1 -10   2  178.38    8.70
   1 -10   2  179.48   11.80
  -2  10  -2    2.00    2.00
  -2  10  -2   -0.40    1.70
  -2  10  -2   -0.30    2.00
  -2  10  -2   -1.50    1.60
  -2  10  -2    3.80    1.80
  -2  10  -2   -0.30    1.40
  -2  10  -2    0.40    1.70
   2 -10   2   -0.80    1.90
   2 -10   2    0.40    1.70
   2 -10   2   -2.20    1.50
   2 -10   2    1.60    1.50
  -3  10  -2   14.10    2.60
  -3  10  -2   19.40    4.30
  -3  10  -2   16.10    3.40
  -3  10  -2   20.20    2.90
  -3  10  -2   17.00    2.90
  -3  10  -2   16.90    3.10
   3 -10   2   18.40    3.80
   3 -10   2   16.10    2.50
   3 -10   2   16.90    2.60
   3 -10   2   19.10    4.50
   3 -10   2   12.00    2.40
  -4  10  -2   16.50    2.20
  -4  10  -2   14.60    3.60
  -4  10  -2   15.30    2.60
  -4  10  -2   24.60    3.40
  -4  10  -2   14.80    3.20
  -4  10  -2   19.70    4.30
   4 -10   2   18.50    2.60
   4 -10   2   20.70    4.60
   4 -10   2   18.90    4.30
   4 -10   2   18.70    2.50
  -5  10  -2   73.39    5.00
  -5  10  -2   65.99    6.60
  -5  10  -2   81.49    5.70
  -5  10  -2   70.29    5.30
   5 -10   2   86.79    6.70
   4   9  -2   22.00    4.20
   4   9  -2   37.60    5.60
   4   9  -2   24.40    5.00
   4   9  -2   27.80    5.20
   4   9  -2   35.50    5.20
   4   9  -2   32.90    5.50
  -4  -9   2   40.40    5.80
  -4  -9   2   30.80    6.40
  -4  -9   2   32.40    5.40
  -4  -9   2   37.00    5.30
   3   9  -2   41.40    5.70
   3   9  -2   40.20    5.50
   3   9  -2   34.00    4.50
   3   9  -2   38.40    5.30
   3   9  -2   41.20    5.80
   3   9  -2   23.90    4.20
  -3  -9   2   32.30    4.90
  -3  -9   2   31.20    6.40
  -3  -9   2   42.70    5.90
   2   9  -2   26.00    3.90
   2   9  -2   24.20    4.00
   2   9  -2   27.60    4.40
   2   9  -2   31.40    5.00
   2   9  -2   18.40    3.60
   2   9  -2   19.80    3.80
  -2  -9   2   28.40    4.00
  -2  -9   2   26.00    4.30
  -2  -9   2   18.60    3.30
  -2  -9   2   26.30    5.50
  -2  -9   2   20.20    3.80
   1   9  -2   -0.10    1.30
   1   9  -2    1.30    1.70
   1   9  -2    0.20    1.50
   1   9  -2    1.80    1.80
   1   9  -2    3.60    1.80
   1   9  -2   -0.50    1.70
   1   9  -2    0.60    1.50
  -1  -9   2   -2.60    1.30
  -1  -9   2    1.60    2.10
  -1  -9   2    0.50    2.20
  -1  -9   2   -1.00    1.40
  -1  -9   2    0.60    1.80
  -1  -9   2    7.10    2.80
   0   9  -2  181.28    8.40
   0   9  -2  168.48    9.00
   0   9  -2  190.98    9.20
   0   9  -2  196.78   10.60
   0   9  -2  195.18    9.30
   0   9  -2  178.58    8.90
   0   9  -2  195.78    9.00
   0  -9   2  173.78   11.10
   0  -9   2  200.28    9.50
   0  -9   2  192.68    8.90
   0  -9   2  198.68    9.30
  -1   9  -2  196.08    9.10
  -1   9  -2  192.78   10.60
  -1   9  -2  209.88    9.20
  -1   9  -2  214.08    9.10
  -1   9  -2  219.28   10.80
  -1   9  -2  216.28   10.00
  -1   9  -2  209.48    8.70
   1  -9   2  216.38    8.60
   1  -9   2  214.08    9.90
   1  -9   2  212.68   11.90
  -2   9  -2    4.20    1.80
  -2   9  -2    5.00    2.30
  -2   9  -2    6.00    1.80
  -2   9  -2    3.20    1.70
  -2   9  -2    7.70    2.20
  -2   9  -2    6.60    1.90
  -2   9  -2    4.50    2.30
   2  -9   2    7.10    2.30
   2  -9   2    4.80    2.00
   2  -9   2    5.40    1.80
   2  -9   2    4.60    1.70
   2  -9   2    9.00    3.20
  -3   9  -2    1.30    1.10
  -3   9  -2    2.90    1.30
  -3   9  -2    1.70    2.20
  -3   9  -2   -0.10    1.80
  -3   9  -2    2.80    1.40
  -3   9  -2    1.10    1.30
  -3   9  -2    4.20    1.80
   3  -9   2    2.60    2.30
   3  -9   2    0.00    1.30
   3  -9   2   -1.20    1.50
   3  -9   2    1.10    1.20
   3  -9   2    1.80    1.40
  -4   9  -2    1.50    1.40
  -4   9  -2   -1.60    1.70
  -4   9  -2   -0.80    1.70
  -4   9  -2    0.10    1.30
  -4   9  -2    0.90    0.80
  -4   9  -2    0.80    1.40
  -4   9  -2    2.00    1.10
   4  -9   2    2.80    2.00
   4  -9   2    0.00    1.10
   4  -9   2    0.30    1.10
   4  -9   2    0.30    1.10
  -5   9  -2   18.90    2.80
  -5   9  -2   19.30    3.00
  -5   9  -2   17.00    2.60
  -5   9  -2   15.60    3.40
  -5   9  -2   19.80    4.20
  -5   9  -2   19.70    2.70
   5  -9   2   28.00    4.90
   5  -9   2   21.30    2.00
  -6   9  -2    1.50    1.40
  -6   9  -2    1.00    2.40
  -6   9  -2    2.60    1.40
  -6   9  -2    1.90    1.50
  -6   9  -2    3.20    1.60
  -6   9  -2    4.60    2.10
   6  -9   2   -0.20    1.80
   5   8  -2    1.80    1.90
   5   8  -2    3.00    2.70
   5   8  -2   -1.00    2.20
   5   8  -2    7.80    3.80
  -5  -8   2    1.50    3.00
  -5  -8   2    4.40    2.60
  -5  -8   2    2.70    2.50
  -5  -8   2    6.80    2.70
   4   8  -2   27.40    4.50
   4   8  -2   29.50    4.90
   4   8  -2   36.30    4.90
   4   8  -2   31.50    5.00
   4   8  -2   30.40    4.40
   4   8  -2   34.60    4.90
  -4  -8   2   38.10    5.30
  -4  -8   2   24.00    4.20
  -4  -8   2   36.40    6.40
  -4  -8   2   35.40    5.20
   3   8  -2   -0.50    1.30
   3   8  -2   -0.20    1.60
   3   8  -2   -0.10    1.60
   3   8  -2    1.00    1.70
   3   8  -2   -1.60    1.90
   3   8  -2    0.40    1.80
   3   8  -2    0.20    1.90
  -3  -8   2    0.60    1.70
  -3  -8   2   -0.30    1.90
  -3  -8   2    2.20    1.90
  -3  -8   2   -3.30    1.60
  -3  -8   2    4.10    2.50
  -3  -8   2    3.40    2.50
  -3  -8   2    1.70    1.80
   2   8  -2   12.00    2.60
   2   8  -2   13.20    2.90
   2   8  -2   12.90    2.80
   2   8  -2    4.70    2.30
   2   8  -2   13.60    3.00
   2   8  -2   14.80    3.20
  -2  -8   2   15.30    2.80
  -2  -8   2    8.90    2.50
  -2  -8   2   11.00    2.70
  -2  -8   2    8.40    2.50
  -2  -8   2   10.60    3.60
   1   8  -2   81.69    6.50
   1   8  -2   79.99    5.30
   1   8  -2   76.99    5.80
   1   8  -2   90.79    5.90
   1   8  -2   87.59    5.80
   1   8  -2   93.39    5.80
   1   8  -2   78.59    5.70
  -1  -8   2   82.79    5.60
  -1  -8   2   85.89    5.50
  -1  -8   2   89.69    5.90
  -1  -8   2   83.19    5.60
  -1  -8   2   91.49    7.70
   0   8  -2   20.10    3.80
   0   8  -2   13.50    2.60
   0   8  -2   11.70    2.40
   0   8  -2   18.70    3.20
   0   8  -2   20.80    3.30
   0   8  -2   16.40    3.00
   0   8  -2   17.20    3.10
   0  -8   2   19.40    4.40
   0  -8   2   14.20    2.90
   0  -8   2   14.80    2.80
   0  -8   2   11.10    2.40
  -1   8  -2   21.10    3.90
  -1   8  -2   27.40    3.50
  -1   8  -2   27.40    3.80
  -1   8  -2   24.60    3.90
  -1   8  -2   25.80    3.40
  -1   8  -2   21.00    3.10
  -1   8  -2   22.80    2.90
   1  -8   2   25.10    3.70
   1  -8   2   21.20    2.80
   1  -8   2   23.20    2.90
   1  -8   2   23.20    3.40
   1  -8   2   28.90    4.90
  -2   8  -2   62.99    5.60
  -2   8  -2   69.99    5.30
  -2   8  -2   65.49    4.50
  -2   8  -2   60.29    4.00
  -2   8  -2   55.79    4.10
  -2   8  -2   69.69    4.20
   2  -8   2   64.09    5.00
   2  -8   2   53.39    5.40
   2  -8   2   59.49    3.90
   2  -8   2   66.39    4.20
   2  -8   2   64.99    3.80
   2  -8   2   61.29    3.90
  -3   8  -2    6.60    1.90
  -3   8  -2    4.60    1.50
  -3   8  -2    3.70    1.20
  -3   8  -2    4.70    1.50
  -3   8  -2    5.80    2.30
  -3   8  -2    6.10    1.50
  -3   8  -2    4.80    2.00
   3  -8   2    5.30    1.90
   3  -8   2    3.20    1.20
   3  -8   2    5.00    1.50
   3  -8   2    5.30    1.40
   3  -8   2    3.00    1.30
  -4   8  -2    2.00    1.00
  -4   8  -2    1.40    1.20
  -4   8  -2   -2.00    1.50
  -4   8  -2    1.00    1.10
  -4   8  -2    1.00    1.30
  -4   8  -2    2.50    1.20
  -4   8  -2    0.20    0.70
   4  -8   2    0.30    0.80
   4  -8   2   -1.40    1.10
   4  -8   2    0.90    0.90
   4  -8   2    0.20    0.90
   4  -8   2    0.60    0.80
  -5   8  -2   37.20    3.30
  -5   8  -2   33.60    4.90
  -5   8  -2   36.10    5.50
  -5   8  -2   32.30    3.00
  -5   8  -2   39.00    3.40
  -5   8  -2   37.60    3.10
   5  -8   2   37.90    2.00
   5  -8   2   34.20    4.60
   5  -8   2   31.50    1.90
  -6   8  -2   15.00    2.40
  -6   8  -2   12.20    2.10
  -6   8  -2   13.80    2.40
  -6   8  -2   14.40    2.50
  -6   8  -2   12.90    3.60
   6  -8   2   15.40    2.80
  -7   8  -2    0.50    1.30
  -7   8  -2    3.30    1.50
  -7   8  -2    6.20    2.80
  -7   8  -2    3.90    2.90
  -7   8  -2    1.00    1.50
   6   7  -2    7.60    4.00
   6   7  -2    6.90    2.70
   6   7  -2   13.30    3.80
   6   7  -2   10.90    3.50
  -6  -7   2   13.50    3.50
  -6  -7   2   11.90    3.70
  -6  -7   2   13.80    4.60
  -6  -7   2   11.60    4.40
   5   7  -2   29.60    4.90
   5   7  -2   41.60    5.90
   5   7  -2   35.40    5.20
   5   7  -2   41.10    5.50
   5   7  -2   31.00    4.70
  -5  -7   2   45.00    5.70
  -5  -7   2   37.80    6.40
  -5  -7   2   36.70    5.50
  -5  -7   2   44.40    6.00
  -5  -7   2   33.20    4.90
   4   7  -2   33.60    4.60
   4   7  -2   32.70    4.70
   4   7  -2   24.60    4.50
   4   7  -2   34.10    4.70
   4   7  -2   19.90    3.90
   4   7  -2   32.50    4.50
  -4  -7   2   30.20    4.30
  -4  -7   2   26.40    4.10
  -4  -7   2   33.80    4.80
  -4  -7   2   33.90    6.00
  -4  -7   2   27.10    4.60
  -4  -7   2   32.50    4.70
   3   7  -2  168.38    8.50
   3   7  -2  164.18    8.50
   3   7  -2  190.08    9.60
   3   7  -2  168.38    8.20
   3   7  -2  172.88    8.90
   3   7  -2  170.28    9.00
   3   7  -2  171.18    9.00
  -3  -7   2  180.38    9.00
  -3  -7   2  166.28    8.80
  -3  -7   2  175.48    9.60
  -3  -7   2  164.38    8.50
  -3  -7   2  171.98   10.40
  -3  -7   2  171.48    8.20
  -3  -7   2  193.48    9.20
   2   7  -2  141.49    7.10
   2   7  -2  138.59    7.60
   2   7  -2  128.69    7.00
   2   7  -2  148.59    9.50
   2   7  -2  140.89    7.70
   2   7  -2  151.88    7.80
  -2  -7   2  139.79    9.10
  -2  -7   2  135.99    7.00
  -2  -7   2  126.29    6.90
  -2  -7   2  132.49    7.40
  -2  -7   2  145.89    7.20
   1   7  -2  114.99    6.20
   1   7  -2  115.09    6.20
   1   7  -2  119.19    6.40
   1   7  -2  117.09    7.00
   1   7  -2  131.09    7.00
   1   7  -2  119.89    6.10
   1   7  -2  115.39    6.50
  -1  -7   2  118.09    7.90
  -1  -7   2  109.89    6.30
  -1  -7   2  127.69    6.30
  -1  -7   2  116.29    5.90
  -1  -7   2  119.19    6.30
  -1  -7   2  114.49    7.20
  -1  -7   2  106.49    6.00
   0   7  -2   44.20    3.60
   0   7  -2   35.50    3.50
   0   7  -2   37.30    3.30
   0   7  -2   42.30    4.20
   0   7  -2   40.00    3.20
   0   7  -2   40.00    3.50
   0   7  -2   36.20    3.40
   0  -7   2   44.60    4.30
   0  -7   2   42.20    3.40
   0  -7   2   42.00    4.70
   0  -7   2   37.70    3.50
   0  -7   2   41.90    3.50
   0  -7   2   42.60    3.50
  -1   7  -2    0.40    1.00
  -1   7  -2    1.20    1.10
  -1   7  -2    2.60    1.30
  -1   7  -2    1.60    1.10
  -1   7  -2    2.90    1.70
  -1   7  -2    2.50    1.30
  -1   7  -2    1.90    1.30
   1  -7   2    2.20    1.20
   1  -7   2    8.30    2.80
   1  -7   2    3.40    1.40
   1  -7   2    1.50    1.00
   1  -7   2    1.80    1.00
  -2   7  -2  525.35   13.80
  -2   7  -2  523.35   15.60
  -2   7  -2  493.95   13.60
  -2   7  -2  496.05   16.70
  -2   7  -2  497.65   13.30
  -2   7  -2  492.25   13.80
  -2   7  -2  500.25   13.70
   2  -7   2  499.15   15.30
   2  -7   2  497.05   12.90
   2  -7   2  517.05   16.90
   2  -7   2  497.65   13.30
   2  -7   2  513.25   13.20
   2  -7   2  493.35   12.80
  -3   7  -2    3.90    1.20
  -3   7  -2    3.60    1.30
  -3   7  -2    4.50    1.30
  -3   7  -2    4.30    1.80
  -3   7  -2    4.20    1.20
  -3   7  -2    7.70    2.50
  -3   7  -2    2.40    1.10
   3  -7   2    2.00    0.90
   3  -7   2    4.80    1.20
   3  -7   2    4.60    1.20
   3  -7   2    4.40    2.20
   3  -7   2    4.60    1.10
   3  -7   2    6.70    1.90
  -4   7  -2    1.70    1.70
  -4   7  -2    3.60    1.20
  -4   7  -2    0.30    1.00
  -4   7  -2    1.60    1.10
  -4   7  -2    2.40    0.80
  -4   7  -2    3.00    0.80
  -4   7  -2    2.00    1.00
  -4   7  -2    5.20    2.60
   4  -7   2    2.20    0.70
   4  -7   2    1.40    0.80
   4  -7   2    4.70    2.10
  -5   7  -2   43.30    3.40
  -5   7  -2   43.80    4.50
  -5   7  -2   41.90    3.00
  -5   7  -2   40.90    3.00
  -5   7  -2   40.50    3.10
   5  -7   2   39.50    2.10
   5  -7   2   42.70    3.90
   5  -7   2   40.50    2.00
  -6   7  -2    4.40    1.50
  -6   7  -2    5.00    2.50
  -6   7  -2    2.10    1.30
  -6   7  -2    3.70    1.50
  -6   7  -2    4.10    1.30
   6  -7   2    4.20    2.20
   6  -7   2    3.40    0.90
   6  -7   2    5.50    1.70
   6  -7   2    3.10    0.70
  -7   7  -2   35.60    3.20
  -7   7  -2   37.50    3.20
  -7   7  -2   31.30    3.80
  -7   7  -2   43.10    6.20
   7  -7   2   33.50    2.10
   7  -7   2   33.90    2.00
   7  -7   2   39.50    6.80
  -8   7  -2   14.40    3.60
  -8   7  -2   16.00    3.20
  -8   7  -2   12.50    2.40
  -8   7  -2    9.70    2.20
  -8   7  -2    8.90    2.10
   8  -7   2   11.60    4.10
   7   6  -2   16.50    3.70
   7   6  -2   18.80    4.30
   7   6  -2   14.50    3.90
   7   6  -2   15.40    4.20
  -7  -6   2   12.00    3.50
  -7  -6   2   14.00    4.30
  -7  -6   2   22.90    5.30
  -7  -6   2   14.30    4.50
   6   6  -2   59.49    5.90
   6   6  -2   36.10    5.30
   6   6  -2   38.00    5.30
   6   6  -2   48.10    6.20
   6   6  -2   51.09    5.10
  -6  -6   2   46.70    6.90
  -6  -6   2   40.60    5.40
  -6  -6   2   45.60    6.20
  -6  -6   2   58.89    5.80
  -6  -6   2   46.40    6.20
   5   6  -2  146.09    8.50
   5   6  -2  131.09    8.00
   5   6  -2  159.38    9.10
   5   6  -2  152.78    8.80
   5   6  -2  145.19    8.10
   5   6  -2  138.59    9.80
  -5  -6   2  136.79    8.30
  -5  -6   2  155.88    9.10
  -5  -6   2  150.78    8.80
  -5  -6   2  146.29    9.10
  -5  -6   2  149.69    9.70
  -5  -6   2  152.58    8.20
  -5  -6   2  151.68    8.50
   4   6  -2   12.20    3.00
   4   6  -2   16.30    3.60
   4   6  -2   12.30    2.80
   4   6  -2   10.20    2.40
   4   6  -2   12.00    2.90
  -4  -6   2   13.70    3.00
  -4  -6   2   11.30    2.80
  -4  -6   2   11.70    3.60
  -4  -6   2    8.60    2.60
  -4  -6   2    9.30    2.50
  -4  -6   2   17.20    3.00
  -4  -6   2   15.90    3.20
   3   6  -2   42.20    4.00
   3   6  -2   41.90    4.30
   3   6  -2   47.90    4.00
   3   6  -2   46.20    4.30
   3   6  -2   40.80    3.70
  -3  -6   2   38.10    3.70
  -3  -6   2   47.10    4.00
  -3  -6   2   43.70    4.50
  -3  -6   2   43.50    4.90
  -3  -6   2   44.70    4.30
  -3  -6   2   40.70    4.00
  -3  -6   2   42.50    3.80
   2   6  -2    1.00    1.20
   2   6  -2   -1.30    0.90
   2   6  -2    0.30    0.80
   2   6  -2   -1.40    1.00
   2   6  -2   -1.10    1.10
  -2  -6   2   -0.80    0.70
  -2  -6   2   -0.80    1.00
  -2  -6   2    1.10    1.00
  -2  -6   2   -0.60    1.00
  -2  -6   2   -0.40    0.70
  -2  -6   2   -0.40    0.80
  -2  -6   2   -0.60    1.60
   1   6  -2  207.58    8.40
   1   6  -2  215.18    8.30
   1   6  -2  223.08    8.20
   1   6  -2  213.18    8.00
   1   6  -2  213.18    9.20
   1   6  -2  211.98    8.10
  -1  -6   2  208.28    8.00
  -1  -6   2  215.68    8.10
  -1  -6   2  216.38    8.30
  -1  -6   2  219.28    8.10
  -1  -6   2  191.98    9.00
  -1  -6   2  205.58    8.20
  -1  -6   2  212.18   10.10
   0   6  -2   18.00    2.50
   0   6  -2   17.00    2.50
   0   6  -2   17.30    2.60
   0   6  -2   18.70    3.20
   0   6  -2   17.00    2.40
   0   6  -2   16.80    2.30
   0   6  -2   18.40    2.60
   0  -6   2   18.70    2.50
   0  -6   2   19.40    3.50
   0  -6   2   16.50    2.50
   0  -6   2   20.60    2.70
   0  -6   2   14.70    2.70
   0  -6   2   16.30    2.30
  -1   6  -2  112.69    6.40
  -1   6  -2  102.19    4.60
  -1   6  -2  107.99    4.80
  -1   6  -2  109.09    5.20
  -1   6  -2  101.19    4.90
  -1   6  -2  107.19    5.40
  -1   6  -2  109.19    4.90
   1  -6   2  112.09    4.60
   1  -6   2  106.59    5.40
   1  -6   2  111.39    4.80
   1  -6   2  107.59    6.50
   1  -6   2  113.49    5.70
  -2   6  -2  775.52   18.20
  -2   6  -2  838.82   20.80
  -2   6  -2  781.12   21.80
  -2   6  -2  808.62   18.80
  -2   6  -2  800.62   18.60
  -2   6  -2  792.42   18.70
  -2   6  -2  795.32   18.50
   2  -6   2  806.62   18.00
   2  -6   2  802.72   18.10
   2  -6   2  797.92   17.70
   2  -6   2  820.02   21.80
   2  -6   2  795.82   20.40
  -3   6  -2  162.28    8.30
  -3   6  -2  172.08    6.20
  -3   6  -2  179.18    6.20
  -3   6  -2  175.78    6.00
  -3   6  -2  168.08    5.80
  -3   6  -2  174.58    8.00
   3  -6   2  170.08    7.80
   3  -6   2  173.68    9.00
   3  -6   2  172.38    5.30
   3  -6   2  169.38    5.30
  -4   6  -2   43.20    2.80
  -4   6  -2   42.80    2.90
  -4   6  -2   40.20    2.70
  -4   6  -2   37.40    4.60
  -4   6  -2   40.00    2.10
  -4   6  -2   41.40    2.90
   4  -6   2   39.00    3.50
   4  -6   2   42.40    5.40
   4  -6   2   40.90    2.10
  -5   6  -2   39.20    2.90
  -5   6  -2   38.20    3.00
  -5   6  -2   39.30    5.00
  -5   6  -2   34.20    4.50
  -5   6  -2   39.30    1.20
  -5   6  -2   42.70    2.90
   5  -6   2   39.70    2.10
   5  -6   2   40.60    2.00
   5  -6   2   44.90    5.90
   5  -6   2   39.70    2.20
   5  -6   2   41.30    2.10
   5  -6   2   35.70    3.20
  -6   6  -2   43.10    3.30
  -6   6  -2   51.29    5.20
  -6   6  -2   40.10    3.00
  -6   6  -2   36.80    3.20
  -6   6  -2   39.90    3.40
   6  -6   2   39.90    6.00
   6  -6   2   43.30    2.40
   6  -6   2   40.60    2.50
   6  -6   2   42.40    2.30
  -7   6  -2    0.30    1.10
  -7   6  -2   -0.90    1.40
  -7   6  -2    2.90    1.40
  -7   6  -2    3.00    1.20
  -7   6  -2    5.30    2.40
   7  -6   2    1.00    1.00
   7  -6   2   -0.60    2.50
   7  -6   2   -0.40    0.70
   7  -6   2    2.80    2.00
   7  -6   2    1.50    1.10
  -8   6  -2   31.00    4.20
  -8   6  -2   23.00    3.20
  -8   6  -2   27.30    3.80
  -8   6  -2   28.60    3.00
   8  -6   2   22.60    2.60
   8  -6   2   33.90    6.50
   7   5  -2   -2.70    2.70
   7   5  -2    2.70    2.40
   7   5  -2   -0.50    2.30
   7   5  -2   -0.80    1.90
   7   5  -2    0.50    1.70
   7   5  -2    1.30    2.00
  -7  -5   2    1.50    3.00
  -7  -5   2    0.30    2.30
  -7  -5   2    1.50    1.90
  -7  -5   2    0.60    1.50
  -7  -5   2   -1.50    2.30
  -7  -5   2    0.40    2.40
   6   5  -2   24.00    4.30
   6   5  -2   29.00    4.60
   6   5  -2   33.40    4.90
   6   5  -2   29.40    4.80
   6   5  -2   33.00    5.20
   6   5  -2   20.70    3.90
  -6  -5   2   28.60    4.50
  -6  -5   2   19.70    3.60
  -6  -5   2   30.70    4.70
  -6  -5   2   24.80    4.90
  -6  -5   2   24.30    4.90
  -6  -5   2   31.30    4.80
  -6  -5   2   26.40    4.40
   5   5  -2  286.47   11.80
   5   5  -2  285.17   11.90
   5   5  -2  281.17   11.50
   5   5  -2  283.87   12.30
   5   5  -2  299.47   12.30
   5   5  -2  300.07   11.70
  -5  -5   2  294.67   11.90
  -5  -5   2  285.87   12.40
  -5  -5   2  292.07   12.30
  -5  -5   2  285.27   11.30
  -5  -5   2  285.37   11.80
  -5  -5   2  287.47   12.00
  -5  -5   2  278.77   12.90
   4   5  -2   77.99    5.20
   4   5  -2   66.99    5.10
   4   5  -2   72.09    5.50
   4   5  -2   66.79    4.70
   4   5  -2   76.79    5.40
   4   5  -2   71.59    5.30
   4   5  -2   71.89    5.30
  -4  -5   2   65.69    5.80
  -4  -5   2   65.99    5.00
  -4  -5   2   71.79    5.50
  -4  -5   2   70.39    5.40
  -4  -5   2   67.49    5.20
  -4  -5   2   73.69    5.20
   3   5  -2   38.30    3.20
   3   5  -2   36.50    3.40
   3   5  -2   35.20    3.70
   3   5  -2   44.40    3.80
   3   5  -2   34.80    4.30
   3   5  -2   35.80    3.30
   3   5  -2   32.80    3.40
  -3  -5   2   35.00    3.10
  -3  -5   2   32.70    3.50
  -3  -5   2   35.00    3.50
  -3  -5   2   34.00    3.90
  -3  -5   2   42.00    3.50
  -3  -5   2   41.60    3.60
  -3  -5   2   35.30    3.70
   2   5  -2  142.49    6.30
   2   5  -2  134.89    6.00
   2   5  -2  126.29    6.40
   2   5  -2  128.79    6.30
   2   5  -2  130.49    6.30
  -2  -5   2  110.19    7.50
  -2  -5   2  127.49    6.00
  -2  -5   2  122.09    5.80
  -2  -5   2  128.59    5.70
  -2  -5   2  125.39    7.30
  -2  -5   2  131.49    6.20
   1   5  -2  607.04   15.70
   1   5  -2  624.34   16.70
   1   5  -2  600.04   15.40
   1   5  -2  622.64   17.20
   1   5  -2  636.54   15.60
  -1  -5   2  602.64   17.30
  -1  -5   2  626.34   18.40
  -1  -5   2  618.64   15.60
  -1  -5   2  621.14   16.00
  -1  -5   2  624.04   15.50
  -1  -5   2  614.54   15.70
  -1  -5   2  599.44   15.80
   0   5  -2   19.70    1.90
   0   5  -2   19.40    2.00
   0   5  -2   19.30    2.70
   0   5  -2   18.50    1.90
   0   5  -2   16.40    2.60
   0   5  -2   19.60    2.40
   0   5  -2   17.10    2.10
   0  -5   2   16.00    2.70
   0  -5   2   22.10    2.10
   0  -5   2   16.60    2.10
   0  -5   2   18.10    2.30
   0  -5   2   19.30    3.10
   0  -5   2   16.30    2.10
  -1   5  -2  106.59    4.50
  -1   5  -2  117.59    4.50
  -1   5  -2  113.59    4.30
  -1   5  -2  114.99    4.50
  -1   5  -2  110.19    5.10
  -1   5  -2  108.19    5.80
   1  -5   2  107.39    4.30
   1  -5   2  119.79    5.30
   1  -5   2  109.89    4.20
   1  -5   2  111.19    6.00
   1  -5   2  104.99    4.20
  -2   5  -2    8.80    1.30
  -2   5  -2    8.20    1.20
  -2   5  -2    7.30    1.20
  -2   5  -2    8.00    1.80
  -2   5  -2    6.50    1.80
  -2   5  -2    9.60    1.40
   2  -5   2    9.10    2.10
   2  -5   2    7.30    1.10
   2  -5   2    5.50    0.90
   2  -5   2    6.90    1.60
   2  -5   2    6.20    1.00
   2  -5   2    7.70    1.10
  -3   5  -2    2.70    0.80
  -3   5  -2    2.10    0.80
  -3   5  -2    2.70    0.80
  -3   5  -2    1.30    0.70
  -3   5  -2    1.60    1.20
   3  -5   2    2.90    1.50
   3  -5   2    1.40    0.50
   3  -5   2    2.30    0.60
   3  -5   2    2.10    1.10
  -4   5  -2   32.10    2.30
  -4   5  -2   29.20    1.70
  -4   5  -2   26.70    2.10
  -4   5  -2   28.70    2.10
  -4   5  -2   29.90    2.30
  -4   5  -2   29.70    3.80
   4  -5   2   28.40    1.70
   4  -5   2   27.40    1.50
   4  -5   2   28.40    1.70
   4  -5   2   30.90    1.70
   4  -5   2   33.10    4.60
   4  -5   2   29.80    2.80
  -5   5  -2  296.07    9.10
  -5   5  -2  274.97    8.40
  -5   5  -2  281.57    8.20
  -5   5  -2  278.87    8.60
  -5   5  -2  282.47   11.60
  -5   5  -2  283.97    6.90
   5  -5   2  282.87    7.40
   5  -5   2  294.27   12.50
   5  -5   2  286.57    7.60
   5  -5   2  289.27    9.10
  -6   5  -2  193.38   10.00
  -6   5  -2  189.38    8.40
  -6   5  -2  188.28    6.90
  -6   5  -2  189.48    6.80
  -6   5  -2  186.78    5.10
  -6   5  -2  195.78    7.40
   6  -5   2  196.08    6.30
   6  -5   2  187.38    6.30
   6  -5   2  187.88    6.00
   6  -5   2  194.08    6.10
   6  -5   2  188.28   10.50
  -7   5  -2   28.90    3.70
  -7   5  -2   25.90    2.70
  -7   5  -2   27.90    2.90
  -7   5  -2   27.30    3.40
  -7   5  -2   28.30    5.00
   7  -5   2   31.60    2.80
   7  -5   2   29.00    2.70
   7  -5   2   31.00    5.70
   7  -5   2   25.00    2.50
  -8   5  -2   50.09    6.90
  -8   5  -2   42.20    4.40
  -8   5  -2   46.00    4.10
  -8   5  -2   51.29    4.00
   8  -5   2   47.20    7.40
   8  -5   2   50.69    3.80
   8   4  -2   35.10    6.00
   8   4  -2   24.80    4.90
   8   4  -2   28.30    4.90
  -8  -4   2   36.10    5.60
  -8  -4   2   25.00    5.00
  -8  -4   2   28.80    4.60
  -8  -4   2   25.00    5.10
  -8  -4   2   29.30    5.20
   7   4  -2  340.27   13.80
   7   4  -2  332.37   13.80
   7   4  -2  332.57   14.10
   7   4  -2  311.97   13.70
   7   4  -2  345.37   14.40
   7   4  -2  330.97   14.20
   7   4  -2  343.87   14.70
  -7  -4   2  321.27   14.00
  -7  -4   2  336.17   14.70
  -7  -4   2  300.77   13.60
  -7  -4   2  335.07   13.80
  -7  -4   2  320.37   14.40
  -7  -4   2  329.17   14.10
   6   4  -2  195.88   10.10
   6   4  -2  199.88    9.90
   6   4  -2  217.68   10.40
   6   4  -2  200.88    9.80
   6   4  -2  210.08    9.80
   6   4  -2  207.98   10.20
  -6  -4   2  205.88   10.10
  -6  -4   2  198.38   10.20
  -6  -4   2  180.38    9.90
  -6  -4   2  196.38   10.00
  -6  -4   2  194.98    9.70
  -6  -4   2  202.38   10.10
   5   4  -2   13.60    2.90
   5   4  -2   11.20    2.50
   5   4  -2   11.40    2.80
   5   4  -2   12.10    3.00
   5   4  -2   14.60    2.90
   5   4  -2   17.50    3.00
  -5  -4   2   19.20    3.30
  -5  -4   2   11.00    3.10
  -5  -4   2    7.80    2.30
  -5  -4   2   13.50    3.00
  -5  -4   2   14.80    2.90
  -5  -4   2   14.40    2.70
   4   4  -2    3.70    1.40
   4   4  -2    5.70    1.80
   4   4  -2    6.20    1.80
   4   4  -2    8.50    2.10
   4   4  -2    5.40    1.80
   4   4  -2    8.30    2.10
   4   4  -2    8.00    2.00
  -4  -4   2    7.10    1.80
  -4  -4   2    7.40    1.90
  -4  -4   2    6.50    1.90
  -4  -4   2    5.10    2.20
  -4  -4   2    6.10    1.80
  -4  -4   2    4.20    1.80
  -4  -4   2    4.80    1.60
   3   4  -2  864.91   20.70
   3   4  -2  927.81   24.90
   3   4  -2  851.51   21.20
   3   4  -2  861.91   21.70
   3   4  -2  870.01   21.60
   3   4  -2  856.71   21.90
   3   4  -2  892.11   22.10
  -3  -4   2  871.41   21.70
  -3  -4   2  869.81   23.20
  -3  -4   2  849.02   22.50
  -3  -4   2  856.21   21.40
  -3  -4   2  829.42   21.10
  -3  -4   2  847.32   20.70
  -3  -4   2  880.01   22.00
   2   4  -2  345.07   11.00
   2   4  -2  342.47   11.00
   2   4  -2  320.87   10.30
   2   4  -2  339.37   10.30
   2   4  -2  322.77   10.00
   2   4  -2  353.26   10.70
  -2  -4   2  346.67   12.00
  -2  -4   2  351.46   10.30
  -2  -4   2  350.46   11.30
  -2  -4   2  343.27    9.80
  -2  -4   2  353.86   10.60
  -2  -4   2  329.27   10.40
  -2  -4   2  350.36   10.30
   1   4  -2 2737.63  114.49
  -1  -4   2 2722.53  111.89
   0   4  -2  110.99    4.10
   0   4  -2  109.09    4.30
   0   4  -2  107.29    5.20
   0   4  -2  114.89    4.30
   0  -4   2  113.89    5.40
   0  -4   2  112.39    5.70
   0  -4   2  112.99    4.40
   0  -4   2  111.69    4.20
   0  -4   2  112.69    4.30
  -1   4  -2   72.99    3.00
  -1   4  -2   69.59    2.80
  -1   4  -2   71.19    3.60
  -1   4  -2   70.09    4.20
  -1   4  -2   70.49    3.00
  -1   4  -2   73.89    3.00
   1  -4   2   77.79    3.70
   1  -4   2   70.09    4.20
   1  -4   2   74.39    2.90
   1  -4   2   72.19    2.80
   1  -4   2   72.19    2.80
   1  -4   2   66.39    2.70
  -2   4  -2  183.18    5.10
  -2   4  -2  169.38    6.60
  -2   4  -2  178.18    5.00
  -2   4  -2  178.68    5.00
  -2   4  -2  188.68    5.20
   2  -4   2  177.88    6.90
   2  -4   2  176.18    4.50
   2  -4   2  179.08    4.50
   2  -4   2  182.88    7.10
  -3   4  -2   31.70    1.90
  -3   4  -2   31.70    1.90
  -3   4  -2   29.50    1.90
  -3   4  -2   35.70    3.00
  -3   4  -2   30.10    1.80
  -3   4  -2   32.80    1.90
   3  -4   2   28.50    1.40
   3  -4   2   34.00    1.50
   3  -4   2   30.80    1.40
   3  -4   2   31.40    3.20
   3  -4   2   30.30    2.70
   3  -4   2   33.90    1.50
  -4   4  -2   20.30    1.70
  -4   4  -2   19.50    1.60
  -4   4  -2   19.80    1.50
  -4   4  -2   14.90    1.80
  -4   4  -2   20.60    1.90
  -4   4  -2   18.00    2.90
   4  -4   2   18.00    3.30
   4  -4   2   16.00    1.30
   4  -4   2   18.20    1.30
   4  -4   2   17.30    2.00
   4  -4   2   20.10    1.40
   4  -4   2   18.50    1.40
  -5   4  -2    7.50    2.20
  -5   4  -2   11.40    1.90
  -5   4  -2    9.60    1.50
  -5   4  -2   11.60    1.70
  -5   4  -2   10.20    1.40
  -5   4  -2    8.30    1.70
   5  -4   2   10.90    1.40
   5  -4   2    8.60    1.40
   5  -4   2    9.40    1.40
   5  -4   2    8.20    1.30
   5  -4   2    9.30    2.70
  -6   4  -2    3.20    1.20
  -6   4  -2    2.80    0.90
  -6   4  -2    2.90    1.10
  -6   4  -2    5.70    2.30
  -6   4  -2    2.20    1.20
  -6   4  -2    2.30    1.50
   6  -4   2    2.30    1.20
   6  -4   2    5.00    1.20
   6  -4   2    4.50    2.40
   6  -4   2    1.60    0.90
   6  -4   2    2.00    1.20
  -7   4  -2    1.60    1.20
  -7   4  -2    2.70    1.30
  -7   4  -2    1.50    1.30
  -7   4  -2    1.60    1.20
  -7   4  -2    2.60    2.20
   7  -4   2    1.70    1.40
   7  -4   2   -0.10    1.20
   7  -4   2    2.00    2.30
   7  -4   2    2.70    1.40
  -8   4  -2    2.10    1.70
  -8   4  -2   -1.40    1.20
  -8   4  -2   -0.20    2.30
  -8   4  -2   -2.60    1.40
  -8   4  -2   -0.10    1.40
  -8   4  -2   -0.20    1.50
   8  -4   2   -0.80    1.50
   8  -4   2   -2.90    1.90
   8  -4   2   -1.90    1.60
   8   3  -2  108.69    8.30
   8   3  -2   96.79    7.50
   8   3  -2  103.59    7.50
   8   3  -2   95.69    7.70
   8   3  -2   94.09    7.40
  -8  -3   2   98.59    7.90
  -8  -3   2  102.79    8.00
  -8  -3   2   91.09    7.40
  -8  -3   2   91.39    7.80
  -8  -3   2   99.49    7.20
   7   3  -2  113.09    7.40
   7   3  -2   91.69    6.90
   7   3  -2  114.49    7.70
   7   3  -2   90.49    6.80
  -7  -3   2  102.59    7.10
  -7  -3   2   96.79    7.20
  -7  -3   2  110.49    7.20
  -7  -3   2   97.39    7.10
  -7  -3   2  107.29    7.50
   6   3  -2  376.06   13.70
   6   3  -2  347.37   13.30
   6   3  -2  376.26   13.70
   6   3  -2  362.46   13.80
   6   3  -2  355.26   13.60
   6   3  -2  355.76   13.30
   6   3  -2  374.26   13.40
  -6  -3   2  347.97   13.00
  -6  -3   2  374.36   13.70
  -6  -3   2  374.76   13.60
  -6  -3   2  387.56   14.40
  -6  -3   2  390.56   14.10
  -6  -3   2  369.86   13.70
   5   3  -2    0.40    1.20
   5   3  -2    3.30    1.50
   5   3  -2    3.10    1.30
   5   3  -2    2.60    1.50
   5   3  -2    2.90    1.40
   5   3  -2    3.40    1.60
   5   3  -2    4.20    1.60
  -5  -3   2    6.90    2.10
  -5  -3   2    1.00    1.40
  -5  -3   2    2.90    1.30
  -5  -3   2    2.00    1.40
  -5  -3   2    3.00    1.30
  -5  -3   2    1.90    1.40
   4   3  -2 1094.39   26.80
   4   3  -2 1117.19   26.20
   4   3  -2 1083.29   26.40
   4   3  -2 1088.79   26.60
   4   3  -2 1100.89   25.70
   4   3  -2 1135.59   26.70
  -4  -3   2 1102.99   26.50
  -4  -3   2 1062.49   25.90
  -4  -3   2 1121.69   27.00
  -4  -3   2 1174.18   27.60
  -4  -3   2 1108.79   27.20
  -4  -3   2 1072.19   26.30
   3   3  -2    1.00    0.70
   3   3  -2    0.10    0.70
   3   3  -2    1.80    1.10
   3   3  -2   -0.40    0.50
   3   3  -2    1.00    0.60
   3   3  -2    1.30    1.00
  -3  -3   2    0.30    0.50
  -3  -3   2    4.30    1.30
  -3  -3   2    0.00    0.70
  -3  -3   2   -0.20    0.70
  -3  -3   2    2.80    1.10
  -3  -3   2    0.00    0.90
   2   3  -2  695.23   16.90
   2   3  -2  682.93   15.70
   2   3  -2  727.43   17.50
   2   3  -2  693.53   16.40
   2   3  -2  685.93   16.60
   2   3  -2  686.93   16.50
   2   3  -2  693.33   17.00
  -2  -3   2  673.93   16.70
  -2  -3   2  690.83   15.70
  -2  -3   2  665.73   17.10
  -2  -3   2  681.33   16.50
  -2  -3   2  720.13   16.50
  -2  -3   2  696.03   18.00
  -2  -3   2  667.83   16.40
   1   3  -2  120.09    4.00
   1   3  -2  115.59    5.00
   1   3  -2  123.99    4.60
   1   3  -2  116.89    4.40
   1   3  -2  116.89    4.30
  -1  -3   2  118.59    4.50
  -1  -3   2  124.89    4.10
  -1  -3   2  123.39    5.20
  -1  -3   2  113.29    4.20
  -1  -3   2  122.89    4.50
  -1  -3   2  116.79    4.30
  -1  -3   2  120.39    5.50
   0   3  -2   18.70    1.30
   0   3  -2   16.10    1.80
   0   3  -2   18.00    1.40
   0   3  -2   16.20    1.30
   0   3  -2   18.80    1.30
   0   3  -2   17.40    1.30
   0  -3   2   17.70    1.30
   0  -3   2   19.10    1.30
   0  -3   2   17.40    1.30
   0  -3   2   18.50    1.40
   0  -3   2   15.90    2.30
   0  -3   2   17.60    2.20
  -1   3  -2    0.30    0.30
  -1   3  -2    0.40    0.30
  -1   3  -2    0.00    0.30
  -1   3  -2   -0.20    0.60
  -1   3  -2    0.30    0.30
  -1   3  -2   -0.10    0.40
   1  -3   2    0.40    0.30
   1  -3   2    0.00    0.70
   1  -3   2    0.00    0.40
   1  -3   2   -1.10    0.50
   1  -3   2    0.40    0.20
   1  -3   2    0.40    0.30
  -2   3  -2  128.49    4.20
  -2   3  -2  134.79    5.30
  -2   3  -2  123.59    3.50
  -2   3  -2  136.39    3.50
  -2   3  -2  128.29    3.60
   2  -3   2  128.99    5.50
   2  -3   2  130.49    5.20
   2  -3   2  128.49    2.80
  -3   3  -2   31.40    1.70
  -3   3  -2   32.80    1.90
  -3   3  -2   31.50    1.80
  -3   3  -2   35.20    1.80
  -3   3  -2   32.10    1.90
  -3   3  -2   28.90    2.60
   3  -3   2   33.20    1.50
   3  -3   2   28.50    2.90
   3  -3   2   32.50    1.50
   3  -3   2   32.00    2.40
   3  -3   2   34.90    1.60
   3  -3   2   33.50    1.50
  -4   3  -2  604.84   13.90
  -4   3  -2  593.24   13.70
  -4   3  -2  626.64   14.50
  -4   3  -2  599.94   16.90
  -4   3  -2  611.14   13.90
  -4   3  -2  612.94   14.20
   4  -3   2  596.24   17.50
   4  -3   2  614.94   13.80
   4  -3   2  588.64   13.30
   4  -3   2  594.14   13.50
   4  -3   2  593.14   13.60
  -5   3  -2  560.14   13.80
  -5   3  -2  550.94   17.00
  -5   3  -2  538.65   13.90
  -5   3  -2  572.94   14.30
  -5   3  -2  556.34   13.60
  -5   3  -2  566.64   14.60
   5  -3   2  556.14   13.60
   5  -3   2  550.44   13.40
   5  -3   2  562.64   13.80
   5  -3   2  557.54   13.70
  -6   3  -2  332.87   10.30
  -6   3  -2  309.97    9.60
  -6   3  -2  313.47   14.90
  -6   3  -2  327.67   10.80
  -6   3  -2  331.57   10.10
   6  -3   2  321.57    9.70
   6  -3   2  314.17    9.70
   6  -3   2  323.47    9.80
   6  -3   2  344.97   10.20
   6  -3   2  336.97   14.00
  -7   3  -2    0.60    1.50
  -7   3  -2    0.00    2.00
  -7   3  -2    0.80    1.20
  -7   3  -2    2.70    1.40
  -7   3  -2    4.30    1.60
  -7   3  -2    1.50    1.40
  -7   3  -2    1.20    1.60
   7  -3   2    1.90    1.60
   7  -3   2    1.90    1.20
   7  -3   2    4.00    2.10
   7  -3   2    1.70    1.60
  -8   3  -2    2.30    1.80
  -8   3  -2    3.00    2.20
  -8   3  -2    2.30    1.50
  -8   3  -2    0.90    1.80
  -8   3  -2    2.50    2.40
  -8   3  -2    1.50    1.80
   8  -3   2    3.00    1.60
   8  -3   2    0.30    1.70
   8  -3   2    3.40    3.20
  -9   3  -2    6.10    3.50
  -9   3  -2   15.40    3.10
  -9   3  -2    6.70    2.50
  -9   3  -2    9.10    2.70
  -9   3  -2    8.20    2.40
   9  -3   2   11.80    2.90
   9  -3   2   -1.10    2.00
   9  -3   2    5.80    2.80
   9   2  -2   22.80    5.20
   9   2  -2   22.80    4.70
   9   2  -2   17.20    3.80
  -9  -2   2   17.80    3.90
  -9  -2   2   12.90    3.30
  -9  -2   2   14.30    3.20
  -9  -2   2   18.30    4.40
   8   2  -2   51.69    6.20
   8   2  -2   66.29    6.40
   8   2  -2   64.59    5.90
   8   2  -2   57.79    5.50
  -8  -2   2   61.69    6.00
  -8  -2   2   54.39    6.90
  -8  -2   2   56.69    5.70
  -8  -2   2   52.59    5.60
  -8  -2   2   56.39    4.90
   7   2  -2  173.28    9.10
   7   2  -2  174.68    9.20
   7   2  -2  158.48    8.30
   7   2  -2  171.28    9.40
   7   2  -2  174.48    9.00
   7   2  -2  186.88    9.10
  -7  -2   2  164.08    8.50
  -7  -2   2  180.48    9.30
  -7  -2   2  176.98    9.60
  -7  -2   2  174.38    8.30
  -7  -2   2  155.18    8.70
  -7  -2   2  165.98   10.30
   6   2  -2   66.89    5.40
   6   2  -2   59.39    4.80
   6   2  -2   65.19    5.20
   6   2  -2   64.59    5.00
   6   2  -2   63.09    5.10
   6   2  -2   60.39    4.80
  -6  -2   2   69.19    5.00
  -6  -2   2   60.59    4.60
  -6  -2   2   64.49    5.20
  -6  -2   2   66.49    5.00
  -6  -2   2   66.99    5.20
  -6  -2   2   71.09    5.30
   5   2  -2   99.09    5.90
   5   2  -2   95.89    5.50
   5   2  -2  102.19    5.80
   5   2  -2   91.19    5.30
   5   2  -2   95.29    5.50
  -5  -2   2   92.19    5.40
  -5  -2   2   88.59    5.40
  -5  -2   2   91.69    5.40
  -5  -2   2  101.89    5.50
  -5  -2   2   92.49    5.80
  -5  -2   2   97.59    5.70
   4   2  -2 1646.44   36.00
   4   2  -2 1638.34   35.50
   4   2  -2 1632.74   35.80
   4   2  -2 1607.04   35.10
   4   2  -2 1590.84   35.80
   4   2  -2 1593.04   35.70
  -4  -2   2 1618.24   35.70
  -4  -2   2 1623.84   35.50
  -4  -2   2 1625.14   35.70
  -4  -2   2 1620.34   35.90
  -4  -2   2 1622.74   36.10
  -4  -2   2 1699.43   35.40
   3   2  -2  887.31   22.60
   3   2  -2  898.71   21.30
   3   2  -2  897.41   21.00
   3   2  -2  909.91   21.30
   3   2  -2  964.30   20.50
   3   2  -2  869.71   20.70
   3   2  -2  955.80   21.60
  -3  -2   2  919.11   21.00
  -3  -2   2  885.41   20.70
  -3  -2   2  939.01   21.50
  -3  -2   2  892.51   21.00
  -3  -2   2  905.21   21.50
  -3  -2   2  885.51   21.30
   2   2  -2  225.98    7.00
   2   2  -2  221.78    6.80
   2   2  -2  236.68    6.90
   2   2  -2  221.98    6.90
   2   2  -2  224.68    6.20
   2   2  -2  225.88    7.10
  -2  -2   2  219.58    7.10
  -2  -2   2  227.88    7.60
  -2  -2   2  207.58    6.70
  -2  -2   2  230.28    6.80
  -2  -2   2  227.38    6.90
  -2  -2   2  228.38    7.10
   1   2  -2 4802.12  134.79
  -1  -2   2 4967.70  137.89
   0   2  -2 3668.93   91.59
  -2   2  -2    0.80    0.30
  -2   2  -2    0.30    0.30
  -2   2  -2    0.30    0.40
  -2   2  -2    0.20    0.30
  -2   2  -2    0.20    0.20
   2  -2   2    1.10    0.80
   2  -2   2    0.30    0.20
   2  -2   2    0.90    0.70
   2  -2   2    0.60    0.30
  -3   2  -2  868.61   18.60
  -3   2  -2  863.71   18.30
  -3   2  -2  837.22   18.00
  -3   2  -2  863.21   18.10
  -3   2  -2  857.61   17.90
   3  -2   2  881.71   17.80
   3  -2   2  833.72   20.80
   3  -2   2  872.61   17.90
   3  -2   2  861.11   18.70
   3  -2   2  847.02   17.90
   3  -2   2  869.91   17.80
  -4   2  -2  271.37    7.90
  -4   2  -2  286.17    8.20
  -4   2  -2  270.77    7.80
  -4   2  -2  283.57    8.30
  -4   2  -2  270.87    8.00
   4  -2   2  280.67    7.80
   4  -2   2  282.47   10.40
   4  -2   2  280.07    8.20
   4  -2   2  274.37    7.80
   4  -2   2  281.87    8.00
   4  -2   2  288.67    7.90
  -5   2  -2  456.95   13.00
  -5   2  -2  466.05   12.40
  -5   2  -2  470.75   12.60
  -5   2  -2  484.15   12.70
  -5   2  -2  456.85   12.70
   5  -2   2  466.45   12.70
   5  -2   2  486.55   12.40
   5  -2   2  470.85   17.40
   5  -2   2  459.25   12.50
   5  -2   2  456.65   12.50
   5  -2   2  476.55   12.50
  -6   2  -2  315.27   12.10
  -6   2  -2  311.77   10.30
  -6   2  -2  321.67   11.70
  -6   2  -2  325.37   10.30
  -6   2  -2  302.97   10.30
   6  -2   2  323.47   10.60
   6  -2   2  313.67   10.30
   6  -2   2  329.57   10.30
   6  -2   2  332.17   10.30
   6  -2   2  327.47   13.60
  -7   2  -2   21.90    3.70
  -7   2  -2   23.00    3.10
  -7   2  -2   22.50    3.10
  -7   2  -2   19.20    3.00
  -7   2  -2   16.40    2.80
  -7   2  -2   18.80    3.10
   7  -2   2   17.40    2.80
   7  -2   2   20.00    4.20
   7  -2   2   17.20    3.20
   7  -2   2   19.70    3.00
  -8   2  -2   24.20    3.80
  -8   2  -2   23.60    3.70
  -8   2  -2   18.90    3.20
  -8   2  -2   22.40    4.10
  -8   2  -2   15.40    3.00
  -8   2  -2   17.70    2.90
   8  -2   2   18.70    2.90
   8  -2   2   25.20    5.20
   8  -2   2   18.50    3.30
  -9   2  -2    1.40    2.20
  -9   2  -2    7.10    2.50
  -9   2  -2   -0.90    2.00
  -9   2  -2   -0.70    2.10
   9  -2   2   -1.60    2.50
   9  -2   2    1.70    2.30
   9  -2   2   -2.50    2.50
   9   1  -2    3.80    2.80
   9   1  -2    9.30    3.10
   9   1  -2   11.90    2.90
   9   1  -2    5.90    3.10
  -9  -1   2    8.10    3.00
  -9  -1   2   10.00    2.90
  -9  -1   2    7.20    3.10
  -9  -1   2    8.40    3.90
  -9  -1   2    2.00    1.90
   8   1  -2   30.30    4.60
   8   1  -2   25.60    4.60
   8   1  -2   27.60    5.30
   8   1  -2   27.90    4.20
   8   1  -2   30.90    4.50
   8   1  -2   23.50    4.10
  -8  -1   2   31.90    4.70
  -8  -1   2   29.70    4.30
  -8  -1   2   23.70    4.40
  -8  -1   2   30.10    4.70
  -8  -1   2   27.90    4.10
  -8  -1   2   24.90    3.30
   7   1  -2  183.38    8.90
   7   1  -2  194.18    9.20
   7   1  -2  187.08    9.80
   7   1  -2  172.08    9.00
   7   1  -2  186.08    8.50
   7   1  -2  192.18    9.40
  -7  -1   2  192.28    9.30
  -7  -1   2  189.58    9.60
  -7  -1   2  181.88    8.90
  -7  -1   2  174.98    7.50
  -7  -1   2  173.88    9.00
  -7  -1   2  181.18    8.60
   6   1  -2   26.30    3.70
   6   1  -2   25.40    3.50
   6   1  -2   27.90    4.50
   6   1  -2   27.20    3.70
   6   1  -2   27.20    3.80
   6   1  -2   27.50    4.10
  -6  -1   2   24.80    2.60
  -6  -1   2   26.70    3.60
  -6  -1   2   27.30    3.90
  -6  -1   2   24.50    3.70
  -6  -1   2   22.10    3.40
  -6  -1   2   26.00    3.40
   5   1  -2   31.90    3.20
   5   1  -2   33.40    3.10
   5   1  -2   27.60    2.80
   5   1  -2   27.50    3.50
   5   1  -2   23.40    3.10
   5   1  -2   25.40    3.10
  -5  -1   2   27.60    2.60
  -5  -1   2   29.50    2.80
  -5  -1   2   29.60    2.90
  -5  -1   2   27.20    2.90
  -5  -1   2   26.80    2.90
  -5  -1   2   30.50    3.20
   4   1  -2   61.39    3.70
   4   1  -2   55.99    3.70
   4   1  -2   61.39    3.80
   4   1  -2   54.19    3.50
   4   1  -2   54.59    3.80
   4   1  -2   58.39    3.60
   4   1  -2   51.49    3.60
  -4  -1   2   59.09    3.60
  -4  -1   2   59.49    3.80
  -4  -1   2   53.79    3.40
  -4  -1   2   59.69    3.40
  -4  -1   2   55.09    3.70
  -4  -1   2   53.69    3.80
   3   1  -2   89.59    4.30
   3   1  -2   91.49    3.90
   3   1  -2   94.39    4.40
   3   1  -2   88.99    4.10
   3   1  -2   92.69    4.30
   3   1  -2   86.49    4.00
   3   1  -2   81.29    4.00
  -3  -1   2   93.79    4.10
  -3  -1   2   88.49    4.20
  -3  -1   2   80.79    4.10
  -3  -1   2   83.39    4.00
  -3  -1   2   93.59    4.30
  -3  -1   2   87.59    3.90
   2   1  -2 2231.48   90.29
  -2  -1   2 2439.46   95.59
   1   1  -2  278.37    6.80
   1   1  -2  279.07    6.80
   1   1  -2  272.37    6.90
   1   1  -2  283.77    7.00
   1   1  -2  277.67    5.80
   1   1  -2  277.97    6.90
  -1  -1   2  288.37    6.80
  -1  -1   2  287.17    6.90
  -1  -1   2  277.57    6.80
  -1  -1   2  281.97    7.00
  -1  -1   2  293.37    7.00
  -1  -1   2  270.17    7.60
   0   1  -2  434.36    8.70
   0   1  -2  421.16    8.70
   0   1  -2  404.46    8.90
   0   1  -2  432.16    9.20
   0   1  -2  426.26    8.80
   0   1  -2  418.76    8.70
   0  -1   2  419.06    8.70
   0  -1   2  446.46    8.90
   0  -1   2  438.16    9.30
   0  -1   2  434.36    8.70
   0  -1   2  422.86   10.40
  -1   1  -2    0.40    0.20
  -1   1  -2    0.50    0.30
  -1   1  -2    0.70    0.40
   1  -1   2    0.60    0.40
   1  -1   2    0.70    0.20
   1  -1   2    0.40    0.20
   1  -1   2    0.30    0.20
   1  -1   2    0.30    0.40
   1  -1   2    0.70    0.20
   1  -1   2    1.40    0.60
  -2   1  -2   36.30    1.80
  -2   1  -2   35.40    1.70
  -2   1  -2   36.60    2.10
  -2   1  -2   34.80    1.70
  -2   1  -2   38.80    1.80
   2  -1   2   31.40    1.60
   2  -1   2   34.30    2.40
   2  -1   2   35.80    1.60
   2  -1   2   34.10    2.10
  -3   1  -2  300.97    8.30
  -3   1  -2  306.17    8.10
  -3   1  -2  309.17    8.10
  -3   1  -2  315.07    8.60
  -3   1  -2  304.57    8.00
   3  -1   2  312.87    8.60
   3  -1   2  305.97    7.90
   3  -1   2  296.77    8.10
   3  -1   2  295.77    9.70
   3  -1   2  312.37    8.10
  -4   1  -2   26.50    2.10
  -4   1  -2   24.60    2.20
  -4   1  -2   28.70    2.30
  -4   1  -2   24.50    2.40
  -4   1  -2   25.40    2.10
  -4   1  -2   23.10    2.20
   4  -1   2   23.00    2.20
   4  -1   2   28.80    3.70
   4  -1   2   24.20    2.10
   4  -1   2   23.20    2.00
   4  -1   2   27.50    2.20
  -5   1  -2   18.90    2.50
  -5   1  -2   17.10    2.70
  -5   1  -2   20.30    2.50
  -5   1  -2   19.80    2.60
  -5   1  -2   19.90    2.80
  -5   1  -2   16.20    2.40
   5  -1   2   15.70    2.20
   5  -1   2   21.60    2.70
   5  -1   2   15.70    2.20
   5  -1   2   15.70    2.30
   5  -1   2   15.20    2.30
  -6   1  -2   20.30    3.10
  -6   1  -2   22.20    3.60
  -6   1  -2   23.40    3.30
  -6   1  -2   24.50    3.00
   6  -1   2   19.30    4.00
   6  -1   2   21.10    3.10
   6  -1   2   22.30    3.00
   6  -1   2   23.10    3.20
   6  -1   2   21.00    3.10
  -7   1  -2   15.80    2.90
  -7   1  -2   24.70    3.40
  -7   1  -2   17.20    3.20
  -7   1  -2   21.70    3.50
  -7   1  -2   19.50    3.30
  -7   1  -2   20.00    3.30
   7  -1   2   17.10    3.00
   7  -1   2   21.00    3.40
   7  -1   2   18.50    2.90
   7  -1   2   17.20    4.00
  -8   1  -2  117.89    7.60
  -8   1  -2  111.09    6.90
  -8   1  -2   99.49    6.60
  -8   1  -2  118.39    7.20
  -8   1  -2  113.49    7.20
  -8   1  -2   95.39    7.00
   8  -1   2  106.39    7.00
   8  -1   2  111.99    6.80
   8  -1   2  115.09    9.30
   8  -1   2   99.99    6.60
   9   0  -2    1.90    1.90
   9   0  -2    0.20    2.50
   9   0  -2    2.10    2.20
  -9   0   2    3.70    1.70
  -9   0   2    6.10    2.60
  -9   0   2    6.30    2.70
  -9   0   2    0.60    1.40
  -9   0   2    2.20    1.00
  -9   0   2    8.00    2.90
   8   0  -2  107.19    7.10
   8   0  -2  100.09    7.10
   8   0  -2  117.39    7.60
   8   0  -2  113.79    7.50
   8   0  -2  116.39    8.30
   8   0  -2  122.49    6.70
  -8   0   2  104.99    7.00
  -8   0   2  108.59    6.80
  -8   0   2  117.99    7.70
  -8   0   2  116.89    7.70
  -8   0   2  104.89    4.90
  -8   0   2  101.89    7.30
   7   0  -2   -2.30    1.00
   7   0  -2   -2.30    1.10
   7   0  -2   -0.90    1.00
   7   0  -2   -0.70    1.10
   7   0  -2    2.50    1.40
   7   0  -2    1.30    1.60
  -7   0   2    0.70    1.30
  -7   0   2   -0.40    1.00
  -7   0   2   -1.10    1.20
  -7   0   2   -1.30    1.50
  -7   0   2   -1.50    0.70
  -7   0   2    0.90    1.50
   6   0  -2  231.88    9.20
   6   0  -2  225.48    9.90
   6   0  -2  237.38    8.40
   6   0  -2  233.48    9.00
   6   0  -2  210.28    9.00
   6   0  -2  241.38    9.90
  -6   0   2  223.58    9.00
  -6   0   2  206.98    8.50
  -6   0   2  217.48    9.40
  -6   0   2  213.28    7.00
  -6   0   2  225.58    9.30
  -6   0   2  222.68    9.40
   5   0  -2  272.07    9.70
   5   0  -2  277.37    9.50
   5   0  -2  295.07   10.40
   5   0  -2  272.97    9.60
   5   0  -2  283.67    9.00
   5   0  -2  287.77   10.00
  -5   0   2  294.47    9.60
  -5   0   2  289.27   10.00
  -5   0   2  271.67   10.10
  -5   0   2  294.77   10.30
  -5   0   2  258.17   10.00
  -5   0   2  295.67    9.80
   4   0  -2  814.52   19.50
   4   0  -2  792.72   18.90
   4   0  -2  797.92   19.10
   4   0  -2  764.12   19.20
   4   0  -2  792.82   18.30
   4   0  -2  786.82   19.20
  -4   0   2  769.22   17.30
  -4   0   2  800.42   19.10
  -4   0   2  798.42   18.80
  -4   0   2  805.62   19.30
  -4   0   2  792.62   19.40
  -4   0   2  798.72   19.60
   3   0  -2  569.44   12.50
   3   0  -2  532.75   13.80
   3   0  -2  578.34   14.00
   3   0  -2  560.74   13.80
   3   0  -2  604.44   13.90
   3   0  -2  540.45   13.50
  -3   0   2  573.04   13.60
  -3   0   2  528.35   13.70
  -3   0   2  569.14   13.70
  -3   0   2  567.64   12.70
  -3   0   2  542.35   14.00
  -3   0   2  570.84   14.00
   2   0  -2   22.10    1.70
   2   0  -2   21.60    1.50
   2   0  -2   27.70    1.70
   2   0  -2   24.50    1.80
   2   0  -2   26.00    1.80
   2   0  -2   24.40    1.70
  -2   0   2   24.00    1.90
  -2   0   2   27.50    1.60
  -2   0   2   26.50    1.80
  -2   0   2   24.70    1.70
  -2   0   2   23.00    1.70
  -2   0   2   26.80    1.80
  -2   0   2   25.20    1.60
   1   0  -2   51.49    2.20
   1   0  -2   53.89    2.30
   1   0  -2   52.59    2.30
   1   0  -2   53.79    2.30
   1   0  -2   51.29    2.30
   1   0  -2   54.19    1.80
  -1   0   2   56.99    2.30
  -1   0   2   52.59    2.00
  -1   0   2   53.59    1.80
  -1   0   2   52.59    1.80
  -1   0   2   52.89    2.40
  -1   0   2   53.19    2.30
  -1   0   2   56.39    2.30
   0   0  -2   17.10    1.30
   0   0  -2   15.70    1.10
   0   0  -2   15.00    1.10
   0   0  -2   15.80    1.10
   0   0  -2   13.40    1.40
   0   0  -2   15.20    1.00
   0   0  -2   16.00    1.00
   0   0   2   13.50    1.30
   0   0   2   14.70    1.00
   0   0   2   15.90    1.20
   0   0   2   15.00    1.00
  -1   0  -2    2.60    0.50
  -1   0  -2    2.80    0.80
  -1   0  -2    1.80    0.60
  -1   0  -2    2.40    0.60
  -1   0  -2    2.10    0.60
   1   0   2    2.70    0.70
   1   0   2    2.90    0.60
   1   0   2    2.00    0.60
   1   0   2    2.50    0.80
  -2   0  -2    1.20    0.60
  -2   0  -2    0.90    0.60
  -2   0  -2    0.10    0.40
  -2   0  -2    0.50    0.40
  -2   0  -2    0.30    0.40
  -2   0  -2    1.20    0.60
   2   0   2   -0.20    0.30
   2   0   2    1.00    0.60
   2   0   2    0.80    0.60
   2   0   2    1.20    0.80
  -3   0  -2  134.29    5.10
  -3   0  -2  125.99    4.90
  -3   0  -2  122.29    5.00
  -3   0  -2  130.69    5.30
  -3   0  -2  127.49    4.90
  -3   0  -2  133.69    4.90
   3   0   2  133.59    5.00
   3   0   2  129.59    4.80
   3   0   2  126.39    5.80
   3   0   2  124.39    5.10
  -4   0  -2  170.78    6.80
  -4   0  -2  171.78    6.70
  -4   0  -2  179.78    6.70
  -4   0  -2  190.38    6.70
  -4   0  -2  184.78    6.80
  -4   0  -2  172.08    6.90
   4   0   2  171.48    6.80
   4   0   2  180.48    7.90
   4   0   2  169.38    6.50
   4   0   2  165.88    6.60
   4   0   2  174.58    6.60
  -5   0  -2   24.90    2.70
  -5   0  -2   21.50    2.90
  -5   0  -2   21.90    2.80
  -5   0  -2   23.80    3.10
  -5   0  -2   30.40    3.00
  -5   0  -2   25.10    2.60
   5   0   2   22.80    2.90
   5   0   2   23.60    3.40
   5   0   2   25.40    3.10
   5   0   2   28.80    2.90
   5   0   2   24.30    3.20
   5   0   2   26.10    4.10
  -6   0  -2  354.46   12.30
  -6   0  -2  344.67   12.10
  -6   0  -2  328.27   11.50
  -6   0  -2  314.27   11.80
  -6   0  -2  350.76   12.00
  -6   0  -2  349.27   12.10
   6   0   2  339.57   11.70
   6   0   2  320.97   11.20
   6   0   2  323.47   13.70
   6   0   2  319.07   11.40
  -7   0  -2   -0.50    1.40
  -7   0  -2   -0.10    1.20
  -7   0  -2    4.00    1.90
  -7   0  -2    0.70    1.60
  -7   0  -2   -2.30    1.40
  -7   0  -2   -1.60    1.30
   7   0   2   -0.40    1.70
   7   0   2    4.30    2.10
   7   0   2    1.30    1.50
   7   0   2   -2.20    1.30
   7   0   2   -0.60    1.50
  -8   0  -2    8.00    2.80
  -8   0  -2    2.00    2.20
  -8   0  -2    2.80    2.40
  -8   0  -2    0.80    2.30
  -8   0  -2    6.20    1.90
  -8   0  -2    4.70    2.20
  -8   0  -2    7.90    2.70
   8   0   2    6.30    2.60
   8   0   2    5.50    2.70
   8   0   2    5.50    2.30
   9  -1  -2   -0.50    2.00
   9  -1  -2    0.30    1.70
   9  -1  -2    0.30    2.30
   9  -1  -2   -4.10    1.70
  -9   1   2    3.30    2.50
  -9   1   2   -0.50    1.90
  -9   1   2    2.80    2.40
  -9   1   2    1.40    2.30
  -9   1   2    2.90    2.40
   8  -1  -2   40.50    5.30
   8  -1  -2   42.30    4.10
   8  -1  -2   41.60    5.30
   8  -1  -2   42.50    5.10
   8  -1  -2   46.40    6.50
   8  -1  -2   45.20    4.10
  -8   1   2   37.50    4.90
  -8   1   2   44.20    4.50
  -8   1   2   39.20    4.00
  -8   1   2   41.00    5.40
  -8   1   2   43.60    4.50
  -8   1   2   39.80    5.10
   7  -1  -2    1.80    1.10
   7  -1  -2    2.80    1.70
   7  -1  -2    3.40    1.30
   7  -1  -2    0.70    1.70
   7  -1  -2    5.40    2.10
   7  -1  -2    4.00    2.00
  -7   1   2    1.70    1.30
  -7   1   2    2.50    1.60
  -7   1   2    3.40    1.70
  -7   1   2    1.80    1.40
  -7   1   2   -0.60    1.20
  -7   1   2    3.00    1.60
   6  -1  -2    0.30    1.00
   6  -1  -2    0.10    0.80
   6  -1  -2    0.20    1.30
   6  -1  -2   -0.30    1.20
   6  -1  -2    0.60    1.00
   6  -1  -2    1.40    1.10
  -6   1   2    0.90    1.00
  -6   1   2   -0.10    1.00
  -6   1   2    0.80    1.00
  -6   1   2    0.60    1.20
  -6   1   2    0.00    0.90
  -6   1   2    0.60    0.40
  -6   1   2    2.00    1.20
   5  -1  -2  210.18    8.00
   5  -1  -2  204.08    7.60
   5  -1  -2  194.48    8.40
   5  -1  -2  202.38    7.90
   5  -1  -2  207.98    8.10
   5  -1  -2  211.58    6.70
  -5   1   2  207.58    7.90
  -5   1   2  206.88    8.20
  -5   1   2  200.78    8.20
  -5   1   2  207.78    8.20
  -5   1   2  206.18    8.00
  -5   1   2  195.28    5.00
  -5   1   2  202.18    7.60
   4  -1  -2 1076.49   24.70
   4  -1  -2 1146.39   24.70
   4  -1  -2 1080.49   25.00
   4  -1  -2 1064.19   24.70
   4  -1  -2 1039.00   25.20
   4  -1  -2 1100.39   23.10
  -4   1   2 1160.48   25.50
  -4   1   2 1092.29   24.70
  -4   1   2 1126.29   25.00
  -4   1   2 1129.19   25.10
  -4   1   2 1074.49   21.50
  -4   1   2 1117.69   24.50
  -4   1   2 1076.39   25.10
   3  -1  -2  630.74   15.10
   3  -1  -2  615.44   15.20
   3  -1  -2  635.74   15.30
   3  -1  -2  600.94   14.70
   3  -1  -2  633.74   15.10
   3  -1  -2  610.14   12.80
  -3   1   2  643.94   15.10
  -3   1   2  630.94   15.30
  -3   1   2  625.34   15.00
  -3   1   2  630.34   13.00
  -3   1   2  635.84   15.10
   2  -1  -2 2816.42  106.99
  -2   1   2 2827.32  107.79
   1  -1  -2 5591.84  156.58
  -1   1   2 5565.94  158.08
   0  -1  -2    2.20    0.50
   0  -1  -2    1.60    0.70
   0  -1  -2    1.60    0.60
   0  -1  -2    2.30    0.60
   0  -1  -2    2.00    0.70
   0  -1  -2    2.90    0.70
   0  -1  -2    1.20    0.60
   0   1   2    2.90    0.80
   0   1   2    2.50    0.70
   0   1   2    1.70    0.70
   0   1   2    1.90    0.60
   0   1   2    2.20    0.60
   0   1   2    2.30    0.50
   0   1   2    1.70    0.70
  -1  -1  -2  107.19    4.10
  -1  -1  -2  104.69    3.90
  -1  -1  -2  105.99    4.00
  -1  -1  -2  108.89    4.10
   1   1   2  108.89    4.00
   1   1   2  103.39    4.10
   1   1   2  107.69    3.30
   1   1   2  110.89    4.10
   1   1   2  110.69    4.00
   1   1   2  105.39    4.00
   1   1   2  103.39    3.80
  -2  -1  -2    0.20    0.60
  -2  -1  -2    0.20    0.50
  -2  -1  -2    0.00    0.60
  -2  -1  -2    0.70    0.50
  -2  -1  -2    0.70    0.60
   2   1   2    0.20    0.50
   2   1   2    0.70    0.70
   2   1   2    0.30    0.60
   2   1   2    0.40    0.60
   2   1   2    1.60    0.70
   2   1   2    0.70    0.60
   2   1   2   -0.10    0.60
  -3  -1  -2   28.40    2.60
  -3  -1  -2   34.80    2.90
  -3  -1  -2   35.80    2.70
  -3  -1  -2   36.50    2.50
  -3  -1  -2   32.90    2.70
  -3  -1  -2   36.90    2.70
   3   1   2   28.30    2.30
   3   1   2   36.00    3.10
   3   1   2   38.60    2.90
   3   1   2   38.90    3.20
   3   1   2   35.30    2.70
  -4  -1  -2   69.29    4.90
  -4  -1  -2   73.29    4.20
  -4  -1  -2   79.49    4.60
  -4  -1  -2   69.89    4.20
  -4  -1  -2   75.99    4.60
  -4  -1  -2   73.99    4.50
   4   1   2   63.49    4.60
   4   1   2   66.59    4.90
   4   1   2   73.89    4.10
   4   1   2   72.09    4.40
   4   1   2   67.09    4.10
  -5  -1  -2 1066.99   25.50
  -5  -1  -2 1033.30   25.80
  -5  -1  -2 1050.19   26.10
  -5  -1  -2 1015.10   26.10
  -5  -1  -2 1021.70   25.40
  -5  -1  -2 1074.79   27.70
   5   1   2 1072.79   25.20
   5   1   2 1037.60   27.50
   5   1   2 1018.30   25.30
   5   1   2 1053.49   25.70
   5   1   2 1041.80   25.70
  -6  -1  -2  517.45   16.60
  -6  -1  -2  501.55   16.50
  -6  -1  -2  513.95   16.40
  -6  -1  -2  528.05   16.30
  -6  -1  -2  525.95   16.10
  -6  -1  -2  504.95   15.90
   6   1   2  493.65   16.00
   6   1   2  513.35   15.70
   6   1   2  518.15   16.00
   6   1   2  528.85   18.30
   6   1   2  534.15   16.30
  -7  -1  -2   76.49    5.90
  -7  -1  -2   58.09    5.40
  -7  -1  -2   60.39    5.40
  -7  -1  -2   69.19    5.60
  -7  -1  -2   61.79    5.10
  -7  -1  -2   51.79    4.90
   7   1   2   58.19    5.30
   7   1   2   67.19    5.40
   7   1   2   64.59    6.60
  -8  -1  -2   -0.20    2.20
  -8  -1  -2    1.40    2.00
  -8  -1  -2    1.50    2.30
  -8  -1  -2    2.10    2.60
  -8  -1  -2    3.90    2.40
   8   1   2    0.50    2.30
   8   1   2    0.50    2.20
   8   1   2   -1.90    2.10
   9  -2  -2  101.09    7.40
   9  -2  -2   94.19    5.40
   9  -2  -2  105.09    8.80
  -9   2   2  102.09    8.00
  -9   2   2   97.59    7.20
  -9   2   2   91.09    7.30
  -9   2   2   90.69    6.80
  -9   2   2   94.69    6.70
   8  -2  -2  150.88    6.20
   8  -2  -2  139.89    8.20
   8  -2  -2  132.39    9.30
   8  -2  -2  146.59    8.10
   8  -2  -2  150.18    7.90
  -8   2   2  149.19    8.80
  -8   2   2  139.79    7.60
  -8   2   2  152.48    8.40
  -8   2   2  151.68    8.80
  -8   2   2  154.98    8.00
  -8   2   2  149.19    8.90
   7  -2  -2   52.19    4.50
   7  -2  -2   48.40    4.60
   7  -2  -2   46.80    5.00
   7  -2  -2   50.99    3.20
   7  -2  -2   52.89    4.20
  -7   2   2   44.30    5.70
  -7   2   2   45.80    4.30
  -7   2   2   53.19    4.80
  -7   2   2   55.29    4.40
  -7   2   2   44.80    4.60
  -7   2   2   49.50    4.80
   6  -2  -2    1.10    0.60
   6  -2  -2    0.60    1.80
   6  -2  -2    0.60    0.90
   6  -2  -2    1.40    1.10
   6  -2  -2    0.70    1.00
   6  -2  -2    0.20    1.10
  -6   2   2    0.60    1.00
  -6   2   2    1.00    0.80
  -6   2   2   -0.80    0.80
  -6   2   2    4.10    1.60
  -6   2   2    2.50    1.50
  -6   2   2    0.40    1.20
   5  -2  -2    6.80    1.10
   5  -2  -2    5.30    1.60
   5  -2  -2    4.80    1.80
   5  -2  -2    7.10    1.70
   5  -2  -2    6.20    1.60
   5  -2  -2    8.10    1.80
  -5   2   2    7.90    1.80
  -5   2   2    8.10    1.90
  -5   2   2    4.40    1.30
  -5   2   2    4.30    1.50
  -5   2   2    5.60    1.60
   4  -2  -2    1.80    1.10
   4  -2  -2   -0.20    0.70
   4  -2  -2    0.60    0.60
   4  -2  -2   -0.30    0.40
   4  -2  -2    0.10    0.70
  -4   2   2    0.00    0.50
  -4   2   2   -0.30    0.80
  -4   2   2   -0.60    0.60
  -4   2   2   -0.50    0.60
  -4   2   2   -0.40    0.60
   3  -2  -2   91.49    4.20
   3  -2  -2   89.49    4.20
   3  -2  -2   86.79    4.50
   3  -2  -2   91.59    4.30
   3  -2  -2   94.29    4.30
   3  -2  -2   88.49    2.90
   3  -2  -2   93.19    4.20
  -3   2   2   92.49    4.50
  -3   2   2   96.99    5.30
  -3   2   2   90.49    4.20
  -3   2   2   83.29    4.60
  -3   2   2   90.59    4.10
   2  -2  -2 4186.08  143.29
  -2   2   2 3938.91  142.59
   1  -2  -2 3165.88  119.29
  -1   2   2 3043.30  116.99
   0  -2  -2    9.80    1.40
   0  -2  -2   10.80    1.60
   0  -2  -2   10.10    1.50
   0  -2  -2    9.80    1.20
   0  -2  -2    7.20    1.30
   0  -2  -2   11.60    1.50
   0  -2  -2   10.60    1.40
   0   2   2    9.00    1.40
   0   2   2    9.90    1.20
   0   2   2    9.90    1.50
   0   2   2    9.50    1.40
   0   2   2    7.50    1.30
   0   2   2    8.20    1.20
   0   2   2    6.70    1.20
  -1  -2  -2  225.08    7.40
  -1  -2  -2  221.48    6.50
  -1  -2  -2  219.78    7.30
  -1  -2  -2  233.38    7.20
  -1  -2  -2  233.98    7.40
   1   2   2  220.18    7.10
   1   2   2  207.18    6.80
   1   2   2  220.58    7.10
   1   2   2  225.78    7.30
   1   2   2  223.98    7.10
   1   2   2  227.68    6.40
  -2  -2  -2  213.88    7.60
  -2  -2  -2  190.88    7.20
  -2  -2  -2  204.48    7.20
  -2  -2  -2  212.68    7.30
  -2  -2  -2  208.68    6.70
  -2  -2  -2  196.28    7.20
   2   2   2  200.78    6.90
   2   2   2  209.28    7.40
   2   2   2  210.38    6.60
   2   2   2  215.58    7.40
   2   2   2  214.58    7.50
   2   2   2  205.58    7.10
   2   2   2  208.78    7.40
  -3  -2  -2  972.20   23.40
  -3  -2  -2  939.71   22.00
  -3  -2  -2  985.50   23.30
  -3  -2  -2  949.80   23.00
  -3  -2  -2  962.20   22.80
  -3  -2  -2  958.60   22.80
   3   2   2  931.61   22.20
   3   2   2  968.60   22.10
   3   2   2  969.90   23.10
   3   2   2  916.71   22.40
   3   2   2  982.80   23.60
   3   2   2  964.20   23.10
  -4  -2  -2  304.87   10.10
  -4  -2  -2  290.47   10.50
  -4  -2  -2  298.97   10.40
  -4  -2  -2  284.57   10.50
  -4  -2  -2  282.07   10.70
  -4  -2  -2  297.57   10.30
   4   2   2  300.17   10.10
   4   2   2  298.97   10.70
   4   2   2  284.87    9.90
   4   2   2  295.17   10.20
   4   2   2  301.27   11.20
   4   2   2  309.17   10.70
  -5  -2  -2   72.69    5.40
  -5  -2  -2   71.69    5.10
  -5  -2  -2   62.09    4.70
  -5  -2  -2   64.69    5.00
  -5  -2  -2   71.49    4.90
  -5  -2  -2   73.39    5.20
   5   2   2   65.59    4.60
   5   2   2   77.09    5.30
   5   2   2   64.19    5.00
   5   2   2   58.09    5.20
   5   2   2   87.69    5.50
  -6  -2  -2    2.60    1.70
  -6  -2  -2   -1.10    1.50
  -6  -2  -2    1.80    1.50
  -6  -2  -2    4.20    2.00
  -6  -2  -2    2.70    1.30
  -6  -2  -2    5.00    2.10
   6   2   2    2.30    1.50
   6   2   2    3.40    2.00
   6   2   2    2.40    1.80
   6   2   2    0.80    1.50
  -7  -2  -2   -1.40    1.50
  -7  -2  -2    1.00    2.30
  -7  -2  -2   -1.80    1.90
  -7  -2  -2   -1.10    1.70
  -7  -2  -2   -1.30    2.20
  -7  -2  -2   -1.80    1.50
   7   2   2   -0.40    1.30
   7   2   2   -0.70    1.80
   7   2   2   -3.30    1.60
   7   2   2    2.30    2.10
  -8  -2  -2    0.30    2.10
  -8  -2  -2    0.90    2.30
  -8  -2  -2    0.80    1.90
  -8  -2  -2   -2.30    2.60
  -8  -2  -2    0.80    2.40
  -8  -2  -2    7.00    3.40
   8   2   2   -0.70    1.60
   8   2   2   -1.00    2.70
   8   2   2   -0.30    2.40
   9  -3  -2   69.49    6.00
   9  -3  -2   75.59    6.50
   9  -3  -2   75.09    7.60
  -9   3   2   68.09    6.40
  -9   3   2   75.19    5.70
  -9   3   2   75.89    6.40
  -9   3   2   73.09    6.40
  -9   3   2   65.69    5.70
   8  -3  -2  117.99    8.80
   8  -3  -2  127.99    7.00
   8  -3  -2  130.99    7.90
   8  -3  -2  115.79    7.20
  -8   3   2  107.49    6.80
  -8   3   2  121.19    6.80
  -8   3   2  114.29    7.30
  -8   3   2  126.99    7.90
  -8   3   2  123.69    7.90
  -8   3   2  112.49    8.00
   7  -3  -2   22.40    3.20
   7  -3  -2   19.30    3.20
   7  -3  -2   20.70    4.20
   7  -3  -2   19.40    3.40
   7  -3  -2   17.30    1.50
  -7   3   2   16.70    3.10
  -7   3   2   16.10    2.80
  -7   3   2   17.20    2.90
  -7   3   2   18.50    3.30
  -7   3   2   16.70    3.40
   6  -3  -2   49.10    2.70
   6  -3  -2   48.60    3.70
   6  -3  -2   53.39    5.00
   6  -3  -2   54.99    4.30
   6  -3  -2   55.89    4.20
   6  -3  -2   52.79    4.00
  -6   3   2   49.70    3.80
  -6   3   2   48.90    4.20
  -6   3   2   46.30    3.90
  -6   3   2   49.99    4.40
  -6   3   2   47.00    3.90
   5  -3  -2   34.80    1.30
   5  -3  -2   28.50    4.00
   5  -3  -2   36.90    3.10
   5  -3  -2   31.20    2.90
   5  -3  -2   40.50    3.30
   5  -3  -2   37.10    3.50
  -5   3   2   37.00    3.20
  -5   3   2   37.80    3.60
  -5   3   2   35.10    3.30
  -5   3   2   31.00    2.90
  -5   3   2   34.90    2.90
   4  -3  -2  229.28    8.00
   4  -3  -2  227.48    5.40
   4  -3  -2  233.08    8.50
   4  -3  -2  235.28    8.10
   4  -3  -2  229.48    8.20
   4  -3  -2  235.08    7.90
   4  -3  -2  222.38    5.50
   4  -3  -2  238.58    9.10
  -4   3   2  213.68    7.90
  -4   3   2  241.58    8.20
  -4   3   2  218.28    7.80
  -4   3   2  240.58    8.50
  -4   3   2  230.48    8.70
   3  -3  -2  485.95   12.50
   3  -3  -2  455.95    9.50
   3  -3  -2  453.65   12.90
   3  -3  -2  469.65   12.60
   3  -3  -2  465.35   12.60
   3  -3  -2  459.75   12.40
  -3   3   2  470.25   12.50
  -3   3   2  460.55   12.80
  -3   3   2  472.65   12.60
  -3   3   2  489.25   13.30
  -3   3   2  462.85   12.60
   2  -3  -2    0.70    0.80
   2  -3  -2    1.10    0.70
   2  -3  -2    0.80    0.60
   2  -3  -2    1.60    0.80
   2  -3  -2    1.10    0.70
   2  -3  -2    1.20    0.50
  -2   3   2    1.70    0.50
  -2   3   2    1.20    0.80
  -2   3   2    0.80    0.90
  -2   3   2    0.90    0.60
  -2   3   2    1.70    0.70
   1  -3  -2  844.72   19.80
   1  -3  -2  855.91   19.80
   1  -3  -2  853.21   19.50
   1  -3  -2  879.41   19.70
   1  -3  -2  837.42   18.40
   1  -3  -2  877.51   19.60
  -1   3   2  881.41   19.80
  -1   3   2  840.12   21.40
  -1   3   2  801.72   19.30
  -1   3   2  884.61   18.50
  -1   3   2  868.01   19.60
  -1   3   2  835.02   19.40
  -1   3   2  858.21   19.80
   0  -3  -2    1.30    0.80
   0  -3  -2   -0.60    0.40
   0  -3  -2    0.40    0.60
   0  -3  -2    0.90    0.90
   0  -3  -2    0.80    0.70
   0  -3  -2    2.10    0.80
   0  -3  -2    0.00    0.70
   0   3   2    1.40    0.70
   0   3   2    1.30    0.70
   0   3   2    0.70    0.50
   0   3   2    0.60    0.70
   0   3   2    0.60    0.80
   0   3   2    0.70    0.70
   0   3   2    0.90    0.80
  -1  -3  -2    0.20    0.80
  -1  -3  -2    0.40    0.60
  -1  -3  -2    0.70    0.90
  -1  -3  -2    0.00    0.80
  -1  -3  -2    0.40    0.70
  -1  -3  -2    1.90    0.80
   1   3   2   -0.10    0.70
   1   3   2   -1.10    0.30
   1   3   2   -0.50    0.70
   1   3   2    0.50    0.60
   1   3   2   -0.20    0.70
   1   3   2    0.90    0.70
  -2  -3  -2   93.69    5.00
  -2  -3  -2   88.99    4.80
  -2  -3  -2   96.29    5.10
  -2  -3  -2   97.99    5.30
  -2  -3  -2   96.99    5.00
  -2  -3  -2   96.99    5.10
  -2  -3  -2   89.29    4.50
   2   3   2   97.29    5.00
   2   3   2   91.09    4.70
   2   3   2   98.49    5.20
   2   3   2   88.69    4.80
   2   3   2   85.79    4.70
   2   3   2   91.79    5.00
   2   3   2   89.69    4.40
  -3  -3  -2  369.66   11.80
  -3  -3  -2  358.06   11.60
  -3  -3  -2  341.27   11.90
  -3  -3  -2  360.96   11.90
  -3  -3  -2  324.77   12.00
  -3  -3  -2  343.97   11.00
  -3  -3  -2  356.16   11.90
   3   3   2  333.47   11.00
   3   3   2  346.57   11.60
   3   3   2  361.86   11.80
   3   3   2  368.86   12.00
   3   3   2  371.66   11.00
   3   3   2  334.67   11.20
   3   3   2  338.67   11.90
  -4  -3  -2  122.79    6.80
  -4  -3  -2  124.29    6.80
  -4  -3  -2  106.79    6.60
  -4  -3  -2  118.29    6.40
  -4  -3  -2  127.89    6.70
   4   3   2  120.59    6.70
   4   3   2  131.09    6.70
   4   3   2  125.79    6.40
   4   3   2  121.79    6.90
   4   3   2  121.49    6.70
   4   3   2  127.89    6.30
   4   3   2  118.69    6.90
  -5  -3  -2   85.09    5.80
  -5  -3  -2   84.99    6.10
  -5  -3  -2   87.49    5.90
  -5  -3  -2   81.29    5.60
   5   3   2   84.49    5.80
   5   3   2   89.49    5.80
   5   3   2   86.09    6.00
   5   3   2   87.29    6.00
   5   3   2   77.69    5.40
   5   3   2   94.99    5.90
   5   3   2   82.19    6.40
  -6  -3  -2  104.79    6.90
  -6  -3  -2   99.49    7.00
  -6  -3  -2  112.59    7.60
  -6  -3  -2  103.79    6.90
  -6  -3  -2  112.29    7.60
   6   3   2  110.39    8.30
   6   3   2  112.39    7.40
   6   3   2  113.99    8.00
   6   3   2  111.49    7.30
   6   3   2  110.39    7.20
  -7  -3  -2    3.00    2.30
  -7  -3  -2    2.80    2.40
  -7  -3  -2    6.50    2.80
  -7  -3  -2    6.70    2.40
  -7  -3  -2    2.40    2.10
  -7  -3  -2    0.50    2.30
  -7  -3  -2    6.90    2.90
   7   3   2    1.60    2.10
   7   3   2    2.10    2.00
   7   3   2    3.90    2.60
   9  -4  -2    1.20    2.20
   9  -4  -2    2.60    2.20
  -9   4   2    1.40    2.10
  -9   4   2   -2.00    2.00
  -9   4   2    3.50    2.80
  -9   4   2    1.90    2.10
   8  -4  -2   14.50    2.80
   8  -4  -2   15.60    3.10
   8  -4  -2    8.40    3.10
   8  -4  -2   13.20    3.20
  -8   4   2   13.20    3.10
  -8   4   2   19.30    3.40
  -8   4   2   11.50    2.70
  -8   4   2   12.60    3.50
  -8   4   2   16.70    3.00
   7  -4  -2   31.40    5.40
   7  -4  -2   25.20    4.30
   7  -4  -2   27.10    4.00
  -7   4   2   25.90    3.80
  -7   4   2   29.80    4.10
  -7   4   2   28.20    4.40
  -7   4   2   25.20    3.30
  -7   4   2   26.20    3.70
   6  -4  -2    5.30    1.90
   6  -4  -2    4.80    1.60
   6  -4  -2    7.50    2.60
   6  -4  -2    6.70    1.90
   6  -4  -2   11.00    2.30
  -6   4   2    8.10    2.20
  -6   4   2    7.10    1.70
  -6   4   2    9.30    2.10
  -6   4   2    8.20    2.30
  -6   4   2   10.00    2.20
   5  -4  -2    6.20    1.60
   5  -4  -2   10.90    2.30
   5  -4  -2    4.30    1.50
   5  -4  -2    4.70    2.00
   5  -4  -2    5.30    1.60
  -5   4   2   13.90    2.70
  -5   4   2    6.30    1.60
  -5   4   2    5.20    1.70
  -5   4   2    5.80    1.60
  -5   4   2    5.20    1.70
   4  -4  -2  136.79    6.00
   4  -4  -2  137.09    6.00
   4  -4  -2  143.69    6.30
   4  -4  -2  136.89    4.70
   4  -4  -2  149.88    6.30
   4  -4  -2  146.29    6.80
  -4   4   2  145.19    6.60
  -4   4   2  159.98    6.50
  -4   4   2  132.29    6.10
  -4   4   2  131.59    6.20
  -4   4   2  139.59    6.90
   3  -4  -2  830.42   17.00
   3  -4  -2  859.21   20.20
   3  -4  -2  807.62   20.00
   3  -4  -2  849.32   21.10
   3  -4  -2  869.01   20.50
   3  -4  -2  837.82   20.30
  -3   4   2  851.11   21.20
  -3   4   2  836.42   20.50
  -3   4   2  857.11   20.30
  -3   4   2  840.92   17.00
  -3   4   2  868.11   20.40
  -3   4   2  825.32   20.50
   2  -4  -2   24.70    2.30
   2  -4  -2   27.50    2.60
   2  -4  -2   19.40    2.50
   2  -4  -2   22.40    2.20
   2  -4  -2   27.80    2.70
   2  -4  -2   26.90    1.80
  -2   4   2   28.50    2.60
  -2   4   2   28.90    2.60
  -2   4   2   25.10    2.40
  -2   4   2   25.10    1.70
  -2   4   2   26.80    2.60
   1  -4  -2  774.82   19.10
   1  -4  -2  794.32   19.50
   1  -4  -2  779.12   18.10
   1  -4  -2  786.32   19.60
   1  -4  -2  758.72   19.00
   1  -4  -2  826.42   19.50
  -1   4   2  778.72   19.00
  -1   4   2  788.02   19.20
  -1   4   2  806.62   19.40
  -1   4   2  817.82   19.60
  -1   4   2  815.62   19.50
  -1   4   2  804.32   19.80
  -1   4   2  794.12   18.00
   0  -4  -2   25.10    2.40
   0  -4  -2   21.50    2.80
   0  -4  -2   26.10    2.40
   0  -4  -2   23.90    2.40
   0  -4  -2   19.90    2.20
   0  -4  -2   16.70    2.40
   0  -4  -2   22.60    3.00
   0   4   2   25.80    2.60
   0   4   2   21.80    2.80
   0   4   2   19.30    2.50
   0   4   2   21.30    2.10
   0   4   2   24.80    2.40
   0   4   2   17.10    2.50
   0   4   2   22.70    2.30
  -1  -4  -2  240.88    9.00
  -1  -4  -2  248.68    9.10
  -1  -4  -2  247.18    8.80
  -1  -4  -2  244.88    8.80
  -1  -4  -2  235.98    8.50
   1   4   2  255.27    8.80
   1   4   2  248.08    8.90
   1   4   2  218.58    8.30
   1   4   2  237.88    8.80
   1   4   2  242.78    8.30
   1   4   2  247.38    9.10
  -2  -4  -2   27.00    3.60
  -2  -4  -2   26.60    3.50
  -2  -4  -2   24.40    3.40
  -2  -4  -2   26.50    3.60
  -2  -4  -2   25.70    3.20
  -2  -4  -2   26.20    3.30
  -2  -4  -2   28.80    2.90
   2   4   2   27.20    2.60
   2   4   2   22.60    3.10
   2   4   2   21.20    3.50
   2   4   2   28.00    3.40
   2   4   2   29.60    3.70
   2   4   2   25.30    3.50
   2   4   2   29.10    2.90
  -3  -4  -2  139.39    7.00
  -3  -4  -2  134.59    7.00
  -3  -4  -2  138.39    6.80
  -3  -4  -2  142.89    7.60
  -3  -4  -2  139.79    7.30
  -3  -4  -2  131.19    7.20
  -3  -4  -2  130.69    7.20
   3   4   2  143.59    7.40
   3   4   2  129.59    6.60
   3   4   2  155.78    7.40
   3   4   2  132.59    8.10
   3   4   2  142.79    6.60
   3   4   2  147.29    7.30
  -4  -4  -2   -1.00    1.00
  -4  -4  -2   -0.20    1.00
  -4  -4  -2   -1.00    1.30
  -4  -4  -2   -0.20    1.30
  -4  -4  -2    0.70    0.90
  -4  -4  -2    0.80    1.80
  -4  -4  -2    0.60    1.30
   4   4   2    2.40    1.60
   4   4   2    0.20    1.30
   4   4   2    2.20    1.50
   4   4   2   -0.90    1.20
   4   4   2   -1.10    1.20
   4   4   2    2.40    1.60
   4   4   2    0.80    1.20
  -5  -4  -2  101.89    7.20
  -5  -4  -2   94.89    7.00
  -5  -4  -2  105.79    6.70
  -5  -4  -2   99.79    6.70
  -5  -4  -2   98.19    6.80
   5   4   2   97.99    7.00
   5   4   2   98.69    6.40
   5   4   2  105.59    7.10
   5   4   2  105.79    6.80
   5   4   2   98.19    6.30
   5   4   2  103.39    7.20
  -6  -4  -2    9.40    3.10
  -6  -4  -2    5.80    2.70
  -6  -4  -2    9.90    2.80
  -6  -4  -2   10.40    2.70
  -6  -4  -2    4.70    2.70
  -6  -4  -2    3.50    2.60
  -6  -4  -2    7.00    2.60
  -6  -4  -2    6.70    2.60
   6   4   2    6.00    2.40
   6   4   2    5.60    2.60
   6   4   2    8.00    2.70
   6   4   2    5.00    2.40
   6   4   2    4.60    2.80
   6   4   2    7.90    2.50
   6   4   2    5.90    2.80
  -7  -4  -2   13.10    3.30
  -7  -4  -2   12.70    4.00
  -7  -4  -2   15.80    3.70
  -7  -4  -2   10.50    4.10
  -7  -4  -2   19.30    4.50
  -7  -4  -2    4.60    2.60
   7   4   2   13.40    3.90
   7   4   2   12.50    3.80
   7   4   2    7.30    3.20
   9  -5  -2   86.69    8.40
   9  -5  -2   61.49    6.00
   9  -5  -2   72.09    5.90
  -9   5   2   62.59    8.90
  -9   5   2   68.59    5.80
  -9   5   2   66.69    6.00
   8  -5  -2   14.10    3.20
   8  -5  -2   15.20    4.00
   8  -5  -2    8.00    2.40
   8  -5  -2   11.50    2.80
   8  -5  -2   13.20    2.90
  -8   5   2    9.80    2.50
  -8   5   2   15.00    2.90
  -8   5   2    9.70    2.70
  -8   5   2   16.80    3.50
  -8   5   2   12.70    3.50
   7  -5  -2  179.58   10.50
   7  -5  -2  190.08    8.80
  -7   5   2  179.78    8.50
  -7   5   2  180.48    8.20
  -7   5   2  188.48    9.20
  -7   5   2  163.48    9.50
  -7   5   2  176.78    8.60
   6  -5  -2   37.90    5.30
   6  -5  -2   47.30    4.00
   6  -5  -2   42.60    4.00
  -6   5   2   39.70    5.10
  -6   5   2   52.09    4.10
  -6   5   2   46.50    4.00
  -6   5   2   47.10    4.00
  -6   5   2   43.30    4.60
   5  -5  -2   14.00    2.50
   5  -5  -2   16.50    1.60
   5  -5  -2   20.00    3.00
   5  -5  -2   17.60    2.50
   5  -5  -2   16.20    2.80
  -5   5   2   14.10    2.50
  -5   5   2   14.10    2.50
  -5   5   2   19.80    2.90
  -5   5   2   16.60    2.80
  -5   5   2   16.30    3.00
   4  -5  -2    6.00    1.40
   4  -5  -2    7.10    1.70
   4  -5  -2    8.50    2.10
   4  -5  -2    5.30    1.50
   4  -5  -2    6.70    1.60
   4  -5  -2    5.80    1.60
  -4   5   2    7.30    1.80
  -4   5   2    3.60    1.50
  -4   5   2    5.40    1.40
  -4   5   2    8.10    1.70
  -4   5   2    7.10    2.00
   3  -5  -2   49.90    3.60
   3  -5  -2   50.79    2.40
   3  -5  -2   55.69    4.20
   3  -5  -2   49.80    3.60
   3  -5  -2   54.69    3.90
   3  -5  -2   52.29    3.70
  -3   5   2   52.79    2.40
  -3   5   2   54.99    3.90
  -3   5   2   55.69    4.00
  -3   5   2   56.19    3.80
  -3   5   2   49.99    4.00
  -3   5   2   46.30    3.40
   2  -5  -2   21.30    2.90
   2  -5  -2   23.40    3.10
   2  -5  -2   23.30    3.00
   2  -5  -2   24.10    3.00
   2  -5  -2   17.80    2.60
   2  -5  -2   18.80    1.80
  -2   5   2   19.80    2.80
  -2   5   2   20.40    2.90
  -2   5   2   22.50    3.00
  -2   5   2   19.80    1.70
  -2   5   2   22.00    2.80
  -2   5   2   17.90    2.80
  -2   5   2   20.60    2.80
   1  -5  -2   77.99    4.90
   1  -5  -2   84.89    4.40
   1  -5  -2   84.99    4.90
   1  -5  -2   81.49    4.80
   1  -5  -2   90.49    4.90
   1  -5  -2   91.39    4.90
  -1   5   2   93.39    4.90
  -1   5   2   78.59    4.00
  -1   5   2   89.69    5.10
  -1   5   2   83.59    4.90
  -1   5   2   87.29    4.90
  -1   5   2   73.09    4.60
  -1   5   2   81.79    5.00
   0  -5  -2 1288.47   30.60
   0  -5  -2 1247.08   32.40
   0  -5  -2 1285.57   30.30
   0  -5  -2 1302.07   29.90
   0  -5  -2 1347.37   30.50
   0  -5  -2 1317.37   30.80
   0   5   2 1357.06   30.70
   0   5   2 1297.77   29.50
   0   5   2 1327.57   30.20
   0   5   2 1362.66   30.90
   0   5   2 1348.97   31.00
   0   5   2 1279.57   30.10
   0   5   2 1357.26   30.70
  -1  -5  -2  470.25   14.50
  -1  -5  -2  472.05   14.90
  -1  -5  -2  465.55   14.40
  -1  -5  -2  474.45   14.50
  -1  -5  -2  475.65   14.70
  -1  -5  -2  481.75   14.50
   1   5   2  447.96   14.40
   1   5   2  499.35   14.80
   1   5   2  488.25   14.90
   1   5   2  479.25   14.10
   1   5   2  465.85   14.10
   1   5   2  497.55   15.10
  -2  -5  -2   27.70    3.70
  -2  -5  -2   35.60    5.00
  -2  -5  -2   28.40    3.90
  -2  -5  -2   25.10    3.80
  -2  -5  -2   30.80    3.90
  -2  -5  -2   22.70    3.40
  -2  -5  -2   26.40    3.60
   2   5   2   27.00    2.90
   2   5   2   27.90    3.70
   2   5   2   27.30    3.80
   2   5   2   24.40    3.30
   2   5   2   22.40    3.30
   2   5   2   31.20    3.90
  -3  -5  -2  108.49    7.00
  -3  -5  -2   98.29    6.20
  -3  -5  -2  124.79    7.40
  -3  -5  -2  110.19    6.80
  -3  -5  -2  113.79    6.60
  -3  -5  -2  107.79    7.00
  -3  -5  -2  106.19    6.60
   3   5   2  108.99    6.40
   3   5   2  100.09    6.80
   3   5   2  107.99    6.10
   3   5   2  107.59    6.90
   3   5   2  116.89    6.90
   3   5   2  123.59    6.90
  -4  -5  -2   32.90    4.40
  -4  -5  -2   37.10    4.70
  -4  -5  -2   35.20    5.00
  -4  -5  -2   38.40    5.20
  -4  -5  -2   41.50    5.90
  -4  -5  -2   40.00    5.30
   4   5   2   39.60    4.00
   4   5   2   38.50    4.90
   4   5   2   40.60    4.40
   4   5   2   41.70    5.40
   4   5   2   34.00    3.70
   4   5   2   38.60    5.20
  -5  -5  -2   23.50    4.40
  -5  -5  -2   15.50    3.60
  -5  -5  -2   17.30    3.80
  -5  -5  -2   13.70    3.20
  -5  -5  -2   26.30    4.60
  -5  -5  -2   18.90    4.00
  -5  -5  -2   13.40    3.50
   5   5   2   22.40    4.40
   5   5   2   20.10    4.30
   5   5   2   24.80    4.10
   5   5   2   18.10    3.50
   5   5   2   17.40    3.50
   5   5   2   22.90    4.20
   5   5   2   17.20    3.70
  -6  -5  -2   11.60    3.50
  -6  -5  -2   10.90    3.10
  -6  -5  -2   10.80    3.70
  -6  -5  -2    5.70    3.30
  -6  -5  -2   15.40    3.40
  -6  -5  -2   12.50    3.40
  -6  -5  -2   18.80    4.80
   6   5   2    8.30    3.30
   6   5   2   11.90    3.20
   6   5   2   12.10    2.90
   6   5   2   14.10    3.60
   9  -6  -2    6.00    3.30
   9  -6  -2   -2.30    2.50
  -9   6   2   -0.20    2.20
  -9   6   2    5.60    3.10
  -9   6   2    7.80    2.90
  -9   6   2    5.90    2.60
  -9   6   2   -0.20    2.00
   8  -6  -2   29.10    4.30
   8  -6  -2   22.00    3.80
   8  -6  -2   23.00    5.10
  -8   6   2   22.40    4.00
  -8   6   2   24.80    4.00
  -8   6   2   25.80    3.80
  -8   6   2   28.50    4.20
  -8   6   2   20.80    4.20
   7  -6  -2  368.66   12.80
   7  -6  -2  359.86   16.00
   7  -6  -2  346.17   12.70
   7  -6  -2  375.76   12.80
  -7   6   2  368.66   13.80
  -7   6   2  360.96   13.30
  -7   6   2  353.76   15.00
  -7   6   2  354.06   13.00
  -7   6   2  342.87   12.50
   6  -6  -2   25.70    3.60
   6  -6  -2   24.40    1.70
  -6   6   2   30.50    3.80
  -6   6   2   29.30    4.40
  -6   6   2   34.90    3.60
  -6   6   2   28.80    3.90
  -6   6   2   25.40    3.80
   5  -6  -2   41.50    3.70
   5  -6  -2   45.40    3.20
   5  -6  -2   42.50    4.40
   5  -6  -2   46.30    3.90
  -5   6   2   42.00    3.80
  -5   6   2   47.30    4.20
  -5   6   2   39.00    5.00
  -5   6   2   49.10    4.10
  -5   6   2   49.70    4.30
   4  -6  -2   22.30    3.60
   4  -6  -2   23.30    2.60
   4  -6  -2   25.70    3.30
   4  -6  -2   22.00    3.30
   4  -6  -2   26.30    3.20
   4  -6  -2   24.00    3.20
  -4   6   2   21.00    3.10
  -4   6   2   15.60    3.00
  -4   6   2   24.70    3.30
  -4   6   2   26.40    3.50
  -4   6   2   28.50    3.60
   3  -6  -2   27.50    2.90
   3  -6  -2   23.80    3.40
   3  -6  -2   29.90    3.10
   3  -6  -2   28.30    3.00
   3  -6  -2   24.60    3.60
   3  -6  -2   19.70    2.80
  -3   6   2   24.10    3.30
  -3   6   2   23.30    3.50
  -3   6   2   18.00    2.90
  -3   6   2   24.70    3.20
  -3   6   2   32.30    4.30
  -3   6   2   21.30    1.70
  -3   6   2   21.20    3.20
   2  -6  -2    3.80    1.40
   2  -6  -2    5.40    1.70
   2  -6  -2    4.30    1.40
   2  -6  -2    3.80    1.50
   2  -6  -2    5.90    1.70
   2  -6  -2    5.90    1.70
  -2   6   2    5.20    1.80
  -2   6   2    7.00    1.90
  -2   6   2    6.80    2.00
  -2   6   2    5.70    1.70
  -2   6   2    1.70    1.20
  -2   6   2    4.20    1.20
  -2   6   2    6.90    1.90
   1  -6  -2   43.90    3.40
   1  -6  -2   38.10    3.60
   1  -6  -2   37.10    3.60
   1  -6  -2   38.70    3.60
   1  -6  -2   43.00    3.90
   1  -6  -2   36.60    3.50
  -1   6   2   40.20    3.20
  -1   6   2   38.30    3.60
  -1   6   2   42.50    3.80
  -1   6   2   43.80    3.70
  -1   6   2   42.20    3.90
  -1   6   2   37.70    3.50
  -1   6   2   41.80    3.60
   0  -6  -2  398.76   14.90
   0  -6  -2  354.06   12.70
   0  -6  -2  350.26   12.30
   0  -6  -2  388.36   12.60
   0  -6  -2  386.96   13.20
   0  -6  -2  368.26   13.00
   0   6   2  362.86   12.70
   0   6   2  382.36   12.60
   0   6   2  395.26   13.40
   0   6   2  392.16   13.00
   0   6   2  407.96   14.00
   0   6   2  388.36   13.30
   0   6   2  363.76   12.70
  -1  -6  -2   27.60    3.90
  -1  -6  -2   28.10    3.80
  -1  -6  -2   25.00    3.70
  -1  -6  -2   27.20    3.90
  -1  -6  -2   19.10    3.30
  -1  -6  -2   23.20    3.60
  -1  -6  -2   23.80    3.70
   1   6   2   27.10    3.60
   1   6   2   27.90    4.00
   1   6   2   19.10    3.30
   1   6   2   26.00    3.80
   1   6   2   27.60    3.60
   1   6   2   23.60    3.40
   1   6   2   25.30    3.50
  -2  -6  -2    0.90    1.10
  -2  -6  -2    0.30    1.30
  -2  -6  -2    1.70    1.50
  -2  -6  -2    4.00    1.60
  -2  -6  -2    2.30    1.90
  -2  -6  -2    0.20    1.10
  -2  -6  -2    4.10    1.90
   2   6   2    3.00    1.80
   2   6   2    2.00    1.40
   2   6   2    3.90    1.90
   2   6   2    2.80    1.40
   2   6   2    2.00    1.20
   2   6   2    0.40    1.30
  -3  -6  -2   75.69    6.20
  -3  -6  -2   67.19    5.70
  -3  -6  -2   74.89    5.80
  -3  -6  -2   65.69    5.90
  -3  -6  -2   65.99    5.80
  -3  -6  -2   84.69    6.10
  -3  -6  -2   62.49    5.40
   3   6   2   75.69    6.00
   3   6   2   68.99    6.00
   3   6   2   75.79    6.10
   3   6   2   77.59    5.70
   3   6   2   75.89    5.40
   3   6   2   75.59    5.70
  -4  -6  -2   10.80    3.20
  -4  -6  -2   18.10    3.60
  -4  -6  -2   11.90    3.20
  -4  -6  -2    9.90    3.50
  -4  -6  -2    7.40    2.60
  -4  -6  -2   12.40    3.30
  -4  -6  -2   14.00    3.40
   4   6   2    9.20    3.10
   4   6   2   10.60    3.30
   4   6   2   14.10    3.00
   4   6   2    8.90    2.60
   4   6   2   11.30    2.80
   4   6   2   13.10    3.30
  -5  -6  -2   20.20    4.00
  -5  -6  -2   23.50    4.60
  -5  -6  -2   33.90    5.10
  -5  -6  -2   33.60    5.50
  -5  -6  -2   27.20    4.50
  -5  -6  -2   23.40    4.40
  -5  -6  -2   22.70    5.10
   5   6   2   29.40    4.80
   5   6   2   31.20    5.50
   5   6   2   25.00    5.00
   5   6   2   30.10    4.80
   5   6   2   25.50    4.70
  -6  -6  -2    1.50    3.60
  -6  -6  -2    2.10    2.00
  -6  -6  -2    3.30    2.90
  -6  -6  -2    3.20    2.40
  -6  -6  -2   -4.00    2.50
  -6  -6  -2    6.20    2.90
   6   6   2    1.30    2.50
   6   6   2   -1.60    2.40
   6   6   2    0.30    2.00
   6   6   2    5.80    3.20
   8  -7  -2    4.30    2.10
  -8   7   2    6.60    2.50
  -8   7   2    5.10    2.70
  -8   7   2   10.50    2.80
  -8   7   2   10.80    3.70
  -8   7   2    5.80    2.30
   7  -7  -2   48.20    4.50
   7  -7  -2   34.60    4.40
   7  -7  -2   41.70    4.20
  -7   7   2   41.90    4.30
  -7   7   2   48.80    4.80
  -7   7   2   42.50    4.50
  -7   7   2   49.20    4.50
  -7   7   2   45.00    6.10
   6  -7  -2    2.00    1.50
   6  -7  -2   -0.30    0.90
   6  -7  -2    0.60    1.40
  -6   7   2   -1.60    1.00
  -6   7   2    0.50    1.20
  -6   7   2    2.70    1.80
  -6   7   2    1.40    1.80
  -6   7   2   -0.40    1.20
   5  -7  -2   16.10    2.70
   5  -7  -2   21.40    3.10
  -5   7   2   21.60    3.80
  -5   7   2   15.70    2.90
  -5   7   2   14.40    2.80
  -5   7   2   17.30    3.20
  -5   7   2   18.20    3.10
   4  -7  -2   72.39    4.90
   4  -7  -2   63.99    4.80
   4  -7  -2   66.99    5.50
   4  -7  -2   59.99    4.60
   4  -7  -2   58.89    4.60
  -4   7   2   70.39    5.70
  -4   7   2   79.49    6.30
  -4   7   2   65.09    5.60
  -4   7   2   65.59    2.70
  -4   7   2   65.09    5.00
  -4   7   2   63.49    4.80
  -4   7   2   72.39    5.00
   3  -7  -2  127.29    6.80
   3  -7  -2  143.49    7.00
   3  -7  -2  129.59    7.30
   3  -7  -2  130.39    7.00
   3  -7  -2  136.99    7.70
   3  -7  -2  136.49    6.90
  -3   7   2  141.49    7.40
  -3   7   2  139.09    7.10
  -3   7   2  137.49    8.00
  -3   7   2  137.99    7.30
  -3   7   2  140.39    7.90
  -3   7   2  136.49    5.30
  -3   7   2  141.89    7.30
   2  -7  -2    4.70    2.10
   2  -7  -2   13.80    2.90
   2  -7  -2    9.50    2.20
   2  -7  -2    7.80    2.10
   2  -7  -2   10.40    2.50
   2  -7  -2    8.30    2.70
   2  -7  -2    7.70    1.80
  -2   7   2    8.80    2.40
  -2   7   2    8.50    2.40
  -2   7   2   10.60    2.50
  -2   7   2    6.30    2.00
  -2   7   2    7.40    2.30
  -2   7   2    5.40    1.80
  -2   7   2    6.40    1.50
   1  -7  -2   -2.60    1.00
   1  -7  -2   -0.30    1.10
   1  -7  -2    2.20    1.70
   1  -7  -2    1.50    1.70
   1  -7  -2   -0.30    1.00
   1  -7  -2    1.60    1.10
  -1   7   2    1.60    1.20
  -1   7   2   -0.10    1.00
  -1   7   2   -0.60    0.90
  -1   7   2    0.00    1.20
  -1   7   2    0.80    0.80
  -1   7   2    1.20    1.30
  -1   7   2    3.00    1.40
   0  -7  -2  101.69    6.70
   0  -7  -2  103.79    6.30
   0  -7  -2  100.39    6.40
   0  -7  -2  104.79    6.60
   0  -7  -2  107.19    6.80
   0   7   2   98.09    6.50
   0   7   2  100.09    6.50
   0   7   2  102.69    5.90
   0   7   2  102.09    6.40
   0   7   2  109.29    6.90
   0   7   2   92.69    5.90
   0   7   2   99.79    6.50
  -1  -7  -2   21.00    3.60
  -1  -7  -2   24.20    3.70
  -1  -7  -2   17.80    3.30
  -1  -7  -2   22.00    3.70
  -1  -7  -2   26.40    4.20
  -1  -7  -2   27.10    4.20
  -1  -7  -2   19.00    3.30
   1   7   2   20.40    3.60
   1   7   2   21.00    3.40
   1   7   2   16.90    4.00
   1   7   2   22.60    3.60
   1   7   2   21.50    3.40
   1   7   2   26.30    4.00
  -2  -7  -2   15.50    3.00
  -2  -7  -2   13.80    3.30
  -2  -7  -2   13.20    3.00
  -2  -7  -2   15.70    3.50
  -2  -7  -2   13.40    3.30
  -2  -7  -2   16.90    3.80
   2   7   2   15.50    3.50
   2   7   2   13.40    2.70
   2   7   2   12.60    3.10
   2   7   2   17.30    3.40
   2   7   2    8.80    3.00
   2   7   2   12.40    3.00
  -3  -7  -2   46.00    5.90
  -3  -7  -2   48.80    6.20
  -3  -7  -2   52.39    5.30
  -3  -7  -2   49.70    6.10
  -3  -7  -2   54.59    7.70
  -3  -7  -2   56.89    5.30
  -3  -7  -2   49.00    5.20
  -3  -7  -2   48.90    6.10
   3   7   2   47.60    6.20
   3   7   2   54.19    5.40
   3   7   2   63.99    5.40
   3   7   2   43.60    5.60
   3   7   2   43.90    5.80
   3   7   2   48.70    5.20
   3   7   2   53.89    5.00
  -4  -7  -2   47.50    6.10
  -4  -7  -2   43.00    6.60
  -4  -7  -2   51.59    6.60
  -4  -7  -2   53.89    6.70
  -4  -7  -2   47.20    6.50
  -4  -7  -2   66.69   11.40
  -4  -7  -2   55.59    6.70
  -4  -7  -2   59.19    7.00
   4   7   2   65.99    6.10
   4   7   2   59.89    6.10
   4   7   2   57.49    5.50
   4   7   2   64.69    5.80
   4   7   2   54.39    6.60
   4   7   2   49.40    6.70
  -5  -7  -2   15.80    4.40
  -5  -7  -2   32.40    6.20
  -5  -7  -2   34.30    5.70
  -5  -7  -2   24.00    5.40
  -5  -7  -2   24.70    4.70
  -5  -7  -2   25.20    5.60
   5   7   2   18.50    4.20
   5   7   2   30.40    4.70
   5   7   2   22.40    5.30
   5   7   2   23.70    4.40
   5   7   2   21.20    4.70
   8  -8  -2   40.60    4.90
  -8   8   2   38.60    6.50
  -8   8   2   37.60    5.40
  -8   8   2   36.50    5.20
  -8   8   2   30.10    4.70
  -8   8   2   33.50    4.60
   7  -8  -2   72.19    5.50
  -7   8   2   70.99    6.20
  -7   8   2   62.59    5.50
  -7   8   2   85.19    7.40
  -7   8   2   59.89    5.50
  -7   8   2   72.79    5.60
   6  -8  -2    6.30    2.30
   6  -8  -2    6.00    2.30
   6  -8  -2    3.80    1.70
   6  -8  -2    8.00    2.70
   6  -8  -2    4.70    2.10
   6  -8  -2    6.20    2.10
  -6   8   2    8.30    2.70
  -6   8   2    3.60    1.90
  -6   8   2    2.50    1.70
  -6   8   2    6.20    2.30
  -6   8   2    3.00    1.90
   5  -8  -2   56.29    4.70
   5  -8  -2   56.19    4.70
   5  -8  -2   69.29    6.20
   5  -8  -2   56.49    4.70
  -5   8   2   64.69    5.10
  -5   8   2   57.29    5.00
  -5   8   2   64.09    5.30
  -5   8   2   49.00    5.10
  -5   8   2   62.69    5.10
  -5   8   2   55.39    5.60
   4  -8  -2   88.09    6.20
   4  -8  -2   87.29    5.90
   4  -8  -2   73.29    5.40
  -4   8   2   87.39    5.90
  -4   8   2   88.29    5.90
  -4   8   2   79.19    6.40
  -4   8   2   82.89    6.60
  -4   8   2   87.19    6.10
  -4   8   2   82.29    3.60
  -4   8   2   85.79    6.00
   3  -8  -2  449.16   14.70
   3  -8  -2  447.86   14.80
   3  -8  -2  444.96   14.80
   3  -8  -2  416.86   15.70
  -3   8   2  439.76   16.10
  -3   8   2  472.95   16.90
  -3   8   2  433.26   15.30
  -3   8   2  446.16   15.00
  -3   8   2  468.15   15.00
  -3   8   2  437.96   12.30
  -3   8   2  424.36   15.00
   2  -8  -2   25.60    4.60
   2  -8  -2   30.80    4.50
   2  -8  -2   25.40    3.90
   2  -8  -2   24.70    3.80
  -2   8   2   23.50    3.80
  -2   8   2   26.80    4.30
  -2   8   2   22.80    3.00
  -2   8   2   28.70    4.00
  -2   8   2   26.50    4.10
  -2   8   2   36.00    5.00
  -2   8   2   31.10    4.30
   1  -8  -2    5.90    2.20
   1  -8  -2    1.80    1.70
   1  -8  -2    2.80    1.60
   1  -8  -2    1.50    1.60
   1  -8  -2    2.00    2.00
   1  -8  -2    0.30    1.50
  -1   8   2   -1.50    1.50
  -1   8   2   -0.50    1.10
  -1   8   2   -0.20    1.20
  -1   8   2    1.90    1.90
  -1   8   2    2.00    1.90
   0  -8  -2  147.79    9.90
   0  -8  -2  156.28    9.00
   0  -8  -2  163.68    8.70
   0  -8  -2  166.38    8.90
   0  -8  -2  168.68    9.00
   0  -8  -2  178.28    8.90
   0   8   2  167.48    8.80
   0   8   2  163.18    9.00
   0   8   2  150.78    8.80
   0   8   2  171.98    9.40
   0   8   2  159.38    8.10
   0   8   2  174.78    9.20
  -1  -8  -2    7.60    2.90
  -1  -8  -2    9.00    3.00
  -1  -8  -2    6.30    2.60
  -1  -8  -2    9.50    2.70
  -1  -8  -2    6.30    2.20
  -1  -8  -2   10.90    3.10
  -1  -8  -2   15.20    4.30
   1   8   2    7.40    2.30
   1   8   2   14.70    3.70
   1   8   2   10.30    2.80
   1   8   2   10.20    2.70
   1   8   2   10.20    2.70
   1   8   2    7.90    2.70
  -2  -8  -2   91.79    7.40
  -2  -8  -2   91.79    7.10
  -2  -8  -2   89.59    8.30
  -2  -8  -2   79.39    6.50
  -2  -8  -2   83.29    6.80
  -2  -8  -2   93.99    7.30
  -2  -8  -2  103.89    7.70
   2   8   2   89.79    6.60
   2   8   2   82.39    6.70
   2   8   2   99.29    7.10
   2   8   2   94.29    7.50
   2   8   2  106.39    7.90
   2   8   2  101.59    7.40
  -3  -8  -2    7.20    3.50
  -3  -8  -2    5.20    2.70
  -3  -8  -2    7.60    3.20
  -3  -8  -2    6.40    3.30
  -3  -8  -2    7.60    3.00
  -3  -8  -2    5.10    2.40
   3   8   2    6.20    3.30
   3   8   2    3.50    2.30
   3   8   2    4.00    2.20
   3   8   2    4.00    3.00
   3   8   2    5.40    2.50
   3   8   2    4.50    2.40
  -4  -8  -2    8.70    3.40
  -4  -8  -2    3.80    3.10
  -4  -8  -2    0.70    3.20
  -4  -8  -2    3.20    3.70
   4   8   2    8.60    3.50
   4   8   2   10.00    3.50
   4   8   2   -0.70    3.10
   4   8   2    4.90    2.40
   4   8   2    7.80    2.60
   7  -9  -2   -0.60    1.60
   7  -9  -2    1.90    2.40
   7  -9  -2   -2.40    2.40
  -7   9   2    1.90    1.90
  -7   9   2   -1.50    2.40
  -7   9   2    2.60    2.30
  -7   9   2    5.30    2.30
  -7   9   2    0.40    1.80
   6  -9  -2   34.00    4.30
   6  -9  -2   30.30    4.90
  -6   9   2   20.90    4.80
  -6   9   2   36.20    4.80
  -6   9   2   37.50    4.80
  -6   9   2   31.60    5.50
  -6   9   2   33.70    4.90
  -6   9   2   46.00    4.70
   5  -9  -2  114.49    7.40
   5  -9  -2  107.29    6.80
   5  -9  -2  113.09    7.10
  -5   9   2  108.99    7.10
  -5   9   2  108.29    6.90
  -5   9   2  101.59    7.20
  -5   9   2  101.59    7.20
  -5   9   2  105.19    8.00
  -5   9   2  107.29    8.00
   4  -9  -2    6.20    2.60
   4  -9  -2    8.20    2.60
   4  -9  -2    9.20    2.70
   4  -9  -2    7.30    2.90
   4  -9  -2    4.40    2.00
   4  -9  -2   11.00    3.10
  -4   9   2    6.70    2.80
  -4   9   2    6.40    2.30
  -4   9   2    6.20    2.30
  -4   9   2    7.50    3.00
  -4   9   2    2.60    1.10
  -4   9   2    8.10    2.50
  -4   9   2    4.30    2.30
   3  -9  -2    0.80    2.00
   3  -9  -2    1.60    2.00
   3  -9  -2    2.30    2.00
   3  -9  -2   -1.20    1.60
  -3   9   2    1.50    1.60
  -3   9   2   -0.40    1.00
  -3   9   2    3.00    1.80
  -3   9   2    1.30    2.20
  -3   9   2    8.30    2.90
  -3   9   2    0.20    1.50
  -3   9   2    0.90    1.40
   2  -9  -2    7.70    3.00
   2  -9  -2    8.30    3.00
   2  -9  -2    6.20    2.50
  -2   9   2    7.40    2.40
  -2   9   2    7.10    2.00
  -2   9   2    6.20    2.80
  -2   9   2   10.70    3.20
  -2   9   2    8.20    2.50
  -2   9   2    7.70    2.40
  -2   9   2    8.40    2.40
   1  -9  -2   10.10    2.60
   1  -9  -2    7.40    3.10
   1  -9  -2    7.60    2.60
   1  -9  -2    5.60    2.30
   1  -9  -2    8.60    2.70
   1  -9  -2    6.90    2.30
  -1   9   2    3.90    2.30
  -1   9   2    4.30    2.20
  -1   9   2    7.70    2.30
  -1   9   2    6.10    2.30
  -1   9   2    6.30    2.40
  -1   9   2    0.40    1.80
  -1   9   2    5.60    2.50
   0  -9  -2   39.20    5.30
   0  -9  -2   41.80    5.40
   0  -9  -2   36.00    6.10
   0  -9  -2   43.10    5.60
   0  -9  -2   46.40    6.00
   0  -9  -2   54.89    5.50
   0   9   2   40.90    5.50
   0   9   2   39.50    4.80
   0   9   2   40.80    5.80
   0   9   2   62.99    6.10
   0   9   2   52.29    5.00
   0   9   2   59.09    5.50
   0   9   2   43.00    5.70
  -1  -9  -2   29.70    4.90
  -1  -9  -2   26.90    4.60
  -1  -9  -2   27.10    5.60
  -1  -9  -2   17.90    4.50
  -1  -9  -2   27.90    4.60
  -1  -9  -2   25.80    5.00
   1   9   2   28.80    4.90
   1   9   2   27.30    4.80
   1   9   2   29.70    4.50
   1   9   2   27.20    5.00
   1   9   2   26.90    4.40
   1   9   2   25.90    4.40
  -2  -9  -2  202.38   11.60
  -2  -9  -2  225.58   11.60
  -2  -9  -2  216.98   13.70
  -2  -9  -2  190.88   11.00
   2   9   2  207.58   10.90
   2   9   2  208.98   12.20
   2   9   2  201.58   11.10
   2   9   2  216.08   11.10
   2   9   2  173.18   10.60
  -3  -9  -2   85.69    8.90
  -3  -9  -2  105.59    9.30
  -3  -9  -2   92.39    7.90
   3   9   2   81.19    7.20
   3   9   2   83.99    9.00
   3   9   2   99.89    8.10
   3   9   2   99.19    8.10
   3   9   2   79.69    7.40
   3   9   2   79.29    7.00
   6 -10  -2   11.20    3.00
   6 -10  -2    2.30    2.10
  -6  10   2    5.80    2.70
  -6  10   2    9.10    2.80
  -6  10   2    6.80    2.80
  -6  10   2    5.30    2.40
  -6  10   2    7.20    3.40
  -6  10   2   12.10    3.60
   5 -10  -2   19.40    4.10
   5 -10  -2   17.90    3.60
   5 -10  -2   18.50    3.40
  -5  10   2   13.10    3.40
  -5  10   2   19.40    4.10
  -5  10   2   15.10    4.10
  -5  10   2   13.70    3.50
   4 -10  -2  116.29    8.40
   4 -10  -2  127.49    7.90
  -4  10   2  123.99    8.70
  -4  10   2  122.69    8.40
  -4  10   2  132.09    8.30
  -4  10   2  136.59    8.50
  -4  10   2  125.69    7.90
  -4  10   2  117.59    9.10
   3 -10  -2  294.57   14.50
  -3  10   2  305.67   13.30
  -3  10   2  308.27   14.30
  -3  10   2  305.97   10.70
  -3  10   2  299.47   13.60
  -3  10   2  298.87   13.10
  -3  10   2  282.27   12.40
  -3  10   2  317.17   14.90
   2 -10  -2    4.70    2.60
   2 -10  -2    3.80    2.40
   2 -10  -2    2.20    2.90
  -2  10   2    4.80    2.80
  -2  10   2    2.10    2.30
  -2  10   2    4.00    3.10
  -2  10   2    4.40    2.00
  -2  10   2    5.60    3.20
  -2  10   2    5.70    2.50
  -2  10   2    1.20    1.80
   1 -10  -2    2.50    2.90
   1 -10  -2   -0.10    2.20
   1 -10  -2    1.90    2.30
  -1  10   2   -2.80    2.40
  -1  10   2   -0.70    2.00
  -1  10   2   -0.90    2.00
  -1  10   2   -0.80    2.30
  -1  10   2    2.10    2.20
  -1  10   2    1.60    1.90
  -1  10   2    2.20    2.10
   0 -10  -2   -0.20    2.40
   0 -10  -2    3.20    2.10
   0 -10  -2   -0.60    1.70
   0  10   2   -1.40    2.20
   0  10   2    2.40    2.10
   0  10   2   -1.00    1.20
   0  10   2    0.00    1.50
   0  10   2   -0.60    2.10
   0  10   2   -1.20    1.70
   0  10   2   -2.00    2.70
  -1 -10  -2   10.80    3.60
  -1 -10  -2   14.00    3.80
  -1 -10  -2   16.30    4.10
   1  10   2   16.70    4.60
   1  10   2    8.40    3.00
   1  10   2   11.10    3.20
   1  10   2   18.80    4.20
   1  10   2    8.20    2.70
   4 -11  -2   19.50    4.80
  -4  11   2   17.80    3.90
  -4  11   2   14.20    4.10
  -4  11   2   19.00    4.20
  -4  11   2   15.40    4.20
  -4  11   2   20.20    4.20
  -4  11   2   13.30    4.00
  -4  11   2   15.00    3.10
   3 -11  -2  273.67   14.50
  -3  11   2  225.88   11.40
  -3  11   2  244.08   13.50
  -3  11   2  239.68   13.50
  -3  11   2  231.78   12.60
  -3  11   2  245.48   12.10
  -3  11   2  225.38    9.50
  -3  11   2  231.38   12.30
   2 -11  -2    4.60    3.00
   2 -11  -2    3.00    3.30
   2 -11  -2   -3.00    2.40
  -2  11   2    4.10    2.50
  -2  11   2    5.00    2.70
  -2  11   2    2.50    2.30
  -2  11   2    5.20    3.30
  -2  11   2    2.40    3.30
  -2  11   2    5.20    3.30
   1 -11  -2    0.70    2.90
   1 -11  -2   -1.30    2.70
   1 -11  -2    2.70    2.90
  -1  11   2   -1.70    2.20
  -1  11   2    1.80    3.50
  -1  11   2   -2.10    3.30
  -1  11   2    5.20    3.20
  -1  11   2    4.00    2.50
  -1  11   2    4.00    2.30
  -1  11   2    4.70    2.80
   1  11  -3   17.50    3.60
   1  11  -3   12.90    3.80
   1  11  -3   22.20    4.30
   1  11  -3   18.90    4.50
   1  11  -3   19.20    4.70
  -1 -11   3   25.40    7.40
  -1 -11   3   21.20    4.70
   0  11  -3   25.20    4.50
   0  11  -3   23.90    3.70
   0  11  -3   23.50    5.00
   0  11  -3   25.10    3.90
   0  11  -3   23.90    4.70
   0  11  -3   30.00    4.80
   0 -11   3   27.00    4.80
   0 -11   3   25.50    5.70
  -1  11  -3    1.60    1.50
  -1  11  -3    1.80    2.40
  -1  11  -3    1.00    2.70
  -1  11  -3   -1.50    2.00
  -1  11  -3    2.20    2.40
  -1  11  -3    2.30    1.70
   1 -11   3   -3.60    2.40
   1 -11   3    2.10    2.60
   1 -11   3   -0.70    2.10
   1 -11   3    1.10    2.00
  -2  11  -3    4.20    2.90
  -2  11  -3   -0.60    1.50
  -2  11  -3   -0.90    1.90
  -2  11  -3   -0.40    1.90
  -2  11  -3    0.70    2.30
  -2  11  -3    0.60    2.50
  -2  11  -3    0.70    1.70
   2 -11   3    1.40    2.50
   2 -11   3    4.10    2.10
   2 -11   3    0.40    1.90
   2 -11   3    0.10    2.30
  -3  11  -3   24.90    4.20
  -3  11  -3   22.80    4.30
  -3  11  -3   24.80    4.80
  -3  11  -3   26.20    4.10
  -3  11  -3   19.70    3.10
  -3  11  -3   24.40    3.70
   3 -11   3   36.40    6.80
   3 -11   3   32.10    3.20
   3 -11   3   24.40    2.90
   3  10  -3   10.70    3.20
   3  10  -3   11.70    3.40
   3  10  -3   15.30    3.60
   3  10  -3   16.00    4.20
   3  10  -3   13.20    3.90
   3  10  -3   12.70    3.40
  -3 -10   3    1.40    3.00
  -3 -10   3    4.30    3.40
  -3 -10   3    2.00    3.40
   2  10  -3    6.60    2.50
   2  10  -3   15.40    3.80
   2  10  -3   16.00    3.30
  -2 -10   3   17.80    3.30
  -2 -10   3   13.40    4.50
  -2 -10   3   17.00    3.60
   1  10  -3    5.30    2.50
   1  10  -3    2.70    1.70
   1  10  -3   -2.00    1.90
   1  10  -3    0.30    2.10
   1  10  -3    4.20    2.50
   1  10  -3    1.70    1.90
  -1 -10   3   -1.50    1.90
  -1 -10   3    2.50    2.70
  -1 -10   3    2.60    2.40
  -1 -10   3    2.70    2.10
   0  10  -3   38.60    5.70
   0  10  -3   38.70    5.10
   0  10  -3   24.90    4.60
   0  10  -3   28.20    3.70
   0  10  -3   31.20    4.10
   0  10  -3   28.50    4.60
   0  10  -3   26.30    3.90
   0 -10   3   25.90    3.70
   0 -10   3   28.00    4.10
   0 -10   3   38.60    7.00
   0 -10   3   25.30    3.80
  -1  10  -3    4.20    1.70
  -1  10  -3    4.50    2.20
  -1  10  -3    2.60    1.80
  -1  10  -3    4.10    2.10
  -1  10  -3    4.90    1.70
  -1  10  -3    6.20    2.40
  -1  10  -3    6.20    2.20
   1 -10   3    4.60    2.70
   1 -10   3    5.60    2.00
   1 -10   3    5.40    1.90
   1 -10   3    5.00    1.80
  -2  10  -3    3.40    1.60
  -2  10  -3    6.00    2.00
  -2  10  -3    6.00    1.90
  -2  10  -3    2.10    1.90
  -2  10  -3    7.80    3.00
  -2  10  -3    3.10    2.10
  -2  10  -3    5.90    2.10
   2 -10   3    4.50    1.90
   2 -10   3    1.70    2.00
   2 -10   3    5.50    1.60
   2 -10   3    4.50    1.80
   2 -10   3    2.30    2.50
  -3  10  -3   20.80    3.20
  -3  10  -3   21.20    3.30
  -3  10  -3   20.40    3.00
  -3  10  -3   16.80    2.50
  -3  10  -3   27.40    4.50
  -3  10  -3   30.40    5.20
  -3  10  -3   24.60    2.90
   3 -10   3   23.30    5.00
   3 -10   3   19.90    2.50
  -4  10  -3    3.40    1.50
  -4  10  -3    0.20    1.30
  -4  10  -3    1.70    1.30
  -4  10  -3    2.10    2.40
  -4  10  -3    0.70    1.60
  -4  10  -3    5.90    1.70
  -4  10  -3    1.40    2.40
   4 -10   3    1.10    2.10
   4 -10   3    3.40    1.00
   4 -10   3    1.50    0.50
   4 -10   3    1.90    0.90
  -5  10  -3   62.49    4.20
  -5  10  -3   73.69    6.80
  -5  10  -3   57.99    4.10
  -5  10  -3   55.39    7.60
  -5  10  -3   62.69    4.40
   5 -10   3   53.99    6.20
   4   9  -3   59.09    5.90
   4   9  -3   59.59    6.30
   4   9  -3   50.09    7.00
   4   9  -3   55.89    6.90
   4   9  -3   48.70    6.50
  -4  -9   3   58.89    8.70
  -4  -9   3   69.19    7.00
  -4  -9   3   55.59    6.60
   3   9  -3    3.00    2.80
   3   9  -3    3.90    1.80
   3   9  -3    8.00    2.70
   3   9  -3    3.20    1.90
   3   9  -3    3.00    2.20
   3   9  -3    2.70    2.20
  -3  -9   3    3.70    2.80
  -3  -9   3    0.80    1.80
  -3  -9   3    4.50    2.90
  -3  -9   3   -1.30    2.10
   2   9  -3    9.60    3.00
   2   9  -3    9.80    2.80
   2   9  -3    9.80    3.00
   2   9  -3   17.70    4.00
   2   9  -3   13.60    3.30
   2   9  -3    7.90    2.20
  -2  -9   3    9.20    3.20
  -2  -9   3   14.50    4.50
  -2  -9   3   18.40    3.80
  -2  -9   3   10.70    2.40
  -2  -9   3    7.40    2.50
   1   9  -3    6.30    2.70
   1   9  -3    7.90    2.30
   1   9  -3    4.80    1.90
   1   9  -3    5.50    2.30
   1   9  -3   10.10    2.60
   1   9  -3   11.00    2.70
  -1  -9   3    5.90    2.20
  -1  -9   3   13.50    3.10
  -1  -9   3    9.70    2.70
  -1  -9   3    3.40    2.50
  -1  -9   3    7.10    2.60
  -1  -9   3   10.80    2.70
   0   9  -3    3.90    1.60
   0   9  -3    3.90    1.60
   0   9  -3    1.10    1.60
   0   9  -3    4.50    1.90
   0   9  -3    1.80    1.60
   0   9  -3    1.40    1.70
   0   9  -3    0.90    1.70
   0  -9   3   -1.00    1.50
   0  -9   3    1.20    1.40
   0  -9   3    1.40    1.60
   0  -9   3    5.00    2.10
   0  -9   3    0.50    1.30
  -1   9  -3  160.38    9.70
  -1   9  -3  177.98    8.20
  -1   9  -3  168.88    7.40
  -1   9  -3  177.28    7.80
  -1   9  -3  169.48    8.30
  -1   9  -3  154.78    7.60
  -1   9  -3  173.48    8.60
   1  -9   3  173.88   10.80
   1  -9   3  164.68    7.40
   1  -9   3  158.58    8.20
   1  -9   3  159.68    7.00
   1  -9   3  167.38    7.10
  -2   9  -3   65.59    6.00
  -2   9  -3   59.59    5.10
  -2   9  -3   60.79    4.20
  -2   9  -3   62.99    4.50
  -2   9  -3   58.59    4.50
  -2   9  -3   59.79    4.10
  -2   9  -3   53.99    4.40
   2  -9   3   68.29    6.40
   2  -9   3   52.59    4.50
   2  -9   3   63.79    3.90
   2  -9   3   66.09    5.20
   2  -9   3   64.29    3.90
  -3   9  -3   27.90    3.40
  -3   9  -3   34.10    4.70
  -3   9  -3   24.00    2.90
  -3   9  -3   28.20    2.90
  -3   9  -3   29.90    5.00
  -3   9  -3   29.10    2.80
   3  -9   3   27.90    2.30
   3  -9   3   25.20    4.00
   3  -9   3   23.80    4.60
  -4   9  -3    7.60    1.60
  -4   9  -3    9.80    1.90
  -4   9  -3    9.00    3.00
  -4   9  -3    7.80    1.80
  -4   9  -3    8.10    1.50
  -4   9  -3   11.70    2.00
  -4   9  -3   12.80    3.20
   4  -9   3    7.60    3.10
   4  -9   3   10.10    1.00
  -5   9  -3   56.09    3.60
  -5   9  -3   61.79    5.90
  -5   9  -3   47.70    3.30
  -5   9  -3   50.59    3.60
  -5   9  -3   51.79    4.10
  -5   9  -3   45.20    1.80
  -5   9  -3   56.29    6.10
   5  -9   3   44.80    6.00
  -6   9  -3   39.50    3.20
  -6   9  -3   38.00    2.90
  -6   9  -3   38.50    5.80
  -6   9  -3   42.10    6.50
   6  -9   3   39.80    4.70
   5   8  -3   49.70    6.20
   5   8  -3   40.30    5.50
   5   8  -3   48.00    6.00
   5   8  -3   42.30    5.70
  -5  -8   3   39.00    6.90
  -5  -8   3   35.00    5.20
  -5  -8   3   42.40    6.10
   4   8  -3    2.60    2.50
   4   8  -3    3.40    2.30
   4   8  -3    2.70    2.30
   4   8  -3    2.40    1.90
   4   8  -3    2.50    1.80
   4   8  -3    3.50    2.60
  -4  -8   3    4.40    2.60
  -4  -8   3    3.50    2.60
  -4  -8   3    5.30    2.60
  -4  -8   3    4.40    2.20
  -4  -8   3   -0.10    2.00
   3   8  -3   33.60    4.40
   3   8  -3   30.20    4.50
   3   8  -3   40.20    4.00
   3   8  -3   35.10    4.70
   3   8  -3   36.00    5.00
   3   8  -3   44.90    4.70
   3   8  -3   29.60    4.70
  -3  -8   3   44.10    7.00
  -3  -8   3   33.20    4.80
  -3  -8   3   36.70    4.70
  -3  -8   3   34.50    4.90
  -3  -8   3   37.30    3.90
  -3  -8   3   31.70    5.30
  -3  -8   3   29.80    4.30
   2   8  -3  141.39    8.10
   2   8  -3  127.29    8.00
   2   8  -3  139.49    7.70
   2   8  -3  138.99    7.40
   2   8  -3  133.39    7.40
   2   8  -3  122.29    7.70
  -2  -8   3  133.49    8.50
  -2  -8   3  124.39    7.30
  -2  -8   3  132.39    6.90
  -2  -8   3  134.69    9.60
  -2  -8   3  124.39    6.90
   1   8  -3  456.85   15.10
   1   8  -3  427.76   15.20
   1   8  -3  441.96   14.10
   1   8  -3  427.46   14.50
   1   8  -3  461.95   14.10
   1   8  -3  433.66   14.20
   1   8  -3  455.65   16.30
  -1  -8   3  444.26   14.30
  -1  -8   3  429.46   17.80
  -1  -8   3  448.36   14.20
  -1  -8   3  457.95   14.30
   0   8  -3   99.99    6.20
   0   8  -3   85.89    6.40
   0   8  -3   92.09    5.20
   0   8  -3   93.59    5.80
   0   8  -3   95.79    5.70
   0   8  -3   96.99    5.50
   0   8  -3   98.79    7.00
   0  -8   3   98.69    5.50
   0  -8   3   95.89    5.20
   0  -8   3  100.49    7.80
   0  -8   3   94.79    5.90
   0  -8   3   93.49    5.50
  -1   8  -3   12.40    3.10
  -1   8  -3   15.20    2.60
  -1   8  -3   11.80    2.50
  -1   8  -3   12.70    2.30
  -1   8  -3   14.20    2.60
  -1   8  -3   15.00    2.40
  -1   8  -3   13.60    2.70
   1  -8   3    9.10    1.80
   1  -8   3   17.10    2.40
   1  -8   3   16.20    3.70
   1  -8   3   14.30    2.20
   1  -8   3   18.10    2.50
   1  -8   3   12.20    2.70
  -2   8  -3   35.70    4.40
  -2   8  -3   34.40    3.30
  -2   8  -3   37.00    3.20
  -2   8  -3   32.10    4.90
  -2   8  -3   34.10    2.90
  -2   8  -3   32.60    3.00
   2  -8   3   32.90    2.80
   2  -8   3   30.70    2.50
   2  -8   3   26.20    2.40
   2  -8   3   29.50    4.90
   2  -8   3   35.80    2.60
   2  -8   3   27.30    3.70
  -3   8  -3    3.30    1.80
  -3   8  -3    4.80    2.50
  -3   8  -3    3.90    1.30
  -3   8  -3    4.30    1.50
  -3   8  -3    1.70    1.20
  -3   8  -3    3.60    1.20
   3  -8   3    2.70    0.90
   3  -8   3    2.60    0.80
   3  -8   3    3.90    2.20
   3  -8   3    3.80    0.90
   3  -8   3    2.10    0.90
  -4   8  -3   36.00    5.40
  -4   8  -3   44.20    5.40
  -4   8  -3   40.30    3.00
  -4   8  -3   34.30    2.60
  -4   8  -3   40.30    3.00
  -4   8  -3   32.40    2.50
  -4   8  -3   39.20    2.90
   4  -8   3   40.80    6.10
  -5   8  -3  366.76   10.00
  -5   8  -3  383.46   15.10
  -5   8  -3  334.97    8.10
  -5   8  -3  354.66   10.00
  -5   8  -3  349.07   15.20
  -5   8  -3  357.36   10.40
   5  -8   3  383.76   13.90
  -6   8  -3  110.99    8.40
  -6   8  -3   95.59    7.70
  -6   8  -3  103.69    4.70
  -6   8  -3  103.89    4.40
  -6   8  -3  108.99    4.70
   6  -8   3  107.59    6.50
  -7   8  -3   14.80    2.00
  -7   8  -3   14.40    2.10
  -7   8  -3   13.20    2.10
  -7   8  -3   14.40    2.30
   7  -8   3   16.30    4.60
   6   7  -3    1.60    2.00
   6   7  -3    5.00    2.30
   6   7  -3    7.80    3.10
  -6  -7   3    3.30    2.70
  -6  -7   3   -0.20    2.40
  -6  -7   3   -0.70    2.60
   5   7  -3    7.40    2.20
   5   7  -3    6.40    2.60
   5   7  -3    6.20    2.20
   5   7  -3    0.90    1.90
   5   7  -3    4.90    2.10
  -5  -7   3    4.80    2.60
  -5  -7   3    2.70    2.10
  -5  -7   3    0.90    2.50
  -5  -7   3    0.80    2.60
  -5  -7   3    5.50    2.40
  -5  -7   3    3.90    2.40
   4   7  -3   27.70    4.30
   4   7  -3   29.80    4.50
   4   7  -3   23.80    3.90
   4   7  -3   28.70    4.00
   4   7  -3   28.10    4.50
  -4  -7   3   26.60    5.40
  -4  -7   3   33.40    5.10
  -4  -7   3   22.80    3.60
  -4  -7   3   29.40    4.50
  -4  -7   3   26.70    5.30
  -4  -7   3   27.90    4.30
  -4  -7   3   26.70    4.10
   3   7  -3   31.50    3.30
   3   7  -3   21.60    3.80
   3   7  -3   20.10    3.40
   3   7  -3   26.30    3.80
   3   7  -3   29.70    4.40
  -3  -7   3   27.10    3.90
  -3  -7   3   26.40    4.00
  -3  -7   3   30.80    5.30
  -3  -7   3   29.50    4.40
  -3  -7   3   20.90    3.50
  -3  -7   3   19.10    3.50
   2   7  -3 1108.59   27.10
   2   7  -3 1122.49   28.30
   2   7  -3 1064.09   28.50
   2   7  -3 1105.09   29.70
  -2  -7   3 1091.49   26.50
  -2  -7   3 1113.39   27.20
  -2  -7   3 1132.59   31.80
  -2  -7   3 1123.39   27.70
   1   7  -3  121.99    6.40
   1   7  -3  136.89    7.20
   1   7  -3  126.19    6.60
   1   7  -3  133.69    6.30
   1   7  -3  132.49    7.70
   1   7  -3  135.89    6.50
   1   7  -3  123.29    6.00
  -1  -7   3  136.09    7.30
  -1  -7   3  128.39    6.40
  -1  -7   3  133.49    6.40
  -1  -7   3  126.99    6.40
  -1  -7   3  134.69    7.80
  -1  -7   3  128.69    8.40
  -1  -7   3  125.09    6.20
   0   7  -3    8.90    1.80
   0   7  -3   10.20    2.00
   0   7  -3   10.70    2.00
   0   7  -3   14.80    2.70
   0   7  -3    9.70    2.10
   0   7  -3   10.90    2.10
   0   7  -3    9.60    2.60
   0  -7   3   13.40    2.40
   0  -7   3    8.10    1.80
   0  -7   3   11.30    2.20
   0  -7   3   10.80    2.80
   0  -7   3   14.10    2.20
   0  -7   3   10.40    3.00
  -1   7  -3  223.48    8.10
  -1   7  -3  219.38    7.50
  -1   7  -3  226.78    8.00
  -1   7  -3  222.68    8.60
  -1   7  -3  229.38    8.80
  -1   7  -3  231.98    7.90
  -1   7  -3  217.38   10.00
   1  -7   3  224.18    7.20
   1  -7   3  219.08    8.60
   1  -7   3  230.28    7.40
   1  -7   3  222.88    7.50
   1  -7   3  213.18    7.60
  -2   7  -3   20.50    3.50
  -2   7  -3   25.80    2.20
  -2   7  -3   30.80    2.60
  -2   7  -3   20.80    3.20
  -2   7  -3   27.00    2.30
  -2   7  -3   22.20    2.60
  -2   7  -3   28.10    2.70
   2  -7   3   18.70    3.60
   2  -7   3   26.70    2.10
   2  -7   3   26.10    1.90
   2  -7   3   25.70    1.90
   2  -7   3   25.10    2.10
  -3   7  -3    4.40    2.00
  -3   7  -3    5.30    1.30
  -3   7  -3    5.60    1.20
  -3   7  -3    4.50    2.00
  -3   7  -3    3.20    1.00
   3  -7   3    5.50    2.10
   3  -7   3    4.00    0.70
   3  -7   3    4.30    0.70
   3  -7   3    5.20    0.70
  -4   7  -3   44.20    2.80
  -4   7  -3   41.20    2.60
  -4   7  -3   42.60    2.80
  -4   7  -3   41.40    4.30
  -4   7  -3   38.60    2.60
  -4   7  -3   45.30    2.70
   4  -7   3   39.10    4.20
  -5   7  -3  233.68    7.20
  -5   7  -3  234.58   11.20
  -5   7  -3  243.08    8.80
  -5   7  -3  235.98    6.20
  -5   7  -3  239.38    7.10
   5  -7   3  231.58    9.80
   5  -7   3  257.17   12.40
  -6   7  -3   18.70    2.30
  -6   7  -3   18.50    2.40
  -6   7  -3   19.10    2.00
  -6   7  -3   25.80    4.40
  -6   7  -3   23.00    2.20
   6  -7   3   21.80    4.80
   6  -7   3   18.00    2.90
  -7   7  -3   15.10    2.20
  -7   7  -3   17.20    2.40
  -7   7  -3   13.60    1.90
  -7   7  -3   10.00    3.30
  -7   7  -3   14.00    2.00
   7  -7   3   12.40    3.90
   7   6  -3  153.28    9.90
   7   6  -3  168.88   10.70
   7   6  -3  181.78   10.30
   7   6  -3  169.78   10.60
   7   6  -3  164.88   10.30
  -7  -6   3  165.78    9.60
  -7  -6   3  169.78   10.60
  -7  -6   3  163.38   10.50
  -7  -6   3  164.98   11.30
  -7  -6   3  142.59    9.50
   6   6  -3    5.40    3.20
   6   6  -3   17.80    3.60
   6   6  -3    9.20    2.70
   6   6  -3   15.50    3.80
   6   6  -3   11.20    3.20
   6   6  -3   12.40    3.40
  -6  -6   3    9.20    3.10
  -6  -6   3   11.60    2.70
  -6  -6   3    8.20    2.70
  -6  -6   3   11.10    3.60
   5   6  -3   34.80    4.90
   5   6  -3   27.40    4.10
   5   6  -3   29.70    4.50
   5   6  -3   20.20    4.00
   5   6  -3   27.30    4.20
  -5  -6   3   27.80    4.40
  -5  -6   3   27.70    4.00
  -5  -6   3   30.00    4.90
  -5  -6   3   30.40    5.40
  -5  -6   3   24.30    4.20
  -5  -6   3   27.90    4.40
  -5  -6   3   22.00    3.80
   4   6  -3   22.10    3.50
   4   6  -3   30.30    4.40
   4   6  -3   28.60    4.40
   4   6  -3   26.40    4.10
   4   6  -3   22.40    3.30
  -4  -6   3   23.30    3.80
  -4  -6   3   27.40    5.10
  -4  -6   3   24.10    3.70
  -4  -6   3   24.90    3.90
  -4  -6   3   23.70    3.70
  -4  -6   3   25.40    4.10
   3   6  -3   53.09    4.70
   3   6  -3   50.39    4.60
   3   6  -3   44.30    3.70
   3   6  -3   44.40    4.10
   3   6  -3   50.29    4.20
   3   6  -3   51.99    4.70
   3   6  -3   56.39    4.40
  -3  -6   3   54.89    4.30
  -3  -6   3   45.00    3.70
  -3  -6   3   48.90    4.20
  -3  -6   3   33.00    4.50
  -3  -6   3   53.29    4.50
  -3  -6   3   48.90    5.30
  -3  -6   3   52.99    4.30
   2   6  -3   73.99    5.20
   2   6  -3   68.99    5.20
   2   6  -3   63.59    4.60
   2   6  -3   67.29    4.50
   2   6  -3   68.69    4.40
  -2  -6   3   65.79    5.20
  -2  -6   3   71.99    4.80
  -2  -6   3   75.69    4.30
  -2  -6   3   65.89    4.60
  -2  -6   3   68.49    6.00
  -2  -6   3   80.39    4.90
  -2  -6   3   76.39    4.70
   1   6  -3  139.69    7.20
   1   6  -3  147.79    6.10
   1   6  -3  127.59    6.80
   1   6  -3  145.59    6.00
   1   6  -3  144.69    6.20
  -1  -6   3  148.19    6.10
  -1  -6   3  134.09    7.40
  -1  -6   3  135.29    8.00
  -1  -6   3  141.29    6.20
  -1  -6   3  143.99    6.40
  -1  -6   3  136.09    6.10
   0   6  -3   40.90    3.90
   0   6  -3   31.40    2.70
   0   6  -3   40.40    3.40
   0   6  -3   33.80    2.80
   0   6  -3   38.40    3.00
   0   6  -3   33.90    2.70
   0   6  -3   36.00    2.70
   0  -6   3   42.40    4.30
   0  -6   3   35.90    2.80
   0  -6   3   35.20    2.60
   0  -6   3   37.60    2.90
   0  -6   3   32.40    2.60
   0  -6   3   33.50    3.50
  -1   6  -3   22.20    2.20
  -1   6  -3   19.00    2.60
  -1   6  -3   21.90    3.20
  -1   6  -3   19.60    2.00
  -1   6  -3   22.90    2.10
  -1   6  -3   22.90    2.00
   1  -6   3   23.20    2.00
   1  -6   3   28.30    2.70
   1  -6   3   19.70    1.80
   1  -6   3   23.10    1.80
   1  -6   3   30.50    4.30
  -2   6  -3   25.90    2.00
  -2   6  -3   26.80    3.30
  -2   6  -3   19.50    3.30
  -2   6  -3   24.00    2.00
  -2   6  -3   23.80    2.00
  -2   6  -3   24.20    1.80
   2  -6   3   25.40    1.60
   2  -6   3   24.10    1.50
   2  -6   3   25.70    3.80
   2  -6   3   27.40    1.60
   2  -6   3   29.10    2.90
  -3   6  -3  158.08    7.50
  -3   6  -3  148.99    4.80
  -3   6  -3  140.09    5.00
  -3   6  -3  132.49    7.40
  -3   6  -3  149.19    5.00
   3  -6   3  134.19    7.20
  -4   6  -3   21.90    1.90
  -4   6  -3   23.20    3.70
  -4   6  -3   25.60    1.90
  -4   6  -3   20.00    1.80
  -4   6  -3   22.60    1.70
  -4   6  -3   23.90    1.80
   4  -6   3   20.20    3.70
   4  -6   3   22.10    3.30
  -5   6  -3   45.70    2.70
  -5   6  -3   44.40    3.20
  -5   6  -3   52.19    2.50
  -5   6  -3   47.40    3.00
  -5   6  -3   51.79    2.70
   5  -6   3   48.00    6.20
   5  -6   3   47.80    4.00
  -6   6  -3   10.50    1.70
  -6   6  -3   10.70    2.00
  -6   6  -3   12.70    1.90
  -6   6  -3   12.70    1.20
  -6   6  -3    7.90    1.40
  -6   6  -3    9.20    2.80
   6  -6   3    8.10    3.40
  -7   6  -3   -0.60    1.70
  -7   6  -3   -0.60    1.10
  -7   6  -3    2.10    1.10
  -7   6  -3   -0.40    1.80
  -7   6  -3   -0.50    1.10
   7  -6   3    1.60    2.90
  -8   6  -3    5.90    2.30
  -8   6  -3   -0.80    2.40
  -8   6  -3    4.30    1.60
  -8   6  -3    4.90    1.90
   8  -6   3    8.10    3.80
   7   5  -3    1.00    1.90
   7   5  -3    3.50    2.40
   7   5  -3    3.20    2.40
   7   5  -3    2.70    2.90
   7   5  -3    4.80    2.20
   7   5  -3    4.20    2.80
  -7  -5   3   -2.10    2.40
  -7  -5   3    1.70    2.60
  -7  -5   3    3.80    2.90
  -7  -5   3    3.50    2.50
  -7  -5   3    1.70    1.90
   6   5  -3    1.30    1.60
   6   5  -3    2.20    2.10
   6   5  -3    2.40    2.20
   6   5  -3    0.40    1.60
   6   5  -3    0.90    2.10
   6   5  -3    1.90    2.20
   6   5  -3   -0.30    1.60
  -6  -5   3    1.20    2.10
  -6  -5   3   -0.90    1.80
  -6  -5   3    0.30    2.20
  -6  -5   3    1.40    2.20
  -6  -5   3    2.60    2.00
  -6  -5   3    3.70    2.70
  -6  -5   3    3.10    1.90
   5   5  -3   18.30    3.40
   5   5  -3   14.50    3.00
   5   5  -3   20.60    3.80
   5   5  -3   18.90    3.40
   5   5  -3   12.30    3.20
  -5  -5   3   12.50    2.60
  -5  -5   3   13.20    2.90
  -5  -5   3   16.00    3.70
  -5  -5   3   13.10    2.90
  -5  -5   3   17.40    3.60
  -5  -5   3   16.50    3.30
   4   5  -3   68.89    5.50
   4   5  -3   68.79    5.10
   4   5  -3   65.49    5.10
   4   5  -3   84.29    5.30
   4   5  -3   67.59    5.10
   4   5  -3   69.49    5.20
   4   5  -3   75.89    4.80
  -4  -5   3   62.09    4.30
  -4  -5   3   78.89    5.20
  -4  -5   3   79.89    5.50
  -4  -5   3   84.29    5.60
  -4  -5   3   81.19    6.30
  -4  -5   3   70.29    5.50
  -4  -5   3   73.09    5.30
   3   5  -3   46.60    4.00
   3   5  -3   46.40    3.80
   3   5  -3   47.10    4.10
   3   5  -3   42.10    3.20
   3   5  -3   44.40    3.70
   3   5  -3   44.10    3.50
   3   5  -3   47.40    3.90
  -3  -5   3   38.40    4.90
  -3  -5   3   51.19    3.90
  -3  -5   3   42.10    4.40
  -3  -5   3   48.10    3.40
  -3  -5   3   44.50    3.60
  -3  -5   3   43.30    3.60
  -3  -5   3   48.30    4.20
   2   5  -3    2.70    1.10
   2   5  -3    3.20    1.30
   2   5  -3    2.90    1.40
   2   5  -3    5.90    1.70
   2   5  -3    3.40    1.20
  -2  -5   3    0.90    1.00
  -2  -5   3    3.00    2.00
  -2  -5   3    3.20    1.40
  -2  -5   3    2.40    1.10
  -2  -5   3    3.50    1.10
  -2  -5   3    6.20    1.60
   1   5  -3  751.22   17.60
   1   5  -3  747.43   18.50
   1   5  -3  756.32   17.90
   1   5  -3  792.82   18.30
   1   5  -3  769.52   20.00
   1   5  -3  754.02   18.40
   1   5  -3  738.03   19.40
  -1  -5   3  742.43   20.10
  -1  -5   3  737.73   18.20
  -1  -5   3  759.92   17.60
  -1  -5   3  767.42   18.40
  -1  -5   3  763.92   21.40
  -1  -5   3  747.33   18.00
   0   5  -3   30.80    2.40
   0   5  -3   30.30    2.20
   0   5  -3   26.70    2.80
   0   5  -3   28.20    2.20
   0  -5   3   26.00    2.00
   0  -5   3   28.70    2.10
   0  -5   3   27.60    4.00
   0  -5   3   28.20    2.20
   0  -5   3   30.20    2.40
   0  -5   3   30.00    3.00
  -1   5  -3   26.80    2.40
  -1   5  -3   29.90    2.10
  -1   5  -3   28.30    1.80
  -1   5  -3   29.70    2.00
  -1   5  -3   32.60    3.10
  -1   5  -3   28.80    2.00
   1  -5   3   28.70    1.70
   1  -5   3   25.40    2.30
   1  -5   3   26.60    1.70
   1  -5   3   29.00    3.20
   1  -5   3   30.60    1.70
   1  -5   3   31.80    1.90
  -2   5  -3  206.98    5.60
  -2   5  -3  214.18    5.80
  -2   5  -3  204.78    7.80
  -2   5  -3  226.48    8.90
  -2   5  -3  206.68    5.90
  -2   5  -3  214.78    5.80
   2  -5   3  204.08    8.70
   2  -5   3  209.68    4.60
   2  -5   3  212.08    4.50
  -3   5  -3    0.40    0.80
  -3   5  -3   -0.20    0.40
  -3   5  -3    0.10    0.60
  -3   5  -3   -0.10    0.40
  -3   5  -3    0.50    0.50
   3  -5   3    0.00    1.00
   3  -5   3   -1.10    0.80
  -4   5  -3   14.70    1.30
  -4   5  -3   12.30    1.50
  -4   5  -3   14.10    1.40
  -4   5  -3   12.60    2.70
  -4   5  -3   10.20    1.30
  -4   5  -3   10.20    1.50
   4  -5   3   13.00    2.40
   4  -5   3   12.70    3.00
  -5   5  -3  102.99    6.80
  -5   5  -3  107.99    4.50
  -5   5  -3  105.09    4.30
  -5   5  -3  101.79    4.10
  -5   5  -3  105.79    4.10
  -5   5  -3  101.99    4.00
   5  -5   3  107.69    7.40
   5  -5   3   99.49    5.30
  -6   5  -3   99.49    4.50
  -6   5  -3  100.89    7.10
  -6   5  -3  104.29    5.10
  -6   5  -3  103.09    4.40
  -6   5  -3   95.69    4.70
  -6   5  -3  104.59    4.20
   6  -5   3   99.59    7.90
   6  -5   3   96.19    2.60
  -7   5  -3   11.40    2.10
  -7   5  -3    8.40    1.70
  -7   5  -3    6.90    1.70
  -7   5  -3   10.90    3.20
  -7   5  -3    9.80    2.20
   7  -5   3    8.10    3.60
   7  -5   3    5.80    1.30
   7  -5   3    7.60    1.10
  -8   5  -3   44.50    3.60
  -8   5  -3   32.00    4.00
  -8   5  -3   37.70    3.70
  -8   5  -3   38.40    7.10
   8  -5   3   27.80    6.30
   8  -5   3   33.70    2.40
   8  -5   3   28.50    2.90
   8   4  -3  119.09    8.60
   8   4  -3  112.29    8.40
   8   4  -3  114.69    8.50
   8   4  -3  112.29    8.30
  -8  -4   3  108.89    8.30
  -8  -4   3  112.09    8.80
  -8  -4   3  125.69    9.10
  -8  -4   3  108.89    8.30
  -8  -4   3  137.19    9.00
   7   4  -3    5.50    2.50
   7   4  -3    0.90    2.00
   7   4  -3    1.20    1.70
   7   4  -3    1.10    2.00
   7   4  -3    3.70    2.20
  -7  -4   3    2.80    1.90
  -7  -4   3    5.70    2.20
  -7  -4   3    0.60    2.30
  -7  -4   3    0.90    2.10
  -7  -4   3    0.60    2.30
  -7  -4   3    5.40    2.80
   6   4  -3   98.89    6.50
   6   4  -3   86.29    6.30
   6   4  -3   93.29    6.50
   6   4  -3  101.69    6.80
   6   4  -3   99.89    7.00
   6   4  -3   90.19    6.80
  -6  -4   3   94.19    6.70
  -6  -4   3   89.89    6.60
  -6  -4   3  105.79    7.30
  -6  -4   3   85.89    6.40
  -6  -4   3   99.09    7.00
  -6  -4   3  103.69    6.60
   5   4  -3   33.30    4.40
   5   4  -3   35.30    4.60
   5   4  -3   33.40    3.60
   5   4  -3   29.60    4.10
   5   4  -3   33.50    4.10
   5   4  -3   31.40    3.90
   5   4  -3   29.10    4.30
  -5  -4   3   31.30    4.20
  -5  -4   3   30.00    4.30
  -5  -4   3   24.80    3.60
  -5  -4   3   29.70    4.70
  -5  -4   3   28.20    4.10
  -5  -4   3   27.30    3.90
   4   4  -3   52.09    4.30
   4   4  -3   53.79    4.40
   4   4  -3   55.89    4.20
   4   4  -3   54.59    3.70
   4   4  -3   45.90    3.80
   4   4  -3   55.09    4.10
   4   4  -3   47.50    4.20
  -4  -4   3   58.09    4.60
  -4  -4   3   53.79    4.70
  -4  -4   3   49.60    3.50
  -4  -4   3   48.80    4.10
  -4  -4   3   51.49    4.60
  -4  -4   3   48.90    3.90
  -4  -4   3   46.30    4.20
   3   4  -3   30.10    2.90
   3   4  -3   25.00    2.30
   3   4  -3   23.30    2.90
   3   4  -3   28.00    2.90
   3   4  -3   26.30    2.60
   3   4  -3   28.30    3.00
  -3  -4   3   27.20    2.80
  -3  -4   3   25.80    2.70
  -3  -4   3   27.60    4.10
  -3  -4   3   24.40    2.60
  -3  -4   3   28.50    2.40
  -3  -4   3   35.00    3.10
   2   4  -3 1178.78   25.40
   2   4  -3 1125.69   25.80
   2   4  -3 1122.39   25.50
   2   4  -3 1111.99   26.60
   2   4  -3 1125.19   25.70
   2   4  -3 1128.59   26.40
  -2  -4   3 1152.78   25.60
  -2  -4   3 1142.59   28.10
  -2  -4   3 1095.29   25.20
  -2  -4   3 1108.59   25.20
  -2  -4   3 1147.19   24.10
  -2  -4   3 1136.09   25.70
  -2  -4   3 1141.29   26.90
   1   4  -3 2393.36  100.99
  -1  -4   3 2532.55  105.39
   0   4  -3 1073.39   22.50
   0   4  -3 1073.39   22.30
   0   4  -3 1069.79   22.50
   0   4  -3 1069.49   22.40
   0   4  -3 1106.79   22.20
   0   4  -3 1047.10   24.60
   0  -4   3 1073.89   22.30
   0  -4   3 1058.89   24.70
   0  -4   3 1076.89   25.90
   0  -4   3 1055.19   22.50
   0  -4   3 1063.39   22.00
   0  -4   3 1046.70   22.10
   0  -4   3 1038.60   22.00
  -1   4  -3  187.18    4.90
  -1   4  -3  198.78    5.20
  -1   4  -3  190.98    5.10
  -1   4  -3  192.78    7.30
  -1   4  -3  187.58    6.40
  -1   4  -3  183.68    5.10
   1  -4   3  195.48    4.50
   1  -4   3  191.58    7.80
   1  -4   3  192.18    4.60
   1  -4   3  189.88    4.60
   1  -4   3  192.88    4.50
  -2   4  -3   45.30    3.40
  -2   4  -3   40.70    1.60
  -2   4  -3   41.20    1.60
  -2   4  -3   39.90    3.00
  -2   4  -3   42.30    1.60
  -2   4  -3   40.50    1.70
   2  -4   3   42.40    3.40
   2  -4   3   39.10    3.10
  -3   4  -3  459.25    9.80
  -3   4  -3  454.25    9.80
  -3   4  -3  459.85    9.70
  -3   4  -3  452.75   13.40
  -3   4  -3  439.66   11.30
  -3   4  -3  454.75   10.00
   3  -4   3  436.86   13.80
   3  -4   3  454.75   13.30
  -4   4  -3  337.17    8.70
  -4   4  -3  342.27    9.30
  -4   4  -3  347.57    8.90
  -4   4  -3  341.07    8.50
  -4   4  -3  346.67    8.30
  -4   4  -3  339.87   11.90
   4  -4   3  339.37   10.80
   4  -4   3  355.46   12.80
  -5   4  -3  718.63   20.90
  -5   4  -3  733.33   16.90
  -5   4  -3  715.43   16.50
  -5   4  -3  733.23   17.20
  -5   4  -3  723.03   16.40
   5  -4   3  729.83   15.20
   5  -4   3  706.33   21.80
  -6   4  -3   10.50    2.00
  -6   4  -3    8.90    2.70
  -6   4  -3    9.40    1.70
  -6   4  -3    9.10    1.70
  -6   4  -3    9.50    1.90
  -6   4  -3    9.00    1.70
   6  -4   3    8.50    1.50
   6  -4   3   12.00    3.50
   6  -4   3    8.00    1.40
  -7   4  -3  242.68    9.40
  -7   4  -3  253.17   12.20
  -7   4  -3  241.38    9.00
  -7   4  -3  228.48    8.60
  -7   4  -3  233.98    8.60
  -7   4  -3  229.98    8.20
   7  -4   3  241.88    7.80
   7  -4   3  221.78   12.60
   7  -4   3  233.48    7.80
  -8   4  -3    1.50    1.70
  -8   4  -3    4.30    1.80
  -8   4  -3    9.10    3.80
  -8   4  -3    3.90    1.90
  -8   4  -3    3.70    1.60
  -8   4  -3    4.80    2.90
   8  -4   3    1.10    1.60
   8  -4   3   10.80    3.90
   8   3  -3  354.76   15.60
   8   3  -3  321.07   14.30
   8   3  -3  340.17   14.20
   8   3  -3  358.36   15.30
   8   3  -3  371.86   15.20
  -8  -3   3  348.47   15.00
  -8  -3   3  372.46   16.00
  -8  -3   3  351.16   15.00
  -8  -3   3  353.96   14.40
  -8  -3   3  367.76   14.30
   7   3  -3   29.50    4.40
   7   3  -3   37.80    5.10
   7   3  -3   25.40    4.50
   7   3  -3   23.50    4.20
   7   3  -3   31.50    4.70
  -7  -3   3   26.90    4.30
  -7  -3   3   31.30    4.80
  -7  -3   3   28.90    4.80
  -7  -3   3   20.00    3.70
  -7  -3   3   28.20    4.30
  -7  -3   3   29.00    5.00
   6   3  -3   13.00    3.00
   6   3  -3   16.10    3.40
   6   3  -3   20.70    3.40
   6   3  -3   11.20    3.30
   6   3  -3   15.20    3.00
   6   3  -3   14.80    3.00
   6   3  -3   10.00    2.50
  -6  -3   3   15.70    3.50
  -6  -3   3   13.60    2.90
  -6  -3   3   10.00    2.70
  -6  -3   3   12.30    3.30
  -6  -3   3   15.40    2.80
  -6  -3   3   15.30    3.20
   5   3  -3    2.30    1.50
   5   3  -3    1.60    1.50
   5   3  -3    1.90    1.40
   5   3  -3    1.90    1.30
   5   3  -3    2.10    1.20
   5   3  -3    1.80    1.30
  -5  -3   3    0.70    1.00
  -5  -3   3    0.60    1.10
  -5  -3   3    1.60    1.50
  -5  -3   3    4.90    1.70
  -5  -3   3    1.10    1.40
  -5  -3   3    3.20    1.50
   4   3  -3    2.00    1.00
   4   3  -3    5.30    1.50
   4   3  -3    5.00    1.50
   4   3  -3    3.10    1.30
   4   3  -3    2.30    1.10
   4   3  -3    2.70    1.20
  -4  -3   3    4.80    1.40
  -4  -3   3    9.40    1.90
  -4  -3   3    2.30    1.10
  -4  -3   3    2.90    1.40
  -4  -3   3    2.90    1.20
  -4  -3   3    4.40    1.80
   3   3  -3   13.50    2.10
   3   3  -3   12.70    1.80
   3   3  -3   13.20    2.10
   3   3  -3   12.60    2.10
   3   3  -3   17.60    2.50
   3   3  -3   14.50    2.10
   3   3  -3   11.70    2.20
  -3  -3   3   13.40    2.00
  -3  -3   3   11.40    2.10
  -3  -3   3   13.00    2.50
  -3  -3   3   12.30    2.00
  -3  -3   3   12.40    2.00
  -3  -3   3   11.30    2.10
   2   3  -3    7.60    1.40
   2   3  -3    8.30    1.60
   2   3  -3    8.10    1.30
   2   3  -3    8.30    1.50
   2   3  -3    9.50    1.80
   2   3  -3    9.40    1.60
  -2  -3   3    8.70    1.20
  -2  -3   3    7.30    1.50
  -2  -3   3    5.90    1.30
  -2  -3   3    7.30    1.60
  -2  -3   3    9.40    1.50
  -2  -3   3   10.20    2.20
  -2  -3   3   11.30    1.70
   1   3  -3 1016.50   21.30
   1   3  -3  977.70   21.40
   1   3  -3 1017.90   20.00
   1   3  -3  979.70   21.10
   1   3  -3 1030.50   21.10
  -1  -3   3  984.30   22.60
  -1  -3   3  970.30   20.90
  -1  -3   3  990.40   21.10
  -1  -3   3  964.80   21.20
  -1  -3   3  997.80   20.00
  -1  -3   3 1016.30   23.80
   0   3  -3   75.69    2.90
   0   3  -3   83.89    4.00
   0   3  -3   85.39    2.90
   0   3  -3   83.99    3.00
   0   3  -3   84.49    2.90
   0  -3   3   79.59    2.70
   0  -3   3   81.29    2.80
   0  -3   3   82.99    2.80
   0  -3   3   82.89    4.60
   0  -3   3   72.99    3.80
   0  -3   3   80.79    2.70
   0  -3   3   82.39    2.90
  -1   3  -3  100.49    2.60
  -1   3  -3  104.49    2.50
  -1   3  -3   98.89    2.50
  -1   3  -3  100.79    4.50
  -1   3  -3  102.49    4.00
   1  -3   3   99.29    4.10
   1  -3   3   94.69    4.90
  -2   3  -3    6.90    0.40
  -2   3  -3    6.80    1.30
  -2   3  -3    7.60    0.40
  -2   3  -3    7.00    1.40
  -2   3  -3    7.70    0.50
   2  -3   3    8.40    1.80
   2  -3   3    7.30    1.70
  -3   3  -3   98.49    3.10
  -3   3  -3   95.09    4.00
  -3   3  -3   94.49    2.90
  -3   3  -3   95.29    3.20
  -3   3  -3   94.89    3.00
   3  -3   3   93.59    5.20
   3  -3   3   94.99    4.80
  -4   3  -3  250.37    6.90
  -4   3  -3  250.17    6.70
  -4   3  -3  241.38    7.10
  -4   3  -3  237.28    6.90
   4  -3   3  250.27    6.30
   4  -3   3  245.98    6.20
   4  -3   3  242.28    6.30
   4  -3   3  244.98   10.00
  -5   3  -3  581.84   14.80
  -5   3  -3  572.34   14.00
  -5   3  -3  577.54   14.80
  -5   3  -3  576.54   14.30
  -5   3  -3  575.64   14.50
   5  -3   3  578.44   13.80
   5  -3   3  587.14   18.70
   5  -3   3  576.64   14.90
   5  -3   3  591.74   13.90
  -6   3  -3    4.60    1.40
  -6   3  -3    5.40    1.40
  -6   3  -3    4.60    1.60
  -6   3  -3    5.00    1.70
  -6   3  -3    4.60    1.40
   6  -3   3    5.10    1.50
   6  -3   3    1.60    1.90
   6  -3   3    4.50    1.50
   6  -3   3    3.90    1.40
  -7   3  -3  430.66   13.00
  -7   3  -3  414.36   15.00
  -7   3  -3  441.26   13.30
  -7   3  -3  419.86   13.20
  -7   3  -3  443.26   13.60
  -7   3  -3  428.66   13.90
   7  -3   3  445.06   18.10
   7  -3   3  424.96   12.60
   7  -3   3  424.66   13.10
  -8   3  -3   64.99    5.20
  -8   3  -3   70.19    4.90
  -8   3  -3   69.99    4.90
  -8   3  -3   57.69    4.80
  -8   3  -3   55.39    5.70
  -8   3  -3   48.40    6.60
  -8   3  -3   73.99    5.50
   8  -3   3   59.99    4.90
   8  -3   3   57.29    8.00
   8  -3   3   62.19    4.80
   8  -3   3   64.19    4.90
   9   2  -3    3.30    2.90
   9   2  -3    1.50    2.20
   9   2  -3    8.40    3.20
   9   2  -3    2.80    3.20
  -9  -2   3    5.40    3.10
  -9  -2   3    7.30    2.50
  -9  -2   3    1.40    2.80
  -9  -2   3   -1.00    1.80
  -9  -2   3    5.50    2.70
   8   2  -3   12.70    3.60
   8   2  -3    7.30    3.10
   8   2  -3    7.40    3.10
   8   2  -3   20.30    4.20
   8   2  -3    8.20    3.00
  -8  -2   3    8.40    3.10
  -8  -2   3    8.80    2.90
  -8  -2   3    8.10    2.70
  -8  -2   3   11.90    3.30
  -8  -2   3   12.00    2.80
   7   2  -3   43.80    5.20
   7   2  -3   42.30    5.30
   7   2  -3   45.60    4.60
   7   2  -3   42.30    4.40
   7   2  -3   47.10    4.90
   7   2  -3   48.30    4.80
  -7  -2   3   53.39    4.80
  -7  -2   3   54.09    7.40
  -7  -2   3   49.80    4.40
  -7  -2   3   50.99    4.90
  -7  -2   3   49.40    4.80
  -7  -2   3   46.90    4.60
   6   2  -3   -0.50    1.30
   6   2  -3   -2.30    0.70
   6   2  -3   -1.00    1.10
   6   2  -3   -0.50    0.90
   6   2  -3    0.10    1.00
   6   2  -3    1.60    1.50
   6   2  -3    1.10    1.10
  -6  -2   3   -0.50    1.40
  -6  -2   3    1.80    1.40
  -6  -2   3   -0.20    0.90
  -6  -2   3    0.30    1.20
  -6  -2   3    1.00    0.90
  -6  -2   3   -1.10    1.10
   5   2  -3  103.59    6.10
   5   2  -3   94.29    5.70
   5   2  -3  100.19    5.60
   5   2  -3   97.49    5.60
   5   2  -3   99.69    5.90
   5   2  -3  110.19    5.70
  -5  -2   3   98.59    5.50
  -5  -2   3  106.09    5.80
  -5  -2   3  100.99    6.10
  -5  -2   3   98.89    5.80
  -5  -2   3  109.39    5.80
  -5  -2   3  109.99    6.10
   4   2  -3   26.50    2.60
   4   2  -3   26.40    2.70
   4   2  -3   23.70    2.90
   4   2  -3   24.40    3.10
   4   2  -3   28.40    2.50
   4   2  -3   30.50    2.80
   4   2  -3   26.40    2.60
  -4  -2   3   25.60    3.40
  -4  -2   3   27.80    2.80
  -4  -2   3   25.80    2.50
  -4  -2   3   23.30    2.40
  -4  -2   3   25.40    2.80
   3   2  -3   44.50    3.00
   3   2  -3   40.80    3.00
   3   2  -3   44.80    2.60
   3   2  -3   46.50    3.20
   3   2  -3   48.30    3.10
   3   2  -3   48.60    3.20
  -3  -2   3   47.00    3.30
  -3  -2   3   41.80    3.10
  -3  -2   3   60.29    3.40
  -3  -2   3   47.00    3.40
  -3  -2   3   45.80    3.00
  -3  -2   3   43.30    3.00
   2   2  -3  892.01   19.50
   2   2  -3  882.81   19.40
   2   2  -3  865.31   19.60
   2   2  -3  878.21   19.80
   2   2  -3  849.02   17.80
  -2  -2   3  848.62   19.30
  -2  -2   3  902.41   19.60
  -2  -2   3  896.41   20.90
  -2  -2   3  870.61   19.80
  -2  -2   3  872.91   19.90
  -2  -2   3  881.41   19.20
  -1  -2   3    0.00    0.10
   0   2  -3  298.77    7.10
   0   2  -3  327.17    8.30
   0   2  -3  320.07    7.00
   0   2  -3  315.17    7.10
   0   2  -3  330.27    7.10
   0   2  -3  320.47    7.10
   0   2  -3  326.17    7.20
   0  -2   3  316.97    6.80
   0  -2   3  318.77    6.80
   0  -2   3  313.07    7.00
   0  -2   3  311.07    8.20
   0  -2   3  314.47    9.60
   0  -2   3  319.87    7.30
   0  -2   3  307.07    7.00
  -1   2  -3  333.47    8.90
  -1   2  -3  345.67    6.70
  -1   2  -3  328.87    6.60
  -1   2  -3  341.67    6.70
  -1   2  -3  341.27    6.60
  -1   2  -3  347.67    8.80
   1  -2   3  336.57    8.80
   1  -2   3  321.37    9.80
  -2   2  -3  179.08    4.70
  -2   2  -3  183.98    4.30
  -2   2  -3  179.38    4.40
  -2   2  -3  181.88    5.90
  -2   2  -3  179.88    4.40
   2  -2   3  174.18    6.60
   2  -2   3  177.08    6.50
  -3   2  -3   56.29    3.10
  -3   2  -3   55.29    2.50
  -3   2  -3   56.79    2.40
  -3   2  -3   53.49    2.40
  -3   2  -3   54.39    2.50
   3  -2   3   51.39    2.20
   3  -2   3   56.49    2.30
   3  -2   3   55.09    2.30
   3  -2   3   51.99    2.20
   3  -2   3   50.69    3.80
   3  -2   3   56.79    3.30
  -4   2  -3   23.60    2.00
  -4   2  -3   28.70    2.00
  -4   2  -3   32.20    2.50
  -4   2  -3   28.50    2.10
  -4   2  -3   22.70    2.10
   4  -2   3   27.10    1.90
   4  -2   3   30.50    2.00
   4  -2   3   27.10    2.40
   4  -2   3   30.90    4.00
  -5   2  -3  304.87    9.80
  -5   2  -3  303.77   10.80
  -5   2  -3  306.57    9.20
  -5   2  -3  302.87    9.50
  -5   2  -3  307.27    9.50
  -5   2  -3  335.57   10.20
   5  -2   3  299.57    9.00
   5  -2   3  302.47   12.30
   5  -2   3  310.77    9.40
   5  -2   3  318.17   10.10
  -6   2  -3  656.23   17.20
  -6   2  -3  651.83   17.60
  -6   2  -3  621.04   17.20
  -6   2  -3  608.14   18.10
  -6   2  -3  628.84   17.00
  -6   2  -3  643.14   16.70
   6  -2   3  630.54   16.60
   6  -2   3  631.64   16.40
   6  -2   3  636.84   17.30
   6  -2   3  643.44   21.10
  -7   2  -3    1.60    1.40
  -7   2  -3    0.00    1.40
  -7   2  -3    0.60    1.50
  -7   2  -3    1.30    1.70
  -7   2  -3    1.20    1.30
  -7   2  -3    2.20    1.50
   7  -2   3   -0.50    1.90
   7  -2   3   -2.00    1.40
   7  -2   3    0.10    1.30
   7  -2   3    3.30    1.50
   7  -2   3    1.70    1.40
  -8   2  -3   29.50    4.40
  -8   2  -3   31.70    4.60
  -8   2  -3   24.60    3.90
  -8   2  -3   27.20    3.90
  -8   2  -3   30.00    4.40
  -8   2  -3   42.40    4.30
   8  -2   3   31.90    4.20
   8  -2   3   32.70    4.10
   8  -2   3   28.20    5.50
   9   1  -3    2.70    2.40
   9   1  -3   -0.90    1.80
   9   1  -3    1.80    3.00
  -9  -1   3    1.30    2.50
  -9  -1   3    4.30    3.00
  -9  -1   3   -0.20    2.50
  -9  -1   3   -2.80    1.60
  -9  -1   3    0.90    1.60
   8   1  -3  170.58    8.40
   8   1  -3  159.38    9.40
   8   1  -3  165.08    9.70
   8   1  -3  151.98    8.90
   8   1  -3  170.48    9.20
   8   1  -3  166.08    9.30
  -8  -1   3  153.38    9.40
  -8  -1   3  162.68    9.30
  -8  -1   3  168.18    7.40
  -8  -1   3  160.98    9.30
  -8  -1   3  156.18    8.60
  -8  -1   3  151.68    8.70
   7   1  -3    3.30    2.00
   7   1  -3    3.00    1.60
   7   1  -3    4.50    1.90
   7   1  -3    9.10    2.40
   7   1  -3    7.70    2.50
   7   1  -3    3.90    1.80
  -7  -1   3    6.70    1.90
  -7  -1   3    8.50    2.90
  -7  -1   3    7.60    2.30
  -7  -1   3    8.10    2.30
  -7  -1   3    5.60    2.70
  -7  -1   3    5.00    2.40
   6   1  -3  151.28    7.70
   6   1  -3  155.18    7.80
   6   1  -3  149.49    7.70
   6   1  -3  162.58    7.90
   6   1  -3  158.88    7.60
  -6  -1   3  147.69    7.30
  -6  -1   3  162.88    8.30
  -6  -1   3  146.09    7.70
  -6  -1   3  149.99    6.60
  -6  -1   3  168.58    7.70
  -6  -1   3  140.49    7.50
   5   1  -3    0.40    0.90
   5   1  -3    0.70    0.90
   5   1  -3    0.10    0.70
   5   1  -3    1.60    1.00
   5   1  -3    2.10    1.20
   5   1  -3    0.00    0.90
  -5  -1   3    0.30    0.90
  -5  -1   3   -0.10    0.80
  -5  -1   3    0.00    0.60
  -5  -1   3    1.00    1.10
  -5  -1   3   -0.60    0.70
  -5  -1   3   -0.40    0.80
   4   1  -3 1018.60   24.30
   4   1  -3 1059.69   23.80
   4   1  -3 1013.50   24.10
   4   1  -3 1012.50   24.10
   4   1  -3 1105.09   24.90
   4   1  -3 1050.79   24.70
   4   1  -3 1038.30   24.70
  -4  -1   3 1105.49   24.60
  -4  -1   3 1021.00   23.80
  -4  -1   3 1116.59   24.90
  -4  -1   3 1026.10   24.00
  -4  -1   3 1049.30   25.00
   3   1  -3  246.48    8.10
   3   1  -3  268.27    7.50
   3   1  -3  272.27    8.40
   3   1  -3  240.38    7.80
   3   1  -3  256.97    8.20
   3   1  -3  257.67    8.10
  -3  -1   3  258.47    8.40
  -3  -1   3  264.67    8.20
  -3  -1   3  247.68    8.10
  -3  -1   3  247.38    8.00
  -3  -1   3  276.57    8.10
  -3  -1   3  254.77    8.00
   2   1  -3    8.80    1.40
   2   1  -3    8.30    1.30
   2   1  -3   10.40    1.50
   2   1  -3    8.50    1.30
   2   1  -3    9.50    0.90
   2   1  -3    9.50    1.40
  -2  -1   3    8.70    1.40
  -2  -1   3    8.40    0.80
  -2  -1   3    9.30    1.40
  -2  -1   3    9.10    1.40
  -2  -1   3    8.90    1.70
  -2  -1   3    9.10    1.30
  -2  -1   3    8.80    0.80
  -2  -1   3   11.10    1.50
   1   1  -3  377.26    9.20
   1   1  -3  403.16    9.40
   1   1  -3  395.66    9.00
   1   1  -3  398.36    9.20
   1   1  -3  379.06    9.10
   1   1  -3  384.26    7.50
  -1  -1   3  397.76    9.00
  -1  -1   3  376.46   10.40
  -1  -1   3  385.96    9.10
  -1  -1   3  372.16    9.30
  -1  -1   3  387.26    9.10
   0   1  -3   90.99    2.80
   0   1  -3   83.79    2.50
   0   1  -3   86.09    2.70
   0   1  -3   87.09    2.80
   0   1  -3   85.29    2.80
   0   1  -3   86.89    2.70
   0  -1   3   87.99    2.60
   0  -1   3   90.99    4.20
   0  -1   3   86.89    2.70
   0  -1   3   86.39    2.60
   0  -1   3   87.29    2.80
   0  -1   3   85.89    2.70
  -1   1  -3  996.70   19.60
  -1   1  -3  955.80   21.20
   1  -1   3  984.60   19.40
   1  -1   3 1016.10   22.50
   1  -1   3  995.90   21.70
   1  -1   3  982.00   21.30
  -2   1  -3  968.10   20.00
  -2   1  -3  975.20   19.90
  -2   1  -3  963.30   20.90
  -2   1  -3  976.60   21.30
  -2   1  -3  975.40   19.90
   2  -1   3  976.60   19.80
   2  -1   3  983.00   21.40
   2  -1   3  952.50   19.50
   2  -1   3  945.51   21.80
   2  -1   3  964.80   19.80
  -3   1  -3   94.79    3.80
  -3   1  -3   94.89    3.90
  -3   1  -3   94.69    3.80
  -3   1  -3   95.39    4.40
  -3   1  -3   90.49    3.80
   3  -1   3   92.29    3.60
   3  -1   3   93.09    3.60
   3  -1   3   91.49    5.00
   3  -1   3   94.79    3.70
   3  -1   3   94.19    4.40
   3  -1   3   88.39    3.70
  -4   1  -3   13.80    1.90
  -4   1  -3   16.10    2.10
  -4   1  -3   12.20    1.90
  -4   1  -3   16.10    2.30
  -4   1  -3   12.90    2.10
  -4   1  -3   11.30    1.80
   4  -1   3   12.00    2.60
   4  -1   3   13.70    2.20
   4  -1   3    9.20    1.60
   4  -1   3   12.10    2.00
  -5   1  -3   45.00    3.70
  -5   1  -3   41.60    3.30
  -5   1  -3   46.60    3.50
  -5   1  -3   42.90    3.30
  -5   1  -3   47.70    3.60
  -5   1  -3   44.00    3.60
   5  -1   3   41.70    3.10
   5  -1   3   52.49    4.90
   5  -1   3   46.40    3.60
   5  -1   3   50.49    3.20
  -6   1  -3   44.10    4.00
  -6   1  -3   40.70    3.40
  -6   1  -3   36.80    3.70
  -6   1  -3   46.10    3.70
  -6   1  -3   43.80    3.80
  -6   1  -3   43.40    3.90
   6  -1   3   32.70    3.30
   6  -1   3   49.70    5.00
   6  -1   3   42.10    3.90
   6  -1   3   38.80    3.90
  -7   1  -3   75.29    5.60
  -7   1  -3   65.99    5.10
  -7   1  -3   63.59    4.70
  -7   1  -3   76.79    5.50
  -7   1  -3   65.69    5.30
  -7   1  -3   57.69    4.90
   7  -1   3   69.29    5.30
   7  -1   3   89.49    6.60
   7  -1   3   74.89    7.10
   7  -1   3   71.39    5.00
  -8   1  -3  157.38    8.60
  -8   1  -3  151.98    8.20
  -8   1  -3  149.99    8.40
  -8   1  -3  153.28    8.90
   8  -1   3  153.88   10.80
   8  -1   3  152.88    8.00
   9   0  -3   -0.70    2.00
   9   0  -3    4.60    2.80
   9   0  -3    0.70    2.90
   9   0  -3    7.30    2.70
  -9   0   3   -1.20    1.40
  -9   0   3    5.00    2.30
  -9   0   3    3.50    2.60
  -9   0   3    2.00    2.60
  -9   0   3    3.90    0.90
  -9   0   3    3.30    2.60
   8   0  -3   14.50    3.60
   8   0  -3   25.30    4.40
   8   0  -3   18.00    3.00
   8   0  -3   14.30    3.40
   8   0  -3   13.70    3.40
  -8   0   3   24.50    3.40
  -8   0   3   17.20    3.60
  -8   0   3   23.70    3.80
  -8   0   3   19.30    3.50
  -8   0   3   17.30    3.70
  -8   0   3   12.50    3.10
  -8   0   3   13.20    3.50
   7   0  -3    3.40    2.00
   7   0  -3    1.30    1.40
   7   0  -3    0.40    1.20
   7   0  -3    1.80    1.90
   7   0  -3    2.60    1.60
   7   0  -3    1.00    1.70
  -7   0   3    0.40    1.30
  -7   0   3    2.70    1.20
  -7   0   3    2.10    1.50
  -7   0   3    1.40    1.40
  -7   0   3    4.70    2.10
  -7   0   3    1.90    1.10
  -7   0   3    3.10    1.80
   6   0  -3  258.37   10.40
   6   0  -3  249.88    8.90
   6   0  -3  243.18    9.80
   6   0  -3  240.28    9.50
   6   0  -3  249.58   10.20
   6   0  -3  256.37   10.00
  -6   0   3  244.38    7.80
  -6   0   3  258.37   10.10
  -6   0   3  245.78   10.30
  -6   0   3  246.78    9.70
  -6   0   3  243.28    9.40
  -6   0   3  240.88    9.90
   5   0  -3  654.13   17.30
   5   0  -3  662.43   17.70
   5   0  -3  634.94   17.50
   5   0  -3  634.64   17.50
   5   0  -3  636.44   17.80
   5   0  -3  633.34   16.40
  -5   0   3  640.54   15.80
  -5   0   3  639.84   17.30
  -5   0   3  666.23   18.20
  -5   0   3  665.93   17.20
  -5   0   3  668.93   17.80
  -5   0   3  653.33   19.60
   4   0  -3   64.29    3.90
   4   0  -3   57.39    3.60
   4   0  -3   51.79    3.50
   4   0  -3   56.79    3.90
   4   0  -3   56.59    3.60
  -4   0   3   60.19    3.80
  -4   0   3   61.69    3.50
  -4   0   3   51.59    3.30
  -4   0   3   59.29    3.70
  -4   0   3   65.29    3.90
  -4   0   3   51.39    3.30
  -4   0   3   64.19    4.10
   3   0  -3  137.49    5.30
   3   0  -3  141.59    5.00
   3   0  -3  138.89    5.60
   3   0  -3  132.79    5.40
   3   0  -3  141.29    5.50
  -3   0   3  131.99    4.90
  -3   0   3  138.39    4.90
  -3   0   3  140.39    5.40
  -3   0   3  141.19    5.30
  -3   0   3  138.79    5.30
  -3   0   3  134.99    5.40
  -3   0   3  136.89    5.60
   2   0  -3  517.55   12.50
   2   0  -3  493.15   13.10
   2   0  -3  527.25   11.40
   2   0  -3  499.45   11.20
   2   0  -3  509.75   12.30
   2   0  -3  517.65   12.50
  -2   0   3  525.45   12.30
  -2   0   3  493.25   12.30
  -2   0   3  482.35   11.20
  -2   0   3  504.35   12.30
  -2   0   3  504.05   12.50
  -2   0   3  510.95   11.30
  -2   0   3  506.05   12.40
  -2   0   3  529.75   12.00
   1   0  -3  338.77    7.80
   1   0  -3  350.16    8.70
   1   0  -3  338.77    8.50
   1   0  -3  339.77    8.50
   1   0  -3  333.67    8.60
  -1   0   3  341.57    7.60
  -1   0   3  348.17    8.60
  -1   0   3  334.37    7.80
  -1   0   3  361.56    9.60
  -1   0   3  354.26    8.70
  -1   0   3  331.87    8.40
  -1   0   3  335.17    8.70
   0   0  -3   16.10    1.30
   0   0  -3   15.10    1.50
   0   0  -3   17.60    1.30
   0   0  -3   18.30    1.40
   0   0  -3   16.10    1.30
   0   0  -3   15.70    1.30
   0   0   3   14.20    1.40
   0   0   3   16.60    1.30
   0   0   3   17.20    1.20
   0   0   3   16.30    1.30
   0   0   3   17.90    1.30
  -1   0  -3  703.73   15.30
  -1   0  -3  701.83   16.10
  -1   0  -3  704.03   15.20
  -1   0  -3  684.63   13.90
  -1   0  -3  697.93   15.30
  -1   0  -3  696.23   15.10
   1   0   3  697.73   15.20
   1   0   3  680.63   15.60
   1   0   3  713.63   16.20
   1   0   3  699.23   15.10
   2   0   3    0.50    0.30
  -3   0  -3   10.80    1.80
  -3   0  -3   12.80    1.80
  -3   0  -3   10.70    1.50
  -3   0  -3   12.40    1.80
  -3   0  -3   13.90    1.80
   3   0   3   17.70    1.80
   3   0   3   11.80    1.90
   3   0   3    9.60    1.40
   3   0   3    6.90    1.60
   3   0   3   12.70    1.70
  -4   0  -3  138.59    6.40
  -4   0  -3  150.58    6.10
  -4   0  -3  144.19    6.00
  -4   0  -3  140.69    5.90
  -4   0  -3  139.59    6.10
  -4   0  -3  144.59    6.20
   4   0   3  145.59    5.90
   4   0   3  146.19    7.30
   4   0   3  153.98    6.70
   4   0   3  149.79    6.20
  -5   0  -3  197.68    7.90
  -5   0  -3  209.08    8.10
  -5   0  -3  189.28    8.00
  -5   0  -3  201.08    8.30
  -5   0  -3  213.58    8.20
  -5   0  -3  207.88    8.70
   5   0   3  209.48    7.90
   5   0   3  201.98    8.50
   5   0   3  196.38    8.00
   5   0   3  216.28    9.90
  -6   0  -3    1.20    1.40
  -6   0  -3    4.60    1.90
  -6   0  -3    3.70    1.70
  -6   0  -3    2.10    1.40
  -6   0  -3    1.70    1.50
  -6   0  -3    4.90    1.80
   6   0   3   -0.60    1.00
   6   0   3    2.80    1.30
   6   0   3    0.80    1.50
   6   0   3    3.20    1.50
  -7   0  -3   12.40    2.70
  -7   0  -3   22.80    3.70
  -7   0  -3   13.40    3.20
  -7   0  -3   18.50    3.30
  -7   0  -3   14.60    3.00
  -7   0  -3   11.40    3.00
   7   0   3   10.80    3.30
   7   0   3   13.10    2.80
   7   0   3   11.40    3.10
   7   0   3   11.80    2.90
  -8   0  -3   24.10    4.20
  -8   0  -3   20.80    4.20
  -8   0  -3   24.40    4.30
  -8   0  -3   24.10    4.60
  -8   0  -3   27.30    4.60
  -8   0  -3   21.50    3.90
   8   0   3   28.10    4.30
   8   0   3   18.10    5.00
   9  -1  -3    0.80    1.60
   9  -1  -3   -2.80    2.70
   9  -1  -3    1.40    2.40
   9  -1  -3   -0.30    1.80
  -9   1   3    0.80    1.90
  -9   1   3   -1.20    1.80
  -9   1   3    2.30    1.80
  -9   1   3    2.30    2.40
  -9   1   3    0.60    1.60
   8  -1  -3   61.19    5.50
   8  -1  -3   52.79    5.40
   8  -1  -3   60.59    6.10
   8  -1  -3   65.99    5.20
  -8   1   3   58.59    5.30
  -8   1   3   48.60    4.50
  -8   1   3   53.49    5.30
  -8   1   3   47.70    4.90
  -8   1   3   59.89    5.60
  -8   1   3   56.19    5.70
   7  -1  -3    4.70    1.50
   7  -1  -3    5.80    2.10
   7  -1  -3    4.20    1.60
   7  -1  -3    4.00    1.40
   7  -1  -3    6.00    2.40
   7  -1  -3    6.00    2.40
  -7   1   3    7.40    2.30
  -7   1   3    3.70    1.70
  -7   1   3    1.40    1.90
  -7   1   3    3.30    1.50
  -7   1   3    2.90    1.50
  -7   1   3    0.30    0.90
   6  -1  -3   -0.20    0.90
   6  -1  -3   -0.80    0.60
   6  -1  -3    0.10    1.50
   6  -1  -3    3.00    1.10
   6  -1  -3    1.00    0.80
   6  -1  -3    0.80    1.20
  -6   1   3    1.60    1.10
  -6   1   3   -0.90    0.60
  -6   1   3    1.00    0.60
  -6   1   3    0.40    1.10
  -6   1   3    0.60    1.10
  -6   1   3    1.30    1.20
  -6   1   3    0.40    0.70
   5  -1  -3  194.58    8.00
   5  -1  -3  186.88    7.40
   5  -1  -3  192.18    7.70
   5  -1  -3  199.08    6.60
   5  -1  -3  197.28    8.20
   5  -1  -3  184.38    7.70
  -5   1   3  185.38    5.40
  -5   1   3  197.58    7.60
  -5   1   3  193.48    7.70
  -5   1   3  194.68    8.00
  -5   1   3  177.08    7.50
  -5   1   3  183.18    7.70
  -5   1   3  190.18    8.10
   4  -1  -3   13.00    1.20
   4  -1  -3   17.70    2.60
   4  -1  -3   18.20    2.40
   4  -1  -3   15.30    2.30
   4  -1  -3   14.60    2.20
   4  -1  -3   21.00    2.80
  -4   1   3   14.10    2.30
  -4   1   3   13.70    2.20
  -4   1   3   16.80    2.30
  -4   1   3   15.70    2.10
  -4   1   3   14.20    2.10
  -4   1   3   14.50    1.40
  -4   1   3   14.30    2.30
   3  -1  -3  225.58    7.50
   3  -1  -3  216.08    6.80
   3  -1  -3  219.38    7.30
   3  -1  -3  232.38    7.30
   3  -1  -3  226.68    7.30
   3  -1  -3  221.28    7.60
  -3   1   3  215.98    7.00
  -3   1   3  209.98    7.40
  -3   1   3  217.28    7.30
  -3   1   3  214.88    7.30
  -3   1   3  222.38    7.20
  -3   1   3  215.68    6.30
   2  -1  -3  624.74   15.20
   2  -1  -3  648.04   15.10
   2  -1  -3  663.13   15.40
   2  -1  -3  663.73   15.10
   2  -1  -3  646.34   14.60
  -2   1   3  637.84   15.30
  -2   1   3  608.44   14.90
  -2   1   3  632.44   14.50
  -2   1   3  617.14   14.90
  -2   1   3  656.43   15.30
   1  -1  -3 2001.20   89.29
  -1   1   3 2112.99   93.39
   0  -1  -3   55.89    2.80
   0  -1  -3   52.19    2.80
   0  -1  -3   46.10    2.60
   0  -1  -3   50.89    2.70
   0  -1  -3   49.99    2.60
   0  -1  -3   44.60    2.60
   0   1   3   47.50    2.60
   0   1   3   48.30    2.70
   0   1   3   53.09    2.80
   0   1   3   45.90    1.60
   0   1   3   51.69    2.80
   0   1   3   52.49    2.70
   0   1   3   50.09    2.70
  -1  -1  -3    4.40    1.20
  -1  -1  -3    4.20    1.30
  -1  -1  -3    3.90    1.00
  -1  -1  -3    4.30    1.00
  -1  -1  -3    5.20    1.10
  -1  -1  -3    6.00    0.80
   1   1   3    3.50    1.00
   1   1   3    5.20    1.20
   1   1   3    3.80    1.00
   1   1   3    5.90    0.80
   1   1   3    3.60    1.10
   1   1   3    7.10    1.30
   1   1   3    5.10    1.10
  -2  -1  -3  840.42   19.40
  -2  -1  -3  828.22   19.90
  -2  -1  -3  841.32   19.40
  -2  -1  -3  858.01   18.20
  -2  -1  -3  863.11   19.70
  -2  -1  -3  850.91   21.00
   2   1   3  804.42   18.90
   2   1   3  818.02   18.20
   2   1   3  856.41   20.10
   2   1   3  834.92   19.20
   2   1   3  872.31   20.10
   2   1   3  861.41   19.60
   2   1   3  845.32   19.40
  -3  -1  -3   59.39    3.60
  -3  -1  -3   64.79    3.40
  -3  -1  -3   64.39    3.90
  -3  -1  -3   60.09    3.80
  -3  -1  -3   57.39    3.60
  -3  -1  -3   62.09    4.00
   3   1   3   62.79    4.20
   3   1   3   60.39    3.60
   3   1   3   62.09    3.90
   3   1   3   65.99    3.90
   3   1   3   60.49    3.80
   3   1   3   60.09    3.50
  -4  -1  -3  127.29    6.40
  -4  -1  -3  120.79    6.00
  -4  -1  -3  116.29    5.80
  -4  -1  -3  122.89    5.90
  -4  -1  -3  122.19    6.10
  -4  -1  -3  122.19    5.50
   4   1   3  122.69    5.60
   4   1   3  107.39    6.40
   4   1   3  118.39    5.70
   4   1   3  114.89    5.80
   4   1   3  117.69    5.90
   4   1   3  120.79    6.30
  -5  -1  -3   99.99    5.70
  -5  -1  -3   92.39    6.30
  -5  -1  -3   94.99    5.80
  -5  -1  -3  101.49    6.00
  -5  -1  -3   97.09    6.60
  -5  -1  -3  117.79    6.50
   5   1   3  100.59    5.70
   5   1   3   94.49    5.60
   5   1   3   87.09    6.40
   5   1   3   99.49    5.40
   5   1   3   98.29    6.00
  -6  -1  -3  241.58   10.20
  -6  -1  -3  237.08   10.00
  -6  -1  -3  239.88    9.90
  -6  -1  -3  230.38   10.20
  -6  -1  -3  238.88   10.40
   6   1   3  253.37   10.60
   6   1   3  238.88    9.70
   6   1   3  231.38   11.70
   6   1   3  249.78   10.10
  -7  -1  -3   40.60    5.10
  -7  -1  -3   49.60    5.00
  -7  -1  -3   48.10    5.80
  -7  -1  -3   48.70    5.20
  -7  -1  -3   55.99    5.40
  -7  -1  -3   47.30    4.90
   7   1   3   48.80    4.60
   7   1   3   51.89    4.90
   7   1   3   45.30    6.70
  -8  -1  -3    1.00    1.80
  -8  -1  -3    5.10    2.90
  -8  -1  -3   -4.70    1.70
  -8  -1  -3    0.20    2.60
  -8  -1  -3   -0.40    2.20
  -8  -1  -3    0.60    2.20
   8   1   3   -1.90    1.50
   8   1   3    0.40    2.20
   8   1   3   -1.10    2.20
  10  -2  -3    2.00    3.00
  10  -2  -3   -2.60    2.50
  10  -2  -3    6.60    2.30
 -10   2   3    4.90    2.90
 -10   2   3    9.30    3.60
 -10   2   3    1.20    2.00
 -10   2   3    4.80    3.30
 -10   2   3   12.90    3.70
   9  -2  -3   21.90    4.60
   9  -2  -3   33.50    5.90
   9  -2  -3   25.00    3.00
   9  -2  -3   25.90    4.60
  -9   2   3   30.20    5.10
  -9   2   3   20.40    4.30
  -9   2   3   25.10    4.30
  -9   2   3   23.30    3.80
  -9   2   3   21.90    4.20
   8  -2  -3   38.30    4.80
   8  -2  -3   38.20    5.80
   8  -2  -3   41.90    4.40
   8  -2  -3   29.80    4.60
   8  -2  -3   38.10    3.10
   8  -2  -3   34.50    5.20
  -8   2   3   35.00    4.90
  -8   2   3   41.30    4.00
  -8   2   3   39.60    4.90
  -8   2   3   35.70    4.90
  -8   2   3   42.30    5.30
  -8   2   3   32.40    4.60
   7  -2  -3  157.18    7.70
   7  -2  -3  175.98    8.50
   7  -2  -3  173.18    6.20
   7  -2  -3  179.98    8.40
   7  -2  -3  161.58    9.10
  -7   2   3  181.08    9.00
  -7   2   3  156.18    8.30
  -7   2   3  175.58    8.10
  -7   2   3  157.08    7.90
   6  -2  -3   16.80    1.70
   6  -2  -3   21.40    3.10
   6  -2  -3   20.10    3.10
   6  -2  -3   29.00    4.10
   6  -2  -3   23.60    3.60
   6  -2  -3   23.50    3.30
  -6   2   3   20.30    3.20
  -6   2   3   26.10    3.40
  -6   2   3   18.20    3.10
  -6   2   3   20.10    3.30
  -6   2   3   21.60    3.10
  -6   2   3   21.60    3.50
   5  -2  -3  224.88    6.60
   5  -2  -3  230.18    8.70
   5  -2  -3  216.28    8.70
   5  -2  -3  222.58    8.30
   5  -2  -3  230.58    9.30
   5  -2  -3  240.98    8.80
  -5   2   3  242.58    8.80
  -5   2   3  223.98    8.30
  -5   2   3  216.38    8.80
  -5   2   3  220.28    8.80
  -5   2   3  210.98    8.50
   4  -2  -3   56.09    3.80
   4  -2  -3   62.89    3.80
   4  -2  -3   61.19    3.90
   4  -2  -3   69.59    4.30
   4  -2  -3   54.49    2.40
   4  -2  -3   61.79    3.90
   4  -2  -3   61.49    3.80
  -4   2   3   58.29    4.00
  -4   2   3   57.79    3.70
  -4   2   3   62.99    3.90
  -4   2   3   56.59    3.70
  -4   2   3   61.09    3.90
   3  -2  -3   70.39    2.80
   3  -2  -3   73.89    4.00
   3  -2  -3   66.99    3.80
   3  -2  -3   65.29    3.70
   3  -2  -3   61.99    3.70
   3  -2  -3   64.59    3.80
  -3   2   3   72.29    4.00
  -3   2   3   73.39    4.00
  -3   2   3   74.39    4.00
  -3   2   3   74.29    4.10
  -3   2   3   71.09    3.80
   2  -2  -3  152.78    5.90
   2  -2  -3  166.58    4.90
   2  -2  -3  162.58    5.90
   2  -2  -3  155.58    5.70
   2  -2  -3  148.49    5.70
   2  -2  -3  158.78    6.00
  -2   2   3  165.38    5.90
  -2   2   3  150.78    5.70
  -2   2   3  158.68    5.80
  -2   2   3  149.49    5.90
  -2   2   3  157.48    5.90
   1  -2  -3   43.20    2.80
   1  -2  -3   44.60    2.70
   1  -2  -3   42.20    2.70
   1  -2  -3   46.40    2.50
   1  -2  -3   47.90    2.90
   1  -2  -3   45.60    2.80
  -1   2   3   44.20    2.90
  -1   2   3   45.60    2.90
  -1   2   3   45.90    2.90
  -1   2   3   46.60    2.50
  -1   2   3   40.60    2.60
  -1   2   3   45.10    2.80
   0  -2  -3  210.48    7.10
   0  -2  -3  216.18    6.90
   0  -2  -3  221.68    7.30
   0  -2  -3  214.88    7.00
   0  -2  -3  226.08    7.10
   0  -2  -3  226.48    7.20
   0   2   3  206.18    6.90
   0   2   3  215.58    7.10
   0   2   3  213.28    5.90
   0   2   3  210.58    7.10
   0   2   3  203.18    6.80
   0   2   3  213.28    7.20
   0   2   3  226.28    7.00
  -1  -2  -3  110.69    4.90
  -1  -2  -3  102.79    4.80
  -1  -2  -3   91.59    4.70
  -1  -2  -3  100.89    4.70
  -1  -2  -3   99.39    4.60
  -1  -2  -3  101.69    4.60
  -1  -2  -3   97.09    3.80
   1   2   3   99.99    4.70
   1   2   3  105.39    4.70
   1   2   3  101.29    4.70
   1   2   3  100.89    4.50
   1   2   3   99.69    4.60
   1   2   3   95.79    3.60
  -2  -2  -3   10.50    2.10
  -2  -2  -3   14.20    2.30
  -2  -2  -3   11.70    2.10
  -2  -2  -3   15.10    2.20
  -2  -2  -3   13.80    2.20
  -2  -2  -3   12.50    2.20
  -2  -2  -3    9.50    1.50
   2   2   3   14.80    2.40
   2   2   3   11.20    1.90
   2   2   3    7.90    1.60
   2   2   3   12.90    1.60
   2   2   3    9.20    1.70
   2   2   3   15.00    2.20
   2   2   3   11.60    1.80
  -3  -2  -3  285.27    9.80
  -3  -2  -3  304.47   10.00
  -3  -2  -3  279.47   10.20
  -3  -2  -3  277.37    9.90
  -3  -2  -3  289.57   10.10
  -3  -2  -3  276.07    8.90
   3   2   3  294.87   10.50
   3   2   3  277.77    8.90
   3   2   3  278.27    9.80
   3   2   3  269.47    9.40
   3   2   3  326.67   12.10
   3   2   3  283.97    9.40
  -4  -2  -3   38.20    3.50
  -4  -2  -3   35.10    4.00
  -4  -2  -3   40.50    3.80
  -4  -2  -3   39.40    3.30
  -4  -2  -3   34.00    4.20
  -4  -2  -3   34.50    3.50
   4   2   3   34.10    3.50
   4   2   3   33.30    4.30
   4   2   3   30.60    3.10
   4   2   3   38.40    3.70
   4   2   3   35.10    3.50
   4   2   3   36.90    3.20
  -5  -2  -3  211.28    9.40
  -5  -2  -3  202.88    8.60
  -5  -2  -3  239.08   10.00
  -5  -2  -3  211.08    9.50
  -5  -2  -3  229.28   10.20
   5   2   3  198.38    8.90
   5   2   3  202.38    8.70
   5   2   3  203.18    9.40
   5   2   3  218.28    9.40
   5   2   3  220.38   10.60
  -6  -2  -3    7.70    2.40
  -6  -2  -3    2.20    2.00
  -6  -2  -3    6.40    2.40
  -6  -2  -3    6.40    2.30
  -6  -2  -3    6.50    2.10
  -6  -2  -3    5.30    2.10
   6   2   3   10.40    3.10
   6   2   3    5.70    2.30
   6   2   3    5.50    2.30
  -7  -2  -3    1.60    2.60
  -7  -2  -3    2.10    1.80
  -7  -2  -3   -1.90    1.80
  -7  -2  -3    3.30    2.30
  -7  -2  -3    1.00    1.60
   7   2   3   -2.80    1.90
   7   2   3    1.20    2.20
   7   2   3   -0.20    1.40
   7   2   3   -1.50    1.90
   9  -3  -3   16.90    2.00
   9  -3  -3   21.60    5.10
   9  -3  -3   24.80    5.10
   9  -3  -3   18.70    3.90
  -9   3   3   10.10    3.70
  -9   3   3   23.50    4.40
  -9   3   3   20.80    4.00
  -9   3   3    9.20    3.00
  -9   3   3   16.80    3.40
   8  -3  -3   85.39    6.50
   8  -3  -3   95.79    7.60
   8  -3  -3   88.79    3.80
   8  -3  -3   97.99    6.60
   8  -3  -3   95.29    6.10
  -8   3   3   92.99    6.40
  -8   3   3   97.29    6.80
  -8   3   3   84.49    5.80
  -8   3   3   89.09    9.10
  -8   3   3   88.59    7.00
  -8   3   3   96.49    7.00
   7  -3  -3    2.30    1.40
   7  -3  -3    0.90    1.50
   7  -3  -3    1.30    1.60
   7  -3  -3    1.00    0.70
   7  -3  -3   -2.50    1.30
  -7   3   3    0.70    1.50
  -7   3   3   -2.40    1.20
  -7   3   3    0.90    1.50
   6  -3  -3    3.70    1.60
   6  -3  -3    2.30    1.50
   6  -3  -3    3.50    1.40
   6  -3  -3    3.60    0.70
   6  -3  -3    2.60    1.70
  -6   3   3    5.20    1.80
  -6   3   3    4.80    1.90
  -6   3   3    0.70    1.20
  -6   3   3    3.80    1.50
  -6   3   3    3.90    1.60
   5  -3  -3   16.40    2.80
   5  -3  -3   13.50    2.90
   5  -3  -3    9.80    2.20
   5  -3  -3   13.20    2.50
  -5   3   3    9.70    2.10
  -5   3   3    8.80    2.20
  -5   3   3   17.40    2.80
  -5   3   3   12.10    2.20
  -5   3   3   11.60    2.30
   4  -3  -3  889.01   21.60
   4  -3  -3  859.61   21.60
   4  -3  -3  938.51   23.00
   4  -3  -3  885.21   18.20
   4  -3  -3  895.81   22.10
   4  -3  -3  889.61   21.90
   4  -3  -3  869.21   22.00
  -4   3   3  925.11   22.20
  -4   3   3  907.81   22.50
  -4   3   3  949.40   22.20
  -4   3   3  899.91   21.80
  -4   3   3  902.91   22.40
   3  -3  -3 1055.89   24.60
   3  -3  -3 1099.79   25.10
   3  -3  -3 1045.50   24.60
   3  -3  -3 1053.59   24.90
   3  -3  -3 1050.29   21.90
   3  -3  -3 1123.59   25.20
  -3   3   3 1068.19   25.10
  -3   3   3 1080.09   24.80
  -3   3   3 1113.79   25.30
  -3   3   3 1120.99   24.90
  -3   3   3 1086.09   25.00
   2  -3  -3   24.30    2.40
   2  -3  -3   22.30    2.20
   2  -3  -3   23.30    1.70
   2  -3  -3   21.40    2.20
   2  -3  -3   20.20    2.10
   2  -3  -3   25.50    2.30
  -2   3   3   22.00    2.30
  -2   3   3   22.60    2.30
  -2   3   3   21.10    1.70
  -2   3   3   23.50    2.80
  -2   3   3   23.90    2.40
  -2   3   3   23.90    2.20
   1  -3  -3  546.65   14.50
   1  -3  -3  537.55   14.60
   1  -3  -3  584.24   14.70
   1  -3  -3  559.94   14.70
   1  -3  -3  556.94   13.60
   1  -3  -3  562.24   14.90
  -1   3   3  596.74   14.70
  -1   3   3  555.24   14.80
  -1   3   3  578.34   14.90
  -1   3   3  577.44   13.70
  -1   3   3  546.45   13.80
  -1   3   3  579.04   14.90
  -1   3   3  590.84   14.80
   0  -3  -3  119.39    5.40
   0  -3  -3  108.89    4.90
   0  -3  -3  101.89    4.90
   0  -3  -3  109.79    4.50
   0  -3  -3  113.49    5.20
   0  -3  -3  106.19    5.20
   0   3   3  112.99    4.50
   0   3   3  108.69    5.20
   0   3   3  115.99    4.90
   0   3   3  114.19    5.10
   0   3   3  115.79    5.20
   0   3   3  103.49    5.20
   0   3   3  112.69    5.20
  -1  -3  -3   63.49    4.00
  -1  -3  -3   71.59    4.40
  -1  -3  -3   70.79    4.40
  -1  -3  -3   64.09    3.50
  -1  -3  -3   68.79    4.10
  -1  -3  -3   70.49    4.10
   1   3   3   75.09    4.20
   1   3   3   68.79    4.20
   1   3   3   71.39    4.10
   1   3   3   72.59    4.30
   1   3   3   66.59    3.40
   1   3   3   66.69    4.10
  -2  -3  -3    2.10    1.00
  -2  -3  -3    0.50    1.10
  -2  -3  -3    0.80    1.20
  -2  -3  -3    0.30    0.80
  -2  -3  -3    0.70    1.00
  -2  -3  -3    0.00    0.90
  -2  -3  -3    2.60    1.30
   2   3   3    2.70    1.30
   2   3   3   -0.40    0.70
   2   3   3    1.50    0.90
   2   3   3    1.30    1.00
   2   3   3    1.50    0.90
   2   3   3    0.30    1.10
   2   3   3    0.50    0.60
  -3  -3  -3  656.33   18.20
  -3  -3  -3  658.83   18.60
  -3  -3  -3  623.54   18.80
  -3  -3  -3  663.23   18.70
  -3  -3  -3  676.13   18.30
  -3  -3  -3  651.53   17.10
  -3  -3  -3  667.73   18.50
   3   3   3  643.74   18.60
   3   3   3  660.53   16.80
   3   3   3  579.34   19.10
   3   3   3  649.93   17.60
   3   3   3  667.43   18.60
   3   3   3  666.93   18.40
   3   3   3  657.13   18.30
  -4  -3  -3  349.37   12.00
  -4  -3  -3  302.37   12.30
  -4  -3  -3  301.57   11.50
  -4  -3  -3  294.37   11.70
  -4  -3  -3  309.67   12.30
  -4  -3  -3  299.47   12.00
  -4  -3  -3  313.77   11.90
   4   3   3  295.27   11.50
   4   3   3  298.27   11.10
   4   3   3  295.97   11.70
   4   3   3  307.07   12.30
   4   3   3  292.77   10.40
   4   3   3  296.97   11.40
   4   3   3  294.57   10.80
  -5  -3  -3    2.00    2.00
  -5  -3  -3    2.70    1.60
  -5  -3  -3    2.00    1.90
  -5  -3  -3    2.10    1.80
  -5  -3  -3    4.70    2.00
  -5  -3  -3    3.20    2.00
   5   3   3   -1.00    1.40
   5   3   3    5.90    2.30
   5   3   3    1.40    1.60
   5   3   3    4.60    2.10
   5   3   3    5.60    2.50
   5   3   3    4.30    1.90
  -6  -3  -3    4.00    2.20
  -6  -3  -3    1.60    1.60
  -6  -3  -3    1.70    1.80
  -6  -3  -3    4.00    1.80
  -6  -3  -3    0.20    1.90
  -6  -3  -3    2.40    1.90
   6   3   3    2.80    2.00
   6   3   3    0.10    1.90
   6   3   3    3.00    2.20
   6   3   3    1.20    2.30
   6   3   3    2.30    2.30
   6   3   3    2.90    1.80
  -7  -3  -3   59.49    6.20
  -7  -3  -3   45.40    5.90
  -7  -3  -3   49.20    6.70
  -7  -3  -3   51.79    6.60
  -7  -3  -3   63.19    6.00
   7   3   3   52.49    5.60
   7   3   3   48.10    7.20
   7   3   3   49.10    5.10
   9  -4  -3  147.69    9.00
   9  -4  -3  138.69   10.30
   9  -4  -3  143.39    8.60
  -9   4   3  131.99    8.20
  -9   4   3  138.69    9.40
  -9   4   3  142.99    9.20
  -9   4   3  132.89    7.80
  -9   4   3  138.99    8.60
   8  -4  -3   63.69    6.50
   8  -4  -3   52.09    4.70
   8  -4  -3   56.69    5.60
   8  -4  -3   54.39    5.10
  -8   4   3   72.79    6.00
  -8   4   3   62.39    5.50
  -8   4   3   56.89    5.10
  -8   4   3   73.59    5.40
  -8   4   3   62.09    6.10
   7  -4  -3  250.57   10.70
   7  -4  -3  257.37   10.10
   7  -4  -3  253.77   12.30
   7  -4  -3  248.38   10.40
  -7   4   3  250.07   10.70
  -7   4   3  255.67   10.50
  -7   4   3  253.47   11.10
  -7   4   3  259.37   11.70
  -7   4   3  250.07   10.20
   6  -4  -3   -0.20    1.00
   6  -4  -3    1.40    1.10
   6  -4  -3    1.10    1.30
   6  -4  -3   -0.60    1.60
   6  -4  -3    1.60    1.10
  -6   4   3    0.00    1.10
  -6   4   3    0.60    1.00
  -6   4   3   -0.20    1.00
  -6   4   3    1.40    1.30
  -6   4   3    0.60    1.00
   5  -4  -3    2.70    1.40
   5  -4  -3    2.30    0.60
   5  -4  -3    1.40    1.20
   5  -4  -3    4.30    1.50
   5  -4  -3    3.80    1.40
   5  -4  -3    3.00    1.50
   5  -4  -3    1.70    1.10
   5  -4  -3    1.90    0.80
  -5   4   3    2.60    1.10
  -5   4   3    1.60    1.20
  -5   4   3    1.90    1.50
  -5   4   3    3.50    1.40
  -5   4   3    4.20    1.60
   4  -4  -3  997.90   20.20
   4  -4  -3 1015.90   24.70
   4  -4  -3 1042.10   24.50
   4  -4  -3 1055.99   25.40
   4  -4  -3  992.70   24.40
   4  -4  -3 1015.40   24.70
  -4   4   3 1022.90   25.50
  -4   4   3  999.80   24.80
  -4   4   3 1018.10   24.50
  -4   4   3 1048.60   25.30
  -4   4   3 1028.90   24.70
   3  -4  -3  910.01   22.40
   3  -4  -3  892.41   21.90
   3  -4  -3  881.21   19.10
   3  -4  -3  911.51   22.70
   3  -4  -3  896.01   22.00
   3  -4  -3  900.21   22.20
  -3   4   3  914.51   19.30
  -3   4   3  921.01   22.40
  -3   4   3  924.21   22.60
  -3   4   3  942.61   22.20
  -3   4   3  920.11   22.20
  -3   4   3  919.41   22.80
   2  -4  -3   52.49    2.90
   2  -4  -3   59.09    3.80
   2  -4  -3   55.69    3.90
   2  -4  -3   54.29    3.80
   2  -4  -3   53.39    3.80
   2  -4  -3   47.60    3.50
  -2   4   3   62.69    4.00
  -2   4   3   56.09    3.70
  -2   4   3   55.59    3.70
  -2   4   3   53.49    3.90
  -2   4   3   55.69    2.90
  -2   4   3   57.19    4.00
   1  -4  -3   28.80    2.70
   1  -4  -3   27.90    2.80
   1  -4  -3   27.50    2.80
   1  -4  -3   31.70    2.50
   1  -4  -3   32.30    2.90
   1  -4  -3   30.00    2.80
  -1   4   3   33.40    2.90
  -1   4   3   30.10    2.80
  -1   4   3   27.20    2.30
  -1   4   3   28.60    2.70
  -1   4   3   27.90    2.60
  -1   4   3   26.40    3.20
  -1   4   3   30.40    2.90
   0  -4  -3  325.97   10.90
   0  -4  -3  325.27   10.80
   0  -4  -3  343.87   10.90
   0  -4  -3  310.67   10.60
   0  -4  -3  341.17   11.20
   0  -4  -3  319.97   10.00
   0  -4  -3  345.17   10.50
   0   4   3  325.57   11.00
   0   4   3  330.27   10.20
   0   4   3  305.57   10.30
   0   4   3  333.47   11.00
   0   4   3  326.97   10.00
   0   4   3  305.57   10.50
   0   4   3  318.67   10.70
  -1  -4  -3   16.90    2.40
  -1  -4  -3   14.30    2.60
  -1  -4  -3   14.30    2.40
  -1  -4  -3   15.60    2.70
  -1  -4  -3   18.70    2.80
   1   4   3   16.00    2.40
   1   4   3   20.60    2.20
   1   4   3   21.00    3.00
   1   4   3   18.10    2.70
   1   4   3   18.20    2.90
   1   4   3   14.10    2.50
  -2  -4  -3   36.30    3.60
  -2  -4  -3   35.20    3.60
  -2  -4  -3   38.00    3.50
  -2  -4  -3   29.40    4.00
  -2  -4  -3   31.30    3.10
  -2  -4  -3   37.70    3.60
  -2  -4  -3   33.90    3.40
   2   4   3   38.50    3.60
   2   4   3   39.60    3.10
   2   4   3   39.20    3.60
   2   4   3   38.40    3.40
   2   4   3   35.80    3.50
   2   4   3   36.70    3.40
  -3  -4  -3  276.07   11.40
  -3  -4  -3  271.77   11.10
  -3  -4  -3  275.97   11.20
  -3  -4  -3  267.47   10.00
  -3  -4  -3  266.07   10.70
  -3  -4  -3  271.27   10.90
  -3  -4  -3  269.07   10.70
   3   4   3  268.67   10.70
   3   4   3  277.47   11.20
   3   4   3  286.47   10.70
   3   4   3  270.67   10.20
   3   4   3  272.07    9.60
   3   4   3  257.37   10.60
   3   4   3  269.77   11.00
  -4  -4  -3    0.60    1.60
  -4  -4  -3   -1.10    1.20
  -4  -4  -3    1.40    1.20
  -4  -4  -3   -1.70    1.60
  -4  -4  -3    0.40    1.80
  -4  -4  -3    2.90    2.00
  -4  -4  -3   -2.30    1.60
   4   4   3   -2.70    1.30
   4   4   3   -2.20    1.40
   4   4   3    0.60    1.40
   4   4   3   -0.10    1.10
   4   4   3   -0.20    1.00
   4   4   3    0.50    1.50
   4   4   3    3.00    1.50
  -5  -4  -3   23.10    4.00
  -5  -4  -3   22.90    4.40
  -5  -4  -3   19.80    3.70
  -5  -4  -3   29.00    4.70
  -5  -4  -3   18.10    3.50
  -5  -4  -3   20.90    3.90
  -5  -4  -3   19.00    3.50
   5   4   3   26.90    3.90
   5   4   3   24.00    4.40
   5   4   3   19.60    4.00
   5   4   3   22.30    4.50
   5   4   3   25.30    4.00
   5   4   3   18.40    4.00
   5   4   3   19.70    3.60
  -6  -4  -3  113.79    8.30
  -6  -4  -3  120.19    8.20
  -6  -4  -3  108.79    8.10
  -6  -4  -3  119.59    7.90
  -6  -4  -3   90.99    7.20
  -6  -4  -3   94.09    7.80
   6   4   3  105.89    7.50
   6   4   3  113.89    8.60
   6   4   3  115.09    7.60
  -7  -4  -3    1.60    2.80
  -7  -4  -3    3.80    2.60
  -7  -4  -3    7.10    3.80
  -7  -4  -3    7.20    3.00
  -7  -4  -3    5.30    3.40
  -7  -4  -3    4.90    2.90
   7   4   3    2.00    2.10
   7   4   3   -1.60    2.40
   7   4   3    1.50    3.30
   9  -5  -3   28.60    5.30
   9  -5  -3   23.60    5.20
   9  -5  -3   27.30    4.80
  -9   5   3   26.10    5.30
  -9   5   3   19.20    3.80
  -9   5   3   30.60    5.50
  -9   5   3   20.50    3.90
  -9   5   3   14.00    3.40
   8  -5  -3    3.70    2.20
   8  -5  -3   -1.80    1.50
   8  -5  -3    1.10    1.60
   8  -5  -3    2.40    2.00
   8  -5  -3   -0.20    2.10
  -8   5   3    3.20    2.10
  -8   5   3    0.90    1.50
  -8   5   3   -1.30    1.50
  -8   5   3   -1.30    1.50
  -8   5   3   -0.20    2.00
   7  -5  -3    1.60    1.70
   7  -5  -3   -0.10    1.50
   7  -5  -3    0.30    1.50
   7  -5  -3    0.70    1.30
  -7   5   3    1.30    1.50
  -7   5   3   -0.60    1.50
  -7   5   3    0.30    1.50
  -7   5   3    2.00    1.70
  -7   5   3   -1.10    1.40
   6  -5  -3    3.20    1.60
   6  -5  -3    2.00    1.40
   6  -5  -3    0.60    1.50
  -6   5   3    2.90    1.50
  -6   5   3    3.00    1.70
  -6   5   3    2.50    1.80
  -6   5   3    1.40    1.40
  -6   5   3    2.50    1.80
   5  -5  -3   93.69    6.10
   5  -5  -3   84.19    5.30
   5  -5  -3   91.39    5.70
   5  -5  -3   92.49    5.30
   5  -5  -3   91.49    4.00
   5  -5  -3   85.59    5.30
  -5   5   3   89.49    5.70
  -5   5   3   88.59    5.70
  -5   5   3   86.09    5.20
  -5   5   3   83.79    6.00
  -5   5   3   82.49    5.40
   4  -5  -3   79.39    2.80
   4  -5  -3   80.99    5.40
   4  -5  -3   78.09    4.90
   4  -5  -3   83.59    5.10
   4  -5  -3   77.49    4.90
   4  -5  -3   75.79    4.90
  -4   5   3   80.29    5.50
  -4   5   3   82.39    5.30
  -4   5   3   80.29    5.00
  -4   5   3   82.19    5.10
  -4   5   3   85.09    5.20
   3  -5  -3   93.39    5.40
   3  -5  -3   87.39    5.60
   3  -5  -3   93.19    5.30
   3  -5  -3   94.29    5.20
   3  -5  -3   91.79    3.80
  -3   5   3  106.19    5.60
  -3   5   3   92.79    5.60
  -3   5   3   98.79    3.90
  -3   5   3  101.19    5.70
  -3   5   3   92.59    5.50
  -3   5   3  108.49    5.60
   2  -5  -3   57.89    4.30
   2  -5  -3   54.19    4.10
   2  -5  -3   68.09    4.30
   2  -5  -3   50.69    4.00
   2  -5  -3   61.99    4.20
   2  -5  -3   55.99    3.30
  -2   5   3   53.19    4.30
  -2   5   3   60.59    3.30
  -2   5   3   54.09    4.10
  -2   5   3   59.69    4.30
  -2   5   3   52.39    3.90
  -2   5   3   59.59    4.30
  -2   5   3   54.09    3.90
   1  -5  -3  512.15   15.70
   1  -5  -3  546.35   15.80
   1  -5  -3  537.25   15.50
   1  -5  -3  558.54   14.70
   1  -5  -3  561.34   16.20
   1  -5  -3  522.15   15.40
  -1   5   3  544.45   15.70
  -1   5   3  542.75   16.10
  -1   5   3  535.35   15.40
  -1   5   3  560.34   16.10
  -1   5   3  549.74   15.90
  -1   5   3  526.45   15.30
  -1   5   3  549.05   14.50
   0  -5  -3  134.39    6.70
   0  -5  -3  127.59    6.50
   0  -5  -3  130.59    6.90
   0  -5  -3  126.89    6.70
   0  -5  -3  130.79    6.30
   0  -5  -3  112.89    6.20
   0   5   3  127.79    6.60
   0   5   3  121.79    6.00
   0   5   3  127.99    6.40
   0   5   3  140.89    7.10
   0   5   3  127.39    6.70
   0   5   3  131.69    6.10
   0   5   3  124.09    6.50
  -1  -5  -3   26.00    3.70
  -1  -5  -3   22.60    3.20
  -1  -5  -3   21.90    3.20
  -1  -5  -3   27.70    3.50
  -1  -5  -3   26.40    3.90
  -1  -5  -3   26.00    3.50
   1   5   3   28.90    3.50
   1   5   3   29.10    2.90
   1   5   3   24.70    3.40
   1   5   3   25.30    3.60
   1   5   3   18.80    2.90
   1   5   3   27.80    3.80
  -2  -5  -3    0.10    1.40
  -2  -5  -3    1.00    1.30
  -2  -5  -3    5.20    1.90
  -2  -5  -3    1.30    1.60
  -2  -5  -3    3.20    1.60
  -2  -5  -3    2.50    1.70
  -2  -5  -3    0.20    1.20
   2   5   3    1.90    1.80
   2   5   3    0.90    1.10
   2   5   3    1.70    1.20
   2   5   3    2.40    1.30
   2   5   3    2.20    1.60
   2   5   3    0.90    1.20
  -3  -5  -3    0.50    1.30
  -3  -5  -3   -0.70    1.30
  -3  -5  -3    4.50    1.70
  -3  -5  -3    0.20    1.60
  -3  -5  -3    1.80    1.80
  -3  -5  -3   -0.10    1.20
  -3  -5  -3    0.40    1.60
   3   5   3    1.00    1.70
   3   5   3    0.00    1.10
   3   5   3    0.00    1.30
   3   5   3   -0.80    1.20
   3   5   3    0.00    1.60
   3   5   3    1.90    1.30
  -4  -5  -3   30.90    4.70
  -4  -5  -3   26.30    3.90
  -4  -5  -3   33.30    5.10
  -4  -5  -3   37.70    5.10
  -4  -5  -3   36.30    5.80
  -4  -5  -3   31.30    4.60
   4   5   3   24.60    3.90
   4   5   3   33.40    4.70
   4   5   3   29.60    4.10
   4   5   3   29.80    4.50
   4   5   3   31.90    4.50
   4   5   3   31.50    5.00
  -5  -5  -3   54.49    5.60
  -5  -5  -3   55.19    5.70
  -5  -5  -3   46.10    6.20
  -5  -5  -3   51.69    5.30
  -5  -5  -3   45.90    6.00
  -5  -5  -3   48.80    6.10
   5   5   3   56.89    5.90
   5   5   3   59.49    5.30
   5   5   3   53.09    5.30
   5   5   3   43.20    5.90
   5   5   3   48.60    6.50
   5   5   3   51.19    4.90
  -6  -5  -3  158.88    9.80
  -6  -5  -3  153.98   15.30
  -6  -5  -3  155.68    9.60
  -6  -5  -3  177.18   10.60
  -6  -5  -3  162.48   10.70
  -6  -5  -3  143.69    9.20
   6   5   3  161.48    9.80
   6   5   3  155.78    9.10
   6   5   3  152.58    8.90
   6   5   3  144.49   10.00
   9  -6  -3   -3.20    2.20
   9  -6  -3    1.20    2.40
   9  -6  -3    0.20    2.50
  -9   6   3    6.70    2.80
  -9   6   3    5.10    2.70
  -9   6   3    5.80    2.50
  -9   6   3    6.60    3.00
  -9   6   3    3.80    2.50
   8  -6  -3   33.20    4.80
  -8   6   3   35.50    5.70
  -8   6   3   33.70    4.60
  -8   6   3   24.60    4.20
  -8   6   3   32.10    4.90
  -8   6   3   35.90    4.70
   7  -6  -3    0.00    1.60
   7  -6  -3    0.00    1.60
   7  -6  -3    0.20    1.60
  -7   6   3   -0.50    1.50
  -7   6   3    1.10    1.40
  -7   6   3    2.30    1.70
  -7   6   3   -1.40    1.40
  -7   6   3    0.10    1.20
   6  -6  -3    8.60    2.50
  -6   6   3   10.50    2.70
  -6   6   3   11.40    2.50
  -6   6   3   12.20    2.70
  -6   6   3   12.40    3.10
   5  -6  -3  188.28    8.30
   5  -6  -3  174.38    6.90
   5  -6  -3  176.18    8.30
   5  -6  -3  174.78    8.10
  -5   6   3  164.78    8.30
  -5   6   3  178.48    8.70
  -5   6   3  177.48    8.30
  -5   6   3  183.98    8.50
  -5   6   3  191.28    9.60
   4  -6  -3  267.27   11.00
   4  -6  -3  247.08    9.70
   4  -6  -3  244.58    9.70
   4  -6  -3  263.37   10.30
   4  -6  -3  242.48    9.90
  -4   6   3  256.77   10.90
  -4   6   3  238.08   10.10
  -4   6   3  261.97   10.10
  -4   6   3  260.57   10.40
  -4   6   3  256.57   10.00
   3  -6  -3  172.68    7.80
   3  -6  -3  165.68    8.30
   3  -6  -3  180.08    8.00
   3  -6  -3  170.48    6.20
   3  -6  -3  169.48    8.10
   3  -6  -3  160.48    7.70
  -3   6   3  179.28    8.10
  -3   6   3  185.78    8.80
  -3   6   3  180.88    8.00
  -3   6   3  173.78    8.40
  -3   6   3  171.58    8.10
  -3   6   3  177.18    6.10
  -3   6   3  172.98    8.20
   2  -6  -3   32.60    4.00
   2  -6  -3   31.50    3.20
   2  -6  -3   30.40    4.00
   2  -6  -3   32.60    4.40
   2  -6  -3   31.00    4.00
   2  -6  -3   34.00    2.90
  -2   6   3   26.70    2.50
  -2   6   3   31.50    4.10
  -2   6   3   32.10    3.40
  -2   6   3   30.40    3.90
  -2   6   3   33.50    4.30
  -2   6   3   32.90    3.50
  -2   6   3   25.00    3.40
   1  -6  -3  674.53   17.90
   1  -6  -3  686.83   19.50
   1  -6  -3  688.63   19.10
   1  -6  -3  671.23   18.90
   1  -6  -3  643.14   18.60
   1  -6  -3  648.24   19.20
  -1   6   3  640.84   19.00
  -1   6   3  647.14   18.90
  -1   6   3  641.94   18.60
  -1   6   3  661.13   19.50
  -1   6   3  670.33   18.70
  -1   6   3  657.73   18.90
  -1   6   3  665.63   17.50
   0  -6  -3    3.20    2.00
   0  -6  -3   -1.00    1.10
   0  -6  -3    0.10    0.90
   0  -6  -3    0.80    1.30
   0  -6  -3   -0.10    0.90
   0   6   3    0.20    1.40
   0   6   3   -0.60    1.10
   0   6   3   -0.40    0.80
   0   6   3   -0.90    0.80
   0   6   3   -0.50    0.90
   0   6   3   -0.70    0.70
   0   6   3    2.40    1.30
  -1  -6  -3   -1.70    1.50
  -1  -6  -3    2.60    1.50
  -1  -6  -3    2.40    1.40
  -1  -6  -3    1.40    1.50
  -1  -6  -3    0.80    1.70
  -1  -6  -3    4.30    1.70
  -1  -6  -3    1.50    1.40
   1   6   3    2.70    1.80
   1   6   3    0.00    1.40
   1   6   3    1.20    1.30
   1   6   3    2.30    1.20
   1   6   3    0.70    1.10
   1   6   3    1.70    1.10
  -2  -6  -3   60.09    5.40
  -2  -6  -3   77.29    5.70
  -2  -6  -3   66.49    5.20
  -2  -6  -3   64.99    5.40
  -2  -6  -3   65.29    5.80
  -2  -6  -3   65.49    5.60
  -2  -6  -3   74.69    5.80
   2   6   3   67.89    5.80
   2   6   3   60.69    5.10
   2   6   3   64.49    5.40
   2   6   3   70.89    5.30
   2   6   3   68.19    5.60
   2   6   3   68.29    4.90
  -3  -6  -3   16.50    3.40
  -3  -6  -3    9.40    2.80
  -3  -6  -3   17.90    3.70
  -3  -6  -3   11.60    3.00
  -3  -6  -3   11.10    2.80
  -3  -6  -3   10.50    3.10
   3   6   3   10.70    3.10
   3   6   3   10.30    2.60
   3   6   3    8.90    2.90
   3   6   3   15.00    3.40
   3   6   3   18.70    3.80
   3   6   3   12.60    2.60
  -4  -6  -3  110.99    7.80
  -4  -6  -3  116.59    8.50
  -4  -6  -3  125.19    8.50
  -4  -6  -3  123.79    8.10
  -4  -6  -3  123.39    7.90
  -4  -6  -3  134.89    8.60
  -4  -6  -3  120.09    8.70
   4   6   3  125.49    8.50
   4   6   3  131.49    8.60
   4   6   3  112.59    7.50
   4   6   3  118.29    7.70
   4   6   3  131.99    8.80
   4   6   3  122.79    7.40
  -5  -6  -3    4.50    3.50
  -5  -6  -3    6.20    2.40
  -5  -6  -3    3.30    2.70
  -5  -6  -3    4.70    2.90
  -5  -6  -3    7.10    3.00
  -5  -6  -3    2.60    2.70
   5   6   3    4.10    2.80
   5   6   3    6.10    2.50
   5   6   3    5.70    2.70
   9  -7  -3   -1.70    2.80
   9  -7  -3    0.30    2.30
  -9   7   3   10.40    3.10
  -9   7   3    0.40    2.10
  -9   7   3    6.40    2.60
  -9   7   3   -2.60    2.70
   8  -7  -3   72.59    6.30
   8  -7  -3   82.69    6.20
  -8   7   3   81.39    6.80
  -8   7   3   61.29    5.60
  -8   7   3   78.69    7.50
  -8   7   3   65.09    5.70
   7  -7  -3   11.50    3.20
   7  -7  -3   15.10    3.20
  -7   7   3   10.30    2.50
  -7   7   3    9.10    2.60
  -7   7   3    7.80    2.20
  -7   7   3    7.30    2.90
  -7   7   3   14.10    3.20
   6  -7  -3    4.00    1.90
   6  -7  -3    2.40    1.30
   6  -7  -3    2.60    1.90
  -6   7   3    1.00    1.90
  -6   7   3    2.80    1.70
  -6   7   3    3.30    2.10
  -6   7   3    4.40    2.30
  -6   7   3    2.80    2.30
   5  -7  -3   80.99    5.60
   5  -7  -3   99.69    6.20
   5  -7  -3   93.69    6.20
   5  -7  -3   91.19    5.40
  -5   7   3   89.19    6.00
  -5   7   3   90.49    6.40
  -5   7   3   87.29    6.00
  -5   7   3  108.59    7.50
  -5   7   3   86.49    6.10
   4  -7  -3   19.70    3.50
   4  -7  -3   21.90    3.30
   4  -7  -3   21.10    3.20
   4  -7  -3   21.40    3.50
   4  -7  -3   20.60    3.70
  -4   7   3   21.80    3.60
  -4   7   3   24.10    3.90
  -4   7   3   24.90    4.00
  -4   7   3   21.90    3.30
  -4   7   3   20.40    1.80
  -4   7   3   24.60    4.90
   3  -7  -3   23.70    3.70
   3  -7  -3   32.50    4.50
   3  -7  -3   29.10    4.10
   3  -7  -3   26.80    3.70
   3  -7  -3   27.10    3.90
   3  -7  -3   24.40    2.90
  -3   7   3   17.90    3.30
  -3   7   3   23.60    3.70
  -3   7   3   25.80    3.70
  -3   7   3   23.00    3.60
  -3   7   3   34.20    4.70
  -3   7   3   22.90    2.30
  -3   7   3   20.00    3.60
   2  -7  -3   16.80    3.20
   2  -7  -3   13.10    2.30
   2  -7  -3   11.00    2.80
   2  -7  -3   12.90    2.80
   2  -7  -3   15.40    3.20
   2  -7  -3   12.90    2.60
  -2   7   3   12.50    2.80
  -2   7   3   14.80    2.40
  -2   7   3   14.10    2.80
  -2   7   3   17.20    3.30
  -2   7   3   11.80    2.90
  -2   7   3   11.70    2.90
  -2   7   3   18.20    3.30
   1  -7  -3  608.24   18.60
   1  -7  -3  620.04   18.70
   1  -7  -3  624.44   19.20
   1  -7  -3  615.14   19.10
   1  -7  -3  618.74   17.60
  -1   7   3  612.44   18.30
  -1   7   3  578.24   16.80
  -1   7   3  590.94   18.80
  -1   7   3  592.94   18.60
  -1   7   3  625.44   19.40
  -1   7   3  602.54   18.50
  -1   7   3  591.04   18.50
   0  -7  -3   10.00    2.90
   0  -7  -3    6.30    2.00
   0  -7  -3    8.20    2.30
   0  -7  -3    8.80    2.60
   0  -7  -3    6.40    2.30
   0   7   3    8.30    2.40
   0   7   3    3.40    2.10
   0   7   3    8.10    2.50
   0   7   3    6.90    2.90
   0   7   3    5.30    2.00
   0   7   3    7.20    2.10
  -1  -7  -3  239.28   11.40
  -1  -7  -3  230.68   10.90
  -1  -7  -3  237.58   11.20
  -1  -7  -3  240.78   10.80
  -1  -7  -3  233.28   11.00
  -1  -7  -3  233.68   10.60
   1   7   3  241.68   10.60
   1   7   3  248.18   10.40
   1   7   3  236.58   11.30
   1   7   3  235.78   10.30
   1   7   3  259.87   11.20
  -2  -7  -3   77.39    6.60
  -2  -7  -3   82.89    6.30
  -2  -7  -3   79.29    6.60
  -2  -7  -3   90.29    6.90
  -2  -7  -3   82.59    6.40
  -2  -7  -3   89.89    6.70
   2   7   3   73.59    6.30
   2   7   3   89.49    6.90
   2   7   3   79.39    6.90
   2   7   3   82.59    6.00
   2   7   3   89.39    6.30
  -3  -7  -3  250.97   12.40
  -3  -7  -3  249.48   11.60
  -3  -7  -3  236.28   12.20
  -3  -7  -3  242.98   12.10
  -3  -7  -3  263.47   12.60
  -3  -7  -3  238.38   11.50
  -3  -7  -3  256.37   12.50
   3   7   3  220.98   11.80
   3   7   3  219.68   12.70
   3   7   3  235.88   11.20
   3   7   3  226.88   13.90
   3   7   3  253.97   12.00
   3   7   3  245.58   12.10
   3   7   3  237.98   10.70
  -4  -7  -3    8.80    3.00
  -4  -7  -3    9.30    3.20
  -4  -7  -3    2.30    2.10
  -4  -7  -3    2.50    2.90
  -4  -7  -3    6.70    3.40
  -4  -7  -3    7.20    2.70
  -4  -7  -3    0.60    2.40
   4   7   3    6.00    2.90
   4   7   3    4.00    2.10
   4   7   3    4.20    2.60
   4   7   3    7.00    2.70
   4   7   3    9.60    3.50
   8  -8  -3    1.70    2.30
   8  -8  -3   -0.30    2.20
  -8   8   3    2.10    1.90
  -8   8   3    1.90    2.80
  -8   8   3    2.00    2.20
  -8   8   3   -1.00    1.70
  -8   8   3    4.20    2.70
   7  -8  -3   11.20    2.20
   7  -8  -3   19.40    4.00
   7  -8  -3   14.60    3.50
  -7   8   3    6.70    2.50
  -7   8   3   22.80    4.90
  -7   8   3   16.20    3.20
  -7   8   3   15.70    3.60
  -7   8   3   16.20    3.80
   6  -8  -3    4.40    2.20
   6  -8  -3   -1.80    2.10
   6  -8  -3    2.10    2.30
   6  -8  -3    2.00    1.50
   6  -8  -3   -0.60    1.90
  -6   8   3   -0.40    2.10
  -6   8   3   -0.70    1.80
  -6   8   3    0.50    1.70
  -6   8   3   -1.10    1.30
  -6   8   3    0.40    1.40
   5  -8  -3    0.50    2.10
   5  -8  -3    0.50    1.70
   5  -8  -3    1.10    1.60
   5  -8  -3    0.80    1.70
   5  -8  -3    0.30    1.40
  -5   8   3    4.20    1.80
  -5   8   3    6.50    2.30
  -5   8   3    2.80    1.80
  -5   8   3    2.60    1.60
  -5   8   3    2.80    1.60
  -5   8   3    0.80    1.50
   4  -8  -3  813.12   22.60
   4  -8  -3  815.02   23.00
   4  -8  -3  765.32   22.00
  -4   8   3  761.22   22.90
  -4   8   3  761.22   17.90
  -4   8   3  758.72   23.80
  -4   8   3  789.52   22.50
  -4   8   3  788.52   24.30
  -4   8   3  777.32   23.00
  -4   8   3  770.72   22.50
   3  -8  -3  604.94   18.80
   3  -8  -3  590.74   18.40
   3  -8  -3  594.44   19.70
  -3   8   3  616.74   19.50
  -3   8   3  606.24   19.00
  -3   8   3  585.64   18.50
  -3   8   3  600.74   20.10
  -3   8   3  607.14   19.20
  -3   8   3  626.74   16.10
  -3   8   3  597.34   20.00
   2  -8  -3  291.57   12.20
   2  -8  -3  280.87   11.50
   2  -8  -3  278.47   11.60
   2  -8  -3  257.87   11.40
   2  -8  -3  290.67   10.60
   2  -8  -3  257.87   12.40
  -2   8   3  273.57   12.30
  -2   8   3  266.77   11.60
  -2   8   3  265.47    9.90
  -2   8   3  261.77   11.80
  -2   8   3  296.07   12.70
  -2   8   3  272.27   11.70
  -2   8   3  273.47   11.80
   1  -8  -3  174.08    8.60
   1  -8  -3  188.08    9.90
   1  -8  -3  178.58    9.30
  -1   8   3  178.58   10.90
  -1   8   3  183.68    9.50
  -1   8   3  163.18    9.40
  -1   8   3  169.08    8.10
  -1   8   3  204.48   10.40
  -1   8   3  188.48    9.60
   0  -8  -3   77.39    6.20
   0  -8  -3   72.89    5.90
   0  -8  -3   81.29    6.20
   0  -8  -3   66.79    6.10
   0  -8  -3   62.59    5.80
   0   8   3   71.29    5.90
   0   8   3   70.29    5.40
   0   8   3   76.19    6.20
   0   8   3   80.09    6.60
   0   8   3   68.79    5.80
   0   8   3   84.49    6.80
  -1  -8  -3  127.99    8.30
  -1  -8  -3  136.09    8.50
  -1  -8  -3  131.19    8.40
  -1  -8  -3  146.59    8.70
  -1  -8  -3  130.29    8.40
   1   8   3  163.38   10.70
   1   8   3  130.49    8.40
   1   8   3  137.49    9.00
   1   8   3  137.69    8.10
   1   8   3  131.89    8.20
  -2  -8  -3   18.00    4.20
  -2  -8  -3   17.20    4.40
  -2  -8  -3   16.90    3.90
  -2  -8  -3   13.80    4.00
  -2  -8  -3   14.60    4.10
  -2  -8  -3   19.20    4.10
   2   8   3   10.10    3.70
   2   8   3   10.50    3.00
   2   8   3   19.60    4.00
   2   8   3   15.90    4.00
   2   8   3   15.40    3.50
   2   8   3   20.90    4.50
  -3  -8  -3  139.59   10.20
  -3  -8  -3  139.89    9.60
  -3  -8  -3  132.79    9.50
  -3  -8  -3  143.29    9.40
  -3  -8  -3  149.79   11.20
  -3  -8  -3  119.09    9.10
  -3  -8  -3  135.09    9.00
   3   8   3  149.69    8.70
   3   8   3  143.89    9.70
   3   8   3  129.09   10.10
   3   8   3  148.39    9.80
   3   8   3  140.89    9.30
   3   8   3  130.19    8.60
  -4  -8  -3    9.90    4.10
  -4  -8  -3    7.90    3.30
  -4  -8  -3    5.70    3.30
  -4  -8  -3    6.40    3.30
  -4  -8  -3   19.90    4.80
   4   8   3    7.50    3.00
   4   8   3    7.00    2.80
   4   8   3   14.10    4.30
   4   8   3    1.50    2.50
   7  -9  -3   -2.10    2.10
   7  -9  -3   -1.20    1.60
   7  -9  -3   -1.10    2.50
  -7   9   3    1.90    2.50
  -7   9   3   -1.40    2.30
  -7   9   3   -3.00    1.50
  -7   9   3   -0.10    2.20
  -7   9   3   -4.70    2.00
   6  -9  -3    5.10    2.50
   6  -9  -3    4.20    2.20
  -6   9   3    3.30    2.70
  -6   9   3    2.10    2.30
  -6   9   3    3.80    2.50
  -6   9   3    5.30    2.50
  -6   9   3    9.10    3.10
  -6   9   3    7.50    3.50
   5  -9  -3   12.00    3.00
   5  -9  -3   11.60    3.20
   5  -9  -3    8.80    2.80
  -5   9   3    8.30    2.80
  -5   9   3    9.20    2.90
  -5   9   3    9.00    3.20
  -5   9   3    9.30    2.70
  -5   9   3    6.60    2.90
  -5   9   3    8.70    3.00
   4  -9  -3   45.30    6.60
   4  -9  -3   46.40    6.10
   4  -9  -3   46.30    5.20
   4  -9  -3   54.19    5.10
   4  -9  -3   57.59    5.40
   4  -9  -3   57.19    5.40
  -4   9   3   53.29    5.20
  -4   9   3   55.19    5.70
  -4   9   3   55.79    5.50
  -4   9   3   59.19    5.70
  -4   9   3   49.90    5.20
  -4   9   3   52.69    5.50
   3  -9  -3    3.70    2.20
   3  -9  -3    3.40    2.20
   3  -9  -3    2.50    2.10
   3  -9  -3    2.50    2.10
   3  -9  -3    4.20    2.10
   3  -9  -3    4.60    2.60
  -3   9   3    2.00    2.30
  -3   9   3    6.90    2.60
  -3   9   3    1.60    2.40
  -3   9   3    5.70    2.10
  -3   9   3    3.40    1.80
  -3   9   3    3.20    1.70
  -3   9   3    5.50    2.70
   2  -9  -3  134.99    8.40
   2  -9  -3  129.29    8.60
   2  -9  -3  131.89    9.20
   2  -9  -3  132.79    8.40
  -2   9   3  148.09    8.60
  -2   9   3  128.79    6.90
  -2   9   3  124.19    8.10
  -2   9   3  133.59    8.00
  -2   9   3  128.69    8.60
  -2   9   3  142.59    9.30
  -2   9   3  135.99    8.70
   1  -9  -3    5.50    2.70
   1  -9  -3   10.80    3.10
   1  -9  -3   10.90    3.00
   1  -9  -3    6.50    3.00
   1  -9  -3    6.80    2.50
   1  -9  -3    5.40    2.00
   1  -9  -3    8.90    3.00
  -1   9   3    4.50    2.20
  -1   9   3    5.60    2.70
  -1   9   3    4.00    2.40
  -1   9   3    7.80    2.60
  -1   9   3    3.00    2.10
  -1   9   3    6.40    2.30
  -1   9   3    4.00    2.20
   0  -9  -3  108.89    7.50
   0  -9  -3   94.89    7.50
   0  -9  -3   98.59    7.70
   0  -9  -3   91.29    7.00
   0  -9  -3   93.09    7.90
   0  -9  -3   89.99    7.20
   0  -9  -3   87.59    8.30
   0   9   3   96.19    7.20
   0   9   3  102.39    8.30
   0   9   3   91.79    7.40
   0   9   3   91.99    7.40
   0   9   3   98.09    7.80
   0   9   3   83.19    6.80
   0   9   3   84.39    6.70
  -1  -9  -3   54.99    5.50
  -1  -9  -3   55.69    7.00
  -1  -9  -3   60.09    6.10
  -1  -9  -3   56.79    6.00
  -1  -9  -3   53.29    8.20
   1   9   3   47.50    6.30
   1   9   3   58.09    7.00
   1   9   3   53.09    5.70
   1   9   3   57.69    6.00
   1   9   3   53.99    6.70
  -2  -9  -3   10.70    3.90
  -2  -9  -3    7.90    3.10
  -2  -9  -3    3.40    3.30
  -2  -9  -3    6.50    3.10
   2   9   3    3.10    3.30
   2   9   3    5.40    2.80
   2   9   3    3.70    2.40
   2   9   3    8.80    2.90
   2   9   3    6.60    2.80
   2   9   3   12.90    3.90
   6 -10  -3   -0.20    2.40
   6 -10  -3   -1.00    2.50
   6 -10  -3    0.00    1.80
  -6  10   3   -0.40    2.60
  -6  10   3   -2.20    1.90
  -6  10   3    1.60    2.10
  -6  10   3    0.30    2.90
  -6  10   3   -3.50    2.70
   5 -10  -3   -1.20    1.60
   5 -10  -3   -2.80    1.90
   5 -10  -3   -3.80    1.90
  -5  10   3    2.00    2.60
  -5  10   3   -0.80    2.40
  -5  10   3   -3.80    2.20
  -5  10   3   -1.70    1.80
   4 -10  -3  269.77   13.20
   4 -10  -3  254.27   12.20
   4 -10  -3  250.27   11.70
  -4  10   3  254.67   12.20
  -4  10   3  249.58   12.50
  -4  10   3  240.68    8.70
  -4  10   3  267.57   12.50
  -4  10   3  256.67   13.40
  -4  10   3  250.37   13.20
  -4  10   3  247.18   11.70
   3 -10  -3   75.39    7.40
  -3  10   3   87.69    7.60
  -3  10   3   78.29    7.20
  -3  10   3   77.19    7.20
  -3  10   3   75.19    6.70
  -3  10   3   73.09    6.60
  -3  10   3   71.39    5.20
  -3  10   3   76.69    6.50
   2 -10  -3    4.50    2.70
   2 -10  -3    6.50    3.20
  -2  10   3    2.80    2.80
  -2  10   3    3.90    2.40
  -2  10   3    1.90    3.00
  -2  10   3    0.70    2.30
  -2  10   3    4.20    2.50
  -2  10   3    0.90    2.10
  -2  10   3    2.60    2.30
   1 -10  -3   11.50    3.20
   1 -10  -3   10.70    4.30
   1 -10  -3   18.60    4.20
  -1  10   3    8.60    3.20
  -1  10   3   12.50    3.20
  -1  10   3   17.50    4.00
  -1  10   3   11.00    3.00
  -1  10   3   16.40    3.50
  -1  10   3    5.90    3.40
  -1  10   3   10.40    3.70
   0 -10  -3   47.40    7.60
   0 -10  -3   58.69    6.00
   0 -10  -3   58.69    7.10
   0  10   3   53.09    6.90
   0  10   3   53.89    6.70
   0  10   3   65.49    6.40
   0  10   3   58.79    7.60
   0  10   3   59.39    6.10
   0  10   3   45.50    6.00
  -1 -10  -3   33.80    7.10
  -1 -10  -3   19.00    4.40
  -1 -10  -3   27.10    5.10
   1  10   3   18.60    5.00
   1  10   3   23.60    4.30
   1  10   3   28.50    5.50
   1  10   3   20.10    4.10
   3 -11  -3   57.99    8.30
  -3  11   3   51.89    4.70
  -3  11   3   61.59    7.70
  -3  11   3   50.39    6.10
  -3  11   3   48.40    6.10
  -3  11   3   57.59    7.50
  -3  11   3   32.20    5.90
  -3  11   3   48.90    6.10
   0  11  -4    7.90    2.30
   0  11  -4    1.90    2.50
   0  11  -4    0.90    1.80
   0  11  -4    8.40    3.20
   0  11  -4    2.20    2.50
   0  11  -4    7.80    3.00
   0 -11   4    0.00    2.20
   0 -11   4    1.10    2.30
   0 -11   4    4.00    2.90
  -1  11  -4  117.89    7.80
  -1  11  -4  119.59    6.70
  -1  11  -4  125.39    7.10
  -1  11  -4  129.29    8.10
  -1  11  -4  125.49    7.50
  -1  11  -4  118.29    7.80
  -1  11  -4  120.69    9.50
   1 -11   4  125.79   10.80
   1 -11   4  143.39    6.90
  -2  11  -4    2.30    2.30
  -2  11  -4    1.90    2.10
  -2  11  -4    1.50    2.10
  -2  11  -4    0.30    1.40
  -2  11  -4    0.60    1.80
  -2  11  -4    1.10    2.40
  -2  11  -4   -0.10    1.90
   2 -11   4   -1.40    2.70
   2 -11   4    0.90    2.70
   2 -11   4   -0.50    1.70
   2 -11   4    0.30    1.70
  -3  11  -4   18.50    3.10
  -3  11  -4   24.30    3.20
  -3  11  -4   24.00    4.50
  -3  11  -4   19.40    3.40
  -3  11  -4   20.20    3.30
  -3  11  -4   18.40    2.60
  -3  11  -4   23.30    4.90
   3 -11   4   26.70    6.00
   3  10  -4   51.89    6.90
   3  10  -4   55.59    5.70
   3  10  -4   71.09    6.20
   3  10  -4   67.09    5.90
   3  10  -4   70.59    7.00
   3  10  -4   58.49    7.00
  -3 -10   4   47.30    6.40
  -3 -10   4   52.99    9.00
   2  10  -4   16.20    3.60
   2  10  -4    5.60    3.30
   2  10  -4   12.30    4.30
   2  10  -4   16.40    3.60
  -2 -10   4   15.30    5.00
  -2 -10   4   13.50    3.20
  -2 -10   4   12.40    2.80
  -2 -10   4   22.60    4.10
   1  10  -4    1.00    2.10
   1  10  -4    0.40    1.70
   1  10  -4   -1.40    1.70
   1  10  -4   -1.70    1.40
   1  10  -4    0.00    2.20
   1  10  -4   -2.10    1.90
  -1 -10   4   -0.10    1.70
  -1 -10   4   -0.50    1.80
  -1 -10   4   -1.60    1.40
  -1 -10   4   -1.00    1.90
   0  10  -4    6.00    2.70
   0  10  -4    3.50    1.60
   0  10  -4    6.90    2.20
   0  10  -4    5.40    2.30
   0  10  -4    4.80    2.20
   0 -10   4    2.40    1.60
   0 -10   4    2.90    1.90
   0 -10   4    6.40    2.40
   0 -10   4    4.80    2.90
  -1  10  -4   11.00    2.20
  -1  10  -4    4.20    2.40
  -1  10  -4    7.60    2.00
  -1  10  -4    5.40    2.20
  -1  10  -4    5.90    2.20
  -1  10  -4    4.30    2.70
  -1  10  -4    7.30    2.10
   1 -10   4   11.60    2.60
   1 -10   4    5.10    1.90
   1 -10   4   10.20    3.90
   1 -10   4    6.80    2.10
   1 -10   4    4.30    2.10
  -2  10  -4   65.09    5.60
  -2  10  -4   50.99    6.90
  -2  10  -4   46.00    4.70
  -2  10  -4   61.69    4.00
  -2  10  -4   51.19    4.90
  -2  10  -4   61.09    4.70
  -2  10  -4   53.79    4.10
   2 -10   4   69.79    7.40
  -3  10  -4   72.59    6.20
  -3  10  -4   80.59    4.60
  -3  10  -4   90.89    7.60
  -3  10  -4   70.59    5.00
  -3  10  -4   77.19    4.30
  -3  10  -4   74.49    4.90
  -3  10  -4   79.89    4.80
   3 -10   4   60.99    2.80
   3 -10   4   77.79    2.90
   3 -10   4   74.59    7.50
  -4  10  -4    0.30    1.20
  -4  10  -4   -0.10    1.30
  -4  10  -4    1.00    1.30
  -4  10  -4    2.90    1.30
  -4  10  -4    0.50    1.00
  -4  10  -4    0.00    2.10
  -4  10  -4    1.30    2.40
  -4  10  -4    0.30    1.20
   4 -10   4   -0.30    2.10
  -5  10  -4   15.30    2.10
  -5  10  -4   19.20    4.30
  -5  10  -4   28.50    4.90
  -5  10  -4   19.20    2.00
  -5  10  -4   12.10    2.50
  -5  10  -4   19.00    2.30
   5 -10   4   26.70    5.00
   4   9  -4    8.90    3.60
   4   9  -4    5.70    2.40
   4   9  -4    6.40    2.80
   4   9  -4    4.80    3.10
   4   9  -4    6.70    2.60
  -4  -9   4    3.30    3.20
  -4  -9   4    5.20    2.70
  -4  -9   4    4.90    3.00
  -4  -9   4   11.10    3.90
   3   9  -4   14.20    3.30
   3   9  -4   12.00    3.30
   3   9  -4    9.80    2.80
   3   9  -4    7.00    2.10
   3   9  -4   15.90    3.30
   3   9  -4    9.20    2.70
  -3  -9   4   12.40    2.90
  -3  -9   4    8.80    3.90
  -3  -9   4   12.60    3.20
  -3  -9   4   12.10    3.10
   2   9  -4    6.50    2.10
   2   9  -4    2.90    2.40
   2   9  -4    3.90    2.00
   2   9  -4    3.60    2.00
   2   9  -4    8.30    2.70
   2   9  -4    3.60    2.20
  -2  -9   4    4.90    2.00
  -2  -9   4    1.20    1.80
  -2  -9   4    2.30    2.70
  -2  -9   4    4.80    2.20
   1   9  -4   -2.00    1.00
   1   9  -4   -1.40    1.30
   1   9  -4   -1.20    1.40
   1   9  -4   -3.80    1.70
   1   9  -4    1.90    1.40
   1   9  -4    1.90    1.70
   1   9  -4    0.30    1.50
  -1  -9   4    2.00    1.60
  -1  -9   4    0.10    1.40
  -1  -9   4   -0.80    1.20
  -1  -9   4    3.60    2.40
  -1  -9   4   -2.90    1.30
  -1  -9   4   -0.10    1.60
  -1  -9   4    1.40    2.40
   0   9  -4  176.38    8.10
   0   9  -4  176.98    7.90
   0   9  -4  172.48    8.30
   0   9  -4  177.28    7.70
   0   9  -4  167.98    9.90
   0   9  -4  171.38    8.30
   0   9  -4  164.38    8.90
   0  -9   4  162.48    7.40
   0  -9   4  177.08    8.10
   0  -9   4  175.28   11.30
   0  -9   4  172.38    7.60
   0  -9   4  174.38    8.10
   0  -9   4  171.78    7.40
  -1   9  -4   21.70    4.20
  -1   9  -4   28.00    3.60
  -1   9  -4   25.40    3.50
  -1   9  -4   27.00    2.70
  -1   9  -4   28.60    3.90
  -1   9  -4   29.00    4.10
  -1   9  -4   29.70    3.00
   1  -9   4   19.90    4.80
   1  -9   4   28.70    3.00
   1  -9   4   26.20    2.80
   1  -9   4   23.30    2.90
   1  -9   4   32.30    4.10
  -2   9  -4   68.79    4.20
  -2   9  -4   54.89    4.10
  -2   9  -4   61.29    6.00
  -2   9  -4   56.09    4.50
  -2   9  -4   63.49    5.30
  -2   9  -4   62.69    3.90
   2  -9   4   57.39    6.40
   2  -9   4   58.49    5.10
   2  -9   4   58.79    3.20
  -3   9  -4   20.10    2.70
  -3   9  -4   18.80    2.40
  -3   9  -4   16.60    4.00
  -3   9  -4   20.30    4.20
  -3   9  -4   22.20    2.70
  -3   9  -4   20.80    2.10
  -3   9  -4   23.30    4.50
   3  -9   4   26.10    5.00
  -4   9  -4    3.30    1.30
  -4   9  -4   -0.30    1.00
  -4   9  -4    0.90    1.00
  -4   9  -4    2.40    1.70
  -4   9  -4    3.20    1.20
  -4   9  -4    3.50    1.30
  -4   9  -4    2.30    1.00
  -4   9  -4   -0.60    1.70
   4  -9   4    4.80    2.50
  -5   9  -4   28.90    2.20
  -5   9  -4   22.20    4.30
  -5   9  -4   27.50    2.20
  -5   9  -4   24.00    1.90
  -5   9  -4   25.10    5.00
  -5   9  -4   23.40    1.90
   5  -9   4   30.30    5.10
  -6   9  -4   60.29    2.40
  -6   9  -4   71.59    6.90
  -6   9  -4   62.29    3.00
  -6   9  -4   60.49    2.40
  -6   9  -4   60.89    2.90
   6  -9   4   56.69    5.70
   5   8  -4   64.69    5.80
   5   8  -4   55.29    5.60
   5   8  -4   65.49    6.40
  -5  -8   4   59.89    5.50
  -5  -8   4   72.49    6.80
  -5  -8   4   65.79    7.60
  -5  -8   4   68.19    6.80
   4   8  -4  141.59    8.60
   4   8  -4  137.49    7.50
   4   8  -4  131.19    8.80
   4   8  -4  144.99    8.30
  -4  -8   4  156.88    9.30
  -4  -8   4  117.39    8.00
  -4  -8   4  137.89    7.40
  -4  -8   4  123.19   10.10
   3   8  -4   20.90    4.10
   3   8  -4   24.90    4.20
   3   8  -4   29.90    4.00
   3   8  -4   23.20    4.20
   3   8  -4   25.60    3.80
   3   8  -4   26.10    4.10
  -3  -8   4   20.40    3.50
  -3  -8   4   27.70    3.60
  -3  -8   4   22.60    5.00
  -3  -8   4   29.10    4.20
  -3  -8   4   21.60    3.80
  -3  -8   4   23.70    3.90
   2   8  -4  608.34   19.90
   2   8  -4  609.84   17.70
   2   8  -4  573.44   19.20
   2   8  -4  606.64   18.70
   2   8  -4  582.04   17.80
   2   8  -4  580.44   18.20
  -2  -8   4  588.74   18.00
  -2  -8   4  581.14   20.10
  -2  -8   4  588.04   17.50
  -2  -8   4  602.44   22.30
  -2  -8   4  596.34   16.90
   1   8  -4  335.07   11.70
   1   8  -4  346.37   11.50
   1   8  -4  340.77   11.50
   1   8  -4  351.46   12.30
   1   8  -4  339.07   12.30
   1   8  -4  316.47   12.80
   1   8  -4  340.07   13.80
  -1  -8   4  341.47   11.40
  -1  -8   4  345.07   11.70
  -1  -8   4  335.87   11.30
  -1  -8   4  346.17   15.70
   0   8  -4   17.90    2.70
   0   8  -4   22.10    3.00
   0   8  -4   14.10    3.20
   0   8  -4   15.70    2.60
   0   8  -4   16.10    3.20
   0   8  -4   14.80    2.70
   0   8  -4   18.80    2.70
   0  -8   4   17.50    2.60
   0  -8   4   16.00    2.70
   0  -8   4   17.30    2.70
   0  -8   4   13.50    2.40
   0  -8   4   19.20    4.30
  -1   8  -4   83.29    4.50
  -1   8  -4   73.99    6.20
  -1   8  -4   71.19    5.10
  -1   8  -4   77.19    4.60
  -1   8  -4   78.89    4.20
  -1   8  -4   76.59    4.70
  -1   8  -4   78.99    5.10
   1  -8   4   77.99    4.10
   1  -8   4   76.19    4.20
   1  -8   4   73.49    3.90
   1  -8   4   78.69    4.00
   1  -8   4   70.49    6.40
  -2   8  -4  100.29    7.10
  -2   8  -4   91.89    4.30
  -2   8  -4   90.79    5.80
  -2   8  -4   92.39    4.80
   2  -8   4   95.39    7.40
   2  -8   4   96.69    3.60
   2  -8   4   90.19    3.40
  -3   8  -4   32.70    2.60
  -3   8  -4   30.20    4.80
  -3   8  -4   34.10    2.50
  -3   8  -4   34.10    4.40
  -3   8  -4   30.80    3.00
  -3   8  -4   30.30    2.20
   3  -8   4   37.20    5.50
  -4   8  -4   24.60    4.50
  -4   8  -4   29.30    2.10
  -4   8  -4   24.80    2.40
  -4   8  -4   28.20    4.30
  -4   8  -4   22.50    2.00
  -4   8  -4   25.80    2.00
  -4   8  -4   20.80    1.80
   4  -8   4   29.60    5.00
  -5   8  -4  235.38   11.40
  -5   8  -4  222.78    5.90
  -5   8  -4  218.28    6.00
  -5   8  -4  226.68    6.50
  -5   8  -4  236.48   12.00
  -5   8  -4  213.68    6.30
  -6   8  -4  210.58    6.10
  -6   8  -4  232.18   12.40
  -6   8  -4  217.48    6.30
  -6   8  -4  239.28   12.20
  -6   8  -4  205.48    5.70
   6  -8   4  210.18    9.80
   6   7  -4   -0.50    2.10
   6   7  -4   -0.30    1.50
   6   7  -4   -0.70    2.80
   6   7  -4    0.20    1.80
  -6  -7   4    2.60    2.90
  -6  -7   4    1.50    2.70
  -6  -7   4   -1.10    1.90
   5   7  -4   -1.10    1.80
   5   7  -4   -1.10    1.90
   5   7  -4    5.70    2.50
   5   7  -4    0.30    1.80
   5   7  -4    0.30    1.70
  -5  -7   4    1.10    2.20
  -5  -7   4    2.00    1.60
  -5  -7   4    1.00    2.20
  -5  -7   4    0.90    1.90
  -5  -7   4   -1.00    1.50
  -5  -7   4   -0.50    2.20
   4   7  -4   41.30    5.40
   4   7  -4   37.60    5.00
   4   7  -4   34.80    4.90
   4   7  -4   37.40    5.20
   4   7  -4   40.30    4.90
   4   7  -4   39.90    5.10
  -4  -7   4   38.90    6.50
  -4  -7   4   34.10    4.80
  -4  -7   4   34.60    3.60
  -4  -7   4   33.20    4.90
   3   7  -4   80.79    5.00
   3   7  -4   67.19    5.30
   3   7  -4   72.29    5.50
   3   7  -4   75.79    5.90
   3   7  -4   75.59    5.40
   3   7  -4   60.19    5.60
  -3  -7   4   83.69    7.40
  -3  -7   4   70.19    4.60
  -3  -7   4   71.99    5.30
  -3  -7   4   70.49    5.20
  -3  -7   4   85.69    7.00
   2   7  -4   61.39    6.10
   2   7  -4   71.29    5.00
   2   7  -4   66.59    5.30
  -2  -7   4   77.49    6.30
  -2  -7   4   83.09    5.40
  -2  -7   4   65.89    4.20
  -2  -7   4   77.19    5.00
  -2  -7   4   76.59    7.00
   1   7  -4    0.30    1.10
   1   7  -4    0.00    1.30
   1   7  -4    0.40    1.30
   1   7  -4    0.10    1.00
   1   7  -4    1.60    1.00
  -1  -7   4   -0.70    0.70
  -1  -7   4    3.50    2.10
  -1  -7   4    0.80    0.90
  -1  -7   4   -0.50    1.20
  -1  -7   4   -0.50    1.00
  -1  -7   4    0.20    1.00
   0   7  -4  202.98    9.60
   0   7  -4  204.68    8.80
   0   7  -4  194.08    7.10
   0   7  -4  203.58    7.80
   0   7  -4  196.78    7.70
   0   7  -4  207.68    7.50
   0   7  -4  200.48    7.60
   0  -7   4  189.48    9.40
   0  -7   4  191.18    7.60
   0  -7   4  199.78    7.40
   0  -7   4  202.38    7.00
   0  -7   4  198.58    7.20
   0  -7   4  194.38    7.20
   0  -7   4  197.68   10.50
  -1   7  -4  433.86   11.50
  -1   7  -4  417.26   11.60
  -1   7  -4  397.36   12.50
  -1   7  -4  412.86   11.80
  -1   7  -4  418.76   11.10
  -1   7  -4  417.16   14.80
   1  -7   4  411.26   10.80
   1  -7   4  415.76   15.90
   1  -7   4  419.66   10.50
   1  -7   4  431.26   12.70
   1  -7   4  426.06   11.00
   1  -7   4  419.36   10.60
  -2   7  -4   75.29    3.40
  -2   7  -4   82.69    4.00
  -2   7  -4   80.39    3.70
  -2   7  -4   85.39    6.00
  -2   7  -4   82.29    5.20
   2  -7   4   78.99    2.10
   2  -7   4   73.89    2.20
   2  -7   4   80.39    2.60
   2  -7   4   83.29    2.60
  -3   7  -4   10.90    1.50
  -3   7  -4   13.50    1.40
  -3   7  -4   11.30    1.20
  -3   7  -4   10.80    2.60
  -3   7  -4   11.30    2.90
   3  -7   4    7.50    2.70
  -4   7  -4   40.80    3.00
  -4   7  -4   39.30    1.90
  -4   7  -4   45.10    4.70
  -4   7  -4   44.00    6.70
  -4   7  -4   44.50    2.30
  -4   7  -4   39.00    2.10
  -4   7  -4   38.80    1.90
   4  -7   4   39.30    4.20
  -5   7  -4  242.48    6.60
  -5   7  -4  256.37   11.70
  -5   7  -4  230.98    6.30
  -5   7  -4  232.88    5.90
  -5   7  -4  238.78    6.10
  -5   7  -4  247.78   11.90
   5  -7   4  233.98   11.90
   5  -7   4  220.48   10.10
  -6   7  -4    1.00    0.70
  -6   7  -4    2.00    2.00
  -6   7  -4    0.90    0.80
  -6   7  -4    1.20    0.90
  -6   7  -4    1.40    0.80
  -6   7  -4    1.10    0.80
   6  -7   4    1.60    2.30
  -7   7  -4   30.60    2.40
  -7   7  -4   25.10    2.20
  -7   7  -4   31.90    2.70
  -7   7  -4   28.50    5.30
   7  -7   4   23.30    5.50
   7   6  -4    1.90    3.20
   7   6  -4    0.30    1.80
   7   6  -4    0.90    1.90
   7   6  -4    0.20    2.50
   7   6  -4   -0.80    2.20
   7   6  -4    3.20    2.70
  -7  -6   4   -4.60    2.70
  -7  -6   4    1.50    2.80
  -7  -6   4    0.80    3.00
   6   6  -4    1.70    2.20
   6   6  -4    1.80    1.70
   6   6  -4   -2.40    1.40
   6   6  -4    0.90    2.00
   6   6  -4    1.50    2.70
   6   6  -4   -0.80    1.30
  -6  -6   4    0.30    2.00
  -6  -6   4    1.80    1.90
  -6  -6   4   -1.70    1.90
  -6  -6   4    1.50    1.60
  -6  -6   4    1.00    2.10
  -6  -6   4    0.20    2.20
   5   6  -4   -1.40    0.90
   5   6  -4    1.20    1.60
   5   6  -4    0.10    1.80
   5   6  -4   -0.50    1.60
   5   6  -4    0.10    1.30
   5   6  -4    0.60    1.40
  -5  -6   4    1.50    1.60
  -5  -6   4    1.70    1.90
  -5  -6   4   -0.30    1.30
  -5  -6   4    0.20    1.70
  -5  -6   4   -0.50    1.30
   4   6  -4   29.10    4.10
   4   6  -4   23.30    3.70
   4   6  -4   20.90    3.50
   4   6  -4   19.70    3.00
   4   6  -4   15.70    3.20
   4   6  -4   23.70    3.80
  -4  -6   4   21.30    2.90
  -4  -6   4   19.80    3.40
  -4  -6   4   17.80    3.40
  -4  -6   4   19.60    3.40
  -4  -6   4   21.50    4.70
  -4  -6   4   21.90    3.40
   3   6  -4  164.68    8.40
   3   6  -4  154.68    7.60
   3   6  -4  167.28    8.20
   3   6  -4  162.08    7.60
   3   6  -4  166.88    8.50
   3   6  -4  166.38    7.80
   3   6  -4  161.38    6.70
  -3  -6   4  158.38    7.50
  -3  -6   4  154.58    9.40
  -3  -6   4  164.18    8.00
  -3  -6   4  152.38    6.40
  -3  -6   4  156.08    7.70
  -3  -6   4  146.19    8.30
  -3  -6   4  164.28    7.60
   2   6  -4 2191.68   47.20
   2   6  -4 2166.18   48.70
   2   6  -4 2140.89   47.40
   2   6  -4 2266.47   46.70
   2   6  -4 2235.68   49.00
   2   6  -4 2264.67   47.10
  -2  -6   4 2196.68   51.59
  -2  -6   4 2228.08   45.20
  -2  -6   4 2181.28   46.60
  -2  -6   4 2142.69   46.90
  -2  -6   4 2187.88   49.60
  -2  -6   4 2197.18   46.60
  -2  -6   4 2202.88   47.10
   1   6  -4  503.15   13.70
   1   6  -4  491.15   15.60
   1   6  -4  534.25   13.70
   1   6  -4  478.95   13.80
  -1  -6   4  475.55   15.80
  -1  -6   4  491.25   13.30
  -1  -6   4  479.25   12.90
  -1  -6   4  505.05   13.60
  -1  -6   4  507.85   13.80
  -1  -6   4  511.25   13.80
   0   6  -4  360.16   10.50
   0   6  -4  348.47   10.30
   0   6  -4  371.86   10.20
   0   6  -4  370.76   10.00
   0   6  -4  346.47   12.40
   0   6  -4  347.07   10.20
   0  -6   4  346.57    9.70
   0  -6   4  351.76    9.60
   0  -6   4  356.36   10.30
   0  -6   4  372.16   14.00
   0  -6   4  352.86    9.80
   0  -6   4  338.87   12.50
   0  -6   4  345.77   10.00
  -1   6  -4   41.20    2.40
  -1   6  -4   37.90    2.40
  -1   6  -4   48.50    4.20
  -1   6  -4   41.00    3.10
  -1   6  -4   41.80    2.70
  -1   6  -4   42.20    2.70
   1  -6   4   38.80    2.20
   1  -6   4   40.80    2.20
   1  -6   4   42.60    2.10
   1  -6   4   37.30    2.00
   1  -6   4   46.60    4.60
   1  -6   4   41.30    3.10
  -2   6  -4   71.49    2.90
  -2   6  -4   76.09    5.30
  -2   6  -4   69.49    3.10
  -2   6  -4   73.19    4.50
  -2   6  -4   73.49    2.80
  -2   6  -4   72.69    3.10
   2  -6   4   73.49    5.70
  -3   6  -4  265.77    6.20
  -3   6  -4  262.77   10.90
  -3   6  -4  271.37   10.40
  -3   6  -4  269.47    6.50
  -3   6  -4  275.37    6.40
  -3   6  -4  258.37    8.60
   3  -6   4  275.17   10.90
   3  -6   4  270.47   11.20
  -4   6  -4   21.80    2.20
  -4   6  -4   19.40    1.20
  -4   6  -4   20.30    1.20
  -4   6  -4   22.00    1.40
  -4   6  -4   22.30    1.40
  -4   6  -4   19.70    3.40
  -4   6  -4   24.30    3.80
   4  -6   4   16.30    3.50
   4  -6   4   19.90    3.50
  -5   6  -4  147.79    5.90
  -5   6  -4  151.48    6.30
  -5   6  -4  142.39    4.40
  -5   6  -4  142.79    4.70
  -5   6  -4  143.79    4.20
  -5   6  -4  157.88    8.70
   5  -6   4  129.49    7.20
   5  -6   4  145.29    9.10
  -6   6  -4    0.40    0.70
  -6   6  -4    1.60    0.90
  -6   6  -4    1.30    2.20
  -6   6  -4    0.80    0.90
  -6   6  -4    0.70    1.00
   6  -6   4   -0.70    2.30
  -7   6  -4   13.70    2.00
  -7   6  -4   16.20    2.10
  -7   6  -4   15.60    1.90
  -7   6  -4   18.50    4.10
  -7   6  -4   16.90    2.30
   7  -6   4   17.20    4.60
   8   5  -4   96.59    8.10
   8   5  -4  108.59    8.10
   8   5  -4  112.79    8.90
   8   5  -4   96.89    8.30
   8   5  -4   99.89    8.50
  -8  -5   4  117.29    9.10
  -8  -5   4  105.39    8.20
  -8  -5   4   96.99    8.60
  -8  -5   4  106.49    8.70
  -8  -5   4   93.09    7.90
   7   5  -4   37.90    5.60
   7   5  -4   35.00    5.30
   7   5  -4   26.70    4.70
   7   5  -4   38.40    5.40
   7   5  -4   49.10    5.20
   7   5  -4   43.40    6.00
  -7  -5   4   42.20    6.30
  -7  -5   4   27.40    5.70
  -7  -5   4   37.40    6.00
  -7  -5   4   31.10    5.50
  -7  -5   4   28.40    4.40
  -7  -5   4   34.60    5.30
   6   5  -4    2.00    2.20
   6   5  -4    3.30    2.00
   6   5  -4    5.40    2.10
   6   5  -4    2.40    2.20
   6   5  -4    1.80    1.70
   6   5  -4    3.80    1.70
   6   5  -4    2.50    2.00
  -6  -5   4    6.40    2.10
  -6  -5   4    1.90    2.30
  -6  -5   4   -0.60    1.50
  -6  -5   4    2.50    2.00
  -6  -5   4    3.50    1.80
  -6  -5   4    4.40    2.70
  -6  -5   4    0.60    2.10
   5   5  -4    6.70    2.30
   5   5  -4    6.60    2.20
   5   5  -4    9.10    2.20
   5   5  -4    8.00    2.60
   5   5  -4   10.40    2.90
   5   5  -4   10.50    2.20
  -5  -5   4   12.40    3.30
  -5  -5   4   11.40    2.40
  -5  -5   4    6.40    2.20
  -5  -5   4   10.40    2.70
  -5  -5   4    6.90    2.10
  -5  -5   4    9.30    2.50
   4   5  -4  112.19    6.70
   4   5  -4   98.09    6.10
   4   5  -4  101.39    6.60
   4   5  -4   89.89    6.10
   4   5  -4   93.99    6.00
   4   5  -4  106.79    6.10
   4   5  -4   97.79    5.20
  -4  -5   4   93.69    7.00
  -4  -5   4   95.89    5.70
  -4  -5   4   94.99    5.00
  -4  -5   4   92.99    6.40
  -4  -5   4  106.69    6.30
  -4  -5   4   94.39    6.10
  -4  -5   4   99.49    5.90
   3   5  -4  531.55   15.40
   3   5  -4  525.95   13.70
   3   5  -4  511.05   16.30
   3   5  -4  543.95   16.30
   3   5  -4  539.55   15.20
   3   5  -4  545.95   15.90
   3   5  -4  517.85   15.40
  -3  -5   4  510.45   13.40
  -3  -5   4  505.65   16.40
  -3  -5   4  509.95   15.50
  -3  -5   4  509.65   14.90
  -3  -5   4  557.74   18.40
  -3  -5   4  539.25   15.50
  -3  -5   4  540.25   15.40
   2   5  -4   18.60    2.50
   2   5  -4   13.90    2.30
   2   5  -4   21.30    2.70
   2   5  -4   15.20    2.20
   2   5  -4   17.20    2.80
  -2  -5   4   15.60    2.80
  -2  -5   4   17.10    2.40
  -2  -5   4   15.30    2.40
  -2  -5   4   18.80    2.50
  -2  -5   4   13.00    2.20
  -2  -5   4   17.00    3.50
  -2  -5   4   14.90    1.50
   1   5  -4   15.00    2.10
   1   5  -4   12.10    1.90
   1   5  -4   14.50    2.00
   1   5  -4   10.70    2.30
   1   5  -4   14.20    2.00
   1   5  -4   15.50    1.60
  -1  -5   4   14.30    1.50
  -1  -5   4   17.60    2.20
  -1  -5   4   16.50    2.40
  -1  -5   4   14.70    2.60
  -1  -5   4   15.50    2.00
  -1  -5   4   14.80    3.10
   0   5  -4   56.49    4.20
   0   5  -4   60.49    3.10
   0   5  -4   60.19    3.10
   0   5  -4   63.09    3.10
   0   5  -4   62.19    3.00
   0  -5   4   62.29    3.00
   0  -5   4   59.99    2.90
   0  -5   4   54.89    4.20
   0  -5   4   59.19    4.80
   0  -5   4   59.09    3.10
   0  -5   4   56.49    2.80
   0  -5   4   56.69    2.80
  -1   5  -4  343.57    8.20
  -1   5  -4  329.47    8.30
  -1   5  -4  320.47   10.90
  -1   5  -4  343.67    8.00
  -1   5  -4  329.67    8.40
  -1   5  -4  325.27   11.10
   1  -5   4  339.37    7.40
   1  -5   4  328.97    7.20
   1  -5   4  332.87   12.30
   1  -5   4  323.97    7.20
   1  -5   4  334.47    7.10
  -2   5  -4   67.29    2.20
  -2   5  -4   69.09    2.10
  -2   5  -4   66.69    2.40
  -2   5  -4   62.89    4.50
  -2   5  -4   71.89    4.30
  -2   5  -4   72.19    2.30
   2  -5   4   63.59    4.30
   2  -5   4   68.09    5.10
  -3   5  -4   42.70    3.80
  -3   5  -4   37.10    1.30
  -3   5  -4   39.90    1.40
  -3   5  -4   39.60    3.60
  -3   5  -4   38.50    2.80
  -3   5  -4   38.20    1.10
  -3   5  -4   40.00    1.10
   3  -5   4   32.80    3.50
   3  -5   4   36.70    3.80
  -4   5  -4  515.15   16.20
  -4   5  -4  510.15   10.80
  -4   5  -4  499.35   10.90
  -4   5  -4  509.35   10.60
  -4   5  -4  520.75   13.30
  -4   5  -4  512.75   11.20
   4  -5   4  524.15   15.80
  -5   5  -4  294.97    7.70
  -5   5  -4  285.27    8.80
  -5   5  -4  292.57    8.10
  -5   5  -4  266.87   11.90
  -5   5  -4  282.27    7.30
  -5   5  -4  325.27    8.70
   5  -5   4  256.07   12.20
  -6   5  -4  204.58    6.80
  -6   5  -4  188.48   10.20
  -6   5  -4  203.08    6.40
  -6   5  -4  199.78    7.10
  -6   5  -4  200.48    7.10
   6  -5   4  199.28   11.20
  -7   5  -4    2.40    1.30
  -7   5  -4   -0.90    1.90
  -7   5  -4    3.10    1.40
  -7   5  -4    1.60    1.10
  -7   5  -4    1.80    1.10
   7  -5   4    2.30    3.10
  -8   5  -4    0.90    1.50
  -8   5  -4   -1.40    1.20
  -8   5  -4    4.20    2.60
  -8   5  -4   -2.80    1.70
  -8   5  -4    1.20    1.50
   8  -5   4   -0.60    1.80
   8   4  -4  120.59    8.80
   8   4  -4  120.19    8.30
   8   4  -4   99.19    8.40
   8   4  -4  113.49    8.60
  -8  -4   4  121.09    8.60
  -8  -4   4  121.89    8.20
  -8  -4   4  116.99    8.80
  -8  -4   4  123.69    9.20
  -8  -4   4  117.89    8.90
   7   4  -4   75.49    6.20
   7   4  -4   86.79    7.10
   7   4  -4   79.79    6.60
   7   4  -4   78.69    6.40
   7   4  -4   85.99    6.50
   7   4  -4   71.19    6.10
   7   4  -4   84.29    6.90
  -7  -4   4   83.79    7.20
  -7  -4   4   79.89    6.70
  -7  -4   4   86.19    6.80
  -7  -4   4   67.19    6.40
  -7  -4   4   80.39    6.20
  -7  -4   4   73.29    6.30
   6   4  -4   95.29    6.70
   6   4  -4   80.49    6.20
   6   4  -4   86.29    6.30
   6   4  -4   76.39    6.10
   6   4  -4   76.79    6.20
  -6  -4   4   76.69    6.30
  -6  -4   4   84.19    6.00
  -6  -4   4   79.89    6.30
  -6  -4   4   86.59    6.70
  -6  -4   4   73.89    5.90
   5   4  -4  119.89    8.30
   5   4  -4  122.29    6.90
   5   4  -4  123.39    6.20
   5   4  -4  112.69    7.00
   5   4  -4  123.29    7.00
   5   4  -4  112.49    6.80
   5   4  -4  125.29    7.20
  -5  -4   4  121.89    7.00
  -5  -4   4  125.99    6.10
  -5  -4   4  104.19    6.40
  -5  -4   4  118.99    8.60
  -5  -4   4  115.29    7.00
  -5  -4   4  121.49    6.70
   4   4  -4    3.60    1.50
   4   4  -4    6.30    1.90
   4   4  -4    4.60    1.60
   4   4  -4    2.30    1.50
   4   4  -4    5.70    1.60
   4   4  -4   13.40    2.60
   4   4  -4    4.80    1.60
  -4  -4   4    5.40    1.60
  -4  -4   4    5.50    1.60
  -4  -4   4    3.40    1.60
  -4  -4   4    2.50    1.50
  -4  -4   4    5.20    1.30
  -4  -4   4    4.90    1.90
  -4  -4   4    5.40    1.80
   3   4  -4   22.40    2.90
   3   4  -4   22.10    2.90
   3   4  -4   23.50    3.10
   3   4  -4   23.40    3.30
   3   4  -4   21.20    2.00
   3   4  -4   23.20    2.90
   3   4  -4   22.30    3.10
  -3  -4   4   20.70    2.80
  -3  -4   4   31.40    2.80
  -3  -4   4   19.00    2.70
  -3  -4   4   21.20    3.60
  -3  -4   4   22.80    1.80
  -3  -4   4   19.70    3.10
   2   4  -4 1582.14   33.80
   2   4  -4 1673.73   35.20
   2   4  -4 1657.73   35.40
   2   4  -4 1629.94   34.90
   2   4  -4 1678.83   36.30
   2   4  -4 1724.63   35.00
  -2  -4   4 1639.94   34.60
  -2  -4   4 1650.43   35.30
  -2  -4   4 1622.44   36.60
  -2  -4   4 1599.04   34.80
  -2  -4   4 1641.04   34.90
  -2  -4   4 1646.14   32.80
  -2  -4   4 1665.33   38.40
   1   4  -4  552.64   13.80
   1   4  -4  561.24   13.60
   1   4  -4  573.64   13.70
   1   4  -4  549.35   12.30
   1   4  -4  564.74   15.20
   1   4  -4  560.24   13.40
  -1  -4   4  549.05   12.30
  -1  -4   4  563.24   15.40
  -1  -4   4  559.64   13.30
  -1  -4   4  554.14   13.50
  -1  -4   4  569.44   13.50
  -1  -4   4  571.94   16.90
   0   4  -4  210.78    6.20
   0   4  -4  216.08    5.90
   0   4  -4  212.98    6.10
   0   4  -4  216.48    6.20
   0   4  -4  210.88    7.80
   0   4  -4  215.88    6.00
   0  -4   4  209.68    5.70
   0  -4   4  217.28    5.90
   0  -4   4  223.68    6.00
   0  -4   4  200.28    8.80
   0  -4   4  218.98    8.00
   0  -4   4  219.18    5.80
  -1   4  -4  303.87    9.90
  -1   4  -4  315.57    9.00
  -1   4  -4  318.37    6.90
  -1   4  -4  317.27    7.00
  -1   4  -4  314.87    7.10
   1  -4   4  324.07   11.30
   1  -4   4  311.07    9.20
  -2   4  -4    4.90    1.40
  -2   4  -4    5.00    1.50
  -2   4  -4    8.30    1.70
   2  -4   4    5.50    1.60
   2  -4   4    8.30    2.00
  -3   4  -4   77.49    1.90
  -3   4  -4   77.29    1.90
  -3   4  -4   76.09    4.70
  -3   4  -4   76.19    3.90
  -3   4  -4   74.19    2.10
   3  -4   4   77.09    5.00
   3  -4   4   65.39    4.60
  -4   4  -4   19.70    1.40
  -4   4  -4   16.80    2.20
  -4   4  -4   19.70    1.30
  -4   4  -4   20.30    3.10
  -4   4  -4   16.60    1.50
  -4   4  -4   20.20    1.40
   4  -4   4   20.30    3.60
   4  -4   4   21.30    3.20
  -5   4  -4 1202.68   26.70
  -5   4  -4 1221.88   25.00
  -5   4  -4 1204.38   25.70
  -5   4  -4 1189.48   25.20
  -5   4  -4 1230.98   30.80
  -5   4  -4 1195.38   25.40
   5  -4   4 1123.29   31.30
  -6   4  -4   24.00    2.40
  -6   4  -4   32.50    4.80
  -6   4  -4   23.80    2.40
  -6   4  -4   23.80    2.30
  -6   4  -4   24.30    3.00
  -6   4  -4   26.60    2.70
   6  -4   4   24.00    1.50
   6  -4   4   25.80    4.90
   6  -4   4   23.40    1.10
   6  -4   4   21.20    2.50
  -7   4  -4    0.40    1.10
  -7   4  -4   -0.20    1.50
  -7   4  -4   -0.70    1.10
  -7   4  -4   -1.40    1.70
  -7   4  -4    1.30    1.30
  -7   4  -4    1.90    1.50
  -7   4  -4    1.40    1.30
   7  -4   4   -0.50    2.30
   7  -4   4    1.30    1.10
   7  -4   4    1.90    0.90
   7  -4   4   -0.20    0.80
  -8   4  -4   57.29    7.10
  -8   4  -4   53.29    4.30
  -8   4  -4   45.00    4.20
  -8   4  -4   53.79    4.40
  -8   4  -4   50.49    4.00
   8  -4   4   47.90    3.50
   8  -4   4   42.20    7.30
   9   3  -4   13.10    3.90
   9   3  -4   14.40    4.70
   9   3  -4   14.80    4.40
  -9  -3   4   15.10    3.80
  -9  -3   4   11.20    3.60
  -9  -3   4   12.70    4.00
  -9  -3   4   12.60    3.70
  -9  -3   4   14.60    3.30
   8   3  -4   47.90    6.00
   8   3  -4   39.60    5.50
   8   3  -4   51.99    5.40
   8   3  -4   40.50    5.80
   8   3  -4   44.30    6.30
   8   3  -4   47.60    6.40
  -8  -3   4   45.60    6.30
  -8  -3   4   43.00    5.90
  -8  -3   4   58.39    5.50
  -8  -3   4   65.29    6.50
  -8  -3   4   44.00    5.70
   7   3  -4    4.80    2.10
   7   3  -4    0.70    2.30
   7   3  -4    7.70    2.60
   7   3  -4    4.40    2.30
   7   3  -4    3.80    2.00
   7   3  -4    8.20    2.50
  -7  -3   4    4.30    2.40
  -7  -3   4    5.70    2.30
  -7  -3   4    7.80    2.30
   6   3  -4   30.20    4.00
   6   3  -4   25.70    4.10
   6   3  -4   31.40    4.20
   6   3  -4   28.30    4.30
   6   3  -4   24.80    3.90
   6   3  -4   24.00    3.90
   6   3  -4   26.80    4.00
  -6  -3   4   31.20    4.30
  -6  -3   4   28.60    4.40
  -6  -3   4   31.20    4.40
  -6  -3   4   24.00    3.70
  -6  -3   4   20.30    3.50
   5   3  -4   40.90    4.00
   5   3  -4   44.70    3.60
   5   3  -4   35.30    3.60
   5   3  -4   35.60    3.60
   5   3  -4   41.70    4.00
   5   3  -4   45.30    3.80
   5   3  -4   46.00    4.20
  -5  -3   4   42.70    4.20
  -5  -3   4   39.10    3.80
  -5  -3   4   41.90    4.00
  -5  -3   4   41.00    3.90
  -5  -3   4   43.30    4.00
   4   3  -4    1.00    1.00
   4   3  -4   -0.30    0.60
   4   3  -4    1.10    1.00
   4   3  -4    1.40    0.90
   4   3  -4    0.00    0.80
   4   3  -4    2.10    1.10
   4   3  -4    0.70    0.70
  -4  -3   4   -0.30    1.00
  -4  -3   4    0.00    0.80
  -4  -3   4    0.10    0.80
  -4  -3   4    3.20    1.50
  -4  -3   4    0.60    0.80
  -4  -3   4   -0.40    1.10
   3   3  -4   36.10    3.00
   3   3  -4   37.30    2.90
   3   3  -4   36.40    2.90
   3   3  -4   39.60    3.00
   3   3  -4   31.30    2.90
   3   3  -4   34.90    2.20
  -3  -3   4   37.90    2.80
  -3  -3   4   34.00    2.10
  -3  -3   4   33.30    2.80
  -3  -3   4   34.90    3.10
  -3  -3   4   29.20    2.60
  -3  -3   4   33.80    3.10
  -3  -3   4   30.90    3.20
   2   3  -4   19.80    1.90
   2   3  -4   26.00    2.50
   2   3  -4   22.20    1.40
   2   3  -4   22.40    2.00
   2   3  -4   21.40    2.10
  -2  -3   4   22.40    3.20
  -2  -3   4   16.60    2.20
  -2  -3   4   22.70    2.00
  -2  -3   4   21.50    2.00
  -2  -3   4   25.50    2.10
  -2  -3   4   21.50    1.20
  -2  -3   4   22.70    2.30
   1   3  -4  187.98    4.30
   1   3  -4  177.98    4.70
   1   3  -4  190.78    5.90
   1   3  -4  186.28    5.70
   1   3  -4  185.68    5.90
   1   3  -4  184.48    7.50
   1   3  -4  185.28    5.70
  -1  -3   4  188.78    5.50
  -1  -3   4  177.58    5.50
  -1  -3   4  186.58    7.90
  -1  -3   4  195.68    6.90
  -1  -3   4  180.58    5.70
   0   3  -4  339.87    8.20
   0   3  -4  353.96    8.10
   0   3  -4  347.87    8.20
   0   3  -4  354.26    9.90
   0   3  -4  344.57    8.30
   0   3  -4  342.57    8.10
   0  -3   4  348.27    7.80
   0  -3   4  344.37    9.90
   0  -3   4  336.67    7.90
   0  -3   4  343.07    7.80
   0  -3   4  359.66    9.70
   0  -3   4  372.96   11.70
  -1   3  -4    3.40    0.50
  -1   3  -4    4.20    1.10
  -1   3  -4    3.40    0.30
  -1   3  -4    3.90    0.40
  -1   3  -4    3.50    0.40
  -1   3  -4    3.70    0.90
   1  -3   4    5.30    1.20
   1  -3   4    1.50    1.10
  -2   3  -4    2.60    1.00
   2  -3   4    4.70    1.40
   2  -3   4    2.70    1.40
  -3   3  -4    7.70    1.00
  -3   3  -4    9.10    0.90
  -3   3  -4    8.30    0.80
  -3   3  -4    6.40    1.40
  -3   3  -4    7.70    0.90
   3  -3   4    7.90    2.10
   3  -3   4    6.40    1.90
  -4   3  -4   29.70    2.60
  -4   3  -4   31.30    2.00
  -4   3  -4   29.50    2.10
  -4   3  -4   32.70    2.00
  -4   3  -4   31.30    2.00
   4  -3   4   33.70    1.60
   4  -3   4   29.80    1.10
   4  -3   4   29.70    1.10
   4  -3   4   27.70    4.10
   4  -3   4   31.30    1.40
  -5   3  -4  245.98    8.00
  -5   3  -4  250.97    7.60
  -5   3  -4  249.08    7.80
  -5   3  -4  247.68    7.80
  -5   3  -4  249.68    8.70
   5  -3   4  253.77    6.90
   5  -3   4  250.47    6.90
   5  -3   4  241.58   11.30
  -6   3  -4   13.60    3.00
  -6   3  -4    8.70    1.80
  -6   3  -4    7.50    1.70
  -6   3  -4   14.60    2.30
  -6   3  -4    8.60    2.00
  -6   3  -4   12.40    2.00
   6  -3   4   11.20    2.30
   6  -3   4    5.10    2.30
   6  -3   4    9.50    1.50
   6  -3   4    8.80    1.50
   6  -3   4    8.50    1.70
  -7   3  -4  121.79    6.50
  -7   3  -4  119.29    6.10
  -7   3  -4  123.79    6.10
  -7   3  -4  112.39    6.20
  -7   3  -4  112.89    7.20
  -7   3  -4  120.09    6.30
   7  -3   4  109.59    5.40
   7  -3   4  124.29    6.70
   7  -3   4  119.19    9.30
   7  -3   4  113.29    5.20
   7  -3   4  118.29    5.40
  -8   3  -4   10.30    2.70
  -8   3  -4   14.20    2.80
  -8   3  -4    7.30    2.60
  -8   3  -4   13.00    3.40
  -8   3  -4   10.10    3.30
   8  -3   4    8.60    3.40
   8  -3   4   11.30    3.70
   9   2  -4    2.10    2.10
   9   2  -4    3.10    3.20
   9   2  -4    0.80    2.60
   9   2  -4   -4.60    2.60
  -9  -2   4    0.20    2.10
  -9  -2   4    3.60    2.30
  -9  -2   4   -1.70    2.50
  -9  -2   4   -1.10    2.40
   8   2  -4   25.40    4.40
   8   2  -4   22.40    4.40
   8   2  -4   27.60    4.70
   8   2  -4   16.40    3.60
  -8  -2   4   21.60    3.90
  -8  -2   4   19.60    4.30
  -8  -2   4   20.30    4.10
  -8  -2   4   22.80    4.00
  -8  -2   4   26.10    4.10
   7   2  -4   14.80    3.30
   7   2  -4   13.70    2.90
   7   2  -4   11.50    3.10
   7   2  -4    7.00    2.40
   7   2  -4   12.30    3.20
   7   2  -4   15.10    3.20
  -7  -2   4   13.60    3.00
  -7  -2   4   15.20    3.50
  -7  -2   4   11.60    2.70
  -7  -2   4   15.60    3.00
  -7  -2   4   13.40    3.10
   6   2  -4   39.70    3.90
   6   2  -4   37.90    4.60
   6   2  -4   37.80    4.60
   6   2  -4   39.00    4.00
   6   2  -4   33.80    3.70
   6   2  -4   35.20    3.60
   6   2  -4   38.00    3.90
  -6  -2   4   38.00    3.70
  -6  -2   4   40.70    4.00
  -6  -2   4   32.10    4.20
  -6  -2   4   22.60    3.70
  -6  -2   4   38.60    3.70
  -6  -2   4   33.20    4.50
   5   2  -4    1.00    1.20
   5   2  -4    1.30    1.20
   5   2  -4    2.40    1.20
   5   2  -4    4.40    1.60
   5   2  -4    0.30    1.40
   5   2  -4   -0.10    0.90
   5   2  -4   -0.20    0.90
  -5  -2   4   -0.20    1.00
  -5  -2   4    3.30    1.30
  -5  -2   4    0.50    1.10
  -5  -2   4    0.30    0.80
  -5  -2   4    1.50    1.10
  -5  -2   4    0.20    1.10
   4   2  -4  331.87   10.80
   4   2  -4  312.67   10.60
   4   2  -4  303.67   10.30
   4   2  -4  319.17   10.70
   4   2  -4  320.67    9.30
   4   2  -4  298.67   10.10
  -4  -2   4  322.87   10.60
  -4  -2   4  309.07   10.80
  -4  -2   4  302.07   10.40
  -4  -2   4  313.07   10.00
  -4  -2   4  315.27   10.30
  -4  -2   4  317.57   10.90
   3   2  -4    5.10    1.30
   3   2  -4    5.60    1.00
   3   2  -4    3.80    1.20
   3   2  -4    4.10    1.30
   3   2  -4    4.90    1.30
   3   2  -4    3.20    1.00
  -3  -2   4    4.90    1.40
  -3  -2   4    3.90    1.20
  -3  -2   4    6.10    1.60
  -3  -2   4    5.90    1.40
  -3  -2   4    3.80    1.20
  -3  -2   4    4.70    1.60
   2   2  -4   16.10    1.70
   2   2  -4   15.20    2.20
   2   2  -4   13.30    1.70
   2   2  -4   12.50    0.90
   2   2  -4   14.60    1.80
  -2  -2   4   14.40    1.50
  -2  -2   4   12.10    1.70
  -2  -2   4   12.30    1.80
  -2  -2   4   13.40    0.70
  -2  -2   4   19.00    2.80
  -2  -2   4   14.80    1.50
  -2  -2   4   14.30    1.90
   1   2  -4  103.79    4.40
   1   2  -4  105.79    3.80
   1   2  -4  101.69    4.00
   1   2  -4  102.89    3.90
  -1  -2   4  106.49    4.20
  -1  -2   4  105.19    3.70
  -1  -2   4  108.29    5.40
  -1  -2   4  102.29    3.60
   0   2  -4   85.39    3.40
   0   2  -4   82.89    2.70
   0   2  -4   83.79    2.90
   0   2  -4   83.29    2.90
   0   2  -4   82.19    2.90
   0   2  -4   83.19    2.80
   0  -2   4   84.79    4.70
   0  -2   4   80.69    2.80
   0  -2   4   83.09    2.50
   0  -2   4   85.59    2.80
   0  -2   4   84.79    2.80
   0  -2   4   88.69    2.60
   0  -2   4   90.09    3.60
  -1   2  -4 1297.07   25.30
  -1   2  -4 1339.57   25.60
  -1   2  -4 1277.87   26.90
  -1   2  -4 1286.47   29.20
   1  -2   4 1345.87   29.80
   1  -2   4 1285.77   27.20
  -2   2  -4  194.68    4.90
  -2   2  -4  203.18    5.10
  -2   2  -4  197.68    5.00
  -2   2  -4  190.18    6.80
  -2   2  -4  208.58    5.20
   2  -2   4  203.88    4.10
   2  -2   4  207.08    7.30
   2  -2   4  191.18    7.80
   2  -2   4  193.38    4.00
  -3   2  -4  199.18    5.60
  -3   2  -4  203.38    5.90
  -3   2  -4  195.18    5.80
  -3   2  -4  196.08    7.10
  -3   2  -4  201.08    5.70
   3  -2   4  195.28    7.20
   3  -2   4  204.78    5.10
   3  -2   4  190.58    5.10
   3  -2   4  185.78    7.90
   3  -2   4  196.88    5.10
   3  -2   4  198.88    5.20
  -4   2  -4    7.20    1.30
  -4   2  -4    7.40    1.40
  -4   2  -4    7.00    1.40
  -4   2  -4    7.50    1.60
  -4   2  -4    6.70    1.30
   4  -2   4    7.60    1.20
   4  -2   4    6.90    2.40
   4  -2   4    8.20    1.80
   4  -2   4    6.90    1.20
   4  -2   4    8.00    1.50
   4  -2   4    9.20    1.40
  -5   2  -4   72.89    4.20
  -5   2  -4   68.89    4.70
  -5   2  -4   82.19    4.30
  -5   2  -4   71.99    4.00
  -5   2  -4   74.29    4.10
  -5   2  -4   75.69    4.70
   5  -2   4   75.79    4.80
   5  -2   4   76.59    3.80
   5  -2   4   76.89    3.80
   5  -2   4   74.19    3.80
   5  -2   4   78.29    6.10
   5  -2   4   75.99    3.90
  -6   2  -4    0.90    1.20
  -6   2  -4   -0.60    1.20
  -6   2  -4   -1.30    1.40
  -6   2  -4   -1.00    0.90
  -6   2  -4    0.50    1.10
  -6   2  -4    0.40    1.00
   6  -2   4   -2.50    0.90
   6  -2   4   -0.10    1.00
   6  -2   4    0.40    1.70
   6  -2   4    0.10    1.10
   6  -2   4   -1.60    1.00
  -7   2  -4   79.69    5.00
  -7   2  -4   78.69    5.60
  -7   2  -4   63.49    4.80
  -7   2  -4   80.99    5.30
  -7   2  -4   74.39    5.20
  -7   2  -4   74.59    5.70
   7  -2   4   76.19    5.40
   7  -2   4   71.69    4.80
   7  -2   4   80.89    5.00
   7  -2   4   71.19    4.70
   7  -2   4   84.99    7.80
  -8   2  -4   58.39    5.20
  -8   2  -4   56.89    5.40
  -8   2  -4   70.19    5.80
  -8   2  -4   56.49    4.90
  -8   2  -4   62.99    5.40
  -8   2  -4   53.29    4.80
   8  -2   4   58.29    8.10
   8  -2   4   63.59    6.50
   9   1  -4    4.80    2.60
   9   1  -4    3.30    3.00
   9   1  -4    4.10    2.90
  -9  -1   4    4.00    2.40
  -9  -1   4    3.00    1.90
  -9  -1   4    2.20    2.60
  -9  -1   4    3.30    2.70
  -9  -1   4    4.10    2.40
  -9  -1   4    0.40    2.10
   8   1  -4   43.00    6.00
   8   1  -4   33.20    5.00
   8   1  -4   37.80    4.60
   8   1  -4   33.30    4.90
   8   1  -4   37.10    5.10
   8   1  -4   33.70    5.10
  -8  -1   4   36.60    5.10
  -8  -1   4   31.00    5.20
  -8  -1   4   37.80    4.90
  -8  -1   4   29.50    4.60
  -8  -1   4   41.50    5.70
  -8  -1   4   39.40    5.10
  -8  -1   4   38.60    3.70
   7   1  -4    2.90    1.60
   7   1  -4    0.00    1.70
   7   1  -4    5.30    2.00
   7   1  -4    4.30    2.30
   7   1  -4    3.50    1.60
   7   1  -4    7.20    2.40
  -7  -1   4    3.20    2.00
  -7  -1   4    3.30    1.60
  -7  -1   4    4.80    1.70
  -7  -1   4    1.40    1.30
  -7  -1   4    1.80    1.80
   6   1  -4   27.40    3.80
   6   1  -4   24.60    3.80
   6   1  -4   23.20    3.60
   6   1  -4   24.50    3.60
   6   1  -4   20.90    3.50
   6   1  -4   18.80    3.10
  -6  -1   4   24.80    3.60
  -6  -1   4   23.10    3.50
  -6  -1   4   20.70    3.40
  -6  -1   4   25.50    2.80
  -6  -1   4   25.10    3.70
  -6  -1   4   21.40    3.30
   5   1  -4  224.48    8.90
   5   1  -4  222.88    8.50
   5   1  -4  212.88    8.70
   5   1  -4  213.28    8.20
   5   1  -4  219.08    8.60
   5   1  -4  212.28    8.90
  -5  -1   4  219.48    8.80
  -5  -1   4  234.68    8.70
  -5  -1   4  238.38    9.50
  -5  -1   4  223.38    8.70
  -5  -1   4  217.78    8.30
  -5  -1   4  221.48    8.90
   4   1  -4   46.90    3.50
   4   1  -4   46.40    3.50
   4   1  -4   46.20    3.40
   4   1  -4   51.79    3.60
   4   1  -4   51.79    3.70
   4   1  -4   49.30    3.10
  -4  -1   4   45.10    3.60
  -4  -1   4   50.49    3.60
  -4  -1   4   47.50    3.30
  -4  -1   4   51.49    3.60
  -4  -1   4   48.30    2.90
  -4  -1   4   51.79    3.60
  -4  -1   4   45.10    3.40
   3   1  -4    4.30    1.20
   3   1  -4    4.70    1.30
   3   1  -4    6.90    1.40
   3   1  -4    4.40    1.00
   3   1  -4    4.30    1.40
   3   1  -4    3.40    1.20
  -3  -1   4    5.90    1.30
  -3  -1   4    4.30    1.20
  -3  -1   4    3.60    1.10
  -3  -1   4    6.00    1.00
  -3  -1   4    4.50    1.30
  -3  -1   4    5.00    1.30
  -3  -1   4    5.80    1.50
   2   1  -4   42.50    3.10
   2   1  -4   43.60    2.60
   2   1  -4   46.90    2.70
   2   1  -4   39.00    2.40
   2   1  -4   38.40    2.60
  -2  -1   4   36.40    2.50
  -2  -1   4   35.10    2.50
  -2  -1   4   39.70    2.50
  -2  -1   4   38.10    1.50
  -2  -1   4   39.40    1.60
  -2  -1   4   42.30    3.10
  -2  -1   4   39.90    2.40
  -2  -1   4   42.00    2.50
   1   1  -4   19.30    1.60
   1   1  -4   17.80    0.90
   1   1  -4   17.60    1.50
   1   1  -4   19.10    1.60
   1   1  -4   20.60    1.60
   1   1  -4   17.20    1.30
  -1  -1   4   16.90    1.40
  -1  -1   4   18.20    1.60
  -1  -1   4   19.50    1.50
  -1  -1   4   17.70    1.40
  -1  -1   4   17.80    0.70
  -1  -1   4   16.50    2.40
   0   1  -4 1116.19   23.90
   0   1  -4 1089.29   22.10
   0   1  -4 1076.69   22.30
   0  -1   4 1110.29   21.90
   0  -1   4 1094.19   22.00
   0  -1   4 1052.29   24.90
   0  -1   4 1070.19   21.50
  -1   1  -4  109.69    4.10
  -1   1  -4  111.39    3.60
  -1   1  -4  108.59    3.60
  -1   1  -4  106.29    3.70
   1  -1   4  111.59    3.50
   1  -1   4  121.49    5.60
   1  -1   4  109.09    3.40
   1  -1   4  106.79    4.20
   1  -1   4  121.99    3.80
   1  -1   4  107.59    3.30
  -2   1  -4 2604.94   87.79
  -2   1  -4 2536.25   99.79
  -3   1  -4   -0.20    0.50
  -3   1  -4   -0.10    0.50
  -3   1  -4    1.10    0.70
  -3   1  -4    0.00    0.60
  -3   1  -4    0.20    0.60
  -3   1  -4    0.40    0.80
   3  -1   4   -0.50    0.40
   3  -1   4   -0.20    0.50
   3  -1   4    0.20    0.50
   3  -1   4   -0.80    0.70
   3  -1   4    0.60    0.50
   3  -1   4    0.20    0.70
  -4   1  -4   53.29    3.30
  -4   1  -4   54.39    3.40
  -4   1  -4   62.59    4.10
  -4   1  -4   56.39    3.50
  -4   1  -4   57.79    3.60
  -4   1  -4   62.09    3.70
   4  -1   4   53.89    3.20
   4  -1   4   56.29    4.00
   4  -1   4   53.69    3.00
   4  -1   4   55.69    4.60
   4  -1   4   59.19    3.40
   4  -1   4   60.59    3.50
  -5   1  -4   56.89    4.30
  -5   1  -4   50.99    3.60
  -5   1  -4   61.09    4.10
  -5   1  -4   55.39    4.00
  -5   1  -4   55.59    3.80
  -5   1  -4   65.59    4.30
   5  -1   4   54.49    3.60
   5  -1   4   51.59    3.40
   5  -1   4   61.99    5.30
   5  -1   4   59.29    4.40
   5  -1   4   52.69    3.60
   5  -1   4   49.70    3.60
  -6   1  -4   92.79    5.40
  -6   1  -4   88.19    5.80
  -6   1  -4   89.59    5.70
  -6   1  -4   87.59    5.30
  -6   1  -4  101.09    5.90
  -6   1  -4   91.99    5.60
   6  -1   4   89.19    7.20
   6  -1   4   98.99    5.30
   6  -1   4   88.99    5.00
   6  -1   4  103.19    6.10
  -7   1  -4   11.00    2.50
  -7   1  -4   10.20    2.60
  -7   1  -4    8.60    2.50
  -7   1  -4    7.30    2.20
  -7   1  -4    7.90    2.50
  -7   1  -4   10.00    2.70
   7  -1   4    9.00    3.30
   7  -1   4    8.20    2.60
   7  -1   4   11.20    2.60
   7  -1   4    8.90    2.40
  -8   1  -4  147.99    8.30
  -8   1  -4  146.49    8.50
  -8   1  -4  135.69    8.30
  -8   1  -4  151.38    8.80
  -8   1  -4  146.49    8.70
  -8   1  -4  147.09    8.50
   8  -1   4  136.49   10.60
   8  -1   4  119.49    7.20
   8  -1   4  137.19    8.70
   9   0  -4    1.80    1.90
   9   0  -4    0.60    2.70
   9   0  -4    1.60    2.50
   9   0  -4    2.90    2.70
  -9   0   4   -0.10    1.60
  -9   0   4    2.50    2.00
  -9   0   4    0.70    2.60
  -9   0   4   -0.80    2.00
  -9   0   4   -0.70    2.10
  -9   0   4    1.50    1.70
   8   0  -4    1.50    1.50
   8   0  -4    2.80    1.90
   8   0  -4   -2.90    1.80
   8   0  -4    1.50    1.50
   8   0  -4    3.70    2.30
   8   0  -4   -0.30    1.10
  -8   0   4    0.10    1.10
  -8   0   4    0.10    1.50
  -8   0   4   -1.60    1.60
  -8   0   4   -1.20    1.70
  -8   0   4    2.80    2.00
  -8   0   4    1.10    1.40
   7   0  -4   42.40    4.40
   7   0  -4   30.70    4.20
   7   0  -4   40.80    4.00
   7   0  -4   34.60    4.00
   7   0  -4   35.80    4.60
   7   0  -4   33.80    4.70
  -7   0   4   34.50    5.30
  -7   0   4   44.90    4.50
  -7   0   4   36.70    2.90
  -7   0   4   44.50    4.30
  -7   0   4   44.50    4.20
  -7   0   4   32.00    4.50
   6   0  -4   11.80    2.50
   6   0  -4    8.00    1.80
   6   0  -4   13.30    2.80
   6   0  -4    8.50    2.10
   6   0  -4   10.50    2.30
   6   0  -4   11.30    2.50
  -6   0   4   12.00    2.40
  -6   0   4    8.30    2.20
  -6   0   4    7.30    1.90
  -6   0   4   10.40    1.80
  -6   0   4   10.10    2.40
  -6   0   4    6.00    2.00
  -6   0   4    7.60    2.30
   5   0  -4  132.79    6.60
   5   0  -4  132.09    6.50
   5   0  -4  123.49    6.10
   5   0  -4  127.29    6.60
   5   0  -4  126.39    6.20
  -5   0   4  130.59    5.90
  -5   0   4  125.79    6.60
  -5   0   4  130.89    6.20
  -5   0   4  125.09    5.40
  -5   0   4  131.09    6.30
  -5   0   4  127.69    6.40
   4   0  -4    2.40    1.00
   4   0  -4    3.30    1.00
   4   0  -4    1.00    0.80
   4   0  -4    1.90    1.00
   4   0  -4    2.20    1.30
  -4   0   4    1.00    0.90
  -4   0   4    2.80    1.50
  -4   0   4    1.50    0.90
  -4   0   4    2.70    1.20
  -4   0   4    2.60    1.00
  -4   0   4    4.50    1.40
  -4   0   4    1.40    0.70
   3   0  -4   -0.30    0.70
   3   0  -4   -0.50    0.60
   3   0  -4   -0.40    0.60
  -3   0   4    0.10    0.60
  -3   0   4   -0.20    0.60
  -3   0   4   -0.10    0.50
  -3   0   4   -0.70    0.70
  -3   0   4    0.60    0.40
  -3   0   4   -0.70    0.60
  -3   0   4    2.60    0.80
   2   0  -4  492.25   13.60
   2   0  -4  477.75   12.50
   2   0  -4  495.75   12.60
   2   0  -4  490.55   11.10
   2   0  -4  479.95   12.40
  -2   0   4  473.05   12.20
  -2   0   4  480.55   11.10
  -2   0   4  474.55   12.30
  -2   0   4  513.75   11.60
  -2   0   4  488.85   11.50
  -2   0   4  509.15   12.80
  -2   0   4  483.95   13.00
  -2   0   4  492.75   12.40
   1   0  -4  812.92   18.50
   1   0  -4  803.92   18.00
   1   0  -4  806.92   17.10
   1   0  -4  821.32   18.10
   1   0  -4  836.92   18.30
   1   0  -4  833.02   18.30
  -1   0   4  807.22   17.20
  -1   0   4  815.92   18.20
  -1   0   4  829.62   19.70
  -1   0   4  817.12   18.10
  -1   0   4  804.52   18.00
  -1   0   4  814.92   18.00
   0   0  -4  283.37    7.80
   0   0  -4  287.87    8.50
   0   0  -4  296.67    7.90
   0   0  -4  296.57    8.00
   0   0  -4  303.57    8.00
   0   0  -4  278.37    7.90
   0   0   4  287.57    7.80
   0   0   4  289.47    7.70
   0   0   4  288.97    7.50
   0   0   4  296.77    8.70
   0   0   4  299.17    7.90
  -1   0  -4  362.66   10.40
  -1   0  -4  376.66    9.70
  -1   0  -4  358.96    9.50
  -1   0  -4  374.96    7.70
  -1   0  -4  358.36    9.50
  -1   0  -4  391.76    9.90
   1   0   4  380.46   10.70
   1   0   4  384.96    9.50
   1   0   4  368.66   10.00
   1   0   4  382.76    9.60
  -2   0  -4 1293.47   27.30
  -2   0  -4 1269.77   27.30
  -2   0  -4 1315.67   26.00
  -2   0  -4 1275.67   27.50
  -2   0  -4 1285.37   28.60
   2   0   4 1306.77   27.40
   2   0   4 1305.47   27.30
   2   0   4 1273.57   28.60
   2   0   4 1286.77   26.80
   2   0   4 1297.77   28.80
  -3   0  -4  170.98    6.30
  -3   0  -4  172.88    5.70
  -3   0  -4  174.08    6.50
  -3   0  -4  160.88    6.80
  -3   0  -4  150.48    6.10
  -3   0  -4  169.28    6.20
   3   0   4  161.78    6.20
   3   0   4  167.78    7.00
   3   0   4  170.28    6.30
   3   0   4  162.98    5.80
   3   0   4  164.98    7.30
  -4   0  -4  602.34   16.90
  -4   0  -4  585.74   15.80
  -4   0  -4  608.34   16.20
  -4   0  -4  597.24   15.70
  -4   0  -4  612.64   16.20
  -4   0  -4  579.64   15.20
   4   0   4  620.64   15.90
   4   0   4  605.54   17.10
   4   0   4  595.44   15.50
   4   0   4  577.94   15.10
   4   0   4  605.94   15.90
  -5   0  -4   69.19    4.60
  -5   0  -4   74.09    4.60
  -5   0  -4   69.39    5.40
  -5   0  -4   76.39    5.70
  -5   0  -4   75.59    5.30
   5   0   4   69.09    5.00
   5   0   4   73.99    6.00
   5   0   4   67.69    4.20
   5   0   4   68.89    4.40
   5   0   4   66.59    4.60
  -6   0  -4    0.90    1.40
  -6   0  -4    4.30    1.50
  -6   0  -4    2.30    1.40
  -6   0  -4    0.70    1.60
  -6   0  -4    2.00    1.50
  -6   0  -4    1.30    1.40
   6   0   4   -0.70    1.50
   6   0   4    6.00    1.90
   6   0   4   -0.70    1.50
   6   0   4    1.20    1.30
   6   0   4    2.90    2.00
  -7   0  -4   -2.10    1.50
  -7   0  -4   -3.80    1.50
  -7   0  -4   -0.40    1.50
  -7   0  -4    0.80    1.80
  -7   0  -4   -1.60    1.50
  -7   0  -4   -0.70    1.80
   7   0   4   -0.70    1.80
   7   0   4    2.20    1.80
   7   0   4   -1.70    1.60
  -8   0  -4   78.69    6.90
  -8   0  -4   79.89    6.50
  -8   0  -4   87.49    6.60
  -8   0  -4   89.29    7.00
  -8   0  -4   82.89    6.80
   8   0   4   86.79   11.50
  10  -1  -4    5.90    3.60
  10  -1  -4   -6.60    2.40
  10  -1  -4    1.30    3.00
  10  -1  -4    0.10    2.10
 -10   1   4    5.70    3.30
 -10   1   4   -2.40    2.70
 -10   1   4    2.40    2.20
 -10   1   4    0.30    2.20
   9  -1  -4   15.70    4.30
   9  -1  -4   17.50    2.90
   9  -1  -4   13.70    3.50
   9  -1  -4   14.70    4.10
  -9   1   4   12.20    3.60
  -9   1   4   16.80    3.50
  -9   1   4   15.20    3.70
  -9   1   4   17.60    3.80
  -9   1   4   24.80    4.10
   8  -1  -4   42.90    5.30
   8  -1  -4   41.90    5.60
   8  -1  -4   38.20    4.60
   8  -1  -4   34.80    4.90
   8  -1  -4   47.00    6.30
  -8   1   4   27.20    4.00
  -8   1   4   38.10    5.10
  -8   1   4   33.20    5.20
  -8   1   4   35.50    5.60
  -8   1   4   31.40    4.70
   7  -1  -4    7.30    2.20
   7  -1  -4    7.30    2.40
   7  -1  -4    7.00    2.60
   7  -1  -4    6.50    2.50
   7  -1  -4   12.10    2.10
   7  -1  -4   11.40    2.60
  -7   1   4    9.80    2.50
  -7   1   4   10.10    2.70
  -7   1   4    3.70    1.90
  -7   1   4    9.80    2.30
  -7   1   4    9.90    2.70
   6  -1  -4   99.29    6.00
   6  -1  -4   90.49    4.70
   6  -1  -4   93.09    5.50
   6  -1  -4   95.99    6.20
   6  -1  -4  100.29    5.90
   6  -1  -4  100.19    6.10
  -6   1   4  102.89    5.70
  -6   1   4   89.59    5.50
  -6   1   4  109.09    6.30
  -6   1   4   92.29    6.10
  -6   1   4   97.59    4.00
  -6   1   4   89.39    5.60
  -6   1   4   96.09    6.00
   5  -1  -4  533.25   16.10
   5  -1  -4  558.74   15.90
   5  -1  -4  570.14   15.70
   5  -1  -4  550.34   15.90
   5  -1  -4  550.44   15.90
  -5   1   4  544.85   15.40
  -5   1   4  573.04   16.30
  -5   1   4  558.04   16.10
  -5   1   4  573.14   15.60
  -5   1   4  556.44   13.60
  -5   1   4  554.54   16.40
  -5   1   4  563.04   15.90
   4  -1  -4  402.96   11.60
   4  -1  -4  388.56   11.60
   4  -1  -4  375.16   11.80
   4  -1  -4  374.26   11.80
  -4   1   4  384.56   11.50
  -4   1   4  392.16   12.20
  -4   1   4  407.96   12.00
  -4   1   4  395.06   11.30
  -4   1   4  389.16   11.90
  -4   1   4  396.86   11.60
   3  -1  -4  306.67    9.60
   3  -1  -4  318.67    8.90
   3  -1  -4  319.87    9.60
   3  -1  -4  303.27    9.60
   3  -1  -4  305.27    9.80
  -3   1   4  295.97    8.80
  -3   1   4  298.47    9.50
  -3   1   4  307.97    9.90
  -3   1   4  314.77    9.50
  -3   1   4  317.27    9.70
   2  -1  -4 1943.81   39.80
  -2   1   4 1873.11   39.70
  -2   1   4 1902.21   39.40
  -2   1   4 1939.41   39.70
   1  -1  -4  366.56    9.70
   1  -1  -4  357.66   10.20
   1  -1  -4  390.56   10.40
   1  -1  -4  377.26   10.10
   1  -1  -4  369.36   10.10
   1  -1  -4  367.76   10.00
  -1   1   4  381.56   10.10
  -1   1   4  382.56    9.90
  -1   1   4  368.06   10.10
  -1   1   4  364.36   10.00
  -1   1   4  374.46   10.30
  -1   1   4  364.66   10.10
   0  -1  -4 1292.27   27.30
   0  -1  -4 1293.47   29.00
   0  -1  -4 1243.78   28.40
   0  -1  -4 1207.38   27.00
   0   1   4 1262.67   27.00
   0   1   4 1267.37   26.90
   0   1   4 1261.27   26.70
   0   1   4 1276.77   27.40
  -1  -1  -4  278.77    8.50
  -1  -1  -4  289.07    9.20
  -1  -1  -4  287.77    8.60
  -1  -1  -4  297.27    8.80
  -1  -1  -4  293.67    8.80
  -1  -1  -4  291.77    9.10
  -1  -1  -4  281.17    6.70
   1   1   4  288.07    8.50
   1   1   4  293.37    9.20
   1   1   4  273.37    6.50
   1   1   4  272.67    8.20
   1   1   4  282.17    8.70
   1   1   4  279.47    8.40
   1   1   4  287.27    8.60
  -2  -1  -4    0.60    0.70
  -2  -1  -4    1.20    0.60
  -2  -1  -4   -0.80    0.70
  -2  -1  -4    0.70    0.90
  -2  -1  -4    0.10    0.60
   2   1   4    1.60    0.90
   2   1   4    0.50    0.70
   2   1   4    0.70    0.70
   2   1   4    0.60    0.70
   2   1   4    0.00    0.70
   2   1   4   -0.50    0.70
  -3  -1  -4  389.86   10.30
  -3  -1  -4  389.96   12.30
  -3  -1  -4  391.66   11.50
  -3  -1  -4  361.06   11.50
  -3  -1  -4  376.56   11.60
  -3  -1  -4  387.56   11.60
   3   1   4  371.46   11.00
   3   1   4  378.86   12.50
   3   1   4  370.76   10.80
   3   1   4  383.86   12.40
   3   1   4  382.56   11.50
   3   1   4  369.96   11.50
  -4  -1  -4   60.39    4.40
  -4  -1  -4   59.69    4.20
  -4  -1  -4   56.29    3.80
  -4  -1  -4   65.39    4.80
  -4  -1  -4   67.29    4.40
  -4  -1  -4   61.49    4.40
   4   1   4   64.99    5.20
   4   1   4   65.69    4.40
   4   1   4   59.79    4.30
   4   1   4   60.99    4.00
   4   1   4   71.59    4.20
   4   1   4   67.39    4.80
  -5  -1  -4  163.98    8.50
  -5  -1  -4  182.18    8.00
  -5  -1  -4  179.38    8.50
  -5  -1  -4  177.08    8.30
  -5  -1  -4  177.38    8.10
   5   1   4  180.38    7.90
   5   1   4  168.58    7.60
   5   1   4  171.88    8.50
   5   1   4  184.28    9.60
  -6  -1  -4   21.00    3.60
  -6  -1  -4   25.50    3.80
  -6  -1  -4   22.60    3.50
  -6  -1  -4   18.50    3.70
  -6  -1  -4   19.50    3.10
  -6  -1  -4   22.30    3.50
   6   1   4   18.60    3.30
   6   1   4   21.00    3.90
   6   1   4   24.70    3.90
   6   1   4   25.70    3.80
   6   1   4   19.30    4.40
  -7  -1  -4   10.40    3.20
  -7  -1  -4    8.50    2.80
  -7  -1  -4    6.50    2.50
  -7  -1  -4    6.40    2.70
  -7  -1  -4   10.80    2.90
  -7  -1  -4    9.80    2.90
   7   1   4    7.50    2.50
   7   1   4   14.90    3.50
   7   1   4    3.80    3.00
  10  -2  -4  113.29    9.40
  10  -2  -4  117.79    9.10
 -10   2   4  120.59    8.80
 -10   2   4  115.09    8.50
 -10   2   4  133.89    9.70
 -10   2   4   95.49    7.70
 -10   2   4   98.89   10.00
   9  -2  -4   11.70    3.50
   9  -2  -4   10.50    2.20
   9  -2  -4   12.30    4.00
  -9   2   4    9.20    2.70
  -9   2   4    8.70    3.20
  -9   2   4   10.00    2.60
  -9   2   4    5.70    2.50
  -9   2   4    5.80    2.80
   8  -2  -4  619.64   20.00
   8  -2  -4  597.04   19.40
   8  -2  -4  602.44   15.50
   8  -2  -4  593.54   18.90
   8  -2  -4  571.94   20.40
  -8   2   4  566.64   19.20
  -8   2   4  605.24   19.80
  -8   2   4  608.24   18.60
  -8   2   4  613.34   20.30
  -8   2   4  581.44   18.80
   7  -2  -4   48.60    4.80
   7  -2  -4   48.10    4.80
   7  -2  -4   48.20    4.60
   7  -2  -4   54.39    4.70
   7  -2  -4   51.59    4.40
   7  -2  -4   51.79    3.30
  -7   2   4   45.70    4.30
  -7   2   4   46.50    4.20
  -7   2   4   44.10    4.50
  -7   2   4   50.89    5.10
  -7   2   4   50.59    4.70
   6  -2  -4    8.40    2.40
   6  -2  -4    7.20    2.00
   6  -2  -4    6.10    1.30
   6  -2  -4    9.10    2.30
   6  -2  -4   10.30    2.40
   6  -2  -4    7.30    2.00
  -6   2   4   10.30    2.50
  -6   2   4    6.90    2.10
  -6   2   4    6.40    1.70
  -6   2   4   10.80    2.50
  -6   2   4    7.10    2.20
  -6   2   4   10.70    2.60
   5  -2  -4   23.10    3.20
   5  -2  -4   23.80    3.20
   5  -2  -4   21.50    3.00
   5  -2  -4   26.20    3.70
  -5   2   4   24.80    3.20
  -5   2   4   25.10    3.30
  -5   2   4   25.30    3.20
  -5   2   4   18.60    3.20
  -5   2   4   25.20    3.30
   4  -2  -4   30.10    2.90
   4  -2  -4   34.60    3.00
   4  -2  -4   26.20    3.20
   4  -2  -4   33.50    3.10
   4  -2  -4   29.40    2.60
   4  -2  -4   26.90    2.80
  -4   2   4   31.10    3.00
  -4   2   4   31.70    2.90
  -4   2   4   32.20    2.90
  -4   2   4   32.10    2.90
  -4   2   4   32.10    3.10
   3  -2  -4  437.66   12.30
   3  -2  -4  422.16   11.90
   3  -2  -4  408.66   12.20
   3  -2  -4  459.95   12.80
   3  -2  -4  429.56   12.60
   3  -2  -4  428.96   10.80
  -3   2   4  473.75   12.90
  -3   2   4  400.46   12.10
  -3   2   4  458.55   12.30
  -3   2   4  424.56   12.20
  -3   2   4  433.46   12.80
   2  -2  -4    6.40    1.40
   2  -2  -4    5.30    1.30
   2  -2  -4    6.10    1.40
   2  -2  -4    7.50    1.60
   2  -2  -4    5.70    1.40
   2  -2  -4    5.00    1.10
  -2   2   4    7.10    1.60
  -2   2   4    6.20    1.50
  -2   2   4    5.10    1.40
  -2   2   4    6.60    1.70
  -2   2   4    6.00    1.40
   1  -2  -4 2001.30   41.10
   1  -2  -4 2055.79   41.80
  -1   2   4 1909.81   41.00
  -1   2   4 1943.41   41.40
  -1   2   4 2062.39   41.40
   0  -2  -4   60.69    3.60
   0  -2  -4   57.39    3.40
   0  -2  -4   54.99    3.50
   0  -2  -4   52.29    3.30
   0  -2  -4   53.49    3.30
   0  -2  -4   58.39    3.50
   0   2   4   50.39    3.40
   0   2   4   56.79    3.50
   0   2   4   55.09    3.50
   0   2   4   56.19    3.40
   0   2   4   49.80    3.40
   0   2   4   52.39    2.40
   0   2   4   59.09    3.50
  -1  -2  -4    9.40    1.80
  -1  -2  -4   11.00    2.00
  -1  -2  -4    9.20    1.80
  -1  -2  -4    9.50    1.80
  -1  -2  -4   10.60    2.00
  -1  -2  -4    9.80    1.30
  -1  -2  -4   13.90    2.20
   1   2   4   11.10    1.90
   1   2   4   10.80    1.10
   1   2   4    9.60    1.90
   1   2   4    7.60    1.60
   1   2   4    9.40    1.80
   1   2   4   12.40    2.00
   1   2   4    8.90    1.80
  -2  -2  -4    8.40    1.90
  -2  -2  -4    7.90    2.10
  -2  -2  -4   10.60    2.00
  -2  -2  -4    9.40    1.40
  -2  -2  -4    7.30    1.80
  -2  -2  -4    8.60    2.00
  -2  -2  -4   11.30    2.00
   2   2   4    9.60    1.90
   2   2   4    9.80    1.40
   2   2   4   12.00    2.20
   2   2   4   10.50    2.00
   2   2   4    6.70    1.50
   2   2   4    9.60    2.00
   2   2   4   10.80    2.00
  -3  -2  -4  117.69    5.20
  -3  -2  -4  115.59    6.10
  -3  -2  -4  121.59    6.30
  -3  -2  -4  108.99    5.90
  -3  -2  -4  114.09    6.30
  -3  -2  -4  119.59    6.00
   3   2   4  118.09    6.30
   3   2   4  117.19    6.00
   3   2   4  114.29    5.70
   3   2   4  110.39    6.00
   3   2   4  108.89    4.90
   3   2   4  125.59    6.70
   3   2   4  112.79    5.60
  -4  -2  -4  250.97   10.20
  -4  -2  -4  275.27   10.20
  -4  -2  -4  271.77   10.70
  -4  -2  -4  274.87    9.40
  -4  -2  -4  262.47   10.90
  -4  -2  -4  253.47   10.10
   4   2   4  245.18   10.30
   4   2   4  263.57    9.80
   4   2   4  282.47   11.50
   4   2   4  247.48    9.40
   4   2   4  263.97   10.20
  -5  -2  -4  231.58   10.20
  -5  -2  -4  221.58   10.40
  -5  -2  -4  215.88    9.80
  -5  -2  -4  215.98    9.90
  -5  -2  -4  218.48    9.00
  -5  -2  -4  223.18    9.70
   5   2   4  213.48    9.40
   5   2   4  212.38    9.70
   5   2   4  235.58    9.40
   5   2   4  217.98   11.00
  -6  -2  -4   96.89    7.10
  -6  -2  -4  112.39    7.10
  -6  -2  -4  103.69    6.50
  -6  -2  -4  102.69    7.10
  -6  -2  -4  102.69    7.00
  -6  -2  -4  104.89    7.50
   6   2   4  103.79    8.20
   6   2   4  108.19    7.10
   6   2   4  106.69    6.60
   6   2   4   96.09    6.60
   6   2   4  110.99    8.10
  -7  -2  -4    1.70    2.50
  -7  -2  -4    3.80    2.60
  -7  -2  -4   -0.10    1.90
  -7  -2  -4    1.50    2.40
   7   2   4   -1.80    1.80
   7   2   4    1.70    2.50
  10  -3  -4   93.39    8.60
  10  -3  -4   58.49    7.40
 -10   3   4   79.19    7.40
 -10   3   4   85.49    7.20
 -10   3   4   78.79    6.80
 -10   3   4   84.39    7.90
 -10   3   4   82.99    7.60
   9  -3  -4   96.59    7.50
   9  -3  -4   85.19    8.00
   9  -3  -4   88.19    7.10
  -9   3   4   91.69    7.00
  -9   3   4   95.49    6.80
  -9   3   4   85.19    7.40
  -9   3   4   86.59    7.50
  -9   3   4   75.09    7.70
   8  -3  -4  100.29    7.60
   8  -3  -4  116.09    7.80
   8  -3  -4  107.59    7.20
   8  -3  -4  127.99    7.60
   8  -3  -4  104.69    6.90
   8  -3  -4  109.59    4.40
  -8   3   4  117.09    7.70
  -8   3   4  108.59    7.70
  -8   3   4  117.39    7.40
  -8   3   4  113.39    7.70
  -8   3   4  103.79    6.60
   7  -3  -4   15.60    3.40
   7  -3  -4   16.40    3.00
   7  -3  -4   18.60    3.20
   7  -3  -4   16.80    1.70
   7  -3  -4   19.90    3.20
   7  -3  -4   11.50    3.10
  -7   3   4   18.50    3.80
  -7   3   4   13.80    3.10
  -7   3   4   11.70    3.70
  -7   3   4   16.60    3.20
  -7   3   4   15.50    3.00
  -7   3   4   20.90    3.60
   6  -3  -4  354.86   12.70
   6  -3  -4  369.96   13.00
   6  -3  -4  367.76    9.40
   6  -3  -4  386.06   12.70
  -6   3   4  363.86   13.20
  -6   3   4  379.46   13.20
  -6   3   4  374.66   13.00
  -6   3   4  376.46   13.60
  -6   3   4  380.06   12.70
   5  -3  -4   20.70    1.70
   5  -3  -4   25.30    3.80
   5  -3  -4   21.50    3.40
   5  -3  -4   26.90    3.70
   5  -3  -4   21.50    3.10
   5  -3  -4   21.30    3.20
  -5   3   4   19.20    3.10
  -5   3   4   20.10    3.10
  -5   3   4   24.70    3.30
  -5   3   4   21.90    3.20
  -5   3   4   19.80    3.00
   4  -3  -4  978.40   23.80
   4  -3  -4  990.50   24.00
   4  -3  -4  980.20   24.00
   4  -3  -4  955.80   20.80
   4  -3  -4  957.90   24.20
   4  -3  -4 1031.20   24.50
  -4   3   4  984.50   24.30
  -4   3   4  981.40   23.90
  -4   3   4 1015.50   24.80
  -4   3   4  981.80   24.10
  -4   3   4 1004.90   24.30
   3  -3  -4 2074.99   44.10
   3  -3  -4 2089.99   44.10
   3  -3  -4 2060.89   44.30
   3  -3  -4 2122.69   44.20
   3  -3  -4 2054.39   41.50
   3  -3  -4 2050.89   44.40
  -3   3   4 2142.59   44.30
  -3   3   4 2060.59   44.10
  -3   3   4 2069.69   44.40
  -3   3   4 2116.59   44.70
  -3   3   4 2078.29   44.10
   2  -3  -4 1601.14   35.30
   2  -3  -4 1585.24   35.20
   2  -3  -4 1665.53   35.90
   2  -3  -4 1646.04   35.80
   2  -3  -4 1548.55   35.10
  -2   3   4 1689.43   35.80
  -2   3   4 1580.54   35.60
  -2   3   4 1652.73   35.40
  -2   3   4 1645.84   35.40
  -2   3   4 1655.73   33.80
  -2   3   4 1640.44   35.30
   1  -3  -4 1956.80   41.60
   1  -3  -4 1982.80   41.40
   1  -3  -4 2028.20   42.00
   1  -3  -4 2000.80   41.50
   1  -3  -4 1893.21   41.30
  -1   3   4 1915.71   39.70
  -1   3   4 1961.40   41.70
  -1   3   4 1976.00   40.50
  -1   3   4 1875.91   41.10
   0  -3  -4    1.00    0.90
   0  -3  -4    0.70    0.90
   0  -3  -4    2.10    1.20
   0  -3  -4    0.30    0.70
   0  -3  -4   -0.20    0.50
   0  -3  -4    1.00    0.60
   0   3   4   -0.10    0.60
   0   3   4   -0.10    0.80
   0   3   4    0.60    0.60
   0   3   4    0.70    0.50
   0   3   4    0.10    0.40
   0   3   4    1.00    1.10
   0   3   4    1.60    1.00
  -1  -3  -4  614.24   15.00
  -1  -3  -4  601.74   16.60
  -1  -3  -4  628.14   17.20
  -1  -3  -4  651.43   16.90
  -1  -3  -4  612.14   17.20
  -1  -3  -4  621.84   16.90
  -1  -3  -4  618.24   16.60
   1   3   4  601.14   16.80
   1   3   4  617.14   14.60
   1   3   4  623.24   16.70
   1   3   4  582.94   16.10
   1   3   4  602.74   16.50
   1   3   4  595.74   16.60
  -2  -3  -4  112.69    6.10
  -2  -3  -4  113.69    6.00
  -2  -3  -4  114.29    5.10
  -2  -3  -4  114.49    6.40
  -2  -3  -4  111.49    5.90
  -2  -3  -4  116.09    6.30
  -2  -3  -4  111.99    6.20
   2   3   4  108.69    5.80
   2   3   4  106.19    6.00
   2   3   4  114.79    6.20
   2   3   4  118.29    4.90
   2   3   4  117.89    7.10
   2   3   4  117.89    6.20
   2   3   4  117.39    5.80
  -3  -3  -4  870.61   23.30
  -3  -3  -4  887.91   23.00
  -3  -3  -4  882.61   23.10
  -3  -3  -4  862.41   21.40
  -3  -3  -4  867.61   23.70
  -3  -3  -4  900.41   24.40
  -3  -3  -4  897.71   23.70
   3   3   4  912.31   22.60
   3   3   4  901.01   23.90
   3   3   4  859.81   23.20
   3   3   4  872.21   23.40
   3   3   4  844.02   20.90
   3   3   4  885.31   23.20
  -4  -3  -4  232.08    9.90
  -4  -3  -4  228.18   10.00
  -4  -3  -4  233.78    9.30
  -4  -3  -4  217.08   11.60
  -4  -3  -4  229.38   10.40
  -4  -3  -4  240.68   11.00
   4   3   4  231.28   10.30
   4   3   4  238.58    9.80
   4   3   4  238.68    9.60
   4   3   4  223.48    8.80
   4   3   4  229.58   10.20
   4   3   4  243.88   10.30
   4   3   4  243.18   11.10
  -5  -3  -4  149.39    8.90
  -5  -3  -4  153.38    8.90
  -5  -3  -4  156.68    8.70
  -5  -3  -4  150.68    8.60
  -5  -3  -4  152.58    7.70
  -5  -3  -4  145.59    8.10
   5   3   4  156.78   10.50
   5   3   4  153.98    8.00
   5   3   4  160.28    8.50
   5   3   4  167.48    8.50
   5   3   4  167.18    9.60
   5   3   4  149.79    8.60
  -6  -3  -4    9.50    2.70
  -6  -3  -4   11.20    3.10
  -6  -3  -4   15.80    3.50
  -6  -3  -4   10.90    3.20
  -6  -3  -4    8.00    2.60
  -6  -3  -4   12.50    3.30
   6   3   4    9.60    3.50
   6   3   4   18.00    3.50
   6   3   4   11.00    2.70
  -7  -3  -4    3.90    3.20
  -7  -3  -4   -4.40    2.70
  -7  -3  -4   -0.90    2.20
  -7  -3  -4   -0.40    2.10
  -7  -3  -4   -4.10    2.40
  -7  -3  -4    3.40    2.50
   7   3   4   -3.20    2.20
   7   3   4    2.50    2.70
   7   3   4    0.50    2.60
   9  -4  -4   19.50    4.70
   9  -4  -4   17.90    3.80
   9  -4  -4   20.80    4.30
  -9   4   4   16.50    4.00
  -9   4   4   22.50    4.20
  -9   4   4   23.30    4.20
  -9   4   4   15.00    3.50
  -9   4   4   22.80    4.70
   8  -4  -4    2.40    2.00
   8  -4  -4    5.90    2.20
   8  -4  -4    7.50    2.50
   8  -4  -4    5.90    2.20
   8  -4  -4    5.30    2.50
  -8   4   4    3.20    1.90
  -8   4   4    4.70    2.30
  -8   4   4    1.20    2.00
  -8   4   4    3.60    1.70
  -8   4   4    3.70    2.30
   7  -4  -4  160.18    8.40
   7  -4  -4  167.98    8.30
   7  -4  -4  145.59    9.10
  -7   4   4  168.18    9.30
  -7   4   4  158.18    8.90
  -7   4   4  179.88    8.50
  -7   4   4  172.18    8.70
  -7   4   4  157.38    8.50
   6  -4  -4    1.40    0.40
   6  -4  -4   -3.10    0.90
   6  -4  -4    0.80    1.40
   6  -4  -4    1.00    0.40
   6  -4  -4    1.00    1.60
   6  -4  -4    1.40    0.40
   6  -4  -4    1.60    1.70
   6  -4  -4    1.60    1.70
  -6   4   4    3.30    2.00
  -6   4   4    0.60    1.40
  -6   4   4   -0.20    0.80
  -6   4   4    0.40    1.20
  -6   4   4    1.40    1.40
   5  -4  -4   14.90    2.70
   5  -4  -4   11.40    2.60
   5  -4  -4   10.40    2.50
   5  -4  -4   11.50    2.50
   5  -4  -4   10.70    2.30
   5  -4  -4   11.20    1.10
  -5   4   4   13.10    2.80
  -5   4   4   11.90    2.50
  -5   4   4   10.40    2.40
  -5   4   4   11.10    2.40
  -5   4   4   13.30    2.80
   4  -4  -4  459.95   10.80
   4  -4  -4  458.45   13.90
   4  -4  -4  462.35   14.00
   4  -4  -4  453.35   14.10
  -4   4   4  430.46   13.70
  -4   4   4  444.06   14.30
  -4   4   4  476.45   14.40
  -4   4   4  441.06   14.20
  -4   4   4  481.55   14.30
   3  -4  -4  603.34   14.50
   3  -4  -4  621.14   17.20
   3  -4  -4  651.73   17.60
   3  -4  -4  599.54   16.90
   3  -4  -4  620.94   17.30
   3  -4  -4  610.54   16.90
  -3   4   4  627.74   17.40
  -3   4   4  605.44   17.40
  -3   4   4  626.94   17.10
  -3   4   4  627.04   14.80
  -3   4   4  635.74   17.50
  -3   4   4  632.44   17.20
   2  -4  -4   77.99    4.80
   2  -4  -4   83.89    4.10
   2  -4  -4   85.19    5.10
   2  -4  -4   89.49    5.10
   2  -4  -4   80.49    4.90
   2  -4  -4   82.99    4.90
  -2   4   4   75.29    4.90
  -2   4   4   78.89    4.70
  -2   4   4   78.89    4.90
  -2   4   4   85.69    4.10
  -2   4   4   95.49    5.30
  -2   4   4   73.59    4.60
   1  -4  -4    0.50    1.10
   1  -4  -4   -0.20    0.60
   1  -4  -4    1.50    1.00
   1  -4  -4   -0.60    0.70
   1  -4  -4    2.00    1.20
   1  -4  -4    1.20    1.10
  -1   4   4    0.10    0.60
  -1   4   4    1.40    0.70
  -1   4   4    1.40    1.20
  -1   4   4    1.40    0.80
  -1   4   4    0.20    0.80
  -1   4   4    0.20    0.70
  -1   4   4    0.60    0.80
   0  -4  -4  121.39    6.40
   0  -4  -4  122.59    6.20
   0  -4  -4  122.69    6.00
   0  -4  -4  125.09    6.20
   0  -4  -4  116.49    6.20
   0  -4  -4  118.19    6.20
   0   4   4  129.29    6.00
   0   4   4  112.19    5.90
   0   4   4  119.89    6.30
   0   4   4  117.59    5.20
   0   4   4  129.49    6.40
   0   4   4  126.09    6.60
   0   4   4  119.09    6.10
  -1  -4  -4  308.17   11.60
  -1  -4  -4  326.67   11.40
  -1  -4  -4  336.37   11.70
  -1  -4  -4  337.97   12.00
  -1  -4  -4  329.07   11.50
  -1  -4  -4  317.87   10.20
   1   4   4  321.67   11.20
   1   4   4  334.97   11.80
   1   4   4  326.97    9.90
   1   4   4  338.47   11.60
   1   4   4  323.57   11.40
  -2  -4  -4   15.30    2.90
  -2  -4  -4   20.50    3.40
  -2  -4  -4   20.70    3.30
  -2  -4  -4   17.30    3.20
  -2  -4  -4   20.80    3.30
  -2  -4  -4   23.50    3.40
  -2  -4  -4   19.00    2.70
   2   4   4   22.40    3.10
   2   4   4   16.20    3.10
   2   4   4   19.40    3.30
   2   4   4   21.20    3.50
   2   4   4   21.60    3.30
   2   4   4   14.50    2.20
  -3  -4  -4   71.79    5.70
  -3  -4  -4   63.39    6.20
  -3  -4  -4   67.19    5.50
  -3  -4  -4   63.19    5.30
  -3  -4  -4   76.89    5.50
  -3  -4  -4   74.59    5.50
  -3  -4  -4   66.59    4.60
   3   4   4   71.19    5.30
   3   4   4   67.29    5.50
   3   4   4   71.19    4.50
   3   4   4   58.99    5.50
   3   4   4   59.09    5.10
   3   4   4   60.89    5.30
  -4  -4  -4   73.99    5.40
  -4  -4  -4   49.30    5.00
  -4  -4  -4   62.39    5.20
  -4  -4  -4   59.59    5.50
  -4  -4  -4   57.89    5.20
  -4  -4  -4   56.49    5.40
   4   4   4   52.29    5.10
   4   4   4   58.39    4.50
   4   4   4   59.89    5.50
   4   4   4   60.09    5.20
   4   4   4   60.29    5.30
   4   4   4   56.29    4.70
  -5  -4  -4   18.60    3.80
  -5  -4  -4   27.00    4.70
  -5  -4  -4   17.10    4.70
  -5  -4  -4   17.80    3.60
  -5  -4  -4   17.40    3.30
  -5  -4  -4   23.10    4.40
  -5  -4  -4   20.90    3.80
   5   4   4   18.10    3.50
   5   4   4   18.70    3.50
   5   4   4   19.50    3.40
   5   4   4   22.50    4.70
   5   4   4   24.00    4.20
   5   4   4   18.00    3.60
   5   4   4   27.20    4.60
  -6  -4  -4   17.10    3.80
  -6  -4  -4   24.60    4.80
  -6  -4  -4   25.90    4.40
  -6  -4  -4   13.30    3.80
  -6  -4  -4   18.10    4.10
   6   4   4   14.20    3.60
   6   4   4   17.50    4.50
   6   4   4   24.60    4.00
   9  -5  -4    0.10    2.80
   9  -5  -4    0.90    2.70
   9  -5  -4   -1.00    2.40
  -9   5   4    1.40    2.30
  -9   5   4    0.60    1.80
  -9   5   4    0.30    2.10
  -9   5   4   -0.90    2.30
  -9   5   4   -0.90    2.00
   8  -5  -4    5.70    3.00
   8  -5  -4    5.70    2.40
   8  -5  -4   10.80    3.10
   8  -5  -4    3.60    2.10
  -8   5   4    5.60    2.40
  -8   5   4   11.30    2.50
  -8   5   4    6.60    2.70
  -8   5   4    3.80    2.40
  -8   5   4    6.50    2.60
   7  -5  -4   58.59    4.70
   7  -5  -4   44.70    5.40
   7  -5  -4   50.59    4.80
  -7   5   4   53.29    4.90
  -7   5   4   60.29    5.10
  -7   5   4   41.90    5.50
  -7   5   4   48.40    4.60
  -7   5   4   50.99    5.30
   6  -5  -4  343.27   12.70
   6  -5  -4  358.76   12.60
   6  -5  -4  356.96   13.40
   6  -5  -4  364.76   13.30
   6  -5  -4  343.17    8.90
  -6   5   4  344.87   13.00
  -6   5   4  352.06   13.00
  -6   5   4  347.47   12.70
   5  -5  -4  231.38    9.70
   5  -5  -4  243.38    9.90
   5  -5  -4  230.98    5.70
   5  -5  -4  246.08   10.20
   5  -5  -4  238.78   10.30
   5  -5  -4  242.48    9.70
  -5   5   4  229.08   10.30
  -5   5   4  232.88   10.20
  -5   5   4  227.58    9.70
  -5   5   4  236.28   10.10
  -5   5   4  241.48    9.80
   4  -5  -4   42.50    4.10
   4  -5  -4   42.80    3.70
   4  -5  -4   37.80    3.50
   4  -5  -4   39.50    3.90
   4  -5  -4   44.90    4.00
   4  -5  -4   44.70    2.50
  -4   5   4   41.60    3.80
  -4   5   4   42.30    3.90
  -4   5   4   38.50    3.80
  -4   5   4   41.80    3.90
  -4   5   4   35.10    4.20
   3  -5  -4   17.50    2.80
   3  -5  -4   18.80    3.80
   3  -5  -4   22.50    3.40
   3  -5  -4   14.50    2.60
   3  -5  -4   23.20    3.50
  -3   5   4   17.90    3.00
  -3   5   4   19.20    1.90
  -3   5   4   17.50    2.90
  -3   5   4   17.70    2.70
  -3   5   4   15.90    2.80
  -3   5   4   20.10    3.10
   2  -5  -4    7.50    2.00
   2  -5  -4    8.60    1.70
   2  -5  -4    8.80    2.20
   2  -5  -4    8.60    2.10
   2  -5  -4    7.90    1.90
   2  -5  -4   10.00    2.20
  -2   5   4    6.20    1.70
  -2   5   4    6.50    1.80
  -2   5   4    5.90    1.90
  -2   5   4    6.40    1.90
  -2   5   4   10.30    1.90
  -2   5   4    8.20    2.20
  -2   5   4    7.30    2.00
   1  -5  -4   75.09    4.60
   1  -5  -4   85.39    5.30
   1  -5  -4   85.89    5.30
   1  -5  -4   80.69    5.40
   1  -5  -4   81.89    5.40
   1  -5  -4   81.89    5.40
  -1   5   4   79.39    5.20
  -1   5   4   76.49    5.20
  -1   5   4   82.89    4.90
  -1   5   4   80.09    5.40
  -1   5   4   72.49    5.00
  -1   5   4   84.79    5.30
  -1   5   4   69.89    4.40
   0  -5  -4   86.19    5.70
   0  -5  -4   88.69    5.70
   0  -5  -4   89.39    5.70
   0  -5  -4   87.39    5.60
   0  -5  -4   72.69    5.10
   0  -5  -4   81.79    5.20
   0   5   4   80.49    4.70
   0   5   4   79.79    5.60
   0   5   4   86.39    5.50
   0   5   4   81.49    5.50
   0   5   4   79.49    5.40
   0   5   4   78.89    5.00
   0   5   4   79.19    5.20
  -1  -5  -4   81.19    5.50
  -1  -5  -4   75.69    5.30
  -1  -5  -4   72.89    5.40
  -1  -5  -4   69.19    4.70
  -1  -5  -4   73.99    5.20
  -1  -5  -4   73.49    5.60
   1   5   4   84.29    5.40
   1   5   4   73.49    4.50
   1   5   4   83.39    5.40
   1   5   4   84.09    5.60
   1   5   4   70.09    5.30
   1   5   4   73.89    5.40
  -2  -5  -4    9.50    2.50
  -2  -5  -4    8.90    2.40
  -2  -5  -4    2.30    1.40
  -2  -5  -4    5.50    1.90
  -2  -5  -4    0.80    1.50
  -2  -5  -4    4.80    1.60
  -2  -5  -4    4.70    2.40
   2   5   4    5.60    1.80
   2   5   4    2.30    1.20
   2   5   4    7.70    2.30
   2   5   4    6.50    2.10
   2   5   4    7.30    2.10
   2   5   4    8.10    2.40
   2   5   4    3.90    1.80
  -3  -5  -4   38.00    5.00
  -3  -5  -4   40.40    5.10
  -3  -5  -4   33.90    4.50
  -3  -5  -4   34.30    4.90
  -3  -5  -4   36.70    3.80
   3   5   4   36.70    4.90
   3   5   4   30.60    4.80
   3   5   4   36.80    5.20
   3   5   4   32.70    4.40
   3   5   4   31.20    4.80
   3   5   4   36.00    3.50
  -4  -5  -4    2.50    2.10
  -4  -5  -4    2.00    2.40
  -4  -5  -4    2.10    1.80
  -4  -5  -4    2.60    2.10
  -4  -5  -4    0.00    2.20
  -4  -5  -4    5.80    2.00
  -4  -5  -4    4.10    2.70
   4   5   4    5.10    2.40
   4   5   4    4.00    2.10
   4   5   4    4.40    1.80
   4   5   4    6.80    3.00
   4   5   4    5.00    2.50
   4   5   4    4.70    1.90
   4   5   4    6.40    2.70
  -5  -5  -4   31.00    5.10
  -5  -5  -4   32.10    5.30
  -5  -5  -4   31.70    4.80
  -5  -5  -4   24.60    4.80
  -5  -5  -4   31.70    5.00
  -5  -5  -4   30.30    4.70
   5   5   4   22.30    4.90
   5   5   4   34.00    5.00
   5   5   4   36.20    5.10
   5   5   4   33.50    4.70
  -6  -5  -4    4.00    3.60
  -6  -5  -4    1.90    2.80
  -6  -5  -4    6.70    2.90
  -6  -5  -4    9.00    3.30
  -6  -5  -4    8.20    2.70
   6   5   4    1.60    3.20
   6   5   4    1.30    2.70
   9  -6  -4   34.50    5.50
  -9   6   4   50.49    6.90
  -9   6   4   59.89    5.70
  -9   6   4   44.20    5.90
  -9   6   4   46.00    5.90
  -9   6   4   43.40    6.20
   8  -6  -4    2.90    2.50
   8  -6  -4    7.00    2.40
  -8   6   4    2.70    2.60
  -8   6   4    6.20    2.60
  -8   6   4    3.30    2.20
  -8   6   4   10.40    2.90
  -8   6   4   10.50    3.20
   7  -6  -4   16.50    3.60
   7  -6  -4   16.30    3.30
   7  -6  -4   16.50    3.20
  -7   6   4   14.00    3.30
  -7   6   4   11.30    3.20
  -7   6   4   17.40    3.40
  -7   6   4   20.10    3.90
  -7   6   4   18.70    3.60
   6  -6  -4    7.70    2.50
   6  -6  -4    5.00    2.30
   6  -6  -4    4.40    1.30
   6  -6  -4    4.20    2.10
   6  -6  -4    3.90    1.90
  -6   6   4    5.10    2.30
  -6   6   4    2.30    2.00
  -6   6   4    2.90    1.50
  -6   6   4    6.20    2.40
  -6   6   4    1.80    1.70
   5  -6  -4  126.89    7.10
   5  -6  -4  137.79    7.30
   5  -6  -4  127.09    7.30
  -5   6   4  116.29    7.00
  -5   6   4  125.29    7.30
  -5   6   4  116.29    8.40
  -5   6   4  123.49    7.10
   4  -6  -4 2156.48   43.50
   4  -6  -4 2231.28   49.60
   4  -6  -4 2177.88   48.10
   4  -6  -4 2160.18   48.10
   4  -6  -4 2117.59   48.50
  -4   6   4 2189.78   49.50
  -4   6   4 2150.18   48.90
  -4   6   4 2201.48   48.40
  -4   6   4 2107.69   48.60
  -4   6   4 2249.57   48.50
   3  -6  -4   14.30    2.90
   3  -6  -4   13.00    2.90
   3  -6  -4   12.20    2.80
   3  -6  -4   11.50    2.70
   3  -6  -4   14.10    3.00
   3  -6  -4   10.40    1.80
  -3   6   4   13.20    2.70
  -3   6   4   10.30    2.40
  -3   6   4   16.20    3.10
  -3   6   4   12.90    2.00
  -3   6   4   10.40    2.50
  -3   6   4   10.70    2.50
  -3   6   4   12.30    2.60
   2  -6  -4  718.83   20.40
   2  -6  -4  730.43   20.30
   2  -6  -4  715.83   20.70
   2  -6  -4  701.93   18.30
   2  -6  -4  726.63   22.40
   2  -6  -4  713.13   20.70
  -2   6   4  702.93   20.70
  -2   6   4  684.03   19.80
  -2   6   4  706.03   18.10
  -2   6   4  698.73   20.50
  -2   6   4  725.23   20.70
  -2   6   4  718.83   20.10
  -2   6   4  713.23   20.30
   1  -6  -4   85.79    5.80
   1  -6  -4   86.49    5.90
   1  -6  -4   85.09    5.90
   1  -6  -4   88.59    5.80
   1  -6  -4   76.59    5.70
   1  -6  -4   84.29    5.20
  -1   6   4   83.49    5.40
  -1   6   4   81.19    5.60
  -1   6   4   81.19    6.00
  -1   6   4   79.99    5.10
  -1   6   4   80.39    5.80
  -1   6   4   86.69    5.80
  -1   6   4   86.29    5.60
   0  -6  -4    6.60    2.00
   0  -6  -4    6.40    1.90
   0  -6  -4   10.10    2.60
   0  -6  -4   10.20    3.00
   0  -6  -4    7.30    2.20
   0   6   4   10.20    2.70
   0   6   4    9.00    2.60
   0   6   4    7.40    2.10
   0   6   4    8.80    2.50
   0   6   4    8.70    2.10
   0   6   4    9.00    2.30
   0   6   4    7.50    2.10
  -1  -6  -4   13.90    3.00
  -1  -6  -4   12.10    2.90
  -1  -6  -4   11.70    3.00
  -1  -6  -4   12.00    2.60
  -1  -6  -4   11.80    3.10
  -1  -6  -4   16.90    3.40
  -1  -6  -4   11.70    2.50
   1   6   4   14.90    3.00
   1   6   4    9.00    2.50
   1   6   4   19.40    3.40
   1   6   4   11.60    2.90
   1   6   4   19.80    3.60
   1   6   4   14.80    2.80
  -2  -6  -4  354.26   13.80
  -2  -6  -4  342.57   13.90
  -2  -6  -4  357.16   14.50
  -2  -6  -4  361.96   14.30
  -2  -6  -4  372.56   13.40
  -2  -6  -4  363.86   14.30
   2   6   4  385.96   12.70
   2   6   4  366.96   14.40
   2   6   4  342.77   13.30
   2   6   4  337.17   13.50
   2   6   4  370.56   14.00
   2   6   4  361.16   14.50
   2   6   4  374.66   14.40
  -3  -6  -4   39.80    5.50
  -3  -6  -4   39.00    5.30
  -3  -6  -4   38.80    5.10
  -3  -6  -4   34.90    4.70
  -3  -6  -4   44.70    5.90
  -3  -6  -4   29.50    5.10
   3   6   4   42.20    5.50
   3   6   4   40.70    5.70
   3   6   4   28.10    5.00
   3   6   4   25.80    4.10
   3   6   4   35.60    5.00
   3   6   4   44.80    4.30
  -4  -6  -4   -1.80    1.80
  -4  -6  -4   -0.10    1.90
  -4  -6  -4   -0.30    2.80
  -4  -6  -4    3.00    2.30
  -4  -6  -4    1.40    2.00
  -4  -6  -4    0.70    1.70
   4   6   4    0.70    1.40
   4   6   4   -0.90    1.80
   4   6   4   -0.70    2.40
   4   6   4   -0.40    2.20
   4   6   4    2.70    1.80
  -5  -6  -4   70.09    6.90
  -5  -6  -4   75.09    6.70
  -5  -6  -4   63.29    6.50
  -5  -6  -4   68.29    6.30
  -5  -6  -4   74.89    7.50
   5   6   4   73.69    6.20
   5   6   4   71.39    6.80
   5   6   4   73.09    7.30
   8  -7  -4   39.70    5.40
   8  -7  -4   31.40    4.70
  -8   7   4   27.50    4.50
  -8   7   4   32.40    4.80
  -8   7   4   37.70    5.20
  -8   7   4   45.40    6.30
  -8   7   4   40.70    5.80
   7  -7  -4   21.60    3.80
   7  -7  -4   13.50    3.30
  -7   7   4   21.30    3.90
  -7   7   4   15.30    3.20
  -7   7   4   11.70    3.60
  -7   7   4   14.90    3.20
  -7   7   4   18.60    4.00
   6  -7  -4   22.00    3.00
   6  -7  -4   20.80    3.70
   6  -7  -4   22.80    3.90
   6  -7  -4   20.70    3.90
  -6   7   4   28.10    4.70
  -6   7   4   22.80    4.00
  -6   7   4   18.40    3.60
  -6   7   4   20.00    3.90
  -6   7   4   12.10    3.00
   5  -7  -4   21.10    3.30
   5  -7  -4   20.20    3.40
   5  -7  -4   22.80    3.60
   5  -7  -4   27.40    4.30
  -5   7   4   28.50    4.60
  -5   7   4   23.70    4.20
  -5   7   4   23.80    3.80
  -5   7   4   18.20    3.60
  -5   7   4   27.70    4.10
   4  -7  -4   37.20    4.80
   4  -7  -4   43.00    4.10
   4  -7  -4   43.60    4.30
   4  -7  -4   34.60    3.60
   4  -7  -4   47.80    4.60
  -4   7   4   43.60    5.40
  -4   7   4   31.30    4.50
  -4   7   4   43.90    5.40
  -4   7   4   35.20    2.70
  -4   7   4   43.90    4.80
  -4   7   4   46.20    5.40
  -4   7   4   35.60    5.40
   3  -7  -4  289.57    9.70
   3  -7  -4  292.47   11.60
   3  -7  -4  275.87   11.90
   3  -7  -4  291.97   11.60
   3  -7  -4  281.27   11.60
  -3   7   4  297.57   11.70
  -3   7   4  292.87   12.20
  -3   7   4  288.37   11.80
  -3   7   4  289.67   14.20
  -3   7   4  280.57    9.40
  -3   7   4  305.17   12.30
  -3   7   4  282.77   12.00
   2  -7  -4    1.70    1.60
   2  -7  -4    5.30    1.90
   2  -7  -4    2.20    1.50
   2  -7  -4    0.60    1.70
   2  -7  -4    1.50    2.00
   2  -7  -4    2.20    1.90
  -2   7   4    4.40    1.90
  -2   7   4    0.40    1.40
  -2   7   4    6.20    2.40
  -2   7   4    2.30    1.40
  -2   7   4    2.40    1.80
   1  -7  -4   47.60    4.40
   1  -7  -4   47.20    4.30
   1  -7  -4   50.29    5.00
   1  -7  -4   44.40    4.50
   1  -7  -4   45.50    4.70
   1  -7  -4   36.20    4.60
  -1   7   4   44.70    4.50
  -1   7   4   49.50    4.60
  -1   7   4   42.90    3.90
  -1   7   4   47.20    6.50
  -1   7   4   46.70    4.40
  -1   7   4   48.50    4.90
  -1   7   4   42.70    4.50
   0  -7  -4  102.69    6.70
   0  -7  -4  106.29    7.00
   0  -7  -4   99.99    7.30
   0   7   4  102.79    6.40
   0   7   4  105.79    7.40
   0   7   4  102.89    7.10
   0   7   4   96.69    7.00
   0   7   4  103.19    6.50
   0   7   4  108.89    8.30
   0   7   4  107.89    6.90
  -1  -7  -4   37.60    5.10
  -1  -7  -4   39.30    5.20
  -1  -7  -4   46.00    5.90
  -1  -7  -4   37.70    5.30
  -1  -7  -4   39.60    5.30
   1   7   4   32.60    4.60
   1   7   4   44.50    5.80
   1   7   4   36.90    5.20
   1   7   4   40.10    4.20
   1   7   4   39.60    5.20
   1   7   4   35.90    4.70
  -2  -7  -4  109.49    7.30
  -2  -7  -4  112.59    8.00
  -2  -7  -4  100.19    7.60
  -2  -7  -4  121.29    8.70
  -2  -7  -4  121.39    8.00
  -2  -7  -4  111.89    8.00
  -2  -7  -4  107.39    7.70
   2   7   4  120.49    7.70
   2   7   4  130.79    8.50
   2   7   4  120.69    8.20
   2   7   4  114.49    8.00
   2   7   4  109.39    8.30
   2   7   4  116.49    7.80
   2   7   4  119.69    9.10
  -3  -7  -4  157.38    9.90
  -3  -7  -4  125.49    9.10
  -3  -7  -4  146.49    9.40
  -3  -7  -4  148.09    8.90
  -3  -7  -4  130.69    8.90
  -3  -7  -4  151.58   10.30
   3   7   4  155.88    9.80
   3   7   4  162.18    9.50
   3   7   4  133.69    8.40
   3   7   4  148.19    8.10
   3   7   4  131.19    9.60
  -4  -7  -4  151.18   10.80
  -4  -7  -4  138.29    9.60
  -4  -7  -4  146.49    9.90
  -4  -7  -4  142.79   10.10
  -4  -7  -4  135.89    9.20
  -4  -7  -4  133.89    9.20
   4   7   4  143.89    8.50
   4   7   4  137.49    9.40
   4   7   4  149.39    9.00
   4   7   4  133.49    9.60
  -8   8   4   30.80    5.00
  -8   8   4   26.40    4.90
  -8   8   4   26.70    4.50
  -8   8   4   26.00    4.50
  -8   8   4   43.00    6.40
   7  -8  -4    0.80    2.20
   7  -8  -4    3.30    2.50
   7  -8  -4    0.00    1.20
  -7   8   4   -0.10    2.00
  -7   8   4   -0.90    1.90
  -7   8   4    4.80    2.40
  -7   8   4   -1.50    1.80
  -7   8   4    2.80    2.10
   6  -8  -4    7.60    2.90
   6  -8  -4   10.50    3.10
   6  -8  -4    5.60    2.00
  -6   8   4    7.20    2.80
  -6   8   4    6.10    2.30
  -6   8   4    6.10    2.40
  -6   8   4    5.20    2.60
  -6   8   4   10.00    3.00
   5  -8  -4   67.89    5.60
   5  -8  -4   66.69    8.90
   5  -8  -4   65.89    5.70
   5  -8  -4   63.29    5.30
  -5   8   4   67.29    5.80
  -5   8   4   77.49    6.50
  -5   8   4   80.79    6.50
  -5   8   4   83.79    6.90
  -5   8   4   68.49    5.90
  -5   8   4   74.89    6.10
   4  -8  -4  424.86   15.60
   4  -8  -4  438.26   15.70
   4  -8  -4  432.56   16.00
   4  -8  -4  428.16   15.40
  -4   8   4  441.56   12.10
  -4   8   4  437.66   16.80
  -4   8   4  434.56   16.20
  -4   8   4  437.46   15.80
  -4   8   4  436.66   16.70
  -4   8   4  402.96   15.70
  -4   8   4  429.56   15.50
   3  -8  -4   96.49    6.70
   3  -8  -4   90.39    5.30
   3  -8  -4   82.49    6.30
   3  -8  -4   73.09    6.10
  -3   8   4   89.89    5.20
  -3   8   4   88.59    6.30
  -3   8   4   89.19    6.90
  -3   8   4   94.09    6.80
  -3   8   4   83.69    6.70
  -3   8   4   92.69    7.30
  -3   8   4   87.19    6.60
   2  -8  -4   59.09    5.40
   2  -8  -4   41.90    5.50
   2  -8  -4   57.59    4.70
   2  -8  -4   47.80    4.90
   2  -8  -4   53.99    5.30
  -2   8   4   57.19    5.50
  -2   8   4   48.10    6.10
  -2   8   4   52.99    5.20
  -2   8   4   44.80    5.80
  -2   8   4   50.69    5.20
  -2   8   4   51.09    4.40
   1  -8  -4   25.40    4.30
   1  -8  -4   30.00    4.90
   1  -8  -4   30.70    4.20
   1  -8  -4   25.30    4.50
   1  -8  -4   23.70    3.90
  -1   8   4   26.00    4.40
  -1   8   4   24.60    4.60
  -1   8   4   29.60    4.40
  -1   8   4   22.40    4.70
  -1   8   4   28.40    4.70
  -1   8   4   26.30    3.90
  -1   8   4   25.70    4.50
   0  -8  -4  124.59    8.20
   0  -8  -4  106.19    7.40
   0  -8  -4  126.89    8.20
   0  -8  -4  124.79    8.50
   0  -8  -4  129.19    8.40
   0   8   4  131.49    7.90
   0   8   4  123.79    8.50
   0   8   4  126.79    8.70
   0   8   4  124.39    8.00
   0   8   4  141.89    8.00
   0   8   4  126.29    8.50
  -1  -8  -4   14.30    3.70
  -1  -8  -4   11.20    3.70
  -1  -8  -4   18.30    3.80
  -1  -8  -4   13.10    3.50
  -1  -8  -4   11.30    3.60
  -1  -8  -4   13.30    3.40
   1   8   4   10.70    3.10
   1   8   4    8.90    3.40
   1   8   4   12.00    3.10
   1   8   4   12.00    2.90
   1   8   4   17.00    3.70
   1   8   4   14.80    3.30
  -2  -8  -4  444.56   18.30
  -2  -8  -4  408.76   18.70
  -2  -8  -4  416.86   17.10
  -2  -8  -4  415.26   17.10
  -2  -8  -4  411.86   19.20
  -2  -8  -4  439.96   17.50
   2   8   4  452.85   17.40
   2   8   4  417.66   17.30
   2   8   4  440.46   18.10
   2   8   4  457.55   17.90
   2   8   4  429.06   15.60
   2   8   4  431.76   16.60
  -3  -8  -4  249.78   13.40
  -3  -8  -4  219.98   11.90
  -3  -8  -4  232.78   12.90
  -3  -8  -4  227.38   12.40
  -3  -8  -4  237.88   13.10
   3   8   4  237.28   12.30
   3   8   4  237.88   11.30
   3   8   4  234.18   12.90
   3   8   4  243.28   12.30
   3   8   4  236.48   12.90
   7  -9  -4  139.29    6.90
  -7   9   4  145.49    9.60
  -7   9   4  144.69    9.20
  -7   9   4  141.99    8.90
  -7   9   4  126.39    9.80
  -7   9   4  143.39    9.50
   6  -9  -4   68.89    6.30
   6  -9  -4   61.89    6.00
  -6   9   4   53.29    7.00
  -6   9   4   58.09    6.20
  -6   9   4   67.69    6.70
  -6   9   4   65.79    6.20
  -6   9   4   63.19    6.10
  -6   9   4   50.39    6.30
   5  -9  -4    9.40    3.20
   5  -9  -4   13.80    3.10
   5  -9  -4   17.30    3.80
  -5   9   4   16.00    4.10
  -5   9   4    8.90    3.10
  -5   9   4   10.10    2.70
  -5   9   4   13.10    3.20
  -5   9   4   16.70    3.30
  -5   9   4   15.00    3.60
   4  -9  -4   81.99    6.60
   4  -9  -4   74.19    6.20
   4  -9  -4   60.99    6.10
  -4   9   4   75.49    6.50
  -4   9   4   73.59    6.20
  -4   9   4   72.49    6.60
  -4   9   4   72.59    6.40
  -4   9   4   70.99    6.90
  -4   9   4   61.19    4.10
  -4   9   4   68.19    6.30
   3  -9  -4   24.00    5.40
   3  -9  -4   18.40    4.60
   3  -9  -4   23.50    3.40
   3  -9  -4   29.50    5.70
   3  -9  -4   26.10    4.40
   3  -9  -4   23.40    4.50
   3  -9  -4   25.80    4.60
  -3   9   4   25.00    4.40
  -3   9   4   28.20    3.50
  -3   9   4   24.10    4.30
  -3   9   4   30.60    4.80
  -3   9   4   28.60    4.90
  -3   9   4   24.50    4.60
  -3   9   4   26.10    5.50
   2  -9  -4   34.50    5.30
   2  -9  -4   40.20    5.50
   2  -9  -4   32.20    6.10
   2  -9  -4   31.30    4.20
   2  -9  -4   42.80    6.40
   2  -9  -4   36.60    5.50
  -2   9   4   42.30    5.80
  -2   9   4   32.90    5.00
  -2   9   4   34.90    5.20
  -2   9   4   31.50    5.10
  -2   9   4   32.30    4.80
  -2   9   4   33.60    4.20
  -2   9   4   30.20    4.70
   1  -9  -4   72.39    6.70
   1  -9  -4   57.79    8.00
   1  -9  -4   59.69    7.00
   1  -9  -4   64.19    5.80
  -1   9   4   79.49    7.00
  -1   9   4   71.69    6.40
  -1   9   4   61.59    5.70
  -1   9   4   62.39    6.20
  -1   9   4   62.99    6.60
  -1   9   4   65.09    6.00
  -1   9   4   52.29    5.30
   0  -9  -4   71.29    6.50
   0  -9  -4   73.59    7.20
   0  -9  -4   59.59    6.00
   0  -9  -4   76.99    6.80
   0   9   4   78.29    7.10
   0   9   4   66.09    6.10
   0   9   4   69.09    6.80
   0   9   4   63.69    6.00
   0   9   4   77.59    7.10
   0   9   4   69.09    6.40
   0   9   4   61.89    6.00
  -1  -9  -4   19.50    4.70
  -1  -9  -4   15.00    4.10
  -1  -9  -4   11.40    3.20
  -1  -9  -4   24.00    4.60
   1   9   4   15.50    4.20
   1   9   4   22.00    4.60
   1   9   4   17.60    3.60
   1   9   4   20.30    4.30
   1   9   4   16.80    4.10
  -2  -9  -4  198.98   11.50
  -2  -9  -4  186.08   13.50
  -2  -9  -4  210.48   12.10
  -2  -9  -4  167.38   11.20
   2   9   4  187.18   11.60
   2   9   4  189.58   11.20
   2   9   4  187.08   11.30
   2   9   4  193.48   11.80
   2   9   4  194.68   10.40
   6 -10  -4   38.90    5.30
  -6  10   4   48.80    6.60
  -6  10   4   39.70    6.00
  -6  10   4   52.99    7.40
  -6  10   4   50.39    6.10
  -6  10   4   36.10    6.10
  -6  10   4   42.90    5.90
   5 -10  -4    0.00    2.50
   5 -10  -4    7.00    2.90
   5 -10  -4    4.20    2.80
  -5  10   4   -1.00    2.80
  -5  10   4    4.00    2.30
  -5  10   4    6.00    3.30
  -5  10   4    1.80    3.00
  -5  10   4    4.50    3.10
   4 -10  -4   78.19    7.40
   4 -10  -4   55.09    6.70
   4 -10  -4   57.19    6.00
  -4  10   4   74.19    5.20
  -4  10   4   74.29    6.40
  -4  10   4   61.39    7.30
  -4  10   4   50.09    6.70
  -4  10   4   57.19    6.80
   3 -10  -4   19.00    4.40
   3 -10  -4   23.00    5.30
  -3  10   4   11.60    3.80
  -3  10   4   20.30    4.00
  -3  10   4   13.40    3.20
  -3  10   4   14.40    3.80
  -3  10   4   16.60    3.90
  -3  10   4   16.70    4.00
  -3  10   4   14.60    3.00
   2 -10  -4   15.70    3.60
   2 -10  -4   22.50    5.20
  -2  10   4   22.20    3.90
  -2  10   4   18.50    3.80
  -2  10   4   21.30    4.90
  -2  10   4   18.60    4.30
  -2  10   4   19.40    4.40
  -2  10   4   27.80    5.30
  -2  10   4   23.70    4.50
   1 -10  -4   40.00    5.80
   1 -10  -4   34.60    5.90
   1 -10  -4   36.60    6.90
   1 -10  -4   53.49    5.50
  -1  10   4   44.50    6.50
  -1  10   4   49.50    5.10
  -1  10   4   33.60    5.90
  -1  10   4   34.70    5.50
  -1  10   4   26.30    4.80
  -1  10   4   39.00    5.20
   0 -10  -4  272.37   13.30
   0 -10  -4  245.48   15.10
   0 -10  -4  263.27   13.60
   0 -10  -4  218.58   12.00
   0  10   4  247.38   13.10
   0  10   4  252.47   12.60
   0  10   4  225.48   12.10
   0  10   4  229.38   15.50
   0  10   4  236.98   13.20
   0  11  -5   53.59    5.40
   0  11  -5   61.79    5.10
   0  11  -5   71.49    6.90
   0  11  -5   54.19    5.60
   0  11  -5   64.59    5.90
   0 -11   5   59.39    5.20
   0 -11   5   78.49    8.90
  -1  11  -5  127.49    6.90
  -1  11  -5  117.29    8.30
  -1  11  -5  120.09    7.50
  -1  11  -5  124.19    7.70
  -1  11  -5  119.99    7.10
  -1  11  -5  112.99    9.00
   1 -11   5  135.39   11.10
  -2  11  -5   11.30    2.50
  -2  11  -5    7.40    2.90
  -2  11  -5   14.00    2.40
  -2  11  -5   14.00    4.00
  -2  11  -5   16.30    3.10
  -2  11  -5   16.30    2.80
  -2  11  -5   14.70    3.50
   2 -11   5    6.70    3.90
   3  10  -5   78.99    7.60
   3  10  -5   83.39    6.90
   3  10  -5   85.89    6.10
   3  10  -5  105.89    8.20
   3  10  -5   86.59    7.40
   3  10  -5   74.19    6.20
  -3 -10   5   78.79   12.00
  -3 -10   5   75.09    6.10
   2  10  -5    3.50    2.50
   2  10  -5    3.50    2.60
   2  10  -5   -0.80    1.60
   2  10  -5    2.60    2.40
   2  10  -5    4.60    2.30
  -2 -10   5    4.10    2.30
  -2 -10   5   -2.90    1.90
  -2 -10   5    2.80    3.30
  -2 -10   5    0.40    2.30
   1  10  -5   14.10    3.80
   1  10  -5    6.60    2.40
   1  10  -5    7.50    2.80
   1  10  -5   12.40    2.70
   1  10  -5    4.50    2.10
  -1 -10   5   10.40    4.10
  -1 -10   5    3.50    2.10
  -1 -10   5   10.40    2.50
   0  10  -5    3.30    2.70
   0  10  -5    0.80    1.60
   0  10  -5    0.20    1.50
   0  10  -5    1.30    1.90
   0  10  -5    2.60    1.80
   0  10  -5    3.80    1.80
   0  10  -5    2.20    1.70
   0 -10   5    0.70    2.50
   0 -10   5    1.20    1.80
   0 -10   5    6.50    2.40
   0 -10   5    2.90    2.00
  -1  10  -5   11.00    2.90
  -1  10  -5   12.00    3.50
  -1  10  -5    9.30    2.40
  -1  10  -5   14.80    2.50
  -1  10  -5   11.70    2.30
  -1  10  -5   12.40    2.80
   1 -10   5   15.60    2.90
   1 -10   5   11.10    3.00
   1 -10   5    9.10    2.10
   1 -10   5   12.10    2.20
   1 -10   5    9.40    4.00
  -2  10  -5   18.90    2.60
  -2  10  -5   20.70    2.60
  -2  10  -5   23.80    3.80
  -2  10  -5   22.80    4.40
  -2  10  -5   14.20    2.30
  -2  10  -5   21.20    3.60
  -2  10  -5   17.80    2.90
   2 -10   5   20.10    1.60
   2 -10   5   10.80    4.00
   2 -10   5   20.20    1.70
  -3  10  -5   11.20    1.70
  -3  10  -5   10.00    3.70
  -3  10  -5   10.80    3.00
  -3  10  -5    8.90    1.80
  -3  10  -5    8.20    1.70
  -3  10  -5    8.10    1.70
  -3  10  -5    5.60    2.30
   3 -10   5   17.10    4.40
  -4  10  -5   15.50    3.90
  -4  10  -5   14.80    3.60
  -4  10  -5   16.70    2.00
  -4  10  -5   18.30    1.50
  -4  10  -5   14.40    2.60
  -4  10  -5   19.40    5.10
  -4  10  -5   17.90    1.80
  -4  10  -5   14.20    1.80
   4 -10   5   21.10    4.70
   4   9  -5  108.39    8.30
   4   9  -5  103.99    7.90
   4   9  -5  111.39    6.80
   4   9  -5  110.79    9.00
   4   9  -5  127.89    8.30
  -4  -9   5  119.39    8.50
  -4  -9   5  103.69    7.60
  -4  -9   5  132.19   11.00
  -4  -9   5  108.59    6.60
   3   9  -5  109.19    7.10
   3   9  -5  110.79    7.60
   3   9  -5  109.09    7.30
   3   9  -5  101.99    6.30
   3   9  -5  103.99    7.60
   3   9  -5   99.19    7.50
  -3  -9   5  103.29    6.20
  -3  -9   5  107.49    9.70
  -3  -9   5  105.99    7.50
  -3  -9   5   93.09    6.90
   2   9  -5   18.30    3.90
   2   9  -5   11.70    2.70
   2   9  -5   20.70    4.50
   2   9  -5   15.50    3.10
   2   9  -5   16.10    3.50
   2   9  -5   11.60    3.00
  -2  -9   5   14.70    3.90
  -2  -9   5   18.50    3.60
  -2  -9   5    9.00    4.10
   1   9  -5  166.08    9.80
   1   9  -5  163.48    9.80
   1   9  -5  162.48    8.00
   1   9  -5  174.48    8.50
   1   9  -5  179.98    8.00
   1   9  -5  155.68    7.40
  -1  -9   5  162.48    8.00
  -1  -9   5  177.38   11.80
  -1  -9   5  165.58    8.00
  -1  -9   5  180.88   10.80
  -1  -9   5  162.98    7.60
   0   9  -5   16.60    2.90
   0   9  -5   15.50    3.00
   0   9  -5   24.80    4.10
   0   9  -5   16.70    2.70
   0   9  -5   17.40    2.80
   0   9  -5   17.40    3.00
   0   9  -5   18.50    3.90
   0  -9   5   21.00    2.80
   0  -9   5   19.40    2.70
   0  -9   5   21.10    2.90
   0  -9   5   24.60    5.80
   0  -9   5   20.80    2.90
   0  -9   5   14.10    2.60
  -1   9  -5  145.49    6.40
  -1   9  -5  156.58    7.80
  -1   9  -5  144.19    6.20
  -1   9  -5  152.38    8.10
  -1   9  -5  142.69    7.40
  -1   9  -5  145.59    9.20
  -1   9  -5  149.99    7.00
   1  -9   5  135.19    5.60
   1  -9   5  131.69   10.00
   1  -9   5  145.09    5.50
   1  -9   5  146.09    5.60
   1  -9   5  152.28    7.30
  -2   9  -5    7.50    1.60
  -2   9  -5    8.30    2.80
  -2   9  -5    5.40    2.10
  -2   9  -5    6.90    1.60
  -2   9  -5    6.90    1.40
  -2   9  -5    3.40    2.00
  -2   9  -5    4.60    1.60
   2  -9   5    4.10    2.80
  -3   9  -5   73.49    5.00
  -3   9  -5   69.99    3.80
  -3   9  -5   77.69    3.40
  -3   9  -5   74.89    6.70
  -3   9  -5   79.39    3.70
  -3   9  -5   73.99    3.50
   3  -9   5   77.89    7.30
  -4   9  -5  182.68    4.90
  -4   9  -5  168.88    9.50
  -4   9  -5  186.68    7.70
  -4   9  -5  169.58    4.30
  -4   9  -5  167.08    7.10
  -4   9  -5  178.58    5.10
  -4   9  -5  189.98   11.00
   4  -9   5  174.68   10.50
  -5   9  -5   10.70    1.80
  -5   9  -5   15.30    3.80
  -5   9  -5   14.00    3.90
   5  -9   5   12.10    3.30
   5   8  -5    1.40    1.70
   5   8  -5    0.40    1.60
   5   8  -5    1.10    2.10
   5   8  -5    3.50    3.40
  -5  -8   5   -3.10    2.00
  -5  -8   5    0.50    2.70
  -5  -8   5    3.80    2.10
  -5  -8   5   -0.90    1.80
   4   8  -5   22.20    3.80
   4   8  -5   24.60    4.20
   4   8  -5   25.80    4.30
   4   8  -5   18.50    4.10
   4   8  -5   21.70    3.40
  -4  -8   5   32.40    4.60
  -4  -8   5   28.90    4.90
  -4  -8   5   23.50    5.70
  -4  -8   5   24.10    3.60
   3   8  -5   97.09    6.60
   3   8  -5  108.39    7.60
   3   8  -5  104.19    5.80
   3   8  -5   97.29    6.40
   3   8  -5  109.99    7.60
  -3  -8   5   94.99    6.50
  -3  -8   5   91.99    5.30
  -3  -8   5   91.59    6.30
  -3  -8   5   92.49    8.60
  -3  -8   5   86.19    7.40
  -3  -8   5   97.29    6.60
  -3  -8   5   96.19    6.40
   2   8  -5  476.05   15.40
   2   8  -5  494.35   15.20
   2   8  -5  456.85   16.80
   2   8  -5  509.95   17.70
   2   8  -5  479.05   16.00
  -2  -8   5  481.35   13.90
  -2  -8   5  481.55   15.50
  -2  -8   5  498.65   15.60
  -2  -8   5  512.65   20.40
  -2  -8   5  464.25   17.80
   1   8  -5   49.90    4.30
   1   8  -5   47.50    3.90
   1   8  -5   45.10    4.00
   1   8  -5   50.59    3.80
   1   8  -5   57.99    5.50
   1   8  -5   45.20    5.40
   1   8  -5   54.09    3.70
  -1  -8   5   49.80    3.70
  -1  -8   5   54.89    6.40
  -1  -8   5   43.80    3.70
   0   8  -5    5.70    1.70
   0   8  -5    8.20    2.00
   0   8  -5   12.90    2.80
   0   8  -5    6.10    2.20
   0   8  -5    5.20    1.60
   0   8  -5    8.30    1.70
   0   8  -5    8.10    2.00
   0  -8   5    7.10    1.80
   0  -8   5    6.40    1.60
   0  -8   5    5.40    2.60
   0  -8   5    7.10    1.60
   0  -8   5    8.10    1.90
  -1   8  -5  157.28    6.60
  -1   8  -5  165.88    6.40
  -1   8  -5  182.68    7.80
  -1   8  -5  169.98    6.20
  -1   8  -5  152.68    9.00
  -1   8  -5  162.48    6.70
   1  -8   5  195.18   11.20
   1  -8   5  156.28    5.30
  -2   8  -5   13.50    1.90
  -2   8  -5   14.90    2.80
  -2   8  -5   17.30    2.20
  -2   8  -5   14.10    1.70
  -2   8  -5   17.20    3.50
   2  -8   5   15.20    4.00
  -3   8  -5   72.09    3.20
  -3   8  -5   72.79    2.90
  -3   8  -5   71.29    2.90
  -3   8  -5   64.09    5.20
  -3   8  -5   70.19    6.30
  -3   8  -5   72.19    2.70
   3  -8   5   77.99    6.80
  -4   8  -5   21.70    2.80
  -4   8  -5   24.50    4.50
  -4   8  -5   21.70    4.00
   4  -8   5   29.20    5.00
  -5   8  -5    0.80    2.00
  -5   8  -5   -0.20    0.90
  -5   8  -5   -0.40    2.10
   5  -8   5    0.70    1.90
  -6   8  -5   35.10    5.80
  -6   8  -5   39.80    5.70
   6  -8   5   28.10    5.70
   6  -8   5   30.70    4.80
   6   7  -5    0.10    1.90
   6   7  -5    0.00    2.50
   6   7  -5   -6.40    2.80
   6   7  -5   -2.60    1.50
   6   7  -5   -2.50    2.80
   6   7  -5    0.50    1.70
  -6  -7   5   -2.10    2.00
  -6  -7   5   -2.30    2.00
  -6  -7   5    1.60    2.80
  -6  -7   5    0.80    2.20
   5   7  -5    0.90    2.20
   5   7  -5    0.80    1.30
   5   7  -5   -0.50    1.70
   5   7  -5    0.90    1.80
   5   7  -5    2.10    1.50
   5   7  -5    2.90    2.00
  -5  -7   5    1.60    2.20
  -5  -7   5   -1.40    1.30
  -5  -7   5   -1.20    2.20
  -5  -7   5   -1.30    1.60
  -5  -7   5    3.60    2.60
   4   7  -5   12.90    3.40
   4   7  -5   18.20    3.00
   4   7  -5   15.90    3.30
   4   7  -5   17.60    3.50
   4   7  -5   13.90    3.20
   4   7  -5   20.00    3.60
   4   7  -5   18.00    3.60
  -4  -7   5   12.20    3.90
  -4  -7   5   10.60    2.90
  -4  -7   5   15.80    3.00
  -4  -7   5   20.60    4.10
  -4  -7   5   11.10    3.10
  -4  -7   5   15.80    2.60
  -4  -7   5   13.50    3.20
   3   7  -5  108.39    6.60
   3   7  -5   91.59    6.60
   3   7  -5  111.69    6.30
   3   7  -5  102.79    6.50
   3   7  -5   98.29    5.30
   3   7  -5  107.49    6.80
   3   7  -5  112.99    7.60
  -3  -7   5  100.69    6.50
  -3  -7   5   96.29    6.10
  -3  -7   5  107.59    6.40
  -3  -7   5  100.99    5.00
  -3  -7   5  116.29    8.90
   2   7  -5   46.60    3.90
   2   7  -5   45.60    3.80
   2   7  -5   41.60    4.60
   2   7  -5   50.39    4.40
   2   7  -5   41.00    5.10
   2   7  -5   42.20    3.90
  -2  -7   5   40.50    4.40
  -2  -7   5   49.10    4.10
  -2  -7   5   46.60    3.30
  -2  -7   5   37.90    3.70
  -2  -7   5   50.69    6.00
   1   7  -5  134.69    5.70
   1   7  -5  131.29    7.10
   1   7  -5  138.39    7.80
  -1  -7   5  145.39    9.30
  -1  -7   5  137.89    6.10
  -1  -7   5  143.89    5.80
  -1  -7   5  132.29    6.20
  -1  -7   5  131.59    8.00
   0   7  -5  260.67    8.90
   0   7  -5  275.17   11.40
   0   7  -5  253.87    8.90
   0   7  -5  263.77    8.60
   0   7  -5  263.27    8.80
   0   7  -5  272.87    8.50
   0  -7   5  255.57    8.60
   0  -7   5  270.17    8.30
   0  -7   5  256.37    8.10
   0  -7   5  274.57    8.20
   0  -7   5  271.27   11.50
   0  -7   5  263.37    8.40
   0  -7   5  287.27   13.30
  -1   7  -5   68.79    3.80
  -1   7  -5   79.69    4.00
  -1   7  -5   75.19    3.50
  -1   7  -5   77.59    4.60
  -1   7  -5   76.09    3.60
  -1   7  -5   74.29    5.50
   1  -7   5   71.89    2.80
   1  -7   5   72.29    3.00
   1  -7   5   76.19    6.50
   1  -7   5   68.09    2.80
   1  -7   5   76.69    2.80
  -2   7  -5   67.79    5.50
  -2   7  -5   77.09    5.00
  -2   7  -5   74.89    2.90
  -2   7  -5   75.29    3.10
  -2   7  -5   75.09    3.20
   2  -7   5   80.19    6.60
  -3   7  -5   14.50    1.00
  -3   7  -5   10.90    3.10
  -3   7  -5   15.40    2.50
  -3   7  -5   15.30    0.60
  -3   7  -5   11.10    2.40
  -3   7  -5   13.90    0.90
   3  -7   5   13.90    3.30
  -4   7  -5 1256.37   32.80
  -4   7  -5 1291.07   32.10
   4  -7   5 1169.48   35.00
  -5   7  -5    3.20    1.20
  -5   7  -5    1.90    2.00
  -5   7  -5    0.40    1.80
   5  -7   5    3.00    2.30
   5  -7   5    2.50    2.20
  -6   7  -5   46.30    6.00
  -6   7  -5   48.10    6.40
  -6   7  -5   43.80    3.00
   6  -7   5   49.30    7.10
  -7   7  -5    0.00    0.60
  -7   7  -5    0.70    2.80
   7  -7   5   -3.10    2.20
   7   6  -5   15.30    4.50
   7   6  -5   12.60    3.70
   7   6  -5    9.20    2.80
   7   6  -5   14.20    4.30
   7   6  -5    9.80    2.90
   7   6  -5   13.80    3.60
  -7  -6   5   17.00    3.80
  -7  -6   5   14.90    3.30
  -7  -6   5   15.00    4.10
  -7  -6   5   16.00    4.70
   6   6  -5   74.99    5.60
   6   6  -5   65.99    6.20
   6   6  -5   87.69    6.90
   6   6  -5   78.79    6.70
   6   6  -5   65.39    6.00
   6   6  -5   61.99    5.70
  -6  -6   5   65.59    6.90
  -6  -6   5   68.59    5.20
  -6  -6   5   83.19    7.80
  -6  -6   5   73.59    6.90
  -6  -6   5   68.19    6.10
  -6  -6   5   64.99    6.10
   5   6  -5   29.80    4.70
   5   6  -5   36.90    5.00
   5   6  -5   36.90    5.10
   5   6  -5   31.30    4.50
   5   6  -5   37.20    3.70
   5   6  -5   40.10    5.10
  -5  -6   5   39.70    5.10
  -5  -6   5   37.10    5.00
  -5  -6   5   50.89    5.40
  -5  -6   5   42.80    6.50
  -5  -6   5   29.70    4.40
  -5  -6   5   34.40    3.40
   4   6  -5  505.45   16.60
   4   6  -5  537.35   14.80
   4   6  -5  532.75   17.30
   4   6  -5  548.75   17.80
   4   6  -5  526.95   17.00
   4   6  -5  547.95   17.20
  -4  -6   5  512.95   16.60
  -4  -6   5  533.25   16.80
  -4  -6   5  518.85   14.20
  -4  -6   5  514.45   19.60
  -4  -6   5  525.95   16.40
  -4  -6   5  543.95   17.40
   3   6  -5 1874.11   41.60
   3   6  -5 1735.93   37.00
   3   6  -5 1714.53   40.00
   3   6  -5 1751.02   39.30
   3   6  -5 1715.23   39.70
   3   6  -5 1665.33   39.70
   3   6  -5 1713.33   41.40
  -3  -6   5 1830.12   39.40
  -3  -6   5 1752.72   42.00
  -3  -6   5 1743.13   36.50
  -3  -6   5 1802.62   44.60
  -3  -6   5 1761.62   39.50
  -3  -6   5 1764.62   40.00
   2   6  -5  185.18    8.70
   2   6  -5  183.68    7.60
   2   6  -5  172.78    7.50
   2   6  -5  174.18    7.60
   2   6  -5  171.08    7.10
  -2  -6   5  162.18    8.60
  -2  -6   5  175.88    6.00
  -2  -6   5  162.88    9.80
  -2  -6   5  177.38    7.20
  -2  -6   5  167.58    7.20
  -2  -6   5  169.08    7.30
   1   6  -5    1.00    1.00
   1   6  -5    3.00    1.30
   1   6  -5    2.60    1.10
   1   6  -5    1.90    0.90
   1   6  -5    3.00    1.40
   1   6  -5    2.00    1.40
  -1  -6   5    0.00    1.00
  -1  -6   5    3.30    1.20
  -1  -6   5    2.20    1.10
  -1  -6   5    2.50    1.00
  -1  -6   5    5.20    1.80
   0   6  -5   45.30    2.80
   0   6  -5   46.20    3.00
   0   6  -5   51.99    3.10
   0   6  -5   49.50    4.20
   0  -6   5   50.69    2.80
   0  -6   5   48.70    2.70
   0  -6   5   50.59    2.80
   0  -6   5   48.80    2.80
   0  -6   5   49.20    4.30
  -1   6  -5  168.08    5.00
  -1   6  -5  157.78    7.80
  -1   6  -5  162.78    5.40
  -1   6  -5  162.08    5.10
  -1   6  -5  157.88    6.40
   1  -6   5  158.98    9.00
   1  -6   5  157.58    3.70
  -2   6  -5  130.79    6.30
  -2   6  -5  135.09    3.50
  -2   6  -5  129.89    7.20
  -2   6  -5  131.59    3.60
  -2   6  -5  134.99    3.70
  -2   6  -5  134.29    3.90
   2  -6   5  141.69    8.30
  -3   6  -5  888.91   22.20
  -3   6  -5  905.71   23.90
  -3   6  -5  975.10   25.30
   3  -6   5  945.71   26.10
   3  -6   5  944.21   24.90
  -4   6  -5 1713.73   40.80
  -4   6  -5 1714.73   36.80
  -4   6  -5 1666.73   40.10
   4  -6   5 1760.22   41.70
   4  -6   5 1722.83   41.00
  -5   6  -5   85.09    4.50
  -5   6  -5   66.29    5.90
   5  -6   5   74.89    5.80
   5  -6   5   84.29    6.90
  -6   6  -5   22.70    2.70
  -6   6  -5   23.90    1.70
  -6   6  -5   28.20    4.70
  -6   6  -5   21.30    1.50
  -6   6  -5   23.00    1.20
   6  -6   5   22.70    4.90
  -7   6  -5   24.70    2.30
  -7   6  -5   17.70    1.70
  -7   6  -5   21.80    4.40
  -7   6  -5   15.60    1.80
   7  -6   5   18.30    5.00
   8   5  -5    3.60    3.20
   8   5  -5   -0.30    2.60
   8   5  -5    1.70    2.60
   8   5  -5    3.90    2.60
   8   5  -5    8.40    3.70
  -8  -5   5    2.80    2.40
  -8  -5   5    3.30    2.90
  -8  -5   5   -1.60    3.00
   7   5  -5  115.49    7.30
   7   5  -5   99.59    8.30
   7   5  -5  114.89    8.60
   7   5  -5  113.49    8.40
   7   5  -5  117.19    8.40
   7   5  -5  115.39    8.00
  -7  -5   5  101.29    7.60
  -7  -5   5  116.79    7.00
  -7  -5   5  109.09    8.60
  -7  -5   5  101.99    7.70
  -7  -5   5  110.59    8.60
  -7  -5   5  106.29    7.70
   6   5  -5   22.90    4.20
   6   5  -5   24.40    4.20
   6   5  -5   20.80    4.20
   6   5  -5   23.60    4.40
   6   5  -5   29.70    4.70
   6   5  -5   20.50    3.80
  -6  -5   5   26.00    4.90
  -6  -5   5   32.80    5.70
  -6  -5   5   28.20    4.20
  -6  -5   5   21.10    4.50
  -6  -5   5   22.20    4.30
  -6  -5   5   30.30    3.80
   5   5  -5  178.68    9.40
   5   5  -5  183.38   11.00
   5   5  -5  193.08    9.30
   5   5  -5  189.48    7.90
   5   5  -5  190.38    9.30
   5   5  -5  214.48   10.10
  -5  -5   5  193.58    7.70
  -5  -5   5  193.18    9.00
  -5  -5   5  190.48   10.70
  -5  -5   5  197.88    9.50
  -5  -5   5  195.28    9.30
  -5  -5   5  220.18   10.30
   4   5  -5   93.29    4.80
   4   5  -5   87.59    6.30
   4   5  -5  102.49    6.20
   4   5  -5   92.09    5.80
   4   5  -5   81.59    5.90
   4   5  -5   96.09    5.80
   4   5  -5  101.29    6.30
  -4  -5   5   95.79    7.20
  -4  -5   5   93.89    5.90
  -4  -5   5   98.09    5.70
  -4  -5   5   95.99    5.90
  -4  -5   5   84.59    6.20
  -4  -5   5  100.69    4.60
  -4  -5   5   85.29    5.90
   3   5  -5   49.60    3.70
   3   5  -5   42.50    2.80
   3   5  -5   43.80    3.90
   3   5  -5   37.60    3.70
   3   5  -5   32.60    3.20
   3   5  -5   39.90    3.50
  -3  -5   5   37.80    3.40
  -3  -5   5   43.00    4.70
  -3  -5   5   43.80    2.50
  -3  -5   5   38.80    3.40
  -3  -5   5   47.80    4.40
  -3  -5   5   48.90    4.00
  -3  -5   5   40.60    3.30
   2   5  -5   65.69    3.90
   2   5  -5   69.09    4.20
   2   5  -5   61.59    4.00
   2   5  -5   56.79    4.40
  -2  -5   5   68.29    3.90
  -2  -5   5   61.19    4.00
  -2  -5   5   68.49    4.10
  -2  -5   5   66.49    5.80
  -2  -5   5   65.19    2.80
  -2  -5   5   69.29    5.00
   1   5  -5   13.30    1.30
   1   5  -5   16.30    2.10
   1   5  -5   17.30    2.20
   1   5  -5   16.40    2.70
   1   5  -5   16.50    2.10
   1   5  -5   18.60    1.90
  -1  -5   5   19.20    3.80
  -1  -5   5   16.50    2.00
  -1  -5   5   13.20    2.70
  -1  -5   5   14.20    1.30
  -1  -5   5   16.50    2.00
   0   5  -5   22.10    1.80
   0   5  -5   16.40    1.50
   0   5  -5   17.20    2.70
   0   5  -5   18.30    1.60
   0   5  -5   18.20    1.70
   0   5  -5   19.70    1.70
   0  -5   5   19.80    1.50
   0  -5   5   17.90    1.50
   0  -5   5   16.80    2.90
   0  -5   5   16.60    3.30
   0  -5   5   18.40    1.40
   0  -5   5   17.00    1.50
  -1   5  -5  142.29    4.30
  -1   5  -5  142.09    6.60
  -1   5  -5  138.49    4.10
  -1   5  -5  141.59    6.70
  -1   5  -5  144.09    4.10
   1  -5   5  154.48    8.30
  -2   5  -5  418.56   12.30
  -2   5  -5  398.76   13.00
   2  -5   5  420.16   14.70
   2  -5   5  404.96   12.70
  -3   5  -5   33.60    3.40
  -3   5  -5   28.00    3.70
  -3   5  -5   26.40    2.60
   3  -5   5   35.60    3.90
   3  -5   5   31.10    4.10
  -4   5  -5  543.25   16.90
  -4   5  -5  542.15   14.60
   4  -5   5  549.25   17.70
   4  -5   5  513.15   16.90
  -5   5  -5  440.56    9.70
  -5   5  -5  424.46    9.90
  -5   5  -5  446.56   12.80
  -5   5  -5  442.36   10.20
  -5   5  -5  470.15   16.20
  -5   5  -5  447.06    9.60
   5  -5   5  451.05   16.90
  -6   5  -5   58.09    3.20
  -6   5  -5   54.79    2.90
  -6   5  -5   50.19    3.80
  -6   5  -5   48.80    2.90
  -6   5  -5   53.89    5.50
  -6   5  -5   52.69    2.80
   6  -5   5   39.40    6.30
  -7   5  -5  107.09    4.90
  -7   5  -5  108.49    5.00
  -7   5  -5  111.19    8.60
  -7   5  -5  101.69    4.60
  -7   5  -5  103.09    5.20
  -7   5  -5  123.69    6.00
   7  -5   5  124.59    9.80
   8   4  -5    3.20    3.50
   8   4  -5    1.70    2.20
   8   4  -5   -0.10    2.20
   8   4  -5    0.50    2.40
   8   4  -5    3.40    3.10
  -8  -4   5    1.40    2.90
  -8  -4   5   -2.70    1.80
  -8  -4   5    0.30    2.60
  -8  -4   5   -0.20    2.30
  -8  -4   5    3.60    3.30
   7   4  -5   -1.70    2.10
   7   4  -5    0.70    1.30
   7   4  -5   -0.30    1.60
   7   4  -5    0.70    1.60
   7   4  -5    3.20    1.90
   7   4  -5   -0.50    1.50
   7   4  -5    0.80    2.60
  -7  -4   5    1.50    2.00
  -7  -4   5    0.30    1.70
  -7  -4   5    1.60    2.60
  -7  -4   5   -0.70    1.50
  -7  -4   5   -2.60    2.10
   6   4  -5   41.90    4.30
   6   4  -5   32.80    5.60
   6   4  -5   54.49    4.40
   6   4  -5   40.90    5.30
   6   4  -5   35.00    5.00
  -6  -4   5   32.70    4.60
  -6  -4   5   40.50    4.90
  -6  -4   5   40.30    5.40
  -6  -4   5   33.30    4.60
  -6  -4   5   43.70    5.00
   5   4  -5  680.83   19.30
   5   4  -5  633.14   19.40
   5   4  -5  658.53   19.00
   5   4  -5  623.94   16.90
   5   4  -5  659.93   19.90
   5   4  -5  638.64   19.30
   5   4  -5  630.14   19.20
  -5  -4   5  634.44   19.70
  -5  -4   5  641.44   16.60
  -5  -4   5  601.64   20.40
  -5  -4   5  641.04   18.50
  -5  -4   5  679.93   19.10
  -5  -4   5  635.24   19.10
  -5  -4   5  647.44   19.60
   4   4  -5  225.38    9.40
   4   4  -5  208.28    8.70
   4   4  -5  234.78    9.10
   4   4  -5  222.68    9.70
   4   4  -5  222.08    9.10
   4   4  -5  219.48    7.40
   4   4  -5  215.88    9.20
  -4  -4   5  220.98    9.00
  -4  -4   5  219.38    9.50
  -4  -4   5  205.58    9.30
  -4  -4   5  210.28   10.20
  -4  -4   5  223.58    8.70
  -4  -4   5  223.38    8.90
  -4  -4   5  218.88    7.00
   3   4  -5  207.38    8.50
   3   4  -5  213.98    8.20
   3   4  -5  213.48    8.10
   3   4  -5  213.88    6.30
   3   4  -5  212.58    8.30
   3   4  -5  219.08    8.10
  -3  -4   5  203.98    7.90
  -3  -4   5  210.68    5.90
  -3  -4   5  207.48    8.30
  -3  -4   5  216.98    7.90
  -3  -4   5  207.98    9.80
  -3  -4   5  212.68    8.10
  -3  -4   5  208.98    9.00
   2   4  -5  897.71   20.90
   2   4  -5  889.11   21.10
   2   4  -5  875.71   20.70
   2   4  -5  891.71   21.90
   2   4  -5  879.51   18.20
   2   4  -5  901.21   20.70
  -2  -4   5  876.51   22.30
  -2  -4   5  878.91   21.00
  -2  -4   5  877.21   20.30
  -2  -4   5  887.91   20.60
  -2  -4   5  899.01   24.40
  -2  -4   5  866.21   17.50
   1   4  -5   68.79    2.30
   1   4  -5   66.29    3.40
   1   4  -5   63.09    3.20
   1   4  -5   65.79    3.50
   1   4  -5   71.29    3.40
   1   4  -5   70.89    4.20
  -1  -4   5   63.19    3.10
  -1  -4   5   70.89    3.30
  -1  -4   5   61.09    3.20
  -1  -4   5   69.09    4.30
  -1  -4   5   67.09    5.10
   0   4  -5  214.98    7.80
   0   4  -5  221.28    6.00
   0   4  -5  210.28    6.10
   0   4  -5  222.48    6.20
   0   4  -5  211.58    6.10
   0   4  -5  209.68    5.90
   0  -4   5  217.88    5.60
   0  -4   5  210.18    5.60
   0  -4   5  218.28    8.00
   0  -4   5  216.48    9.50
   0  -4   5  208.38    5.60
  -1   4  -5  461.05   11.80
  -1   4  -5  463.75   13.00
  -1   4  -5  456.85    9.50
  -1   4  -5  450.05    9.50
  -1   4  -5  436.76    9.40
   1  -4   5  436.76   14.80
   1  -4   5  457.45   12.10
  -2   4  -5  529.05   14.20
  -2   4  -5  515.25   14.50
  -2   4  -5  533.25   14.40
   2  -4   5  515.75   14.60
   2  -4   5  520.35   16.30
  -3   4  -5   77.09    4.40
  -3   4  -5   80.49    4.90
   3  -4   5   68.49    4.90
   3  -4   5   74.89    5.40
  -4   4  -5   36.90    1.90
  -4   4  -5   36.30    1.70
  -4   4  -5   36.00    1.70
  -4   4  -5   33.30    3.00
  -4   4  -5   32.50    4.20
  -4   4  -5   36.10    1.80
  -5   4  -5   53.89    3.30
  -5   4  -5   61.89    2.90
  -5   4  -5   62.69    4.20
  -5   4  -5   51.79    5.00
  -5   4  -5   62.69    3.20
   5  -4   5   66.99    6.10
  -6   4  -5   70.69    6.30
  -6   4  -5   73.09    4.80
  -6   4  -5   76.29    4.30
  -6   4  -5   78.29    3.90
  -6   4  -5   84.39    4.20
   6  -4   5   86.29    7.40
  -7   4  -5    5.00    1.70
  -7   4  -5    9.70    2.00
  -7   4  -5    4.70    1.70
  -7   4  -5    9.40    3.00
  -7   4  -5    8.20    2.70
  -7   4  -5    6.10    1.90
  -7   4  -5   10.20    3.10
   7  -4   5    5.20    3.00
   9   3  -5   11.20    3.60
   9   3  -5   12.50    4.50
   9   3  -5   15.60    4.20
  -9  -3   5   13.60    3.80
  -9  -3   5    9.50    3.60
  -9  -3   5    8.30    4.10
  -9  -3   5   14.50    3.50
   8   3  -5   -0.50    2.20
   8   3  -5    6.40    3.30
   8   3  -5    5.60    2.30
   8   3  -5    5.50    2.60
   8   3  -5    6.70    2.60
   8   3  -5    6.40    2.60
  -8  -3   5    8.30    2.80
  -8  -3   5    3.60    2.80
  -8  -3   5    4.80    2.60
  -8  -3   5    3.60    3.00
  -8  -3   5    8.20    2.90
   7   3  -5    2.40    1.70
   7   3  -5    5.00    2.10
   7   3  -5    2.40    2.00
   7   3  -5    0.50    1.90
   7   3  -5    1.30    1.40
   7   3  -5    2.00    1.70
  -7  -3   5    0.30    1.70
  -7  -3   5    0.40    1.40
  -7  -3   5    1.60    1.80
  -7  -3   5   -0.70    1.10
  -7  -3   5    0.30    1.80
   6   3  -5   55.89    4.70
   6   3  -5   45.00    4.00
   6   3  -5   49.99    5.00
   6   3  -5   56.19    6.80
   6   3  -5   51.99    4.80
   6   3  -5   40.50    4.30
   6   3  -5   45.00    4.70
  -6  -3   5   44.30    4.70
  -6  -3   5   45.70    7.90
  -6  -3   5   52.19    5.10
  -6  -3   5   51.79    4.90
  -6  -3   5   47.70    4.20
  -6  -3   5   46.60    4.50
   5   3  -5  278.87   11.00
   5   3  -5  259.27   10.30
   5   3  -5  274.37   10.70
   5   3  -5  269.87   10.90
   5   3  -5  277.07    9.30
   5   3  -5  273.27   10.80
   5   3  -5  262.07   10.80
  -5  -3   5  270.17   10.40
  -5  -3   5  267.67   11.30
  -5  -3   5  298.27   11.20
  -5  -3   5  299.87   11.40
  -5  -3   5  281.27   11.20
  -5  -3   5  282.97   10.30
   4   3  -5   81.59    5.00
   4   3  -5   75.09    4.90
   4   3  -5   75.49    4.90
   4   3  -5   64.39    4.30
   4   3  -5   76.19    5.00
   4   3  -5   78.59    3.80
  -4  -3   5   68.79    4.50
  -4  -3   5   76.89    5.00
  -4  -3   5   67.99    4.60
  -4  -3   5   86.49    5.70
  -4  -3   5   78.19    5.60
   3   3  -5    0.80    0.80
   3   3  -5    1.00    1.00
   3   3  -5    0.60    0.90
   3   3  -5    1.40    0.60
   3   3  -5    1.30    1.00
   3   3  -5    1.10    1.00
  -3  -3   5    0.80    1.10
  -3  -3   5    4.60    1.60
  -3  -3   5    0.90    0.90
  -3  -3   5    1.20    1.00
  -3  -3   5    2.10    0.90
  -3  -3   5    0.60    1.40
  -3  -3   5    3.60    1.20
   2   3  -5  223.78    4.80
   2   3  -5  221.78    7.50
   2   3  -5  214.68    7.70
   2   3  -5  222.18    7.30
   2   3  -5  215.68    7.40
   2   3  -5  216.48    7.30
  -2  -3   5  223.48    8.00
  -2  -3   5  220.88    9.40
  -2  -3   5  221.08    7.10
  -2  -3   5  219.08    7.00
  -2  -3   5  221.88    7.60
   1   3  -5  998.80   21.30
   1   3  -5  988.10   21.50
   1   3  -5  981.30   21.50
   1   3  -5  997.90   22.40
   1   3  -5  989.70   21.40
  -1  -3   5 1001.70   20.90
  -1  -3   5  953.50   25.10
  -1  -3   5 1000.70   22.80
  -1  -3   5 1011.50   21.00
  -1  -3   5 1003.30   21.40
   0   3  -5    0.50    0.50
   0   3  -5    0.40    0.40
   0   3  -5    0.50    0.50
   0   3  -5    0.30    0.40
   0   3  -5    0.00    0.50
   0   3  -5   -0.40    0.30
   0  -3   5    0.40    0.30
   0  -3   5   -0.20    0.60
   0  -3   5   -0.20    0.20
   0  -3   5   -0.10    0.90
   0  -3   5   -0.10    0.30
   0  -3   5    1.60    0.60
   0  -3   5   -0.20    0.40
  -1   3  -5  147.79    5.60
  -1   3  -5  141.69    3.60
  -1   3  -5  148.39    6.20
  -1   3  -5  149.59    3.70
  -1   3  -5  150.98    3.80
  -1   3  -5  150.48    3.80
   1  -3   5  150.08    5.50
   1  -3   5  161.78    7.60
  -2   3  -5   46.60    1.40
  -2   3  -5   47.10    1.50
  -2   3  -5   46.50    1.50
  -2   3  -5   47.20    1.30
  -2   3  -5   47.80    3.30
   2  -3   5   44.70    3.30
   2  -3   5   46.90    4.10
  -3   3  -5  110.69    3.30
  -3   3  -5  103.29    3.30
  -3   3  -5  103.39    5.10
  -3   3  -5  104.69    3.20
  -3   3  -5  103.99    3.40
   3  -3   5   93.19    5.70
   3  -3   5  107.29    6.30
  -4   3  -5    9.90    2.00
  -4   3  -5    8.70    1.30
  -4   3  -5    8.30    1.30
  -4   3  -5   10.30    1.50
  -4   3  -5    9.70    1.30
   4  -3   5   10.70    3.10
  -5   3  -5   12.50    2.40
  -5   3  -5   16.00    2.10
  -5   3  -5   12.70    1.90
  -5   3  -5   17.90    2.20
  -5   3  -5   17.70    2.30
   5  -3   5   16.10    1.20
   5  -3   5   17.90    1.60
   5  -3   5   16.30    1.00
   5  -3   5   20.30    4.00
   5  -3   5   15.40    1.10
  -6   3  -5  132.19    6.00
  -6   3  -5  136.49    6.90
  -6   3  -5  133.69    5.90
  -6   3  -5  135.09    7.10
  -6   3  -5  141.59    6.30
  -6   3  -5  135.19    5.90
   6  -3   5  128.49    4.60
   6  -3   5  137.09    9.30
  -7   3  -5   19.10    3.00
  -7   3  -5   11.30    2.90
  -7   3  -5   15.00    2.60
  -7   3  -5   11.60    2.40
  -7   3  -5   15.00    2.50
  -7   3  -5   11.90    2.70
   7  -3   5   11.40    2.10
   7  -3   5   11.00    2.20
   7  -3   5   12.90    4.30
   9   2  -5   27.80    5.40
   9   2  -5   21.60    4.80
   9   2  -5   34.80    5.60
   9   2  -5   21.70    4.20
  -9  -2   5   22.30    4.50
  -9  -2   5   16.70    4.30
  -9  -2   5   30.60    4.50
  -9  -2   5   22.70    4.60
  -9  -2   5   21.90    4.50
  -9  -2   5   18.00    4.10
   8   2  -5  329.27   14.20
   8   2  -5  332.47   13.80
   8   2  -5  345.77   14.80
   8   2  -5  332.97   14.30
   8   2  -5  319.97   13.60
  -8  -2   5  349.77   13.70
  -8  -2   5  341.17   14.00
  -8  -2   5  314.27   14.60
  -8  -2   5  332.77   14.90
  -8  -2   5  318.27   14.00
  -8  -2   5  328.37   12.70
   7   2  -5   13.40    3.30
   7   2  -5   14.70    3.30
   7   2  -5   10.50    2.80
   7   2  -5   14.10    3.20
   7   2  -5   10.70    2.90
   7   2  -5    8.70    2.50
  -7  -2   5   16.00    3.50
  -7  -2   5   18.30    4.00
  -7  -2   5   11.60    2.90
  -7  -2   5   12.50    3.20
  -7  -2   5   11.80    2.70
   6   2  -5  118.29    7.10
   6   2  -5  112.99    6.70
   6   2  -5  124.59    6.90
   6   2  -5  124.69    7.30
   6   2  -5  115.89    7.00
   6   2  -5  121.59    6.40
   6   2  -5  112.29    6.90
  -6  -2   5  106.69    6.40
  -6  -2   5  125.09    6.90
  -6  -2   5  125.99    7.20
  -6  -2   5  113.29    6.80
  -6  -2   5  117.69    6.70
  -6  -2   5  116.39    7.30
   5   2  -5  151.18    7.40
   5   2  -5  165.38    7.50
   5   2  -5  152.38    7.60
   5   2  -5  158.58    7.70
   5   2  -5  173.98    6.80
   5   2  -5  149.09    7.60
  -5  -2   5  165.48    7.70
  -5  -2   5  151.38    7.30
  -5  -2   5  162.48    8.00
  -5  -2   5  176.88    8.10
  -5  -2   5  160.58    7.30
  -5  -2   5  151.88    7.50
   4   2  -5   50.39    3.00
   4   2  -5   51.59    3.90
   4   2  -5   55.89    4.20
   4   2  -5   55.09    3.90
   4   2  -5   56.99    4.00
   4   2  -5   54.49    4.10
  -4  -2   5   52.79    4.20
  -4  -2   5   54.79    2.80
  -4  -2   5   48.80    3.70
  -4  -2   5   50.29    3.50
  -4  -2   5   51.29    3.90
  -4  -2   5   53.69    3.80
   3   2  -5   15.30    2.20
   3   2  -5   15.10    2.20
   3   2  -5   16.20    1.30
   3   2  -5   16.00    2.40
   3   2  -5   18.80    2.50
   3   2  -5   15.90    2.30
  -3  -2   5   14.30    2.20
  -3  -2   5   20.10    2.60
  -3  -2   5   17.80    2.50
  -3  -2   5   20.30    3.20
  -3  -2   5   17.70    2.30
  -3  -2   5   19.30    2.40
  -3  -2   5   13.80    1.10
   2   2  -5 1311.37   28.50
   2   2  -5 1309.47   28.10
   2   2  -5 1354.06   28.40
   2   2  -5 1297.97   28.40
  -2  -2   5 1341.47   27.80
  -2  -2   5 1291.37   28.50
  -2  -2   5 1303.27   28.30
  -2  -2   5 1324.97   28.00
  -2  -2   5 1322.57   30.90
  -2  -2   5 1305.27   28.20
   1   2  -5   35.60    2.30
   1   2  -5   35.60    1.10
   1   2  -5   34.90    2.30
   1   2  -5   37.40    2.30
   1   2  -5   36.70    2.20
   1   2  -5   37.30    2.30
  -1  -2   5   34.30    2.20
  -1  -2   5   38.40    2.40
  -1  -2   5   39.30    2.20
  -1  -2   5   36.80    3.50
  -1  -2   5   35.70    2.10
   0   2  -5    1.10    0.60
   0   2  -5    1.50    0.60
   0   2  -5    2.20    0.60
   0   2  -5    2.40    0.70
   0   2  -5    0.80    0.50
   0  -2   5    2.20    0.60
   0  -2   5    2.30    0.60
   0  -2   5    2.30    1.30
   0  -2   5    1.80    0.50
   0  -2   5    1.60    0.70
   0  -2   5    1.80    0.60
   0  -2   5    2.50    0.70
  -1   2  -5  598.14   12.80
  -1   2  -5  592.94   15.40
  -1   2  -5  592.44   12.90
  -1   2  -5  581.54   13.60
  -1   2  -5  604.74   12.70
  -1   2  -5  593.94   12.70
   1  -2   5  598.64   11.60
   1  -2   5  600.14   17.10
   1  -2   5  598.84   11.80
   1  -2   5  590.24   11.80
   1  -2   5  591.24   11.60
   1  -2   5  605.24   14.40
  -2   2  -5  757.82   16.40
  -2   2  -5  788.82   19.10
  -2   2  -5  776.62   16.30
  -2   2  -5  803.62   16.20
   2  -2   5  769.72   14.80
   2  -2   5  796.12   21.00
   2  -2   5  772.02   19.10
   2  -2   5  766.92   15.00
   2  -2   5  745.33   14.80
   2  -2   5  758.72   15.10
  -3   2  -5   70.19    3.00
  -3   2  -5   74.89    3.40
  -3   2  -5   74.39    4.40
  -3   2  -5   71.69    3.20
  -3   2  -5   75.89    3.30
   3  -2   5   65.89    2.50
   3  -2   5   70.89    2.60
   3  -2   5   80.09    5.00
   3  -2   5   70.39    2.60
   3  -2   5   73.29    2.50
   3  -2   5   73.69    4.50
  -4   2  -5    8.40    1.60
  -4   2  -5    8.60    1.50
  -4   2  -5   11.00    1.70
  -4   2  -5    7.40    1.50
  -4   2  -5    8.50    2.00
   4  -2   5    6.00    1.20
   4  -2   5    7.00    1.20
   4  -2   5    6.90    1.90
   4  -2   5    7.50    1.10
   4  -2   5    8.00    1.30
  -5   2  -5   74.99    4.20
  -5   2  -5   73.39    4.90
  -5   2  -5   64.89    4.40
  -5   2  -5   62.49    3.80
  -5   2  -5   73.09    4.30
   5  -2   5   70.09    5.10
   5  -2   5   73.59    3.60
   5  -2   5   68.59    3.60
   5  -2   5   67.49    3.60
   5  -2   5   61.99    5.70
  -6   2  -5   76.19    5.00
  -6   2  -5   88.29    5.80
  -6   2  -5   93.09    5.20
  -6   2  -5   87.49    5.10
  -6   2  -5   90.99    5.10
  -6   2  -5   92.89    5.90
   6  -2   5   84.59    4.40
   6  -2   5   84.59    4.50
   6  -2   5   84.69    7.30
   6  -2   5   82.39    5.70
  -7   2  -5   19.30    3.50
  -7   2  -5   19.00    3.10
  -7   2  -5   18.90    3.30
  -7   2  -5   18.10    2.80
  -7   2  -5   22.30    3.30
  -7   2  -5   19.50    3.40
   7  -2   5   19.30    2.80
   7  -2   5    7.30    2.60
   7  -2   5   13.90    2.70
   7  -2   5   17.90    4.70
   9   1  -5  242.68   12.50
   9   1  -5  220.08   12.00
   9   1  -5  210.38   12.30
  -9  -1   5  225.28   11.20
  -9  -1   5  216.38   11.00
  -9  -1   5  211.58   12.00
  -9  -1   5  213.08   11.80
  -9  -1   5  219.58   11.60
   8   1  -5   34.70    5.20
   8   1  -5   33.50    5.30
   8   1  -5   31.60    4.90
   8   1  -5   28.50    4.30
   8   1  -5   33.70    4.40
   8   1  -5   32.70    4.90
  -8  -1   5   30.20    4.50
  -8  -1   5   23.20    4.00
  -8  -1   5   39.00    5.40
  -8  -1   5   33.40    5.00
  -8  -1   5   31.70    5.10
  -8  -1   5   30.90    3.50
   7   1  -5    0.80    1.60
   7   1  -5   -1.70    0.90
   7   1  -5    2.60    2.20
   7   1  -5    0.10    1.20
   7   1  -5   -2.80    1.20
  -7  -1   5    0.40    1.30
  -7  -1   5    1.20    1.70
  -7  -1   5    0.90    1.30
  -7  -1   5    0.50    1.90
  -7  -1   5   -2.00    1.30
  -7  -1   5   -0.70    1.10
   6   1  -5  301.47   11.20
   6   1  -5  301.97   11.00
   6   1  -5  291.17   11.70
   6   1  -5  293.57   10.80
   6   1  -5  310.57   11.80
   6   1  -5  296.37   11.60
  -6  -1   5  307.87   10.40
  -6  -1   5  294.07   11.20
  -6  -1   5  306.87   11.60
  -6  -1   5  302.27   10.70
  -6  -1   5  279.87   11.80
  -6  -1   5  282.97   11.50
  -6  -1   5  298.47   11.00
   5   1  -5  210.28    8.90
   5   1  -5  199.48    8.40
   5   1  -5  198.58    8.70
   5   1  -5  216.28    7.90
   5   1  -5  200.18    8.90
  -5  -1   5  217.38    8.70
  -5  -1   5  218.98    7.60
  -5  -1   5  213.58    8.40
  -5  -1   5  204.28    8.40
  -5  -1   5  221.58    9.00
  -5  -1   5  217.98    9.30
  -5  -1   5  216.78    8.70
   4   1  -5   14.10    2.50
   4   1  -5   17.10    2.10
   4   1  -5   18.90    2.80
   4   1  -5   13.80    2.40
   4   1  -5   13.00    2.30
   4   1  -5   14.10    2.40
  -4  -1   5   13.60    2.50
  -4  -1   5   16.30    2.70
  -4  -1   5   14.40    2.30
  -4  -1   5   18.20    2.60
  -4  -1   5   11.60    1.90
  -4  -1   5   13.00    2.40
  -4  -1   5   13.00    1.70
   3   1  -5    0.60    0.70
   3   1  -5    4.60    0.90
   3   1  -5    0.10    0.70
   3   1  -5    1.20    0.80
   3   1  -5    0.60    0.60
   3   1  -5    0.00    0.80
  -3  -1   5    0.90    0.70
  -3  -1   5   -0.10    0.80
  -3  -1   5    0.40    0.90
  -3  -1   5    0.60    0.60
  -3  -1   5    0.20    0.60
  -3  -1   5   -0.40    0.60
  -3  -1   5    0.80    0.40
   2   1  -5  560.74   13.40
   2   1  -5  584.24   14.50
   2   1  -5  567.74   14.20
   2   1  -5  555.04   13.90
   2   1  -5  555.74   11.70
  -2  -1   5  562.04   13.90
  -2  -1   5  603.14   13.60
  -2  -1   5  560.04   13.80
  -2  -1   5  550.94   11.70
  -2  -1   5  540.65   11.50
  -2  -1   5  570.34   14.40
  -2  -1   5  565.84   14.10
  -2  -1   5  565.64   15.80
   1   1  -5   53.69    3.00
   1   1  -5   59.49    2.60
   1   1  -5   50.49    2.80
   1   1  -5   57.59    3.00
   1   1  -5   54.89    2.40
   1   1  -5   51.49    2.90
  -1  -1   5   51.39    1.80
  -1  -1   5   53.89    2.70
  -1  -1   5   49.20    3.80
  -1  -1   5   53.29    3.00
  -1  -1   5   55.09    2.50
  -1  -1   5   58.49    2.90
   0   1  -5    3.10    0.80
   0   1  -5    2.00    0.70
   0   1  -5    2.30    0.70
   0   1  -5    2.00    0.70
   0   1  -5    2.40    0.40
   0   1  -5    4.40    1.30
   0  -1   5    1.10    1.00
   0  -1   5    1.70    0.60
   0  -1   5    2.10    0.70
   0  -1   5    0.70    0.40
   0  -1   5    3.00    0.70
   0  -1   5    0.90    0.50
  -1   1  -5   58.99    2.90
  -1   1  -5   57.29    2.80
  -1   1  -5   57.89    2.70
  -1   1  -5   62.19    2.90
  -1   1  -5   56.89    3.60
  -1   1  -5   57.89    2.20
   1  -1   5   58.29    2.60
   1  -1   5   60.09    2.60
   1  -1   5   59.39    2.60
   1  -1   5   58.39    2.70
   1  -1   5   59.39    3.30
  -2   1  -5   33.10    2.20
  -2   1  -5   40.00    3.20
  -2   1  -5   36.10    2.30
  -2   1  -5   31.60    2.30
   2  -1   5   34.70    2.00
   2  -1   5   39.60    2.20
   2  -1   5   33.50    1.90
   2  -1   5   31.20    2.90
   2  -1   5   36.40    2.20
   2  -1   5   36.40    3.00
  -3   1  -5   10.70    1.70
  -3   1  -5   11.60    1.80
  -3   1  -5    7.90    1.90
  -3   1  -5   10.00    1.70
  -3   1  -5    8.10    1.40
  -3   1  -5    8.20    1.50
   3  -1   5    8.30    1.30
   3  -1   5   11.80    2.40
   3  -1   5   10.20    1.50
   3  -1   5    9.50    1.50
   3  -1   5   10.00    1.60
   3  -1   5   10.30    2.00
  -4   1  -5    0.50    0.80
  -4   1  -5   -1.00    0.70
  -4   1  -5    0.00    0.80
  -4   1  -5    1.50    1.00
  -4   1  -5    0.80    1.00
  -4   1  -5    0.00    0.90
   4  -1   5    1.40    0.90
   4  -1   5    2.00    0.80
   4  -1   5    1.80    1.60
   4  -1   5   -0.20    1.00
   4  -1   5    1.20    0.90
   4  -1   5    1.10    0.90
  -5   1  -5   35.50    3.20
  -5   1  -5   25.70    3.30
  -5   1  -5   29.30    3.10
  -5   1  -5   29.90    4.00
  -5   1  -5   33.40    3.20
  -5   1  -5   32.20    2.90
   5  -1   5   22.20    2.30
   5  -1   5   31.80    4.70
   5  -1   5   24.00    4.40
   5  -1   5   28.30    3.80
   5  -1   5   24.30    3.00
  -6   1  -5    2.20    1.50
  -6   1  -5   -0.70    1.20
  -6   1  -5    2.10    1.30
  -6   1  -5    0.70    1.20
  -6   1  -5    2.00    1.30
   6  -1   5    3.10    1.60
   6  -1   5   -3.00    1.50
   6  -1   5    0.90    1.30
   6  -1   5    1.20    1.50
   6  -1   5    1.70    1.70
  -7   1  -5   10.90    2.40
  -7   1  -5    5.60    2.40
  -7   1  -5   11.30    2.80
  -7   1  -5    7.50    2.40
  -7   1  -5    8.20    2.50
  -7   1  -5    6.00    2.30
   7  -1   5    6.00    2.50
   7  -1   5   10.10    2.50
   7  -1   5    6.40    2.70
   9   0  -5   18.90    3.40
   9   0  -5   16.20    3.80
   9   0  -5   30.70    5.40
   9   0  -5   24.30    4.90
   9   0  -5   26.10    4.80
  -9   0   5   24.30    5.00
  -9   0   5   23.80    4.10
  -9   0   5   22.40    4.40
  -9   0   5   24.70    4.30
  -9   0   5   16.20    3.70
   8   0  -5   43.30    4.20
   8   0  -5   46.00    5.80
   8   0  -5   40.90    6.40
   8   0  -5   38.10    5.00
   8   0  -5   43.40    5.80
   8   0  -5   33.60    5.10
  -8   0   5   48.30    6.40
  -8   0   5   38.30    3.00
  -8   0   5   39.70    5.10
  -8   0   5   40.00    5.90
  -8   0   5   46.60    5.90
  -8   0   5   36.30    5.50
   7   0  -5   91.89    6.10
   7   0  -5   81.29    6.00
   7   0  -5   93.29    6.30
   7   0  -5   97.19    6.80
   7   0  -5   87.09    5.50
  -7   0   5   84.39    5.80
  -7   0   5   90.79    6.30
  -7   0   5   86.79    6.00
  -7   0   5   84.39    4.70
  -7   0   5   70.99    5.60
  -7   0   5   84.79    5.70
  -7   0   5   80.09    6.40
   6   0  -5    1.20    1.20
   6   0  -5   -1.20    1.40
   6   0  -5    0.90    1.00
   6   0  -5    0.90    1.00
   6   0  -5    0.70    1.10
  -6   0   5    2.00    1.30
  -6   0   5    0.30    1.70
  -6   0   5   -0.80    0.80
  -6   0   5    2.30    1.50
  -6   0   5    0.50    1.40
  -6   0   5    0.80    1.10
  -6   0   5    1.30    1.20
   5   0  -5   94.99    5.70
   5   0  -5   91.69    5.00
   5   0  -5   97.29    5.70
   5   0  -5   96.59    5.40
   5   0  -5   93.19    5.60
  -5   0   5   93.99    5.00
  -5   0   5   91.89    4.80
  -5   0   5   89.59    5.30
  -5   0   5   93.59    5.30
  -5   0   5   94.09    5.80
  -5   0   5   94.29    5.70
  -5   0   5   90.89    6.30
   4   0  -5  118.59    5.90
   4   0  -5  124.49    5.20
   4   0  -5  122.09    6.00
   4   0  -5  125.29    6.30
   4   0  -5  128.19    5.90
  -4   0   5  120.69    6.00
  -4   0   5  127.19    6.30
  -4   0   5  126.89    5.80
  -4   0   5  118.09    5.70
  -4   0   5  121.49    5.00
  -4   0   5  123.29    5.90
  -4   0   5  115.69    5.50
   3   0  -5    0.00    0.60
   3   0  -5    0.70    0.50
   3   0  -5    0.10    0.70
   3   0  -5    0.50    0.60
   3   0  -5    0.00    0.50
  -3   0   5    0.20    0.60
  -3   0   5    0.10    0.60
  -3   0   5    1.60    0.80
  -3   0   5    0.00    0.50
  -3   0   5    1.10    0.70
  -3   0   5    0.00    0.30
  -3   0   5   -0.20    0.70
   2   0  -5    3.00    1.10
   2   0  -5    2.30    0.90
   2   0  -5    2.70    0.60
   2   0  -5    1.80    0.90
   2   0  -5    3.00    1.00
  -2   0   5    2.40    0.70
  -2   0   5    2.60    1.30
  -2   0   5    2.50    0.90
  -2   0   5    2.10    0.70
  -2   0   5    3.40    1.10
  -2   0   5    2.40    1.00
  -2   0   5    3.50    1.20
   1   0  -5   -0.10    0.30
   1   0  -5    1.50    0.80
   1   0  -5    1.30    0.70
   1   0  -5    0.50    0.60
   1   0  -5    0.20    0.60
   1   0  -5   -0.70    0.40
  -1   0   5    0.60    0.70
  -1   0   5    0.10    0.30
  -1   0   5    0.30    0.40
  -1   0   5   -0.20    0.60
  -1   0   5    1.20    0.60
  -1   0   5    2.20    1.10
   0   0  -5   17.60    1.80
   0   0  -5   19.30    1.80
   0   0  -5   14.00    1.80
   0   0  -5   15.90    2.00
   0   0  -5   16.40    1.70
   0   0  -5   16.70    2.20
   0   0   5   15.60    1.70
   0   0   5   16.80    1.50
   0   0   5   15.00    1.80
   0   0   5   16.80    2.30
   0   0   5   16.50    1.70
  -1   0  -5  242.78    8.40
  -1   0  -5  236.68    7.40
  -1   0  -5  236.58    7.40
  -1   0  -5  235.78    7.60
  -1   0  -5  243.68    7.50
   1   0   5  242.78    8.50
   1   0   5  249.97    7.20
   1   0   5  251.37    7.90
   1   0   5  246.18    7.40
   1   0   5  240.68    7.40
  -2   0  -5    2.30    0.60
  -2   0  -5    0.30    0.90
  -2   0  -5    1.60    0.90
  -2   0  -5    1.10    0.80
  -2   0  -5    1.60    0.80
   2   0   5    3.10    1.20
   2   0   5    2.30    1.00
   2   0   5    1.00    0.60
   2   0   5    2.40    0.90
   2   0   5    1.10    0.70
  -3   0  -5    9.70    2.10
  -3   0  -5    8.00    1.70
  -3   0  -5    7.90    1.70
  -3   0  -5   10.60    1.90
  -3   0  -5   11.40    2.00
  -3   0  -5   10.20    1.50
   3   0   5    8.50    2.00
   3   0   5   10.60    2.30
   3   0   5    7.40    1.50
   3   0   5    6.20    1.50
   3   0   5   10.10    1.80
  -4   0  -5    3.00    1.20
  -4   0  -5    1.60    1.10
  -4   0  -5    0.50    1.00
  -4   0  -5    3.70    1.60
  -4   0  -5    3.00    1.50
  -4   0  -5    1.80    0.90
   4   0   5    0.40    1.10
   4   0   5    1.90    1.20
   4   0   5    0.60    1.00
   4   0   5    3.20    1.00
   4   0   5    2.40    1.50
  -5   0  -5  105.99    5.70
  -5   0  -5   96.49    5.80
  -5   0  -5   95.69    5.60
  -5   0  -5  103.99    5.40
  -5   0  -5   97.09    6.30
  -5   0  -5   99.89    5.80
   5   0   5  102.79    6.50
   5   0   5  102.49    7.30
   5   0   5  111.19    6.50
  -6   0  -5    7.70    2.40
  -6   0  -5    7.90    2.20
  -6   0  -5    4.10    2.00
  -6   0  -5    4.20    1.90
  -6   0  -5    8.10    2.20
  -6   0  -5    7.20    2.10
   6   0   5    7.60    2.30
   6   0   5    5.90    2.80
   6   0   5    8.70    2.10
   6   0   5    8.20    2.10
  -7   0  -5   16.50    3.70
  -7   0  -5   19.50    3.80
  -7   0  -5   15.00    3.40
  -7   0  -5   14.90    3.10
   7   0   5   17.80    4.90
   7   0   5   11.60    3.10
   7   0   5    8.00    3.30
  10  -1  -5    4.10    3.40
  10  -1  -5    5.80    2.50
  10  -1  -5    9.00    3.30
  10  -1  -5    3.70    3.30
 -10   1   5    1.90    3.10
 -10   1   5    5.70    3.40
 -10   1   5    2.50    3.10
 -10   1   5    2.10    3.00
   9  -1  -5  137.09    9.50
   9  -1  -5  135.29    7.00
   9  -1  -5  117.69    8.60
   9  -1  -5  143.39    9.50
  -9   1   5  144.79    9.00
  -9   1   5  140.69    8.90
  -9   1   5  130.09    8.20
  -9   1   5  157.18    9.60
  -9   1   5  140.69    9.60
   8  -1  -5   72.69    4.80
   8  -1  -5   66.09    6.10
   8  -1  -5   67.09    6.10
   8  -1  -5   79.69    6.10
   8  -1  -5   70.69    7.20
   8  -1  -5   65.79    5.90
  -8   1   5   66.09    5.90
  -8   1   5   60.89    5.20
  -8   1   5   69.89    5.90
  -8   1   5   67.59    6.10
  -8   1   5   69.49    5.80
   7  -1  -5   27.60    4.20
   7  -1  -5   26.60    3.30
   7  -1  -5   29.50    4.20
   7  -1  -5   28.50    4.10
   7  -1  -5   27.40    4.30
   7  -1  -5   31.30    4.30
  -7   1   5   23.80    4.00
  -7   1   5   19.90    3.80
  -7   1   5   28.30    4.10
  -7   1   5   33.10    4.20
  -7   1   5   24.00    3.90
   6  -1  -5   70.29    5.50
   6  -1  -5   75.19    5.30
   6  -1  -5   74.99    5.20
   6  -1  -5   78.79    5.50
   6  -1  -5   70.49    5.00
  -6   1   5   80.59    5.50
  -6   1   5   75.39    4.00
  -6   1   5   76.49    5.40
  -6   1   5   71.69    5.40
  -6   1   5   68.79    5.00
  -6   1   5   83.39    5.30
  -6   1   5   82.79    5.20
   5  -1  -5    0.20    0.80
   5  -1  -5    1.70    1.10
   5  -1  -5    0.20    1.20
   5  -1  -5    1.80    1.10
   5  -1  -5   -0.90    1.20
  -5   1   5    0.20    1.20
  -5   1   5    1.20    0.90
  -5   1   5    0.80    0.90
  -5   1   5    0.90    1.30
  -5   1   5   -0.30    0.80
  -5   1   5    0.40    0.70
  -5   1   5   -0.30    1.00
   4  -1  -5  375.26   12.00
   4  -1  -5  362.06   12.00
   4  -1  -5  380.26   10.70
   4  -1  -5  388.26   11.80
   4  -1  -5  366.26   11.80
  -4   1   5  370.96   11.20
  -4   1   5  367.66   11.10
  -4   1   5  358.16   10.80
  -4   1   5  364.96   12.20
  -4   1   5  388.76   11.70
  -4   1   5  390.76   12.30
  -4   1   5  362.46   11.70
   3  -1  -5  264.57    8.90
   3  -1  -5  264.47    9.10
   3  -1  -5  263.27    9.20
   3  -1  -5  255.07    7.90
   3  -1  -5  258.07    9.10
  -3   1   5  256.77    8.90
  -3   1   5  263.87    8.10
  -3   1   5  258.87    9.20
  -3   1   5  267.07    8.10
  -3   1   5  255.97    8.70
  -3   1   5  253.57    8.90
   2  -1  -5 1391.86   29.80
   2  -1  -5 1374.86   28.70
   2  -1  -5 1343.57   29.30
   2  -1  -5 1363.76   30.10
   2  -1  -5 1398.26   29.80
   2  -1  -5 1360.66   30.10
  -2   1   5 1337.57   30.00
  -2   1   5 1365.56   29.70
  -2   1   5 1332.97   28.70
  -2   1   5 1328.67   29.60
  -2   1   5 1360.76   29.90
   1  -1  -5   45.30    3.10
   1  -1  -5   40.70    2.70
   1  -1  -5   48.80    3.20
   1  -1  -5   41.60    2.90
   1  -1  -5   39.50    2.90
   1  -1  -5   43.60    3.00
  -1   1   5   39.80    2.80
  -1   1   5   45.60    3.00
  -1   1   5   43.70    2.80
  -1   1   5   44.20    2.90
  -1   1   5   43.30    3.00
   0  -1  -5  508.75   13.70
   0  -1  -5  522.75   13.50
   0  -1  -5  511.85   13.30
   0  -1  -5  492.95   13.20
   0  -1  -5  508.35   13.40
   0   1   5  494.55   13.20
   0   1   5  501.45   13.80
   0   1   5  509.25   13.20
   0   1   5  494.25   12.90
   0   1   5  511.75   13.40
  -1  -1  -5  745.33   18.30
  -1  -1  -5  774.02   18.40
  -1  -1  -5  759.62   15.20
  -1  -1  -5  781.82   19.00
  -1  -1  -5  782.32   18.70
  -1  -1  -5  786.42   19.40
  -1  -1  -5  781.62   19.30
   1   1   5  755.12   18.30
   1   1   5  739.13   17.90
   1   1   5  766.52   18.50
   1   1   5  740.33   18.50
   1   1   5  768.42   19.40
   1   1   5  746.53   18.20
  -2  -1  -5    6.30    1.00
  -2  -1  -5    7.30    2.00
  -2  -1  -5    5.20    1.40
  -2  -1  -5    7.70    1.60
  -2  -1  -5    5.50    1.60
   2   1   5    6.80    1.90
   2   1   5    9.50    1.70
   2   1   5    5.00    1.60
  -3  -1  -5   11.10    2.30
  -3  -1  -5   16.40    2.60
  -3  -1  -5   13.90    2.30
  -3  -1  -5   14.70    1.90
  -3  -1  -5   12.50    2.50
  -3  -1  -5   12.00    2.20
   3   1   5   17.00    3.00
   3   1   5   12.00    2.30
   3   1   5   12.60    2.30
   3   1   5   16.30    2.60
   3   1   5   15.00    2.30
  -4  -1  -5  192.38    8.00
  -4  -1  -5  186.38    8.70
  -4  -1  -5  179.98    8.20
  -4  -1  -5  179.78    6.90
  -4  -1  -5  184.58    8.30
  -4  -1  -5  165.98    7.70
   4   1   5  190.28    8.10
   4   1   5  166.18    8.30
   4   1   5  167.08    8.90
   4   1   5  190.38    7.70
  -5  -1  -5    4.40    2.00
  -5  -1  -5    4.20    1.80
  -5  -1  -5    4.70    1.80
  -5  -1  -5    5.90    1.80
  -5  -1  -5    8.00    2.60
  -5  -1  -5    4.70    1.90
   5   1   5    1.70    1.80
   5   1   5   11.10    2.90
   5   1   5    2.70    1.80
  -6  -1  -5   80.19    5.70
  -6  -1  -5   78.19    5.40
  -6  -1  -5   72.99    6.00
  -6  -1  -5   82.99    6.10
  -6  -1  -5   76.99    6.00
  -6  -1  -5   70.99    6.10
   6   1   5   92.49    5.90
   6   1   5   71.19    6.90
   6   1   5   78.89    6.30
  -7  -1  -5  106.39    7.50
  -7  -1  -5  105.89    8.10
  -7  -1  -5   90.59    7.40
  -7  -1  -5  109.99    7.60
  -7  -1  -5  123.29    7.40
  -7  -1  -5  115.09    7.30
   7   1   5  116.69    9.50
  10  -2  -5   20.10    4.50
  10  -2  -5   23.50    3.10
  10  -2  -5   32.80    6.10
  10  -2  -5   17.70    4.70
 -10   2   5   23.60    4.90
 -10   2   5   22.80    4.80
 -10   2   5   33.50    5.00
 -10   2   5   22.70    4.90
   9  -2  -5   64.59    6.60
   9  -2  -5   74.49    6.80
   9  -2  -5   64.99    6.70
   9  -2  -5   78.39    4.80
  -9   2   5   71.99    6.70
  -9   2   5   58.29    7.20
  -9   2   5   71.09    6.60
  -9   2   5   61.39    6.10
  -9   2   5   73.49    6.30
   8  -2  -5   29.80    2.90
   8  -2  -5   35.80    5.10
   8  -2  -5   24.80    4.60
   8  -2  -5   29.50    4.30
   8  -2  -5   30.50    4.40
   8  -2  -5   28.50    4.90
  -8   2   5   31.90    4.80
  -8   2   5   23.00    4.10
  -8   2   5   26.80    4.40
  -8   2   5   24.30    4.10
  -8   2   5   18.70    3.90
  -8   2   5   33.70    4.80
   7  -2  -5  191.98    9.80
   7  -2  -5  196.58    9.40
   7  -2  -5  215.98   10.30
   7  -2  -5  183.68    8.90
   7  -2  -5  199.48    9.60
   7  -2  -5  205.88    7.40
  -7   2   5  209.98   10.00
  -7   2   5  189.08    8.90
  -7   2   5  195.68   10.00
  -7   2   5  185.78    9.10
  -7   2   5  196.68    9.40
  -7   2   5  194.18    9.50
   6  -2  -5   55.59    4.40
   6  -2  -5   43.80    4.10
   6  -2  -5   55.99    4.90
   6  -2  -5   45.30    4.30
   6  -2  -5   54.19    4.60
  -6   2   5   56.39    4.80
  -6   2   5   58.09    4.50
  -6   2   5   50.09    4.50
  -6   2   5   53.89    4.30
  -6   2   5   56.89    4.80
  -6   2   5   52.39    4.40
   5  -2  -5  248.68    9.70
   5  -2  -5  233.58    9.30
   5  -2  -5  241.28    9.30
   5  -2  -5  231.98    9.70
  -5   2   5  225.98    9.70
  -5   2   5  235.18    9.40
  -5   2   5  237.38    9.60
  -5   2   5  242.88    9.20
  -5   2   5  232.08    9.10
   4  -2  -5    6.70    1.60
   4  -2  -5    5.40    1.60
   4  -2  -5    4.70    1.60
   4  -2  -5    5.40    1.70
   4  -2  -5    5.90    1.50
  -4   2   5    7.00    1.80
  -4   2   5    6.10    1.60
  -4   2   5    7.10    1.90
  -4   2   5    7.20    1.80
  -4   2   5    7.80    1.80
   3  -2  -5   65.99    4.30
   3  -2  -5   68.59    4.00
   3  -2  -5   79.59    4.70
   3  -2  -5   66.49    4.20
  -3   2   5   75.89    4.40
  -3   2   5   67.59    4.00
  -3   2   5   73.89    4.60
  -3   2   5   75.69    4.50
  -3   2   5   71.89    4.50
   2  -2  -5    1.50    0.80
   2  -2  -5    0.70    0.90
   2  -2  -5    0.40    0.80
   2  -2  -5    0.70    0.70
   2  -2  -5    1.30    0.80
   2  -2  -5   -0.10    0.60
  -2   2   5    0.10    1.00
  -2   2   5    0.10    0.60
  -2   2   5    0.40    0.60
  -2   2   5    1.10    0.90
  -2   2   5    0.30    0.80
   1  -2  -5   16.30    2.30
   1  -2  -5   14.80    2.20
   1  -2  -5   14.10    2.30
   1  -2  -5   16.70    2.20
   1  -2  -5   16.70    2.40
   1  -2  -5   17.70    2.50
  -1   2   5   15.00    2.20
  -1   2   5   13.80    2.10
  -1   2   5   10.50    2.10
  -1   2   5   13.60    1.30
  -1   2   5   11.80    2.10
  -1   2   5   12.90    2.00
  -1   2   5   14.30    2.20
   0  -2  -5  371.46   11.00
   0  -2  -5  336.47   10.50
   0  -2  -5  335.27   10.50
   0  -2  -5  331.07   10.60
   0  -2  -5  347.17   10.90
   0  -2  -5  337.47   10.50
   0   2   5  331.87   10.20
   0   2   5  321.47    7.80
   0   2   5  332.37   10.50
   0   2   5  325.47   10.50
   0   2   5  332.07   10.60
   0   2   5  323.47   10.30
  -1  -2  -5   18.80    2.70
  -1  -2  -5   25.70    3.20
  -1  -2  -5   22.60    2.90
  -1  -2  -5   23.90    3.00
  -1  -2  -5   26.50    2.80
  -1  -2  -5   19.00    1.50
  -1  -2  -5   19.70    2.70
   1   2   5   20.20    1.40
   1   2   5   24.70    2.50
   1   2   5   21.20    2.30
   1   2   5   22.40    3.00
   1   2   5   21.40    2.60
   1   2   5   24.30    3.10
   1   2   5   23.80    3.00
  -2  -2  -5   -1.10    0.80
  -2  -2  -5    1.00    0.90
  -2  -2  -5   -0.60    0.80
  -2  -2  -5    2.00    1.40
  -2  -2  -5   -0.10    0.50
  -2  -2  -5   -0.10    1.00
   2   2   5    1.00    1.00
   2   2   5    1.00    1.00
   2   2   5    0.60    0.50
   2   2   5   -0.10    0.80
   2   2   5    0.00    0.60
   2   2   5    0.20    0.90
   2   2   5    1.40    1.00
  -3  -2  -5    1.20    1.20
  -3  -2  -5   -0.80    0.60
  -3  -2  -5    1.10    1.50
  -3  -2  -5    0.80    1.10
  -3  -2  -5   -1.20    0.80
  -3  -2  -5   -0.10    1.20
  -3  -2  -5   -0.70    0.60
   3   2   5   -0.10    1.00
   3   2   5    0.10    1.20
   3   2   5   -0.40    0.90
   3   2   5   -0.70    0.90
   3   2   5    0.60    1.10
   3   2   5    1.00    1.00
  -4  -2  -5  173.08    8.20
  -4  -2  -5  198.48    9.20
  -4  -2  -5  164.88   10.40
  -4  -2  -5  183.38    8.80
  -4  -2  -5  181.28    8.50
  -4  -2  -5  187.28    7.50
   4   2   5  182.38    9.40
   4   2   5  188.08    8.60
   4   2   5  185.28    9.10
   4   2   5  186.38    8.00
   4   2   5  176.58    8.00
  -5  -2  -5   45.90    5.60
  -5  -2  -5   49.80    4.10
  -5  -2  -5   45.30    4.50
  -5  -2  -5   49.60    5.00
  -5  -2  -5   56.49    5.00
  -5  -2  -5   51.19    4.60
   5   2   5   55.99    4.70
   5   2   5   51.69    4.70
   5   2   5   48.20    4.20
   5   2   5   60.29    5.80
  -6  -2  -5    0.80    1.60
  -6  -2  -5    1.30    2.10
  -6  -2  -5   -1.80    1.70
  -6  -2  -5   -0.60    1.70
  -6  -2  -5   -1.10    1.80
  -6  -2  -5    0.50    1.60
   6   2   5    1.30    2.50
   6   2   5   -0.80    1.50
   6   2   5    0.80    1.70
  -7  -2  -5    9.80    2.60
  -7  -2  -5    1.20    3.00
   7   2   5    1.70    2.70
  10  -3  -5   15.50    4.40
  10  -3  -5   13.40    2.20
  10  -3  -5   16.40    4.60
 -10   3   5    8.80    3.70
 -10   3   5   10.90    3.90
 -10   3   5   13.60    3.70
 -10   3   5   16.70    5.00
 -10   3   5   20.40    3.80
   9  -3  -5   43.80    6.00
   9  -3  -5   48.80    3.30
   9  -3  -5   49.10    7.00
   9  -3  -5   42.70    6.10
  -9   3   5   44.30    6.40
  -9   3   5   48.30    6.40
  -9   3   5   43.60    6.00
  -9   3   5   49.99    6.00
  -9   3   5   42.30    5.40
   8  -3  -5    0.90    0.90
   8  -3  -5    1.50    1.90
   8  -3  -5    2.00    2.10
   8  -3  -5   -2.20    1.90
   8  -3  -5   -3.10    1.80
   8  -3  -5    3.50    2.20
  -8   3   5    2.90    2.10
  -8   3   5   -0.70    1.30
  -8   3   5    1.80    1.70
  -8   3   5    2.80    2.20
  -8   3   5    1.30    1.60
  -8   3   5    0.70    2.10
   7  -3  -5  274.07   11.10
   7  -3  -5  262.27   11.60
   7  -3  -5  283.07   13.50
   7  -3  -5  274.47   11.40
   7  -3  -5  252.97   11.70
   7  -3  -5  254.17    7.90
  -7   3   5  249.28   11.80
  -7   3   5  251.97   10.60
  -7   3   5  271.17   11.60
  -7   3   5  245.48   11.10
  -7   3   5  239.38   10.70
   6  -3  -5  121.29    7.30
   6  -3  -5  112.59    6.80
   6  -3  -5  119.59    4.80
   6  -3  -5  132.09    8.60
   6  -3  -5  125.19    7.10
   6  -3  -5  123.99    6.90
  -6   3   5  116.19    6.80
  -6   3   5  123.79    7.20
  -6   3   5  126.69    6.90
  -6   3   5  119.79    7.00
  -6   3   5  124.69    7.50
   5  -3  -5    3.70    1.00
   5  -3  -5    3.50    1.60
   5  -3  -5    3.60    1.70
   5  -3  -5    3.70    1.70
   5  -3  -5    2.30    1.20
   5  -3  -5    6.20    1.90
  -5   3   5    4.20    1.50
  -5   3   5    2.80    1.50
  -5   3   5    1.20    1.40
  -5   3   5    3.30    1.80
  -5   3   5    6.70    1.90
   4  -3  -5   43.40    3.60
   4  -3  -5   53.49    3.10
   4  -3  -5   56.59    4.30
   4  -3  -5   56.09    4.30
   4  -3  -5   55.89    4.20
   4  -3  -5   55.09    4.50
  -4   3   5   54.99    4.10
  -4   3   5   60.99    4.50
  -4   3   5   52.99    4.20
  -4   3   5   54.49    4.30
  -4   3   5   55.39    4.20
   3  -3  -5   39.40    3.40
   3  -3  -5   40.80    3.40
   3  -3  -5   35.10    3.20
   3  -3  -5   42.30    2.80
   3  -3  -5   35.20    3.20
  -3   3   5   36.10    3.20
  -3   3   5   38.20    3.40
  -3   3   5   31.20    3.00
  -3   3   5   28.60    3.70
  -3   3   5   38.50    3.20
   2  -3  -5   67.69    4.30
   2  -3  -5   56.09    4.20
   2  -3  -5   65.89    4.20
   2  -3  -5   67.69    4.40
   2  -3  -5   69.99    3.90
   2  -3  -5   66.19    4.30
  -2   3   5   67.19    4.40
  -2   3   5   68.89    4.30
  -2   3   5   63.89    4.20
  -2   3   5   60.69    4.40
  -2   3   5   61.49    4.20
  -2   3   5   64.19    3.80
   1  -3  -5   52.59    4.00
   1  -3  -5   52.59    3.50
   1  -3  -5   48.70    3.60
   1  -3  -5   52.39    3.80
   1  -3  -5   45.20    3.60
   1  -3  -5   49.70    3.70
  -1   3   5   51.29    3.80
  -1   3   5   52.89    3.60
  -1   3   5   48.40    3.70
  -1   3   5   44.50    2.80
  -1   3   5   49.30    3.60
  -1   3   5   51.39    3.90
   0  -3  -5    6.80    1.80
   0  -3  -5    7.10    1.70
   0  -3  -5    9.60    2.10
   0  -3  -5    6.60    1.90
   0  -3  -5    7.50    1.90
   0  -3  -5    8.90    2.10
   0   3   5    8.40    1.80
   0   3   5    9.20    2.10
   0   3   5    6.80    1.70
   0   3   5    6.90    1.80
   0   3   5    5.50    1.20
   0   3   5    5.00    1.50
   0   3   5    6.10    1.80
  -1  -3  -5  488.15   12.60
  -1  -3  -5  510.55   15.00
  -1  -3  -5  497.55   14.80
  -1  -3  -5  512.35   15.60
  -1  -3  -5  506.65   15.10
  -1  -3  -5  534.65   15.40
  -1  -3  -5  508.65   15.40
   1   3   5  485.65   14.70
   1   3   5  503.75   14.80
   1   3   5  483.55   15.10
   1   3   5  498.95   12.20
   1   3   5  482.25   14.40
   1   3   5  504.55   15.00
  -2  -3  -5  230.98    9.40
  -2  -3  -5  223.28    9.50
  -2  -3  -5  219.68    9.80
  -2  -3  -5  229.48    9.60
  -2  -3  -5  228.78    9.30
  -2  -3  -5  212.48    7.40
   2   3   5  220.38    9.00
   2   3   5  229.28    8.90
   2   3   5  216.38    9.30
   2   3   5  214.58    9.00
   2   3   5  229.28    8.10
   2   3   5  218.98    9.30
  -3  -3  -5  244.98   10.10
  -3  -3  -5  239.28    8.70
  -3  -3  -5  267.17   11.10
  -3  -3  -5  252.57   10.70
  -3  -3  -5  254.87   10.50
  -3  -3  -5  245.38   10.40
   3   3   5  235.98   10.60
   3   3   5  259.07   10.40
   3   3   5  260.17   10.90
   3   3   5  273.77   11.80
   3   3   5  249.28   10.50
   3   3   5  243.78    9.60
   3   3   5  251.67    8.50
  -4  -3  -5  135.99    7.80
  -4  -3  -5  136.99    6.80
  -4  -3  -5  147.79    8.30
  -4  -3  -5  160.28    8.90
  -4  -3  -5  150.48    8.00
  -4  -3  -5  147.59    8.20
   4   3   5  145.69    8.70
   4   3   5  155.58    8.90
   4   3   5  153.58    7.70
   4   3   5  136.69    7.80
  -5  -3  -5   92.49    6.50
  -5  -3  -5   87.09    6.80
  -5  -3  -5   82.89    6.20
  -5  -3  -5   82.89    6.50
  -5  -3  -5   84.09    6.60
  -5  -3  -5   81.79    5.60
   5   3   5   84.99    6.70
   5   3   5   78.89    6.10
   5   3   5   89.09    6.30
   5   3   5   83.59    6.00
   5   3   5   91.29    7.50
  -6  -3  -5   -2.60    1.70
  -6  -3  -5   -5.40    1.90
  -6  -3  -5   -0.20    2.40
  -6  -3  -5   -2.90    2.30
  -6  -3  -5   -0.30    2.00
   6   3   5   -0.20    1.70
   6   3   5   -0.20    2.40
   6   3   5   -1.00    1.40
   9  -4  -5   54.39    5.80
   9  -4  -5   65.19    6.40
   9  -4  -5   67.59    6.90
  -9   4   5   57.39    6.90
  -9   4   5   57.29    5.90
  -9   4   5   69.19    7.00
  -9   4   5   57.59    7.10
  -9   4   5   69.49    5.80
   8  -4  -5   89.29    7.40
   8  -4  -5   88.39    3.00
   8  -4  -5   99.59    6.80
   8  -4  -5  104.99    7.60
   8  -4  -5   73.49    3.20
   8  -4  -5   98.99    7.20
   8  -4  -5   94.99    6.90
  -8   4   5  101.09    7.60
  -8   4   5   93.39    7.00
  -8   4   5   86.29    6.70
  -8   4   5  103.19    7.60
  -8   4   5   94.09    6.40
  -8   4   5   88.09    6.90
   7  -4  -5  350.06    8.40
   7  -4  -5  355.06   13.70
   7  -4  -5  358.26   13.10
   7  -4  -5  332.27    8.40
   7  -4  -5  353.46   13.40
   7  -4  -5  356.26   13.90
  -7   4   5  330.47   13.10
  -7   4   5  319.67   12.60
  -7   4   5  361.76   14.10
  -7   4   5  359.86   14.30
  -7   4   5  341.07   13.60
   6  -4  -5  108.09    6.80
   6  -4  -5  117.59    6.80
   6  -4  -5  121.99    7.00
   6  -4  -5  117.89    4.10
   6  -4  -5  122.59    7.30
   6  -4  -5  110.79    6.80
  -6   4   5  121.99    7.40
  -6   4   5  107.39    7.00
  -6   4   5  116.69    6.80
  -6   4   5  114.49    6.90
  -6   4   5  120.99    7.60
   5  -4  -5 1311.27   26.80
   5  -4  -5 1278.57   31.20
   5  -4  -5 1296.07   31.30
   5  -4  -5 1262.47   30.90
   5  -4  -5 1265.57   31.40
   5  -4  -5 1304.37   31.80
  -5   4   5 1258.87   31.90
  -5   4   5 1321.07   31.80
  -5   4   5 1253.77   31.00
  -5   4   5 1309.17   31.60
  -5   4   5 1251.67   31.40
   4  -4  -5  400.66   13.80
   4  -4  -5  392.76   13.30
   4  -4  -5  413.16   13.70
   4  -4  -5  390.86   13.10
   4  -4  -5  408.36   10.70
   4  -4  -5  419.46   13.50
  -4   4   5  405.06   13.40
  -4   4   5  386.86   13.10
  -4   4   5  419.46   13.90
  -4   4   5  408.46   13.90
  -4   4   5  419.66   13.70
   3  -4  -5  263.07    9.90
   3  -4  -5  248.08   11.20
   3  -4  -5  276.67   10.30
   3  -4  -5  251.37   10.00
   3  -4  -5  262.57   10.20
   3  -4  -5  250.87    8.10
  -3   4   5  261.17   10.00
  -3   4   5  258.97    9.90
  -3   4   5  252.27    9.80
  -3   4   5  252.77   10.20
  -3   4   5  265.07   10.20
   2  -4  -5   80.59    4.30
   2  -4  -5   78.39    5.00
   2  -4  -5   77.29    5.00
   2  -4  -5   83.29    5.10
   2  -4  -5   77.99    5.30
   2  -4  -5   80.89    5.10
  -2   4   5   82.29    5.10
  -2   4   5   83.79    5.30
  -2   4   5   79.49    5.20
  -2   4   5   72.19    4.20
  -2   4   5   74.69    4.90
  -2   4   5   84.19    5.40
  -2   4   5   76.69    4.40
   1  -4  -5   18.50    2.90
   1  -4  -5   16.00    2.80
   1  -4  -5   17.10    2.90
   1  -4  -5   12.80    2.20
   1  -4  -5   17.70    3.10
  -1   4   5   15.10    2.80
  -1   4   5   15.90    2.80
  -1   4   5   17.60    2.40
  -1   4   5   14.50    2.70
  -1   4   5   20.80    3.10
  -1   4   5   19.70    2.70
  -1   4   5   16.70    2.70
   0  -4  -5  381.76   13.10
   0  -4  -5  383.96   13.20
   0  -4  -5  391.16   12.50
   0  -4  -5  365.56   12.50
   0  -4  -5  371.96   12.80
   0  -4  -5  378.26   12.70
   0   4   5  379.16   13.00
   0   4   5  398.06   14.90
   0   4   5  359.26   14.10
   0   4   5  387.86   10.80
   0   4   5  373.16   12.70
   0   4   5  374.36   12.30
   0   4   5  358.66   12.50
  -1  -4  -5  307.67   12.10
  -1  -4  -5  323.17   12.20
  -1  -4  -5  324.47   11.90
  -1  -4  -5  332.97   12.00
  -1  -4  -5  322.47   11.90
  -1  -4  -5  317.77   10.10
   1   4   5  335.77   13.10
   1   4   5  328.17   11.80
   1   4   5  328.67   12.00
   1   4   5  330.37   11.90
   1   4   5  333.27    9.80
   1   4   5  348.97   12.40
  -2  -4  -5    0.70    1.50
  -2  -4  -5    1.20    1.40
  -2  -4  -5    0.90    1.10
  -2  -4  -5    0.60    1.00
  -2  -4  -5   -0.90    1.50
  -2  -4  -5    1.30    1.40
  -2  -4  -5   -0.90    0.90
   2   4   5   -0.20    1.00
   2   4   5    1.50    1.00
   2   4   5   -0.70    0.70
   2   4   5    1.90    1.60
   2   4   5   -0.80    1.00
   2   4   5    3.00    1.40
   2   4   5    0.50    1.30
  -3  -4  -5   58.09    5.70
  -3  -4  -5   65.69    5.60
  -3  -4  -5   69.49    4.70
  -3  -4  -5   69.29    5.90
  -3  -4  -5   82.19    6.20
  -3  -4  -5   65.39    5.60
   3   4   5   64.09    5.90
   3   4   5   66.99    5.40
   3   4   5   68.89    5.80
   3   4   5   76.29    5.60
   3   4   5   73.49    5.90
   3   4   5   67.99    4.40
  -4  -4  -5    1.00    2.20
  -4  -4  -5   -1.10    1.90
  -4  -4  -5    1.10    1.50
  -4  -4  -5    2.00    1.40
  -4  -4  -5   -0.50    1.50
  -4  -4  -5    3.10    2.00
   4   4   5   -1.00    1.50
   4   4   5   -0.80    1.80
   4   4   5   -1.20    1.70
   4   4   5   -1.60    1.30
   4   4   5   -0.30    1.70
   4   4   5    0.10    1.20
  -5  -4  -5   17.90    3.40
  -5  -4  -5   18.70    3.60
  -5  -4  -5   20.50    4.20
  -5  -4  -5   12.80    3.60
  -5  -4  -5   20.10    3.70
  -5  -4  -5   17.00    4.20
   5   4   5   15.40    4.20
   5   4   5   21.80    4.50
   5   4   5   16.90    3.70
  -6  -4  -5    2.30    2.80
  -6  -4  -5    1.40    2.00
  -6  -4  -5    0.70    2.30
  -6  -4  -5    2.70    3.40
  -6  -4  -5    2.70    2.30
  -6  -4  -5   -0.70    2.40
   6   4   5    2.50    2.70
   6   4   5    5.40    3.10
   6   4   5   -1.20    1.60
   9  -5  -5   -0.40    2.30
   9  -5  -5    4.30    2.40
  -9   5   5   -0.50    2.10
  -9   5   5   -5.10    2.30
  -9   5   5   -0.80    2.30
  -9   5   5    0.50    2.30
  -9   5   5    1.90    2.40
   8  -5  -5   34.30    5.20
   8  -5  -5   36.10    5.00
   8  -5  -5   47.90    5.70
  -8   5   5   34.70    5.30
  -8   5   5   37.60    5.30
  -8   5   5   38.30    5.00
  -8   5   5   34.70    5.20
  -8   5   5   32.70    5.10
   7  -5  -5   13.90    3.60
   7  -5  -5   20.80    4.10
   7  -5  -5   26.00    3.90
   7  -5  -5   24.50    4.10
  -7   5   5   15.90    3.40
  -7   5   5   26.50    4.20
  -7   5   5   18.10    3.70
  -7   5   5   18.00    3.80
  -7   5   5   23.50    4.00
   6  -5  -5    0.30    1.40
   6  -5  -5    2.50    2.00
   6  -5  -5    2.80    1.70
   6  -5  -5    0.20    1.40
   6  -5  -5    3.30    1.90
   6  -5  -5    3.20    0.60
  -6   5   5    2.40    1.60
  -6   5   5    2.80    2.30
  -6   5   5   -0.60    1.80
  -6   5   5    2.10    2.20
  -6   5   5    3.10    1.80
   5  -5  -5 2104.59   47.20
   5  -5  -5 2027.10   46.50
   5  -5  -5 2086.49   47.00
   5  -5  -5 2065.49   46.50
   5  -5  -5 2043.90   47.00
   5  -5  -5 2023.10   41.10
  -5   5   5 2078.69   47.50
  -5   5   5 2058.19   46.80
  -5   5   5 2096.69   47.60
  -5   5   5 2060.29   47.20
  -5   5   5 2151.58   47.00
   4  -5  -5  455.55   15.20
   4  -5  -5  450.45   15.10
   4  -5  -5  454.25   15.30
   4  -5  -5  428.26   14.50
   4  -5  -5  476.05   15.10
  -4   5   5  460.85   15.00
  -4   5   5  456.35   15.20
  -4   5   5  452.65   15.40
  -4   5   5  477.05   15.50
  -4   5   5  446.86   14.90
   3  -5  -5  215.18    9.50
   3  -5  -5  208.68    9.30
   3  -5  -5  218.98    9.50
   3  -5  -5  200.88    9.00
   3  -5  -5  236.48   11.20
   3  -5  -5  217.18    7.60
  -3   5   5  211.48    9.20
  -3   5   5  203.58    9.00
  -3   5   5  222.98    9.70
  -3   5   5  216.18    9.60
  -3   5   5  223.48    9.70
  -3   5   5  203.48    7.50
   2  -5  -5   33.60    3.00
   2  -5  -5   29.20    3.80
   2  -5  -5   36.10    3.80
   2  -5  -5   35.10    3.70
   2  -5  -5   32.00    4.00
  -2   5   5   28.90    3.80
  -2   5   5   29.70    4.10
  -2   5   5   32.50    4.20
  -2   5   5   29.40    3.00
  -2   5   5   33.20    3.00
  -2   5   5   33.00    3.50
  -2   5   5   35.70    4.50
   1  -5  -5   26.20    3.70
   1  -5  -5   24.10    3.50
   1  -5  -5   23.40    3.50
   1  -5  -5   23.90    3.90
   1  -5  -5   22.10    3.20
   1  -5  -5   25.20    3.80
  -1   5   5   24.70    3.10
  -1   5   5   23.10    3.50
  -1   5   5   31.60    4.10
  -1   5   5   25.00    3.80
  -1   5   5   25.30    3.50
  -1   5   5   22.60    3.50
   0  -5  -5   10.00    2.50
   0  -5  -5   12.80    2.80
   0  -5  -5   12.30    2.50
   0  -5  -5   13.10    2.70
   0  -5  -5   13.60    2.60
   0  -5  -5    9.90    2.60
   0   5   5   11.20    2.60
   0   5   5   10.80    2.50
   0   5   5   15.20    2.90
   0   5   5   16.80    3.10
   0   5   5   11.90    2.20
   0   5   5   14.00    2.60
   0   5   5   16.00    3.00
  -1  -5  -5   18.10    3.10
  -1  -5  -5   21.80    2.90
  -1  -5  -5   19.40    3.40
   1   5   5   25.80    4.00
   1   5   5   21.30    3.70
   1   5   5   23.20    3.50
   1   5   5   26.40    3.20
   1   5   5   24.40    3.80
   1   5   5   16.20    3.20
  -2  -5  -5 2177.58   51.09
  -2  -5  -5 2192.78   50.49
  -2  -5  -5 2220.68   47.80
  -2  -5  -5 2226.68   50.59
  -2  -5  -5 2233.88   50.49
  -2  -5  -5 2237.98   50.19
   2   5   5 2184.68   50.69
   2   5   5 2236.38   49.40
   2   5   5 2196.78   50.39
   2   5   5 2202.08   46.70
   2   5   5 2216.78   49.99
   2   5   5 2116.29   50.29
  -3  -5  -5   12.30    3.20
  -3  -5  -5   12.20    3.20
  -3  -5  -5   12.10    2.80
  -3  -5  -5   16.10    3.10
  -3  -5  -5    7.40    2.90
  -3  -5  -5   13.00    3.30
   3   5   5   11.70    3.10
   3   5   5   15.20    3.30
   3   5   5   11.30    2.30
   3   5   5   12.40    2.80
   3   5   5   10.30    2.90
  -4  -5  -5  130.39    9.20
  -4  -5  -5  154.68    9.80
  -4  -5  -5  153.58    8.00
  -4  -5  -5  146.89    9.20
  -4  -5  -5  146.79    9.10
  -4  -5  -5  154.98    9.20
   4   5   5  146.79    9.00
   4   5   5  143.89    7.50
   4   5   5  142.59    9.50
   4   5   5  152.98    8.80
   4   5   5  152.28    8.60
  -5  -5  -5   52.99    5.40
  -5  -5  -5   56.89    5.50
  -5  -5  -5   45.70    6.50
  -5  -5  -5   55.29    7.10
  -5  -5  -5   52.69    7.00
  -5  -5  -5   56.89    6.90
   5   5   5   67.39    5.30
   5   5   5   50.09    7.20
   5   5   5   56.19    6.00
   5   5   5   56.39    5.40
   9  -6  -5    2.00    2.90
   9  -6  -5    2.50    2.70
  -9   6   5    3.40    2.30
  -9   6   5    2.80    2.70
  -9   6   5    0.00    2.90
  -9   6   5    2.50    2.70
   8  -6  -5   22.90    4.30
   8  -6  -5   30.90    5.00
  -8   6   5   27.60    4.60
  -8   6   5   22.30    4.40
  -8   6   5   21.10    4.20
  -8   6   5   23.40    4.80
  -8   6   5   26.50    4.60
   7  -6  -5    0.70    1.20
   7  -6  -5    4.40    2.40
   7  -6  -5    3.20    2.40
   7  -6  -5    1.80    2.00
  -7   6   5    3.90    2.10
  -7   6   5    1.30    2.20
  -7   6   5    4.30    1.70
  -7   6   5    0.60    1.60
  -7   6   5    3.40    2.20
   6  -6  -5  532.55   17.40
   6  -6  -5  539.75   18.40
   6  -6  -5  519.25   17.60
   6  -6  -5  549.25   18.20
   6  -6  -5  533.95   18.10
  -6   6   5  528.25   18.60
  -6   6   5  547.75   18.00
  -6   6   5  558.44   18.70
  -6   6   5  542.35   17.70
  -6   6   5  527.15   18.10
   5  -6  -5  797.92   22.10
   5  -6  -5  746.23   16.90
   5  -6  -5  745.43   22.50
   5  -6  -5  756.82   21.90
   5  -6  -5  713.83   21.80
   5  -6  -5  772.12   22.40
  -5   6   5  764.42   22.10
  -5   6   5  748.53   22.40
  -5   6   5  754.52   22.80
  -5   6   5  757.32   22.10
   4  -6  -5  714.13   17.00
   4  -6  -5  696.13   21.10
   4  -6  -5  675.93   20.50
   4  -6  -5  716.73   20.90
   4  -6  -5  710.03   20.60
   4  -6  -5  697.23   21.00
  -4   6   5  667.03   20.80
  -4   6   5  650.33   20.10
  -4   6   5  695.43   21.10
  -4   6   5  714.43   20.60
  -4   6   5  705.63   21.00
   3  -6  -5   69.99    4.20
   3  -6  -5   71.69    5.50
   3  -6  -5   73.99    5.60
   3  -6  -5   68.29    5.50
   3  -6  -5   91.49    6.20
   3  -6  -5   78.19    5.90
  -3   6   5   64.39    5.50
  -3   6   5   70.69    5.40
  -3   6   5   71.49    5.50
  -3   6   5   69.99    4.30
  -3   6   5   63.89    5.10
  -3   6   5   82.49    6.00
  -3   6   5   70.69    5.70
   2  -6  -5    0.70    1.10
   2  -6  -5    4.60    2.10
   2  -6  -5    4.00    2.20
   2  -6  -5    3.00    1.40
   2  -6  -5   -1.10    1.40
   2  -6  -5    0.50    1.10
  -2   6   5    2.60    1.80
  -2   6   5    1.80    1.90
  -2   6   5    5.40    2.00
  -2   6   5    1.20    1.30
  -2   6   5    1.80    1.30
  -2   6   5    3.60    1.80
  -2   6   5    2.80    2.10
   1  -6  -5   97.99    6.50
   1  -6  -5  110.59    7.20
   1  -6  -5  102.49    6.50
   1  -6  -5  103.69    6.20
   1  -6  -5  107.39    6.90
  -1   6   5  108.99    6.60
  -1   6   5  113.19    7.30
  -1   6   5  103.09    6.00
  -1   6   5  103.19    6.80
  -1   6   5  108.39    6.90
  -1   6   5  113.09    6.20
  -1   6   5  107.09    6.90
   0  -6  -5    5.90    2.20
   0  -6  -5    8.40    2.40
   0  -6  -5    2.80    1.70
   0  -6  -5    3.10    2.00
   0  -6  -5    5.00    2.00
   0   6   5    7.10    2.00
   0   6   5    6.50    2.10
   0   6   5    3.70    1.70
   0   6   5    7.70    2.60
   0   6   5    7.40    2.50
   0   6   5    3.50    1.60
   0   6   5    5.70    1.80
  -1  -6  -5   10.50    2.90
  -1  -6  -5    4.30    2.00
  -1  -6  -5    5.40    2.10
  -1  -6  -5    4.00    1.90
   1   6   5    6.40    1.70
   1   6   5    3.60    1.70
   1   6   5    6.30    2.30
   1   6   5    2.80    1.80
   1   6   5    4.20    2.30
   1   6   5    5.10    2.30
  -2  -6  -5  250.57   11.80
  -2  -6  -5  259.37   10.70
  -2  -6  -5  263.67   11.90
  -2  -6  -5  237.88   11.90
  -2  -6  -5  259.77   12.10
  -2  -6  -5  278.67   12.30
   2   6   5  250.67   12.00
   2   6   5  234.68   11.80
   2   6   5  258.47    9.90
   2   6   5  247.88   11.70
   2   6   5  247.48   11.60
   2   6   5  278.47   12.10
   2   6   5  239.98   11.10
  -3  -6  -5   79.39    7.10
  -3  -6  -5   72.59    5.60
  -3  -6  -5   82.29    7.00
  -3  -6  -5   66.39    6.40
  -3  -6  -5   71.79    6.40
  -3  -6  -5   71.99    6.20
   3   6   5   52.99    6.50
   3   6   5   65.89    5.80
   3   6   5   70.39    6.20
   3   6   5   60.49    6.50
   3   6   5   69.69    5.20
   3   6   5   64.99    6.30
  -4  -6  -5    6.40    2.60
  -4  -6  -5   10.50    3.60
  -4  -6  -5    7.00    2.50
  -4  -6  -5    3.10    2.70
  -4  -6  -5    9.80    3.20
   4   6   5    1.90    2.00
   4   6   5   10.30    3.10
   4   6   5    6.90    2.70
   4   6   5    9.40    2.90
   8  -7  -5   35.90    5.50
   8  -7  -5   32.40    5.10
  -8   7   5   34.70    5.40
  -8   7   5   28.80    5.00
  -8   7   5   28.40    4.60
  -8   7   5   31.30    5.20
  -8   7   5   36.40    6.60
   7  -7  -5   17.50    3.60
   7  -7  -5   15.70    2.30
   7  -7  -5   17.40    3.90
  -7   7   5   23.30    4.20
  -7   7   5   13.20    3.40
  -7   7   5   13.90    3.50
  -7   7   5   23.10    4.50
  -7   7   5   16.60    3.80
   6  -7  -5   33.10    5.20
   6  -7  -5   35.50    5.10
   6  -7  -5   33.80    3.30
   6  -7  -5   27.10    4.20
   6  -7  -5   34.70    5.10
   6  -7  -5   33.00    5.10
  -6   7   5   31.80    5.00
  -6   7   5   31.20    4.80
  -6   7   5   25.70    4.40
  -6   7   5   31.80    4.90
  -6   7   5   39.10    5.20
   5  -7  -5   81.49    3.80
   5  -7  -5   82.89    6.50
   5  -7  -5   83.99    6.10
   5  -7  -5   81.29    6.10
  -5   7   5   71.29    6.10
  -5   7   5   77.09    6.10
  -5   7   5   86.29    6.80
  -5   7   5   90.19    6.80
  -5   7   5   79.09    6.30
   4  -7  -5   90.99    4.80
   4  -7  -5  101.99    6.90
   4  -7  -5  103.19    6.90
   4  -7  -5   84.89    6.50
  -4   7   5   98.49    7.10
  -4   7   5  103.99    8.20
  -4   7   5   82.49    4.60
  -4   7   5   89.79    6.60
  -4   7   5  102.79    7.10
  -4   7   5   95.39    7.00
   3  -7  -5  117.09    6.10
   3  -7  -5  138.49    7.90
   3  -7  -5  130.99    8.10
   3  -7  -5  126.09    7.80
   3  -7  -5  126.99    7.60
  -3   7   5  123.69    8.10
  -3   7   5  124.99    7.60
  -3   7   5  125.89    7.70
  -3   7   5  135.39    6.40
  -3   7   5  129.19    7.80
  -3   7   5  132.39    8.20
   2  -7  -5  302.47   12.40
   2  -7  -5  300.57   12.90
   2  -7  -5  317.27   11.40
   2  -7  -5  308.57   12.80
   2  -7  -5  298.27   12.50
  -2   7   5  301.47   12.00
  -2   7   5  278.27   12.40
  -2   7   5  303.77   11.00
  -2   7   5  295.87   12.90
  -2   7   5  324.77   12.60
  -2   7   5  311.67   13.00
  -2   7   5  301.27   12.70
   1  -7  -5    3.90    1.80
   1  -7  -5    7.80    2.80
   1  -7  -5    0.20    1.20
   1  -7  -5    4.30    2.30
   1  -7  -5    4.10    1.90
  -1   7   5    7.70    2.30
  -1   7   5    3.20    1.60
  -1   7   5    4.00    2.10
  -1   7   5    4.10    2.20
  -1   7   5    3.50    2.00
  -1   7   5    7.90    2.80
   0  -7  -5   18.80    4.00
   0  -7  -5   12.10    3.00
   0  -7  -5   20.20    3.80
   0   7   5   17.20    3.20
   0   7   5    9.30    2.80
   0   7   5   15.40    3.40
   0   7   5   17.90    3.60
   0   7   5   16.10    3.70
   0   7   5   19.70    4.20
   0   7   5   13.20    3.10
  -1  -7  -5    5.40    2.40
  -1  -7  -5    4.90    2.60
  -1  -7  -5    4.40    2.80
  -1  -7  -5    4.10    2.50
  -1  -7  -5    1.50    2.10
   1   7   5    5.40    2.70
   1   7   5   -1.10    1.90
   1   7   5    6.60    2.50
   1   7   5    1.60    1.90
   1   7   5   10.50    3.40
   1   7   5    3.90    1.70
  -2  -7  -5   52.79    6.50
  -2  -7  -5   54.19    5.30
  -2  -7  -5   49.50    6.20
  -2  -7  -5   50.09    6.50
  -2  -7  -5   53.39    6.70
  -2  -7  -5   51.29    6.50
   2   7   5   49.50    6.50
   2   7   5   57.09    5.40
   2   7   5   51.39    5.30
   2   7   5   49.00    6.60
   2   7   5   43.50    6.30
  -3  -7  -5   18.10    3.70
  -3  -7  -5   13.30    3.20
  -3  -7  -5   15.90    3.60
  -3  -7  -5   17.40    4.00
  -3  -7  -5    9.80    5.00
  -3  -7  -5   11.00    3.90
   3   7   5   12.50    3.60
   3   7   5   24.60    4.40
   3   7   5   19.30    4.50
   3   7   5   21.90    3.70
   3   7   5   23.50    5.00
  -8   8   5   35.30    6.10
  -8   8   5   44.20    6.40
  -8   8   5   38.10    5.70
  -8   8   5   42.00    6.10
  -8   8   5   38.30    5.40
   7  -8  -5   12.30    3.70
   7  -8  -5    6.60    3.40
   7  -8  -5    7.60    2.20
  -7   8   5   11.40    2.90
  -7   8   5   10.00    3.00
  -7   8   5    9.20    3.30
  -7   8   5    7.00    2.50
  -7   8   5    9.00    3.10
   6  -8  -5   26.90    3.80
   6  -8  -5   38.20    5.20
   6  -8  -5   31.70    4.90
  -6   8   5   29.90    4.60
  -6   8   5   27.60    4.80
  -6   8   5   27.00    4.80
  -6   8   5   31.80    5.00
  -6   8   5   26.10    4.90
   5  -8  -5   25.90    4.70
   5  -8  -5   28.10    4.60
   5  -8  -5   21.20    4.10
   5  -8  -5   30.10    4.80
   5  -8  -5   23.50    4.00
   5  -8  -5   24.90    4.00
  -5   8   5   22.00    4.20
  -5   8   5   24.40    4.40
  -5   8   5   23.70    4.40
  -5   8   5   24.40    4.40
  -5   8   5   26.80    4.50
  -5   8   5   21.70    4.20
   4  -8  -5   61.99    4.20
   4  -8  -5   63.39    5.60
   4  -8  -5   56.09    5.80
   4  -8  -5   57.79    5.90
   4  -8  -5   59.69    5.70
  -4   8   5   56.69    5.60
  -4   8   5   68.29    6.20
  -4   8   5   64.89    5.90
  -4   8   5   59.99    4.10
  -4   8   5   60.89    5.90
  -4   8   5   69.89    6.10
   3  -8  -5   65.49    6.10
   3  -8  -5   64.99    6.00
   3  -8  -5   65.29    4.70
   3  -8  -5   68.39    6.00
   3  -8  -5   75.99    6.40
  -3   8   5   67.99    4.70
  -3   8   5   62.59    5.90
  -3   8   5   63.19    6.30
  -3   8   5   73.49    6.50
  -3   8   5   59.59    5.60
  -3   8   5   61.69    5.50
  -3   8   5   60.19    5.60
   2  -8  -5  113.09    7.70
   2  -8  -5  103.79    7.50
   2  -8  -5  108.59    7.50
   2  -8  -5  113.59    6.90
  -2   8   5  109.79    7.90
  -2   8   5  101.59    7.10
  -2   8   5  124.49    8.20
  -2   8   5  110.19    8.00
  -2   8   5   98.59    6.40
  -2   8   5  106.29    7.70
  -2   8   5  126.09    7.90
   1  -8  -5  226.98   14.30
   1  -8  -5  244.98   12.10
   1  -8  -5  234.08   11.90
   1  -8  -5  273.97   12.50
   1  -8  -5  286.77   11.90
  -1   8   5  255.27   12.30
  -1   8   5  267.47   11.80
  -1   8   5  263.67   12.80
  -1   8   5  250.87   10.90
  -1   8   5  230.78   11.30
  -1   8   5  248.78   12.10
  -1   8   5  248.68   12.30
   0  -8  -5   71.59    6.30
   0  -8  -5   67.39    6.80
   0  -8  -5   72.39    9.10
   0  -8  -5   70.39    7.00
   0  -8  -5   72.39    6.30
   0   8   5   85.19    6.20
   0   8   5   73.19    6.60
   0   8   5   61.89    5.70
   0   8   5   80.89    6.90
   0   8   5   73.39    6.50
   0   8   5   69.39    6.90
   0   8   5   66.49    6.20
  -1  -8  -5   -0.10    2.70
  -1  -8  -5    0.50    2.30
  -1  -8  -5    2.20    2.10
  -1  -8  -5    1.30    2.40
  -1  -8  -5   -0.60    1.90
   1   8   5   -0.30    2.70
   1   8   5    1.60    2.40
   1   8   5    2.00    2.10
   1   8   5    1.70    2.80
   1   8   5    0.90    1.90
  -2  -8  -5  105.89    8.20
  -2  -8  -5  100.19    7.90
  -2  -8  -5  117.79    9.00
  -2  -8  -5  115.99    9.00
   2   8   5   97.19    8.60
   2   8   5  121.89    7.60
   2   8   5  128.59    9.30
   2   8   5  114.59    8.10
   2   8   5  122.69    9.00
  -7   9   5   89.29    8.50
  -7   9   5   82.69    7.50
  -7   9   5   85.49    7.80
  -7   9   5   90.49    7.50
   6  -9  -5    3.40    2.80
   6  -9  -5    9.30    2.70
   6  -9  -5   14.80    3.80
  -6   9   5    7.40    3.70
  -6   9   5    3.50    2.90
  -6   9   5    9.20    4.60
  -6   9   5   10.40    3.10
  -6   9   5    5.20    2.60
   5  -9  -5   16.00    3.50
   5  -9  -5    2.70    2.60
   5  -9  -5    9.60    3.30
  -5   9   5    8.70    3.00
  -5   9   5   12.50    3.60
  -5   9   5    8.80    2.60
  -5   9   5    8.30    2.90
  -5   9   5    4.00    2.10
  -5   9   5   10.90    2.80
   4  -9  -5  120.49    8.40
   4  -9  -5   97.99    5.60
   4  -9  -5   96.49    7.30
   4  -9  -5  107.09    7.90
  -4   9   5   87.29    7.40
  -4   9   5  112.29    8.20
  -4   9   5   82.09    7.00
  -4   9   5   92.09    7.60
  -4   9   5   91.19    7.50
  -4   9   5   84.89    5.90
  -4   9   5   97.89    7.70
   3  -9  -5   36.20    4.50
   3  -9  -5   49.50    6.60
   3  -9  -5   50.59    6.30
   3  -9  -5   49.40    6.20
  -3   9   5   40.60    5.70
  -3   9   5   37.00    5.60
  -3   9   5   42.70    5.90
  -3   9   5   44.90    5.80
  -3   9   5   48.00    6.30
  -3   9   5   44.00    4.30
  -3   9   5   49.80    6.50
   2  -9  -5    7.60    2.50
   2  -9  -5   11.00    3.10
   2  -9  -5    8.50    3.20
   2  -9  -5    4.10    2.70
  -2   9   5   14.60    3.50
  -2   9   5   15.70    3.60
  -2   9   5    9.40    3.00
  -2   9   5   12.50    3.00
  -2   9   5   10.30    3.30
  -2   9   5   10.60    3.20
  -2   9   5   15.40    3.70
   1  -9  -5    1.30    2.00
   1  -9  -5    1.80    2.30
   1  -9  -5    2.10    2.00
  -1   9   5    3.50    2.30
  -1   9   5   -0.50    1.60
  -1   9   5    0.10    1.60
  -1   9   5   -0.50    3.10
  -1   9   5    4.00    3.00
  -1   9   5    1.50    2.20
  -1   9   5    2.10    2.20
   0  -9  -5   53.69    7.00
   0  -9  -5   39.80    6.10
   0  -9  -5   48.10    6.80
   0  -9  -5   39.20    5.50
   0   9   5   31.80    4.90
   0   9   5   44.40    6.70
   0   9   5   44.80    6.40
   0   9   5   42.30    5.90
   0   9   5   47.80    6.00
  -1  -9  -5    0.50    2.00
  -1  -9  -5    2.10    2.50
  -1  -9  -5   -1.00    3.00
   1   9   5    1.10    2.60
   1   9   5    2.20    2.10
   1   9   5    4.50    3.60
   1   9   5   -0.60    2.10
   5 -10  -5    4.00    3.60
   5 -10  -5   -3.00    2.60
   5 -10  -5    4.00    2.70
  -5  10   5   18.70    4.50
  -5  10   5   -4.00    2.60
  -5  10   5    5.30    4.00
  -5  10   5    5.20    2.90
  -5  10   5    4.00    3.00
  -5  10   5   10.40    3.50
   4 -10  -5   37.00    5.80
   4 -10  -5   36.70    6.20
   4 -10  -5   31.40    5.20
  -4  10   5   32.60    5.80
  -4  10   5   34.00    5.30
  -4  10   5   29.90    5.60
  -4  10   5   18.90    5.20
  -4  10   5   45.00    6.00
  -4  10   5   29.40    3.60
  -4  10   5   30.40    5.40
   3 -10  -5   11.30    4.10
   3 -10  -5   15.50    4.50
   3 -10  -5    9.40    3.10
  -3  10   5    8.40    3.40
  -3  10   5   12.40    3.20
  -3  10   5    9.90    3.10
  -3  10   5   11.30    3.30
  -3  10   5   10.80    3.70
  -3  10   5   11.10    4.40
   2 -10  -5    0.50    2.30
   2 -10  -5    5.90    3.40
  -2  10   5    0.50    2.50
  -2  10   5    4.70    2.90
  -2  10   5   -0.20    2.00
  -2  10   5    4.30    3.60
  -2  10   5    4.70    2.50
  -2  10   5    5.70    2.90
  -2  10   5    3.10    2.70
   1 -10  -5  119.09   10.50
   1 -10  -5  129.99    8.90
   1 -10  -5  130.09    9.70
   1 -10  -5  116.09    8.70
  -1  10   5  124.19    9.00
  -1  10   5  129.19   10.70
  -1  10   5  113.39    9.30
  -1  10   5  119.19    9.70
  -1  10   5  105.49    8.20
  -1  10   5  131.69    9.80
   2  10  -6  121.99    8.10
   2  10  -6  142.39    8.10
   2  10  -6  117.29    8.50
   2  10  -6  123.89    7.40
   2  10  -6  124.59    9.10
  -2 -10   6  107.99   10.40
  -2 -10   6  151.68    8.00
   1  10  -6   37.20    4.60
   1  10  -6   32.40    5.40
   1  10  -6   25.60    4.40
   1  10  -6   34.90    4.60
  -1 -10   6   40.90    4.00
  -1 -10   6   43.40    4.00
  -1 -10   6   43.30    7.70
   0  10  -6   -0.20    1.50
   0  10  -6    2.40    1.40
   0  10  -6    6.50    2.80
   0  10  -6    1.90    1.90
   0  10  -6    0.00    1.50
   0  10  -6   -1.00    1.30
   0  10  -6   -0.20    2.00
   0 -10   6   -0.80    1.60
   0 -10   6    0.20    2.70
   0 -10   6   -0.90    1.60
  -1  10  -6    7.50    3.00
  -1  10  -6    7.00    2.00
  -1  10  -6    9.70    2.20
  -1  10  -6    6.00    1.90
  -1  10  -6    5.50    1.60
  -1  10  -6    9.20    2.10
   1 -10   6    3.10    2.30
   1 -10   6    5.60    1.70
   1 -10   6    6.00    1.40
  -2  10  -6   61.49    4.00
  -2  10  -6   66.99    6.80
  -2  10  -6   53.89    6.60
  -2  10  -6   66.79    4.20
  -2  10  -6   68.89    5.60
   2 -10   6   74.59    7.90
  -3  10  -6    3.80    2.60
  -3  10  -6    7.10    2.40
  -3  10  -6    6.60    1.30
  -3  10  -6    4.70    1.80
  -3  10  -6    3.60    0.90
  -3  10  -6    6.90    2.60
  -3  10  -6    4.70    1.20
   3 -10   6    5.20    3.40
   4   9  -6   21.90    4.60
   4   9  -6   35.00    4.90
   4   9  -6   24.30    3.60
   4   9  -6   19.70    3.80
  -4  -9   6   36.80    7.00
  -4  -9   6   19.80    4.10
   3   9  -6  462.55   16.10
   3   9  -6  486.65   18.40
   3   9  -6  461.35   16.50
   3   9  -6  439.56   16.80
   3   9  -6  495.45   16.10
  -3  -9   6  477.15   21.60
  -3  -9   6  463.55   16.70
   2   9  -6   77.79    5.40
   2   9  -6   77.19    5.60
   2   9  -6   69.99    5.70
   2   9  -6   73.89    6.50
   2   9  -6   80.39    6.40
  -2  -9   6   71.29    8.00
  -2  -9   6   67.69    5.60
  -2  -9   6   69.99    4.50
   1   9  -6   69.99    5.30
   1   9  -6   74.79    5.00
   1   9  -6   69.99    6.30
   1   9  -6   64.59    5.70
   1   9  -6   65.29    5.10
   1   9  -6   68.19    4.90
  -1  -9   6   84.59    5.10
  -1  -9   6   76.79    7.90
  -1  -9   6   80.99    5.20
  -1  -9   6   74.59    7.90
  -1  -9   6   69.59    4.50
   0   9  -6   58.29    4.50
   0   9  -6   68.49    4.30
   0   9  -6   56.89    5.80
   0   9  -6   64.99    4.40
   0   9  -6   62.59    4.50
   0   9  -6   64.79    4.40
   0   9  -6   66.49    5.80
   0  -9   6   72.19    7.80
   0  -9   6   62.79    3.90
   0  -9   6   63.69    4.90
  -1   9  -6   75.39    5.10
  -1   9  -6   69.69    6.50
  -1   9  -6   81.69    4.70
  -1   9  -6   76.99    6.00
  -1   9  -6   85.99    4.70
  -1   9  -6   78.69    4.40
  -1   9  -6   83.19    4.20
   1  -9   6   77.19    3.10
   1  -9   6   67.69    7.50
   1  -9   6   73.39    2.40
  -2   9  -6   37.20    4.40
  -2   9  -6   34.40    2.80
  -2   9  -6   38.50    2.60
  -2   9  -6   37.90    5.60
  -2   9  -6   35.80    2.60
  -2   9  -6   40.50    2.50
   2  -9   6   31.00    5.90
  -3   9  -6   96.99    3.10
  -3   9  -6   94.79    3.20
  -3   9  -6  112.69    8.10
   3  -9   6  102.59    8.50
  -4   9  -6  473.95   18.70
  -4   9  -6  496.05   14.80
  -4   9  -6  510.05   17.70
   4  -9   6  494.15   19.60
  -5   9  -6    8.60    3.20
  -5   9  -6    6.00    1.60
  -5   9  -6    6.20    2.90
   5  -9   6    9.50    3.30
   5   8  -6   47.10    6.00
   5   8  -6   51.19    4.60
   5   8  -6   51.89    5.70
   5   8  -6   52.69    6.40
   5   8  -6   41.90    5.80
  -5  -8   6   46.70    6.20
  -5  -8   6   71.69    8.00
  -5  -8   6   47.90    6.40
   4   8  -6   -3.30    2.00
   4   8  -6   -0.20    1.70
   4   8  -6   -2.20    2.00
   4   8  -6   -0.10    1.50
   4   8  -6   -0.30    1.40
   4   8  -6    0.60    2.10
  -4  -8   6    0.20    2.20
  -4  -8   6    0.00    2.20
  -4  -8   6   -0.80    1.40
  -4  -8   6   -0.20    2.20
   3   8  -6   83.39    7.00
   3   8  -6   76.89    4.60
   3   8  -6   87.99    6.20
   3   8  -6   73.49    6.00
   3   8  -6   79.39    6.60
   3   8  -6   75.49    5.60
  -3  -8   6   80.69    7.20
  -3  -8   6   84.99    8.40
  -3  -8   6   80.29    6.90
  -3  -8   6   76.89    5.60
  -3  -8   6   74.69    4.30
  -3  -8   6   70.69    5.80
   2   8  -6  167.38    8.10
   2   8  -6  161.48    7.80
   2   8  -6  164.78    9.30
   2   8  -6  161.68    9.60
  -2  -8   6  176.98    8.20
  -2  -8   6  163.38    6.40
  -2  -8   6  165.18    8.00
  -2  -8   6  193.98   10.60
  -2  -8   6  177.18   11.60
  -2  -8   6  172.08    7.80
   1   8  -6  123.49    6.60
   1   8  -6  131.79    8.00
   1   8  -6  124.89    6.20
   1   8  -6  133.09    5.70
   1   8  -6  125.49    8.00
   1   8  -6  130.49    6.50
  -1  -8   6  125.69    9.70
  -1  -8   6  127.39    6.00
  -1  -8   6  129.59    5.50
  -1  -8   6  136.19    6.40
  -1  -8   6  125.99    7.00
   0   8  -6    7.90    1.80
   0   8  -6    4.10    1.40
   0   8  -6    5.30    1.50
   0   8  -6    6.10    1.60
   0   8  -6    5.60    1.70
   0   8  -6    8.20    2.70
   0  -8   6    6.30    1.40
   0  -8   6    9.60    3.10
   0  -8   6    3.30    1.20
   0  -8   6    5.30    1.50
  -1   8  -6   12.00    1.80
  -1   8  -6   17.20    2.20
  -1   8  -6   13.80    2.10
  -1   8  -6   15.90    2.10
  -1   8  -6   13.60    3.30
  -1   8  -6   12.80    2.20
   1  -8   6   13.80    0.80
   1  -8   6   11.00    3.70
   1  -8   6   14.70    0.80
  -2   8  -6  139.39    4.40
  -2   8  -6  140.49    8.60
  -2   8  -6  138.59    5.10
  -2   8  -6  133.59    4.80
  -2   8  -6  135.99    4.60
  -2   8  -6  137.49    7.10
   2  -8   6  157.68   10.20
  -3   8  -6   31.20    4.30
  -3   8  -6   24.20    3.40
  -3   8  -6   24.20    4.20
   3  -8   6   28.40    5.30
  -4   8  -6   69.89    6.00
  -4   8  -6   68.29    4.60
  -4   8  -6   77.79    6.60
   4  -8   6   73.39    6.80
  -5   8  -6    1.10    2.30
  -5   8  -6    3.20    2.10
  -5   8  -6    2.20    1.30
   5  -8   6    3.60    2.80
   6   7  -6  108.09    8.40
   6   7  -6  106.79    8.00
   6   7  -6  104.09    7.80
   6   7  -6  105.69    6.60
   6   7  -6  107.39    8.60
   6   7  -6  114.19    8.70
  -6  -7   6  129.19   10.40
  -6  -7   6  123.89    8.60
  -6  -7   6  112.99    6.30
  -6  -7   6  118.29    8.90
   5   7  -6    5.50    2.00
   5   7  -6    5.40    2.80
   5   7  -6    8.10    2.50
   5   7  -6    4.10    2.60
   5   7  -6    5.10    2.00
   5   7  -6    5.50    2.50
  -5  -7   6    3.20    2.80
  -5  -7   6    6.60    2.70
  -5  -7   6    7.00    1.90
  -5  -7   6   12.80    3.60
   4   7  -6    2.90    2.00
   4   7  -6    6.60    1.90
   4   7  -6    6.50    2.50
   4   7  -6    3.20    2.70
   4   7  -6    4.10    2.20
   4   7  -6    1.40    1.90
   4   7  -6    6.80    2.00
  -4  -7   6    3.80    2.20
  -4  -7   6    4.10    2.20
  -4  -7   6    3.00    1.30
  -4  -7   6    7.20    2.50
  -4  -7   6    4.90    2.40
  -4  -7   6    4.00    2.30
  -4  -7   6    3.40    2.10
   3   7  -6   30.30    3.90
   3   7  -6   36.30    4.80
   3   7  -6   28.10    2.70
   3   7  -6   31.50    4.20
   3   7  -6   33.80    5.60
   3   7  -6   34.00    4.40
  -3  -7   6   28.30    2.40
  -3  -7   6   33.80    4.30
  -3  -7   6   35.80    6.50
  -3  -7   6   42.10    4.00
   2   7  -6  141.89    7.00
   2   7  -6  147.49    8.20
   2   7  -6  158.18    7.10
   2   7  -6  147.79    8.20
   2   7  -6  144.79    7.10
  -2  -7   6  148.99    6.80
  -2  -7   6  137.89    8.40
  -2  -7   6  139.59    9.90
  -2  -7   6  148.89    5.30
  -2  -7   6  141.89    6.90
   1   7  -6   75.29    5.80
   1   7  -6   72.29    4.30
   1   7  -6   81.49    4.80
   1   7  -6   73.19    4.50
   1   7  -6   67.79    3.50
  -1  -7   6   69.19    6.60
  -1  -7   6   72.29    4.20
  -1  -7   6   69.09    3.40
  -1  -7   6   70.39    4.30
  -1  -7   6   74.49    5.90
  -1  -7   6   69.19    4.20
  -1  -7   6   78.59    4.30
   0   7  -6   53.49    3.50
   0   7  -6   52.49    4.80
   0   7  -6   58.99    3.60
   0   7  -6   51.89    3.40
   0   7  -6   55.59    3.60
   0  -7   6   55.59    3.10
   0  -7   6   51.89    2.90
   0  -7   6   51.59    2.90
   0  -7   6   51.39    3.00
   0  -7   6   50.79    5.60
  -1   7  -6  205.88    9.70
  -1   7  -6  209.88    7.80
  -1   7  -6  205.68    6.50
  -1   7  -6  201.18    6.30
  -1   7  -6  209.98    6.70
  -1   7  -6  203.18    6.20
   1  -7   6  224.28   11.80
  -2   7  -6   58.19    2.00
  -2   7  -6   55.99    2.30
  -2   7  -6   56.09    1.90
  -2   7  -6   61.39    5.30
  -2   7  -6   61.19    4.50
  -2   7  -6   58.29    2.20
   2  -7   6   61.79    5.90
  -3   7  -6  370.16   12.40
  -3   7  -6  384.46   14.50
  -3   7  -6  394.36   13.60
   3  -7   6  397.16   16.00
  -4   7  -6   18.20    2.90
  -4   7  -6   18.80    3.60
   4  -7   6   28.80    4.80
   4  -7   6   25.00    4.80
  -5   7  -6   97.69    7.20
  -5   7  -6  100.49    7.30
  -5   7  -6   96.69    5.30
   5  -7   6   88.09    7.10
   5  -7   6   97.99    7.70
  -6   7  -6    4.30    2.60
  -6   7  -6    2.50    1.30
  -6   7  -6    3.60    2.40
   6  -7   6    1.90    2.40
   7   6  -6    0.50    2.40
   7   6  -6    1.30    2.30
   7   6  -6    1.30    2.60
   7   6  -6   -1.40    1.50
   7   6  -6    1.70    2.40
  -7  -6   6   -1.00    2.10
  -7  -6   6    0.40    2.80
  -7  -6   6    4.60    3.10
  -7  -6   6    0.70    2.40
   6   6  -6   51.69    6.20
   6   6  -6   51.49    5.40
   6   6  -6   45.30    6.30
   6   6  -6   45.80    6.00
   6   6  -6   52.59    5.40
  -6  -6   6   52.69    7.60
  -6  -6   6   52.59    5.40
  -6  -6   6   53.39    5.40
  -6  -6   6   54.69    6.90
  -6  -6   6   45.50    4.50
   5   6  -6   56.19    5.30
   5   6  -6   62.19    5.80
   5   6  -6   58.89    4.20
   5   6  -6   48.10    7.30
   5   6  -6   71.49    6.00
   5   6  -6   53.59    5.20
  -5  -6   6   55.49    6.30
  -5  -6   6   47.00    5.00
  -5  -6   6   49.80    5.20
  -5  -6   6   58.69    5.20
  -5  -6   6   58.49    7.40
  -5  -6   6   52.89    3.70
  -5  -6   6   53.19    5.60
   4   6  -6    0.00    1.30
   4   6  -6    0.40    1.50
   4   6  -6    4.00    1.70
   4   6  -6    1.00    1.20
   4   6  -6    2.30    1.60
   4   6  -6    0.00    1.00
  -4  -6   6   -1.60    1.30
  -4  -6   6    0.20    1.50
  -4  -6   6   -0.30    0.70
  -4  -6   6   -0.20    1.60
   3   6  -6    7.50    2.00
   3   6  -6    5.70    1.70
   3   6  -6    5.90    1.90
   3   6  -6    7.70    2.00
   3   6  -6    5.80    1.30
   3   6  -6    5.60    2.40
  -3  -6   6    6.80    2.10
  -3  -6   6    7.50    3.20
  -3  -6   6    5.50    1.90
  -3  -6   6    6.20    2.00
   2   6  -6  223.68    8.60
   2   6  -6  225.48    8.90
   2   6  -6  232.38    9.90
   2   6  -6  226.78    8.40
   2   6  -6  216.18    8.50
  -2  -6   6  227.88   10.40
  -2  -6   6  213.08    8.30
  -2  -6   6  220.78   11.80
  -2  -6   6  212.58    8.40
  -2  -6   6  228.28    6.10
  -2  -6   6  225.58    8.20
  -2  -6   6  229.68    8.40
   1   6  -6   75.99    3.20
   1   6  -6   77.69    4.30
   1   6  -6   76.49    4.30
   1   6  -6   83.99    5.60
   1   6  -6   75.19    4.10
   1   6  -6   72.59    4.10
  -1  -6   6   75.79    5.60
  -1  -6   6   67.59    6.20
  -1  -6   6   66.99    3.70
  -1  -6   6   71.09    3.80
  -1  -6   6   79.89    4.20
  -1  -6   6   76.49    4.10
   0   6  -6  106.59    4.50
   0   6  -6  113.09    4.50
   0   6  -6  108.49    4.60
   0   6  -6  102.09    6.20
   0   6  -6  112.49    4.60
   0  -6   6  110.89    4.50
   0  -6   6  110.59    4.00
   0  -6   6  118.19    8.00
   0  -6   6  112.89    4.00
   0  -6   6  108.79    4.00
  -1   6  -6  165.18    4.80
  -1   6  -6  162.68    5.10
  -1   6  -6  155.78    7.90
  -1   6  -6  165.88    6.50
  -1   6  -6  164.98    5.00
  -1   6  -6  164.18    4.90
   1  -6   6  153.78    9.30
  -2   6  -6    0.00    1.20
  -2   6  -6   -0.50    1.10
   2  -6   6   -0.60    1.70
  -3   6  -6   32.20    4.40
  -3   6  -6   36.70    3.40
  -3   6  -6   42.60    4.00
   3  -6   6   42.70    4.90
   3  -6   6   46.80    4.40
  -4   6  -6   -0.80    1.10
  -4   6  -6    1.40    1.50
  -4   6  -6   -1.70    1.50
   4  -6   6   -0.40    1.70
   4  -6   6   -0.30    1.70
  -5   6  -6   72.29    6.10
  -5   6  -6   67.69    6.70
  -5   6  -6   64.49    4.30
   5  -6   6   65.39    6.20
  -6   6  -6    8.10    3.20
  -6   6  -6   13.60    2.50
   6  -6   6   17.20    4.30
   8   5  -6    2.80    2.10
   8   5  -6    8.50    3.20
   8   5  -6    1.70    3.50
   8   5  -6    6.80    2.50
   8   5  -6   -0.10    3.00
  -8  -5   6    3.00    3.50
  -8  -5   6   -3.90    2.40
  -8  -5   6    3.80    2.90
  -8  -5   6    3.60    3.40
   7   5  -6    8.70    3.50
   7   5  -6   11.80    3.40
   7   5  -6   12.80    2.90
   7   5  -6   12.50    2.80
   7   5  -6   18.80    4.70
   7   5  -6   16.60    3.60
  -7  -5   6   12.10    3.70
  -7  -5   6    8.30    2.80
  -7  -5   6    8.50    3.70
  -7  -5   6   13.60    2.80
  -7  -5   6   14.70    3.60
   6   5  -6    2.30    2.10
   6   5  -6    3.40    1.90
   6   5  -6    3.00    2.10
   6   5  -6    1.10    1.70
   6   5  -6    4.00    2.50
   6   5  -6    1.40    2.10
   6   5  -6    2.70    2.50
  -6  -5   6    2.80    1.30
  -6  -5   6    2.20    2.40
  -6  -5   6    4.40    2.70
  -6  -5   6    1.10    1.60
  -6  -5   6    2.60    2.10
  -6  -5   6    3.10    1.80
   5   5  -6  103.89    6.80
   5   5  -6   95.49    6.60
   5   5  -6   93.69    6.70
   5   5  -6   99.59    5.20
   5   5  -6   89.59    6.10
   5   5  -6   99.79    6.90
  -5  -5   6   94.49    4.70
  -5  -5   6  104.09    7.10
  -5  -5   6   81.79    7.20
  -5  -5   6  105.99    6.40
  -5  -5   6   90.99    6.30
   4   5  -6   -0.10    1.40
   4   5  -6   -0.30    1.40
   4   5  -6    2.70    1.10
   4   5  -6    3.80    1.80
   4   5  -6    3.00    1.50
   4   5  -6    1.60    1.40
  -4  -5   6    0.90    1.60
  -4  -5   6    1.10    1.70
  -4  -5   6    0.10    1.20
  -4  -5   6    2.90    2.10
  -4  -5   6    1.70    1.30
  -4  -5   6    2.70    1.80
  -4  -5   6    1.40    0.80
   3   5  -6  232.28    9.20
   3   5  -6  235.58    9.00
   3   5  -6  225.48    9.20
   3   5  -6  229.68    8.90
   3   5  -6  233.28    7.80
   3   5  -6  232.88    9.80
  -3  -5   6  229.78    9.20
  -3  -5   6  237.88    8.70
  -3  -5   6  234.48   10.20
  -3  -5   6  229.48   11.60
  -3  -5   6  246.98    9.10
  -3  -5   6  229.78    8.90
   2   5  -6    0.20    0.80
   2   5  -6    0.10    0.90
   2   5  -6   -0.30    0.70
   2   5  -6   -1.30    0.80
   2   5  -6   -0.30    0.90
   2   5  -6   -0.60    0.40
  -2  -5   6   -1.10    0.70
  -2  -5   6    1.20    1.40
  -2  -5   6    0.20    1.00
  -2  -5   6    0.50    0.70
  -2  -5   6   -1.10    0.60
  -2  -5   6   -0.10    0.80
   1   5  -6  257.37    9.60
   1   5  -6  253.07    8.20
   1   5  -6  252.37    7.90
   1   5  -6  259.47    8.00
   1   5  -6  246.78    6.00
   1   5  -6  246.28    8.00
  -1  -5   6  255.67    7.70
  -1  -5   6  260.97    7.60
  -1  -5   6  244.08    7.80
  -1  -5   6  235.88   12.90
  -1  -5   6  240.08    9.70
  -1  -5   6  238.88    7.60
   0   5  -6    2.90    0.90
   0   5  -6    2.70    0.80
   0   5  -6    2.60    0.80
   0   5  -6    2.20    0.80
   0   5  -6    3.90    1.00
   0   5  -6    3.40    1.40
   0  -5   6    5.30    2.10
   0  -5   6    3.20    0.70
   0  -5   6    3.10    0.70
   0  -5   6    4.70    1.50
   0  -5   6    1.90    0.60
  -1   5  -6  155.28    4.20
  -1   5  -6  161.38    6.20
  -1   5  -6  152.18    7.00
  -1   5  -6  157.88    4.40
   1  -5   6  147.39    8.60
  -2   5  -6  219.28    8.20
  -2   5  -6  218.68    8.70
  -2   5  -6  223.08    8.90
   2  -5   6  219.38    8.60
   2  -5   6  209.88   10.40
  -3   5  -6   12.00    2.60
  -3   5  -6    9.30    2.20
  -3   5  -6    6.20    1.80
   3  -5   6    6.40    2.50
   3  -5   6   11.40    2.60
  -4   5  -6    1.00    1.30
  -4   5  -6    3.90    1.90
  -4   5  -6    1.40    1.20
   4  -5   6    0.90    1.70
   4  -5   6    1.30    1.90
  -5   5  -6    9.40    2.20
  -5   5  -6    7.60    2.70
   5  -5   6    8.40    3.10
  -6   5  -6    0.60    0.60
  -6   5  -6   -0.70    1.10
  -6   5  -6    0.40    0.70
  -6   5  -6   -0.10    2.00
  -6   5  -6    0.60    0.80
   6  -5   6   -0.20    2.10
  -7   5  -6   59.59    3.50
  -7   5  -6   62.19    4.80
  -7   5  -6   47.10    8.20
  -7   5  -6   60.79    3.20
  -7   5  -6   57.59    3.60
   7  -5   6   52.79    7.70
   8   4  -6   28.30    5.30
   8   4  -6   26.50    4.70
   8   4  -6   29.00    5.30
   8   4  -6   29.90    4.80
   8   4  -6   23.80    4.30
  -8  -4   6   33.80    6.10
  -8  -4   6   25.60    5.40
  -8  -4   6   26.10    4.90
  -8  -4   6   22.30    4.10
   7   4  -6    2.70    1.90
   7   4  -6    3.70    2.20
   7   4  -6    0.00    1.80
   7   4  -6   -2.50    2.00
   7   4  -6    1.40    1.60
   7   4  -6    1.00    2.20
   7   4  -6   -2.50    2.20
  -7  -4   6    0.70    2.10
  -7  -4   6    2.00    2.10
  -7  -4   6    0.40    1.80
  -7  -4   6    0.50    1.50
  -7  -4   6    1.40    2.30
   6   4  -6  130.09    8.10
   6   4  -6  126.79    7.90
   6   4  -6  137.19    8.40
   6   4  -6  133.49    8.30
   6   4  -6  127.89    6.50
   6   4  -6  126.19    7.60
  -6  -4   6  138.09    8.20
  -6  -4   6  140.39    7.60
  -6  -4   6  125.19    7.60
  -6  -4   6  130.39    8.60
  -6  -4   6  116.49    7.80
   5   4  -6  198.68    7.40
   5   4  -6  195.08    9.20
   5   4  -6  206.58    9.30
   5   4  -6  203.48    9.50
   5   4  -6  205.38    9.60
   5   4  -6  191.58    9.60
  -5  -4   6  197.78    8.70
  -5  -4   6  206.78    7.00
  -5  -4   6  211.48    9.80
  -5  -4   6  171.68    8.40
  -5  -4   6  196.38    9.60
  -5  -4   6  206.98   10.70
   4   4  -6  660.03   15.40
   4   4  -6  674.73   19.10
   4   4  -6  677.03   19.00
   4   4  -6  659.23   18.80
   4   4  -6  655.83   18.50
   4   4  -6  632.74   18.10
  -4  -4   6  646.34   17.80
  -4  -4   6  686.43   19.30
  -4  -4   6  647.44   18.10
  -4  -4   6  688.33   19.70
  -4  -4   6  660.63   14.70
  -4  -4   6  674.23   18.70
   3   4  -6    4.00    1.50
   3   4  -6    6.00    1.60
   3   4  -6    3.60    1.50
   3   4  -6    7.40    1.80
   3   4  -6    4.40    0.80
   3   4  -6    5.80    1.60
  -3  -4   6    6.10    1.60
  -3  -4   6    3.60    1.60
  -3  -4   6    5.00    1.80
  -3  -4   6    4.20    1.50
  -3  -4   6    5.90    1.50
  -3  -4   6    5.30    2.30
   2   4  -6  419.46   12.00
   2   4  -6  423.76   12.00
   2   4  -6  420.06   11.70
   2   4  -6  425.06   12.60
   2   4  -6  402.96    8.10
   2   4  -6  394.46   11.40
  -2  -4   6  414.46   13.00
  -2  -4   6  388.76   11.70
  -2  -4   6  393.76   14.80
  -2  -4   6  409.36   11.10
  -2  -4   6  408.96   11.30
   1   4  -6   50.29    1.80
   1   4  -6   49.50    2.90
   1   4  -6   49.70    3.10
   1   4  -6   51.79    3.10
   1   4  -6   55.79    3.70
   1   4  -6   60.49    3.20
  -1  -4   6   50.69    2.90
  -1  -4   6   54.09    3.20
  -1  -4   6   53.09    3.80
  -1  -4   6   49.20    2.90
  -1  -4   6   55.99    4.90
  -1  -4   6   49.60    2.70
   0   4  -6   77.39    3.20
   0   4  -6   81.99    3.30
   0   4  -6   73.39    3.20
   0   4  -6   73.49    4.30
   0   4  -6   69.09    3.00
   0   4  -6   73.09    3.00
   0  -4   6   73.69    2.50
   0  -4   6   75.59    2.70
   0  -4   6   70.49    4.30
   0  -4   6   70.09    2.40
   0  -4   6   74.09    5.70
   0  -4   6   72.09    2.60
  -1   4  -6 1501.35   32.70
  -1   4  -6 1495.35   28.60
  -1   4  -6 1495.95   28.90
  -1   4  -6 1489.45   28.70
  -1   4  -6 1491.25   28.50
  -1   4  -6 1481.75   31.60
   1  -4   6 1474.65   31.80
   1  -4   6 1471.35   36.40
  -2   4  -6  238.68    8.60
  -2   4  -6  244.08    9.00
  -2   4  -6  233.18    8.40
   2  -4   6  234.68    8.80
   2  -4   6  250.77   10.90
  -3   4  -6   81.79    5.20
  -3   4  -6   80.59    4.90
  -3   4  -6   72.49    4.70
   3  -4   6   76.49    5.90
   3  -4   6   77.79    5.40
  -4   4  -6   98.99    2.70
  -4   4  -6   91.69    5.30
  -4   4  -6   94.99    3.00
  -4   4  -6   91.89    3.00
  -4   4  -6   93.29    2.60
   4  -4   6   90.99    6.50
  -5   4  -6  187.08    8.00
  -5   4  -6  168.68    5.60
  -5   4  -6  180.88    5.50
  -5   4  -6  171.48    5.30
  -5   4  -6  173.78    5.70
   5  -4   6  198.28   10.60
  -6   4  -6    1.60    1.00
  -6   4  -6    1.70    1.10
  -6   4  -6    3.60    1.10
  -6   4  -6    2.10    1.60
  -6   4  -6    3.60    2.30
  -6   4  -6    1.60    1.10
   6  -4   6    0.10    2.30
  -7   4  -6   38.70    3.40
  -7   4  -6   41.70    3.40
  -7   4  -6   46.40    4.50
  -7   4  -6   38.60    3.50
  -7   4  -6   30.00    5.20
  -7   4  -6   36.40    3.10
   7  -4   6   38.80    6.70
   9   3  -6  123.09    9.10
   9   3  -6  108.69    8.30
   9   3  -6  112.89    9.30
  -9  -3   6  110.19    8.70
  -9  -3   6  110.39    7.90
  -9  -3   6  117.19    9.70
  -9  -3   6  101.49    7.40
  -9  -3   6  100.29    7.90
   8   3  -6   13.50    3.40
   8   3  -6   11.90    3.60
   8   3  -6   12.20    3.60
   8   3  -6    8.80    3.40
   8   3  -6   14.50    3.60
   8   3  -6   12.30    3.50
  -8  -3   6   15.60    3.70
  -8  -3   6    9.30    2.60
  -8  -3   6    5.80    3.10
  -8  -3   6   15.40    3.50
  -8  -3   6    6.50    3.00
   7   3  -6    0.30    1.50
   7   3  -6   -0.60    1.20
   7   3  -6   -1.70    2.00
   7   3  -6    1.60    2.00
   7   3  -6    0.40    1.30
   7   3  -6    1.60    1.70
  -7  -3   6    0.00    1.60
  -7  -3   6    0.30    1.70
  -7  -3   6    1.20    1.90
  -7  -3   6   -0.20    1.50
  -7  -3   6   -1.70    1.00
  -7  -3   6   -3.70    1.40
  -7  -3   6    0.10    1.30
   6   3  -6  510.45   17.10
   6   3  -6  534.35   17.60
   6   3  -6  523.65   17.10
   6   3  -6  490.65   14.70
   6   3  -6  518.15   16.70
   6   3  -6  487.05   16.90
   6   3  -6  514.55   17.10
  -6  -3   6  490.25   16.10
  -6  -3   6  530.45   16.70
  -6  -3   6  492.75   14.00
  -6  -3   6  486.05   16.70
  -6  -3   6  532.05   17.80
   5   3  -6   -0.90    0.70
   5   3  -6    0.50    1.40
   5   3  -6    0.40    0.70
   5   3  -6    2.50    1.40
   5   3  -6   -0.80    0.80
   5   3  -6   -0.80    1.20
  -5  -3   6   -0.10    1.00
  -5  -3   6    0.40    1.60
  -5  -3   6    0.40    0.90
  -5  -3   6    0.80    0.90
  -5  -3   6    0.80    1.20
  -5  -3   6    0.20    1.10
  -5  -3   6    1.80    1.60
   4   3  -6    2.80    1.30
   4   3  -6    0.60    1.20
   4   3  -6    2.90    1.50
   4   3  -6    3.00    1.30
   4   3  -6   -0.10    0.80
  -4  -3   6    2.00    1.40
  -4  -3   6    3.30    0.80
  -4  -3   6    3.40    1.60
  -4  -3   6    2.80    1.40
  -4  -3   6    4.30    1.40
  -4  -3   6    3.70    1.70
  -4  -3   6   -0.30    0.80
   3   3  -6   38.50    1.60
   3   3  -6   44.60    3.40
   3   3  -6   38.10    3.20
   3   3  -6   38.90    3.20
   3   3  -6   40.30    3.30
  -3  -3   6   48.60    4.50
  -3  -3   6   34.90    3.00
  -3  -3   6   45.20    3.70
  -3  -3   6   43.40    3.50
  -3  -3   6   41.10    3.40
  -3  -3   6   45.80    3.30
   2   3  -6   34.80    2.70
   2   3  -6   36.50    2.80
   2   3  -6   34.00    2.60
   2   3  -6   36.80    2.90
   2   3  -6   35.60    2.80
  -2  -3   6   37.50    2.90
  -2  -3   6   33.10    2.90
  -2  -3   6   36.50    2.50
  -2  -3   6   37.20    4.00
  -2  -3   6   35.50    2.50
   1   3  -6  315.27    9.20
   1   3  -6  287.07    8.70
   1   3  -6  293.37    8.40
   1   3  -6  304.27    8.70
   1   3  -6  303.07    8.70
  -1  -3   6  317.27    8.20
  -1  -3   6  332.07   12.30
  -1  -3   6  304.47    8.60
  -1  -3   6  316.77    8.10
  -1  -3   6  298.77    9.40
   0   3  -6  502.65   11.80
   0   3  -6  507.15   11.80
   0   3  -6  515.65   12.90
   0   3  -6  499.45   11.60
   0   3  -6  504.85   11.90
   0   3  -6  502.55   11.60
   0  -3   6  502.25   10.80
   0  -3   6  502.45   11.60
   0  -3   6  502.75   11.10
   0  -3   6  501.45   16.30
   0  -3   6  514.85   10.80
   0  -3   6  514.25   11.10
  -1   3  -6   46.10    3.60
  -1   3  -6   42.10    2.00
  -1   3  -6   42.90    1.90
  -1   3  -6   41.30    2.80
  -1   3  -6   45.10    2.00
  -1   3  -6   44.70    1.90
   1  -3   6   47.50    4.40
   1  -3   6   46.00    3.00
  -2   3  -6  110.49    7.00
  -2   3  -6  112.79    3.20
  -2   3  -6  113.19    3.40
  -2   3  -6  115.99    3.30
  -2   3  -6  117.79    3.20
  -2   3  -6  116.19    5.80
   2  -3   6  119.39    5.80
   2  -3   6  110.29    6.90
  -3   3  -6   31.00    3.10
  -3   3  -6   30.90    1.70
  -3   3  -6   25.50    1.50
  -3   3  -6   32.40    1.90
  -3   3  -6   31.80    1.70
   3  -3   6   35.50    3.50
  -4   3  -6    3.40    1.00
  -4   3  -6    5.90    1.10
  -4   3  -6    5.70    1.30
  -4   3  -6    5.90    1.20
  -4   3  -6    6.10    1.80
   4  -3   6    7.50    2.50
  -5   3  -6    5.30    1.90
  -5   3  -6    2.10    1.10
  -5   3  -6    2.10    1.30
  -5   3  -6    2.80    1.10
  -5   3  -6    1.80    1.10
  -5   3  -6    3.10    1.20
   5  -3   6    2.40    2.20
  -6   3  -6  143.09    7.30
  -6   3  -6  141.19    6.10
  -6   3  -6  152.38    6.60
  -6   3  -6  146.39    6.10
  -6   3  -6  136.99    7.50
  -6   3  -6  151.48    6.60
   6  -3   6  146.99    9.90
  -7   3  -6   91.39    6.40
  -7   3  -6  100.59    5.70
  -7   3  -6   86.09    6.40
   7  -3   6  101.99    8.90
   9   2  -6    8.20    3.20
   9   2  -6    3.00    3.30
   9   2  -6    6.40    2.80
   9   2  -6    8.90    4.00
  -9  -2   6    3.60    3.20
  -9  -2   6    1.30    3.00
  -9  -2   6    9.10    3.40
  -9  -2   6    5.00    2.60
  -9  -2   6    6.20    3.60
   8   2  -6    1.30    2.60
   8   2  -6   -1.60    1.20
   8   2  -6    1.60    2.30
   8   2  -6    0.30    2.40
   8   2  -6   -0.30    1.70
  -8  -2   6   -0.20    1.90
  -8  -2   6   -0.10    1.80
  -8  -2   6    0.80    2.00
  -8  -2   6    0.00    2.20
  -8  -2   6    0.80    1.40
  -8  -2   6    1.20    2.70
   7   2  -6   27.50    4.30
   7   2  -6   17.40    3.80
   7   2  -6   24.40    3.80
   7   2  -6   21.10    3.70
   7   2  -6   25.90    4.10
   7   2  -6   21.60    4.00
  -7  -2   6   23.00    4.00
  -7  -2   6   17.80    3.80
  -7  -2   6   21.10    3.50
  -7  -2   6   24.20    3.20
  -7  -2   6   28.90    4.40
  -7  -2   6   19.50    3.80
   6   2  -6   36.50    4.70
   6   2  -6   50.69    4.50
   6   2  -6   48.90    4.90
   6   2  -6   45.80    4.10
   6   2  -6   51.49    4.00
   6   2  -6   46.40    4.40
  -6  -2   6   49.40    4.40
  -6  -2   6   53.49    4.90
  -6  -2   6   50.19    4.70
  -6  -2   6   44.80    4.30
  -6  -2   6   47.30    4.50
  -6  -2   6   47.00    4.40
  -6  -2   6   49.20    3.60
   5   2  -6    4.60    1.60
   5   2  -6    5.50    1.80
   5   2  -6    4.10    1.50
   5   2  -6    2.30    1.40
   5   2  -6    2.60    1.40
   5   2  -6    2.70    1.30
  -5  -2   6    6.40    2.20
  -5  -2   6    3.20    1.40
  -5  -2   6    3.30    1.70
  -5  -2   6    1.90    1.40
  -5  -2   6    3.30    1.40
  -5  -2   6    4.20    1.60
   4   2  -6  189.78    8.10
   4   2  -6  194.38    7.90
   4   2  -6  188.48    8.10
   4   2  -6  182.18    7.60
   4   2  -6  180.48    7.80
  -4  -2   6  191.88    8.30
  -4  -2   6  178.48    8.60
  -4  -2   6  183.78    5.60
  -4  -2   6  183.48    7.40
  -4  -2   6  179.38    7.80
  -4  -2   6  185.28    7.80
  -4  -2   6  177.48    7.50
   3   2  -6   29.50    2.60
   3   2  -6   24.30    2.40
   3   2  -6   25.00    2.60
   3   2  -6   23.70    3.00
  -3  -2   6   27.40    3.90
  -3  -2   6   26.70    3.30
  -3  -2   6   25.60    1.10
  -3  -2   6   26.40    2.60
  -3  -2   6   25.00    2.40
  -3  -2   6   23.80    2.20
  -3  -2   6   25.30    2.60
   2   2  -6  535.55   13.60
   2   2  -6  543.85   14.00
   2   2  -6  528.05   14.10
   2   2  -6  529.85   14.00
   2   2  -6  525.15   13.70
  -2  -2   6  542.05   13.80
  -2  -2   6  559.34   13.50
  -2  -2   6  534.25   16.50
  -2  -2   6  520.75   13.40
  -2  -2   6  524.25   14.10
   1   2  -6  558.84   13.30
   1   2  -6  559.04   13.60
   1   2  -6  570.44   13.80
   1   2  -6  559.24   11.70
   1   2  -6  571.24   14.00
   1   2  -6  557.84   13.90
  -1  -2   6  567.74   13.70
  -1  -2   6  593.04   13.40
  -1  -2   6  577.64   13.70
  -1  -2   6  544.15   16.90
  -1  -2   6  592.04   13.40
  -1  -2   6  542.65   10.90
   0   2  -6   57.99    2.90
   0   2  -6   65.49    3.00
   0   2  -6   63.09    2.80
   0   2  -6   59.69    3.00
   0   2  -6   65.69    3.00
   0   2  -6   60.99    4.00
   0  -2   6   60.49    2.70
   0  -2   6   60.39    2.60
   0  -2   6   60.19    2.80
   0  -2   6   63.99    2.60
   0  -2   6   69.19    5.10
  -1   2  -6  288.07    7.50
  -1   2  -6  292.57    7.60
  -1   2  -6  292.27    9.90
  -1   2  -6  280.57    7.60
  -1   2  -6  289.67    7.80
  -1   2  -6  284.27    7.50
   1  -2   6  285.67   11.40
   1  -2   6  292.47    6.60
   1  -2   6  283.37    8.70
   1  -2   6  293.57    6.70
   1  -2   6  291.37    6.70
   1  -2   6  292.47    6.60
  -2   2  -6  203.68    5.90
  -2   2  -6  207.18    5.90
  -2   2  -6  194.58    7.90
  -2   2  -6  192.78    6.20
  -2   2  -6  210.28    6.20
   2  -2   6  191.98    4.70
   2  -2   6  195.58    4.90
   2  -2   6  195.48    7.70
   2  -2   6  197.48    4.60
   2  -2   6  208.08    4.80
  -3   2  -6   19.40    2.90
  -3   2  -6   25.40    1.90
  -3   2  -6   21.60    1.90
  -3   2  -6   18.40    1.90
  -3   2  -6   19.80    1.80
   3  -2   6   19.30    1.30
   3  -2   6   24.90    3.50
   3  -2   6   22.00    1.50
   3  -2   6   21.60    1.30
   3  -2   6   22.20    1.30
  -4   2  -6  194.08    6.80
  -4   2  -6  207.18    8.60
  -4   2  -6  186.08    6.70
  -4   2  -6  198.68    7.10
  -4   2  -6  193.18    7.10
  -4   2  -6  202.48    6.60
   4  -2   6  202.38    8.80
   4  -2   6  190.88    9.40
   4  -2   6  189.98    5.70
   4  -2   6  190.48    5.70
  -5   2  -6    8.70    1.70
  -5   2  -6    6.00    1.60
  -5   2  -6    7.00    1.90
  -5   2  -6    7.20    1.70
  -5   2  -6    6.60    1.70
  -5   2  -6    4.40    1.80
   5  -2   6    6.40    1.30
   5  -2   6    6.80    1.30
   5  -2   6    5.60    2.10
   5  -2   6    4.90    1.30
  -6   2  -6    5.90    1.90
  -6   2  -6    2.50    1.80
  -6   2  -6    4.80    1.70
  -6   2  -6    8.20    1.90
  -6   2  -6    5.70    2.00
   6  -2   6    8.90    1.80
   6  -2   6    7.80    1.70
   6  -2   6    6.20    3.00
   6  -2   6    7.10    2.50
   6  -2   6    6.50    1.60
  -7   2  -6   16.60    3.20
  -7   2  -6   24.30    3.40
  -7   2  -6   23.10    4.10
  -7   2  -6   20.50    3.60
  -7   2  -6   24.70    3.70
   7  -2   6   12.30    3.00
   7  -2   6   18.40    4.90
   7  -2   6   23.70    4.20
   7  -2   6   25.10    3.20
   9   1  -6   45.20    6.50
   9   1  -6   36.30    5.60
   9   1  -6   33.10    5.40
   9   1  -6   39.80    5.80
  -9  -1   6   40.40    6.30
  -9  -1   6   37.10    6.20
  -9  -1   6   28.00    4.90
  -9  -1   6   32.60    4.70
  -9  -1   6   40.20    5.30
   8   1  -6   37.90    5.60
   8   1  -6   51.59    5.00
   8   1  -6   39.40    4.90
   8   1  -6   39.70    5.10
   8   1  -6   44.80    5.80
  -8  -1   6   48.60    5.20
  -8  -1   6   47.60    5.70
  -8  -1   6   37.20    5.40
  -8  -1   6   39.90    5.10
  -8  -1   6   40.50    4.20
  -8  -1   6   43.70    4.20
  -8  -1   6   36.10    6.20
   7   1  -6   74.39    5.80
   7   1  -6   64.69    5.10
   7   1  -6   53.29    4.90
   7   1  -6   55.29    4.70
   7   1  -6   56.79    5.20
   7   1  -6   61.89    5.70
  -7  -1   6   57.89    4.50
  -7  -1   6   65.69    5.20
  -7  -1   6   58.69    4.70
  -7  -1   6   59.99    5.10
  -7  -1   6   54.89    5.20
  -7  -1   6   65.79    5.70
   6   1  -6   -0.60    0.90
   6   1  -6   -0.60    1.10
   6   1  -6    0.20    1.50
   6   1  -6   -1.40    0.80
   6   1  -6    0.90    1.60
  -6  -1   6   -1.70    1.10
  -6  -1   6    0.90    1.30
  -6  -1   6    2.40    1.30
  -6  -1   6    0.10    1.00
  -6  -1   6    0.40    1.10
  -6  -1   6   -1.70    1.50
  -6  -1   6    0.60    1.10
   5   1  -6  467.25   15.00
   5   1  -6  466.55   13.10
   5   1  -6  485.75   15.50
   5   1  -6  469.95   14.60
   5   1  -6  493.55   15.20
  -5  -1   6  474.35   15.00
  -5  -1   6  490.75   14.70
  -5  -1   6  482.55   14.50
  -5  -1   6  494.75   15.70
  -5  -1   6  470.05   12.80
  -5  -1   6  489.45   14.80
  -5  -1   6  441.76   14.60
   4   1  -6   19.90    1.90
   4   1  -6   19.50    3.00
   4   1  -6   20.40    3.10
   4   1  -6   21.00    2.80
   4   1  -6   19.70    2.90
   4   1  -6   20.90    2.90
  -4  -1   6   20.20    3.20
  -4  -1   6   25.40    2.60
  -4  -1   6   22.30    3.00
  -4  -1   6   19.60    2.80
  -4  -1   6   19.80    1.70
  -4  -1   6   20.40    2.90
   3   1  -6  293.27    9.80
   3   1  -6  302.57   10.00
   3   1  -6  297.57   10.10
   3   1  -6  297.27    9.70
   3   1  -6  310.87    9.40
  -3  -1   6  280.77    9.70
  -3  -1   6  317.77    9.90
  -3  -1   6  302.87    9.20
  -3  -1   6  291.27    7.10
  -3  -1   6  289.77    7.40
  -3  -1   6  302.97   11.10
  -3  -1   6  304.37   10.20
  -3  -1   6  317.07    9.70
   2   1  -6  985.50   22.60
   2   1  -6 1043.90   23.30
   2   1  -6 1001.10   22.80
   2   1  -6  977.20   21.50
  -2  -1   6 1021.90   22.40
  -2  -1   6  990.50   25.20
  -2  -1   6  977.40   23.00
  -2  -1   6  964.60   21.50
  -2  -1   6  962.10   19.40
  -2  -1   6 1001.20   22.80
  -2  -1   6 1006.90   22.60
   1   1  -6    6.60    1.30
   1   1  -6    6.90    1.30
   1   1  -6    7.10    1.60
   1   1  -6    8.90    1.20
   1   1  -6    8.20    1.50
   1   1  -6    7.90    1.00
   1   1  -6   11.50    1.80
  -1  -1   6    9.20    1.50
  -1  -1   6    8.80    1.60
  -1  -1   6    8.20    2.40
  -1  -1   6    9.80    1.20
  -1  -1   6    9.10    1.00
  -1  -1   6    9.80    1.50
   0   1  -6  667.43   15.70
   0   1  -6  653.53   15.50
   0   1  -6  674.53   15.70
   0   1  -6  658.43   15.80
   0   1  -6  648.54   17.30
   0   1  -6  677.93   15.60
   0   1  -6  667.93   13.20
   0  -1   6  655.13   15.10
   0  -1   6  671.73   15.20
   0  -1   6  677.33   15.10
   0  -1   6  651.53   15.20
   0  -1   6  653.23   19.10
  -1   1  -6   13.70    1.80
  -1   1  -6   13.90    1.80
  -1   1  -6   10.70    1.60
  -1   1  -6   15.10    2.40
  -1   1  -6   12.50    0.80
  -1   1  -6   11.60    1.60
   1  -1   6   10.80    1.50
   1  -1   6   16.60    2.30
   1  -1   6   12.70    1.30
   1  -1   6   11.10    1.50
   1  -1   6   13.20    1.30
  -2   1  -6    2.90    1.40
  -2   1  -6    4.40    0.80
  -2   1  -6    4.10    1.10
  -2   1  -6    4.00    1.20
   2  -1   6    3.30    1.50
   2  -1   6    5.20    1.10
   2  -1   6    2.80    1.20
   2  -1   6    4.60    1.00
  -3   1  -6    4.90    1.40
  -3   1  -6    4.50    1.40
  -3   1  -6    3.20    1.20
  -3   1  -6    5.20    1.40
  -3   1  -6    7.00    1.50
  -3   1  -6    6.10    1.20
   3  -1   6    4.30    1.20
   3  -1   6    7.20    1.40
   3  -1   6    6.20    1.10
   3  -1   6    3.30    1.50
   3  -1   6    3.30    1.00
   3  -1   6    6.70    2.10
  -4   1  -6    6.20    1.60
  -4   1  -6   11.40    2.00
  -4   1  -6   11.80    2.60
  -4   1  -6    8.90    1.60
  -4   1  -6    8.40    2.00
   4  -1   6    8.40    1.50
   4  -1   6    6.30    2.00
   4  -1   6    9.60    1.80
   4  -1   6    9.20    1.70
   4  -1   6   11.60    2.70
   4  -1   6   10.10    1.60
  -5   1  -6   37.00    4.60
  -5   1  -6   32.10    3.00
  -5   1  -6   26.50    3.40
  -5   1  -6   23.10    3.10
  -5   1  -6   31.40    3.00
  -5   1  -6   31.00    3.00
   5  -1   6   26.70    2.60
   5  -1   6   29.90    2.70
   5  -1   6   33.30    5.20
   5  -1   6   28.90    4.10
  -6   1  -6    0.40    1.70
  -6   1  -6    3.20    1.40
  -6   1  -6    2.90    1.70
  -6   1  -6    3.20    1.90
  -6   1  -6    3.50    1.60
  -6   1  -6    3.80    1.70
   6  -1   6    4.10    1.80
   6  -1   6   -0.20    1.50
   6  -1   6    2.40    1.60
   6  -1   6    7.80    3.60
  -7   1  -6   -0.40    1.70
  -7   1  -6   -0.30    1.90
  -7   1  -6    0.00    2.00
  -7   1  -6   -1.70    1.60
  -7   1  -6   -1.60    2.00
  -7   1  -6    1.40    1.70
   7  -1   6   -0.10    2.20
   7  -1   6   -1.30    2.60
   7  -1   6    0.20    2.10
   7  -1   6    1.40    2.00
   9   0  -6  165.58    9.50
   9   0  -6  151.08    9.90
   9   0  -6  147.49    9.80
   9   0  -6  161.48    9.90
   9   0  -6  144.69    8.00
  -9   0   6  150.38    8.80
  -9   0   6  128.79    8.40
  -9   0   6  165.68   10.60
  -9   0   6  171.28   10.00
  -9   0   6  138.19    6.00
  -9   0   6  149.39    9.70
   8   0  -6   45.20    4.80
   8   0  -6   36.00    4.50
   8   0  -6   45.40    5.90
   8   0  -6   32.20    4.70
   8   0  -6   45.80    5.60
  -8   0   6   36.70    5.60
  -8   0   6   47.00    5.80
  -8   0   6   37.90    5.00
  -8   0   6   36.40    4.90
  -8   0   6   35.40    4.70
   7   0  -6  280.07   12.00
   7   0  -6  276.07   10.60
   7   0  -6  282.97   12.40
   7   0  -6  256.27   11.40
   7   0  -6  273.87   11.40
   7   0  -6  274.47   11.20
  -7   0   6  281.07   10.80
  -7   0   6  253.37   10.80
  -7   0   6  267.67    9.80
  -7   0   6  283.47   11.70
  -7   0   6  306.67   12.90
  -7   0   6  266.57   11.80
   6   0  -6   44.70    4.60
   6   0  -6   42.40    4.10
   6   0  -6   48.50    3.90
   6   0  -6   44.20    4.20
   6   0  -6   45.30    4.10
  -6   0   6   38.80    3.40
  -6   0   6   43.80    4.10
  -6   0   6   43.40    4.20
  -6   0   6   41.80    3.70
  -6   0   6   40.70    4.10
  -6   0   6   42.60    5.20
  -6   0   6   40.70    3.70
   5   0  -6  242.58   10.10
   5   0  -6  228.88    8.40
   5   0  -6  232.88    9.40
   5   0  -6  243.48    9.80
   5   0  -6  244.48    9.80
  -5   0   6  244.78    9.30
  -5   0   6  247.68    9.90
  -5   0   6  250.27    9.70
  -5   0   6  243.38    9.30
  -5   0   6  242.38   10.10
  -5   0   6  245.38    8.40
  -5   0   6  245.98    9.30
   4   0  -6   10.90    2.30
   4   0  -6   12.40    2.40
   4   0  -6   14.50    2.50
   4   0  -6   11.40    2.20
  -4   0   6    6.80    1.80
  -4   0   6   12.30    1.80
  -4   0   6   12.00    2.30
  -4   0   6   11.60    1.90
  -4   0   6   11.50    2.40
  -4   0   6   10.40    2.30
  -4   0   6    7.70    1.90
   3   0  -6  549.74   15.40
   3   0  -6  555.74   15.00
   3   0  -6  559.74   13.10
   3   0  -6  543.85   15.20
   3   0  -6  548.55   15.10
  -3   0   6  561.74   15.10
  -3   0   6  544.75   15.10
  -3   0   6  529.35   13.10
  -3   0   6  565.94   16.20
  -3   0   6  529.85   15.30
  -3   0   6  563.14   13.90
  -3   0   6  540.45   14.70
   2   0  -6   41.20    2.40
   2   0  -6   40.30    3.00
   2   0  -6   41.20    3.00
   2   0  -6   38.20    3.10
   2   0  -6   44.30    3.20
   2   0  -6   43.70    3.20
  -2   0   6   42.50    2.30
  -2   0   6   43.70    2.50
  -2   0   6   40.70    3.80
  -2   0   6   38.90    3.10
  -2   0   6   45.10    3.20
  -2   0   6   41.90    3.00
  -2   0   6   41.10    3.10
   1   0  -6  135.79    5.80
   1   0  -6  146.49    5.80
   1   0  -6  142.69    5.20
   1   0  -6  136.59    5.80
   1   0  -6  149.79    5.80
   1   0  -6  146.39    6.30
  -1   0   6  142.39    5.80
  -1   0   6  150.48    5.90
  -1   0   6  150.28    5.70
  -1   0   6  137.89    3.80
  -1   0   6  150.08    5.90
   0   0  -6    3.50    1.10
   0   0  -6    5.00    1.40
   0   0  -6    3.60    1.20
   0   0  -6    3.40    1.00
   0   0  -6    2.90    1.00
   0   0  -6    3.40    1.10
   0   0   6    3.10    1.00
   0   0   6    3.60    1.00
   0   0   6    1.90    0.90
   0   0   6    4.40    1.10
  -1   0  -6  138.29    6.50
  -1   0  -6  133.99    5.50
  -1   0  -6  145.19    5.70
  -1   0  -6  137.19    5.60
  -1   0  -6  140.09    6.20
  -1   0  -6  134.29    5.80
   1   0   6  143.59    5.90
   1   0   6  146.09    5.50
   1   0   6  140.19    6.60
   1   0   6  142.89    5.30
   1   0   6  134.89    5.40
  -2   0  -6   38.00    3.50
  -2   0  -6   34.70    2.80
  -2   0  -6   31.50    2.80
   2   0   6   34.70    2.50
   2   0   6   33.70    2.70
   2   0   6   34.50    2.70
   2   0   6   39.80    3.40
   2   0   6   35.00    3.30
  -3   0  -6    1.30    0.90
  -3   0  -6   -0.10    1.00
  -3   0  -6    0.30    0.90
  -3   0  -6   -1.00    0.90
  -3   0  -6   -0.20    0.50
  -3   0  -6    1.10    1.00
   3   0   6   -0.10    0.50
   3   0   6    0.30    1.00
   3   0   6    0.70    1.20
   3   0   6    0.80    1.00
   3   0   6   -0.40    1.30
  -4   0  -6    1.30    1.20
  -4   0  -6    1.80    1.50
  -4   0  -6   -0.30    1.00
  -4   0  -6    0.50    1.20
  -4   0  -6    2.20    1.00
  -4   0  -6    1.20    1.10
   4   0   6    1.80    1.40
   4   0   6    0.60    1.10
   4   0   6   -2.20    1.10
   4   0   6    0.60    0.90
   4   0   6    3.10    1.40
   4   0   6    2.60    1.20
  -5   0  -6   34.60    3.60
  -5   0  -6   35.50    3.70
  -5   0  -6   31.50    3.00
  -5   0  -6   31.50    4.50
  -5   0  -6   31.90    4.10
  -5   0  -6   37.10    3.60
   5   0   6   28.90    3.60
   5   0   6   32.60    4.50
   5   0   6   33.90    5.40
   5   0   6   31.80    3.10
   5   0   6   33.10    3.10
  -6   0  -6    7.90    2.20
  -6   0  -6    5.90    2.60
  -6   0  -6    3.30    1.60
  -6   0  -6    3.30    1.90
  -6   0  -6    4.60    1.80
  -6   0  -6    3.40    2.20
   6   0   6    9.90    2.80
   6   0   6    8.20    2.10
   6   0   6    6.40    1.90
   6   0   6    2.70    2.50
  -7   0  -6   83.79    7.10
  -7   0  -6   95.89    6.80
  -7   0  -6   80.69    6.50
  -7   0  -6   86.59    6.30
  -7   0  -6   91.29    6.30
  -7   0  -6   94.09    7.10
   7   0   6  101.69    9.10
   9  -1  -6    5.10    2.80
   9  -1  -6    3.10    2.90
   9  -1  -6    2.90    1.90
   9  -1  -6    5.50    2.40
   9  -1  -6   -2.80    1.80
  -9   1   6    1.40    2.40
  -9   1   6    5.80    2.70
  -9   1   6    4.40    2.50
  -9   1   6    3.90    3.00
  -9   1   6    3.70    2.40
   8  -1  -6   71.19    5.80
   8  -1  -6   58.09    5.60
   8  -1  -6   52.19    4.40
   8  -1  -6   50.09    6.40
   8  -1  -6   54.89    5.70
  -8   1   6   51.69    5.20
  -8   1   6   53.49    6.50
  -8   1   6   59.09    5.50
  -8   1   6   52.89    5.40
  -8   1   6   56.29    5.20
   7  -1  -6    7.90    2.60
   7  -1  -6    3.70    1.70
   7  -1  -6    7.10    2.10
   7  -1  -6   12.20    3.40
   7  -1  -6    7.60    2.30
  -7   1   6    7.90    2.80
  -7   1   6    3.30    1.70
  -7   1   6    7.50    2.60
  -7   1   6    6.10    2.20
  -7   1   6    8.30    2.60
  -7   1   6    5.90    2.10
   6  -1  -6  191.68    9.40
   6  -1  -6  208.18    9.50
   6  -1  -6  190.38    9.30
   6  -1  -6  200.38    8.80
   6  -1  -6  198.48    9.40
  -6   1   6  213.98    9.20
  -6   1   6  182.28   10.10
  -6   1   6  190.68    9.10
  -6   1   6  208.78    8.60
  -6   1   6  200.48    9.70
  -6   1   6  197.68    8.90
   5  -1  -6  434.06   14.70
   5  -1  -6  460.45   14.80
   5  -1  -6  476.75   14.90
   5  -1  -6  435.26   14.10
  -5   1   6  465.05   14.60
  -5   1   6  444.66   14.00
  -5   1   6  470.65   15.30
  -5   1   6  463.75   13.40
  -5   1   6  460.95   14.70
  -5   1   6  452.45   13.50
   4  -1  -6   73.89    4.60
   4  -1  -6   73.69    4.80
   4  -1  -6   70.99    4.80
   4  -1  -6   66.89    4.60
   4  -1  -6   71.09    3.90
  -4   1   6   70.59    4.70
  -4   1   6   68.59    4.10
  -4   1   6   76.89    5.10
  -4   1   6   72.99    4.10
  -4   1   6   65.69    4.30
   3  -1  -6  287.37   10.00
   3  -1  -6  297.97   10.30
   3  -1  -6  303.87    9.70
   3  -1  -6  309.87   10.60
   3  -1  -6  297.67   10.00
   3  -1  -6  302.67    9.00
  -3   1   6  314.87   10.40
  -3   1   6  289.67    8.70
  -3   1   6  296.97    9.90
  -3   1   6  290.07   10.40
  -3   1   6  291.07   10.10
   2  -1  -6  969.80   23.00
   2  -1  -6  928.91   22.40
   2  -1  -6  974.60   22.90
   2  -1  -6  933.71   22.30
   2  -1  -6  919.41   22.40
   2  -1  -6  953.40   21.40
  -2   1   6  954.60   22.40
  -2   1   6  920.81   19.90
  -2   1   6  933.41   22.60
  -2   1   6  903.91   22.20
  -2   1   6  940.71   22.80
  -2   1   6  948.61   21.70
   1  -1  -6  109.29    5.20
   1  -1  -6  123.69    5.20
   1  -1  -6  114.29    5.60
   1  -1  -6  109.19    5.30
   1  -1  -6  109.49    5.40
   1  -1  -6  109.99    5.20
  -1   1   6  114.79    5.30
  -1   1   6  114.49    3.20
  -1   1   6  110.09    5.00
  -1   1   6  114.49    5.40
  -1   1   6  120.49    5.30
  -1   1   6  119.29    5.50
   0  -1  -6  340.07   10.40
   0  -1  -6  355.16   11.20
   0  -1  -6  343.67   10.50
   0  -1  -6  348.07   10.70
   0  -1  -6  340.57   10.60
   0  -1  -6  349.07   10.80
   0   1   6  321.77   10.00
   0   1   6  337.87   11.10
   0   1   6  339.37   10.30
   0   1   6  332.77   10.00
   0   1   6  333.17   10.40
   0   1   6  345.37   10.60
  -1  -1  -6  313.27   10.80
  -1  -1  -6  317.17   10.10
  -1  -1  -6  315.27   10.10
  -1  -1  -6  317.97   10.20
  -1  -1  -6  306.37   10.80
   1   1   6  325.57   10.30
   1   1   6  306.77    9.80
  -2  -1  -6   22.90    2.90
  -2  -1  -6   16.40    2.70
  -2  -1  -6   19.30    3.20
  -2  -1  -6   17.80    1.40
   2   1   6   19.60    2.70
   2   1   6   22.20    2.80
   2   1   6   21.10    2.90
   2   1   6   17.20    3.00
   2   1   6   19.40    3.10
  -3  -1  -6   52.89    3.00
  -3  -1  -6   56.39    4.20
  -3  -1  -6   58.49    4.30
  -3  -1  -6   53.69    4.30
  -3  -1  -6   56.09    4.20
  -3  -1  -6   66.69    5.00
   3   1   6   61.09    4.20
   3   1   6   54.39    4.20
   3   1   6   58.19    4.80
   3   1   6   63.59    5.00
   3   1   6   59.19    4.00
  -4  -1  -6   14.70    2.10
  -4  -1  -6   16.30    3.00
  -4  -1  -6   18.60    3.50
  -4  -1  -6   13.00    2.50
  -4  -1  -6   11.70    2.60
  -4  -1  -6    9.50    2.30
   4   1   6   12.10    3.10
   4   1   6   12.50    2.80
   4   1   6   14.80    2.50
   4   1   6   13.50    2.40
  -5  -1  -6   50.49    4.80
  -5  -1  -6   46.60    4.50
  -5  -1  -6   49.40    3.90
  -5  -1  -6   39.00    3.90
  -5  -1  -6   47.00    4.30
  -5  -1  -6   53.09    5.20
   5   1   6   42.70    5.60
   5   1   6   38.10    5.60
   5   1   6   41.80    4.40
   5   1   6   45.70    3.80
   5   1   6   52.39    4.30
   5   1   6   44.90    6.50
  -6  -1  -6    1.00    1.70
  -6  -1  -6    1.60    1.80
  -6  -1  -6    1.20    1.90
  -6  -1  -6    0.40    1.70
  -6  -1  -6    0.00    1.50
  -6  -1  -6    2.30    2.00
   6   1   6   -0.10    2.20
   6   1   6    0.90    1.60
   6   1   6   -0.90    1.70
  10  -2  -6   10.90    2.80
  10  -2  -6   19.60    4.80
  10  -2  -6   14.30    3.50
  10  -2  -6   23.00    4.90
 -10   2   6   15.00    4.50
 -10   2   6   21.80    4.40
 -10   2   6   15.10    4.30
 -10   2   6   25.60    5.40
 -10   2   6    9.80    3.50
   9  -2  -6    9.60    3.50
   9  -2  -6    1.00    1.90
   9  -2  -6    3.00    2.90
   9  -2  -6    1.70    2.70
  -9   2   6   -0.50    2.40
  -9   2   6   -0.20    2.30
  -9   2   6    6.30    2.00
  -9   2   6    2.90    2.40
  -9   2   6    3.40    2.10
   8  -2  -6   44.70    5.50
   8  -2  -6   46.40    4.80
   8  -2  -6   44.00    5.60
   8  -2  -6   37.10    3.60
   8  -2  -6   49.20    6.40
   8  -2  -6   49.80    6.20
  -8   2   6   44.50    5.80
  -8   2   6   46.20    5.60
  -8   2   6   43.30    5.50
  -8   2   6   52.99    5.40
  -8   2   6   45.80    6.10
  -8   2   6   35.10    4.60
   7  -2  -6   31.20    4.20
   7  -2  -6   30.00    4.70
   7  -2  -6   25.40    4.20
   7  -2  -6   32.50    4.70
   7  -2  -6   29.70    4.50
  -7   2   6   40.10    5.00
  -7   2   6   31.70    4.40
  -7   2   6   30.80    4.50
  -7   2   6   35.00    4.70
  -7   2   6   24.80    3.90
  -7   2   6   28.00    4.60
   6  -2  -6   76.59    5.70
   6  -2  -6   67.49    5.30
   6  -2  -6   74.69    5.60
   6  -2  -6   78.69    5.80
   6  -2  -6   68.89    5.20
  -6   2   6   67.19    5.30
  -6   2   6   78.79    5.60
  -6   2   6   67.39    5.50
  -6   2   6   74.59    5.30
  -6   2   6   79.09    5.30
  -6   2   6   76.59    5.30
   5  -2  -6  227.68    9.40
   5  -2  -6  233.78    8.80
   5  -2  -6  226.08    9.90
   5  -2  -6  226.48    9.70
   5  -2  -6  269.27   11.90
  -5   2   6  239.58    9.20
  -5   2   6  239.18    9.90
  -5   2   6  242.68    9.90
  -5   2   6  236.08    9.50
  -5   2   6  237.88   10.20
  -5   2   6  230.68   10.50
   4  -2  -6  194.58    8.30
   4  -2  -6  197.98    8.60
   4  -2  -6  204.88    8.80
   4  -2  -6  202.08    7.80
   4  -2  -6  190.08    8.30
   4  -2  -6  209.68    7.50
  -4   2   6  200.98    8.50
  -4   2   6  201.88    8.40
  -4   2   6  198.18    7.80
  -4   2   6  183.88    8.50
  -4   2   6  211.18    8.80
   3  -2  -6   17.00    2.40
   3  -2  -6   14.00    2.60
   3  -2  -6   16.10    2.70
   3  -2  -6   19.20    2.50
   3  -2  -6   14.50    2.50
   3  -2  -6   18.10    2.70
  -3   2   6   19.80    3.00
  -3   2   6   13.30    2.60
  -3   2   6   16.70    2.60
  -3   2   6   22.50    3.00
  -3   2   6   16.40    2.40
   2  -2  -6  137.49    6.30
   2  -2  -6  133.59    6.50
   2  -2  -6  129.69    5.80
   2  -2  -6  122.19    6.30
   2  -2  -6  127.19    5.80
   2  -2  -6  135.39    6.30
  -2   2   6  137.59    6.30
  -2   2   6  137.59    6.40
  -2   2   6  126.69    6.20
  -2   2   6  124.69    6.30
  -2   2   6  136.99    6.10
   1  -2  -6  416.46   12.70
   1  -2  -6  417.76   12.50
   1  -2  -6  427.16   13.10
   1  -2  -6  426.26   12.60
   1  -2  -6  407.06   12.70
   1  -2  -6  428.56   12.80
  -1   2   6  398.26    9.80
  -1   2   6  426.06   12.90
  -1   2   6  423.66   12.60
  -1   2   6  436.76   13.00
  -1   2   6  440.06   12.90
  -1   2   6  424.76   12.60
  -1   2   6  425.86   12.60
   0  -2  -6   36.40    3.40
   0  -2  -6   30.60    3.00
   0  -2  -6   36.30    3.10
   0  -2  -6   39.30    3.30
   0  -2  -6   38.90    3.30
   0  -2  -6   36.10    3.30
   0   2   6   37.60    3.10
   0   2   6   33.30    1.50
   0   2   6   34.90    3.10
   0   2   6   26.10    2.70
   0   2   6   34.40    3.20
   0   2   6   34.30    3.00
  -1  -2  -6   48.60    4.70
  -1  -2  -6   47.90    3.90
  -1  -2  -6   47.40    3.80
  -1  -2  -6   48.40    3.70
  -1  -2  -6   50.39    4.50
  -1  -2  -6   50.29    3.90
   1   2   6   48.40    3.60
   1   2   6   47.00    2.00
   1   2   6   43.30    3.60
   1   2   6   48.40    3.60
   1   2   6   48.30    3.90
   1   2   6   44.10    3.70
   1   2   6   50.79    3.80
  -2  -2  -6   84.59    5.20
  -2  -2  -6   87.79    3.70
  -2  -2  -6   93.59    5.80
  -2  -2  -6   87.79    5.60
  -2  -2  -6   85.79    5.90
   2   2   6   86.49    5.30
   2   2   6   85.69    6.40
   2   2   6   76.49    4.70
   2   2   6   86.09    5.10
   2   2   6   81.59    5.50
   2   2   6   85.29    5.30
  -3  -2  -6    2.70    1.60
  -3  -2  -6    6.60    2.50
  -3  -2  -6   10.60    2.60
  -3  -2  -6    5.30    2.10
  -3  -2  -6    5.70    1.40
   3   2   6    5.60    2.30
   3   2   6    6.20    2.00
   3   2   6    3.30    1.70
   3   2   6    7.30    2.20
   3   2   6    5.40    1.90
  -4  -2  -6   32.30    4.90
  -4  -2  -6   26.20    3.90
  -4  -2  -6   25.60    3.10
  -4  -2  -6   25.50    4.30
  -4  -2  -6   26.20    3.90
  -4  -2  -6   27.50    3.80
   4   2   6   25.80    3.60
   4   2   6   29.00    4.80
   4   2   6   26.50    3.40
  -5  -2  -6   12.30    3.00
  -5  -2  -6    9.20    2.40
  -5  -2  -6   13.80    3.40
  -5  -2  -6    7.50    2.30
  -5  -2  -6   10.00    2.60
  -5  -2  -6    9.30    2.80
   5   2   6    6.60    2.30
   5   2   6    8.30    2.20
   5   2   6   10.90    3.00
   5   2   6    5.50    3.00
  -6  -2  -6    1.10    2.10
  -6  -2  -6    3.30    1.80
  -6  -2  -6   -1.60    1.30
  -6  -2  -6   -0.70    1.90
  -6  -2  -6    2.40    2.30
  -6  -2  -6    0.90    2.20
   6   2   6    0.60    2.20
   6   2   6    3.30    2.30
   9  -3  -6  213.88   11.80
   9  -3  -6  227.28   12.60
   9  -3  -6  246.08   12.70
  -9   3   6  219.48   11.70
  -9   3   6  230.38   11.50
  -9   3   6  251.17   12.00
  -9   3   6  235.18   12.60
  -9   3   6  221.58   11.90
   8  -3  -6    5.70    2.30
   8  -3  -6    5.60    2.40
   8  -3  -6    0.40    1.30
   8  -3  -6    3.10    2.30
   8  -3  -6   -3.10    1.90
   8  -3  -6   -0.30    2.00
  -8   3   6    5.10    2.60
  -8   3   6    3.70    1.90
  -8   3   6    4.20    1.90
  -8   3   6    2.20    2.30
  -8   3   6    4.10    2.30
  -8   3   6    0.90    2.40
   7  -3  -6    6.00    2.60
   7  -3  -6    2.40    2.00
   7  -3  -6    5.50    1.50
   7  -3  -6    4.70    1.90
   7  -3  -6    5.40    2.00
  -7   3   6    1.30    1.40
  -7   3   6    6.60    2.50
  -7   3   6    6.30    2.40
  -7   3   6    4.70    2.00
  -7   3   6    7.80    2.30
  -7   3   6    1.60    2.00
   6  -3  -6  272.87   11.50
   6  -3  -6  252.97   10.50
   6  -3  -6  251.97   10.90
   6  -3  -6  270.67    8.50
   6  -3  -6  270.87   11.30
  -6   3   6  245.58   10.70
  -6   3   6  255.37   10.70
  -6   3   6  260.97   10.80
  -6   3   6  265.07   11.30
  -6   3   6  241.68   11.20
   5  -3  -6   48.40    4.50
   5  -3  -6   52.69    5.10
   5  -3  -6   44.80    4.20
   5  -3  -6   52.79    3.40
   5  -3  -6   49.50    4.40
   5  -3  -6   55.79    4.20
  -5   3   6   52.39    4.30
  -5   3   6   58.99    4.80
  -5   3   6   61.49    4.80
  -5   3   6   47.70    4.30
  -5   3   6   56.39    4.90
   4  -3  -6  110.19    6.20
   4  -3  -6   97.89    6.10
   4  -3  -6  110.99    5.00
   4  -3  -6  112.39    6.20
   4  -3  -6  100.69    5.70
   4  -3  -6  100.79    6.10
  -4   3   6   96.49    6.00
  -4   3   6  105.09    6.00
  -4   3   6  105.39    6.30
  -4   3   6   99.59    6.10
  -4   3   6   92.89    5.60
   3  -3  -6   43.40    3.20
   3  -3  -6   49.70    4.10
   3  -3  -6   43.10    3.70
   3  -3  -6   47.10    3.90
   3  -3  -6   49.99    3.80
   3  -3  -6   45.20    4.10
  -3   3   6   54.09    4.30
  -3   3   6   50.29    4.20
  -3   3   6   44.70    3.80
  -3   3   6   47.90    3.90
  -3   3   6   45.00    3.80
   2  -3  -6  475.75   14.80
   2  -3  -6  468.35   14.60
   2  -3  -6  507.55   13.90
   2  -3  -6  495.95   14.50
   2  -3  -6  488.15   15.20
   2  -3  -6  500.55   14.90
  -2   3   6  488.85   14.00
  -2   3   6  480.75   15.70
  -2   3   6  501.75   14.70
  -2   3   6  490.85   14.70
  -2   3   6  502.75   15.10
  -2   3   6  491.15   15.10
   1  -3  -6   75.19    4.80
   1  -3  -6   80.89    5.00
   1  -3  -6   70.39    4.80
   1  -3  -6   81.49    4.70
   1  -3  -6   76.59    5.20
   1  -3  -6   75.19    4.80
  -1   3   6   77.09    4.90
  -1   3   6   78.79    5.00
  -1   3   6   75.19    5.00
  -1   3   6   71.39    4.60
  -1   3   6   70.99    4.60
  -1   3   6   73.99    5.10
  -1   3   6   75.29    3.50
   0  -3  -6    1.80    1.40
   0  -3  -6    1.30    1.30
   0  -3  -6    1.20    1.40
   0  -3  -6    3.30    1.40
   0  -3  -6    4.10    1.60
   0  -3  -6    4.10    1.40
   0   3   6    3.50    0.90
   0   3   6    2.70    1.30
   0   3   6    2.00    1.40
   0   3   6    5.20    1.70
   0   3   6    3.60    1.40
  -1  -3  -6  334.97   11.70
  -1  -3  -6  323.17   11.60
  -1  -3  -6  315.97   11.90
  -1  -3  -6  332.77   11.80
  -1  -3  -6  339.97   12.40
  -1  -3  -6  335.17   12.00
   1   3   6  316.67   11.60
   1   3   6  302.97   11.00
   1   3   6  311.67   11.40
   1   3   6  311.27   11.40
   1   3   6  331.47   11.90
   1   3   6  335.27    8.60
   1   3   6  323.67   11.70
  -2  -3  -6  251.57   10.70
  -2  -3  -6  234.68    9.90
  -2  -3  -6  254.57    8.10
  -2  -3  -6  268.17   10.60
  -2  -3  -6  229.38   10.70
  -2  -3  -6  246.98   10.60
   2   3   6  266.07   10.90
   2   3   6  248.08   10.60
   2   3   6  269.97   10.30
   2   3   6  248.18    9.70
   2   3   6  251.77   10.40
   2   3   6  271.07    8.20
   2   3   6  255.87   10.30
  -3  -3  -6    2.60    1.80
  -3  -3  -6    4.00    1.50
  -3  -3  -6    1.20    1.70
  -3  -3  -6    1.00    1.80
  -3  -3  -6    2.20    2.00
  -3  -3  -6    4.10    2.00
  -3  -3  -6    2.50    1.20
   3   3   6    1.30    1.80
   3   3   6    0.50    1.10
   3   3   6    2.10    1.50
   3   3   6    1.00    1.10
   3   3   6    3.40    2.10
  -4  -3  -6   50.59    5.10
  -4  -3  -6   48.60    5.80
  -4  -3  -6   40.70    5.50
  -4  -3  -6   49.00    4.70
  -4  -3  -6   46.10    4.80
  -4  -3  -6   36.50    5.70
  -4  -3  -6   47.10    3.90
   4   3   6   49.30    6.40
   4   3   6   44.80    4.10
   4   3   6   43.30    5.20
   4   3   6   43.50    5.50
  -5  -3  -6    8.60    2.90
  -5  -3  -6    2.70    1.70
  -5  -3  -6    6.50    2.70
  -5  -3  -6    7.30    2.80
  -5  -3  -6    5.10    2.70
  -5  -3  -6   10.70    3.30
   5   3   6    8.00    3.10
   5   3   6    6.30    2.70
   5   3   6    7.60    2.40
  -6  -3  -6    0.90    2.20
  -6  -3  -6    0.00    2.10
  -6  -3  -6    1.80    2.20
  -6  -3  -6   -2.10    2.50
  -6  -3  -6   -4.00    1.70
  -6  -3  -6   -1.80    3.30
   6   3   6    0.60    2.20
   6   3   6   -0.70    2.00
   6   3   6   -2.30    2.20
   9  -4  -6    7.20    2.90
   9  -4  -6    0.70    2.50
   9  -4  -6    2.50    0.90
   9  -4  -6    3.30    0.90
  -9   4   6    7.10    2.80
  -9   4   6    0.50    2.50
  -9   4   6    4.40    2.70
  -9   4   6    2.30    1.80
  -9   4   6    4.70    2.30
   8  -4  -6  202.98   10.50
   8  -4  -6  207.58   11.20
   8  -4  -6  213.88    6.30
   8  -4  -6  214.98   11.10
   8  -4  -6  198.38   10.20
  -8   4   6  223.18   10.90
  -8   4   6  188.98   10.40
  -8   4   6  192.88   10.70
  -8   4   6  195.08   10.60
  -8   4   6  236.98   11.90
  -8   4   6  204.78   10.30
   7  -4  -6  422.66   15.10
   7  -4  -6  427.06   16.10
   7  -4  -6  411.16   15.30
   7  -4  -6  420.06   10.90
   7  -4  -6  464.05   16.20
  -7   4   6  412.66   16.20
  -7   4   6  428.16   15.20
  -7   4   6  401.76   15.40
  -7   4   6  448.66   16.50
   6  -4  -6    0.00    1.20
   6  -4  -6   -1.60    1.60
   6  -4  -6   -1.00    1.10
   6  -4  -6    2.50    1.80
   6  -4  -6    1.10    1.10
  -6   4   6    0.40    1.80
  -6   4   6   -1.00    1.20
  -6   4   6   -1.30    0.90
  -6   4   6    1.40    1.70
  -6   4   6    0.10    1.10
   5  -4  -6 1582.94   38.50
   5  -4  -6 1653.43   38.40
   5  -4  -6 1636.24   34.20
   5  -4  -6 1569.44   38.20
   5  -4  -6 1643.84   38.10
   5  -4  -6 1639.94   39.00
  -5   4   6 1615.74   39.20
  -5   4   6 1670.13   38.60
  -5   4   6 1664.43   38.50
  -5   4   6 1627.84   38.60
  -5   4   6 1606.74   38.70
   4  -4  -6    7.60    1.60
   4  -4  -6   10.50    2.70
   4  -4  -6   11.00    2.60
   4  -4  -6   11.80    2.70
   4  -4  -6   10.00    2.30
   4  -4  -6   11.90    2.40
  -4   4   6   13.30    3.10
  -4   4   6    9.50    2.50
  -4   4   6   15.00    2.70
  -4   4   6   11.10    2.80
  -4   4   6   10.10    2.40
   3  -4  -6   -0.30    0.80
   3  -4  -6    0.90    1.10
   3  -4  -6    1.60    1.00
   3  -4  -6   -0.60    1.00
   3  -4  -6    0.30    0.90
   3  -4  -6   -0.70    1.20
  -3   4   6    0.20    1.00
  -3   4   6   -0.80    1.30
  -3   4   6   -0.60    0.90
  -3   4   6    0.50    1.20
  -3   4   6    0.10    0.80
   2  -4  -6    9.60    2.40
   2  -4  -6    5.80    2.10
   2  -4  -6    9.00    2.20
   2  -4  -6    6.30    1.90
   2  -4  -6    7.30    2.10
   2  -4  -6    8.80    1.80
  -2   4   6    6.00    1.70
  -2   4   6    7.80    2.10
  -2   4   6    9.60    2.30
  -2   4   6    8.40    1.80
  -2   4   6    9.90    2.40
  -2   4   6    8.50    2.30
  -2   4   6    9.10    2.10
   1  -4  -6   54.49    4.30
   1  -4  -6   54.19    4.60
   1  -4  -6   42.10    4.20
   1  -4  -6   51.99    4.30
   1  -4  -6   53.39    4.40
   1  -4  -6   48.40    4.00
  -1   4   6   46.40    3.90
  -1   4   6   59.79    4.50
  -1   4   6   48.60    4.30
  -1   4   6   49.00    4.30
  -1   4   6   41.60    4.00
  -1   4   6   54.39    4.60
  -1   4   6   50.19    3.30
   0  -4  -6   72.69    5.20
   0  -4  -6   70.49    5.30
   0  -4  -6   66.79    5.20
   0  -4  -6   72.39    5.20
   0  -4  -6   71.69    5.40
   0  -4  -6   65.09    4.70
   0   4   6   69.09    5.80
   0   4   6   67.19    4.30
   0   4   6   64.49    4.80
   0   4   6   66.59    5.10
   0   4   6   75.89    5.20
   0   4   6   66.89    5.20
  -1  -4  -6    7.60    2.00
  -1  -4  -6    4.20    2.10
  -1  -4  -6    1.40    1.20
  -1  -4  -6    5.40    2.00
  -1  -4  -6   -0.10    1.50
   1   4   6    5.10    1.90
   1   4   6    5.00    2.10
   1   4   6    3.60    1.60
   1   4   6    2.70    1.60
   1   4   6    3.00    1.60
   1   4   6    4.00    1.20
   1   4   6    5.40    1.80
  -2  -4  -6  994.70   27.00
  -2  -4  -6 1025.60   27.50
  -2  -4  -6 1041.00   27.10
  -2  -4  -6 1000.70   27.60
  -2  -4  -6  986.50   29.90
  -2  -4  -6  997.90   23.80
   2   4   6 1031.10   27.40
   2   4   6  984.50   27.20
   2   4   6 1020.50   23.20
   2   4   6 1006.90   26.10
   2   4   6 1018.10   26.60
   2   4   6 1004.20   27.00
  -3  -4  -6  307.47   12.40
  -3  -4  -6  280.97   12.60
  -3  -4  -6  305.87   12.70
  -3  -4  -6  289.37   12.80
  -3  -4  -6  284.37   10.20
  -3  -4  -6  275.17   12.20
   3   4   6  279.67   12.60
   3   4   6  289.17   12.60
   3   4   6  294.67    9.80
   3   4   6  287.47   12.40
   3   4   6  292.27   11.90
   3   4   6  304.87   11.80
  -4  -4  -6    6.70    2.60
  -4  -4  -6   -1.20    1.30
  -4  -4  -6    1.20    1.50
  -4  -4  -6    1.20    2.00
  -4  -4  -6   -1.60    1.70
   4   4   6    0.60    2.10
   4   4   6    1.50    1.60
   4   4   6    2.80    1.90
   4   4   6    2.90    1.80
  -5  -4  -6   17.00    4.40
  -5  -4  -6   28.20    3.90
  -5  -4  -6   29.10    4.80
  -5  -4  -6   32.90    5.20
   5   4   6   26.20    5.30
   5   4   6   24.70    4.40
   5   4   6   26.60    4.30
   9  -5  -6    3.40    3.20
   9  -5  -6    5.10    3.40
  -9   5   6    7.90    3.00
  -9   5   6    6.80    2.30
  -9   5   6   -0.10    2.60
  -9   5   6    7.10    3.10
  -9   5   6    3.80    2.80
   8  -5  -6   35.00    4.80
   8  -5  -6   26.60    4.80
   8  -5  -6   32.90    5.30
  -8   5   6   30.10    4.70
  -8   5   6   31.60    5.20
  -8   5   6   32.10    5.00
  -8   5   6   29.80    5.10
  -8   5   6   31.80    5.00
   7  -5  -6    9.20    1.10
   7  -5  -6   12.30    3.20
   7  -5  -6   15.00    3.80
   7  -5  -6   13.80    3.80
   7  -5  -6   10.50    3.00
  -7   5   6   10.30    3.00
  -7   5   6   13.10    3.50
  -7   5   6   11.80    3.10
  -7   5   6   12.80    3.40
   6  -5  -6    8.70    2.40
   6  -5  -6   10.90    1.50
   6  -5  -6   13.80    3.10
   6  -5  -6   10.20    2.90
   6  -5  -6    5.90    2.50
   6  -5  -6    6.50    2.40
  -6   5   6    8.60    2.60
  -6   5   6   13.70    3.40
  -6   5   6   10.30    2.70
  -6   5   6    5.40    2.00
  -6   5   6    9.70    2.90
   5  -5  -6  257.77   11.00
   5  -5  -6  246.08   10.70
   5  -5  -6  231.68   10.50
   5  -5  -6  229.28   10.40
   5  -5  -6  237.08   10.80
   5  -5  -6  228.28    7.50
  -5   5   6  225.68   10.90
  -5   5   6  242.38   10.80
  -5   5   6  233.18   10.70
  -5   5   6  225.58   10.60
  -5   5   6  234.78   10.50
   4  -5  -6  320.97   12.70
   4  -5  -6  298.27   12.00
   4  -5  -6  303.57   12.20
   4  -5  -6  319.87    9.90
   4  -5  -6  321.47   12.30
   4  -5  -6  323.47   12.70
  -4   5   6  320.87   12.40
  -4   5   6  328.07   12.70
  -4   5   6  320.17   12.40
  -4   5   6  323.97   12.90
  -4   5   6  325.37   12.60
   3  -5  -6    1.80    1.40
   3  -5  -6    0.00    1.30
   3  -5  -6    0.70    0.90
   3  -5  -6   -0.90    0.80
   3  -5  -6    0.30    1.10
  -3   5   6   -1.00    1.30
  -3   5   6    1.70    1.60
  -3   5   6   -0.20    1.20
  -3   5   6    0.60    1.00
  -3   5   6    1.30    1.60
  -3   5   6    2.20    1.40
   2  -5  -6   15.90    3.00
   2  -5  -6   15.50    3.00
   2  -5  -6   21.80    3.70
   2  -5  -6   16.40    2.80
   2  -5  -6   20.90    3.50
   2  -5  -6   17.00    3.20
  -2   5   6   20.50    3.50
  -2   5   6   17.60    3.30
  -2   5   6   13.40    3.00
  -2   5   6   14.40    3.10
  -2   5   6   17.60    2.70
  -2   5   6   19.10    3.10
  -2   5   6   21.50    3.60
   1  -5  -6   47.10    4.40
   1  -5  -6   52.09    4.30
   1  -5  -6   60.59    7.40
   1  -5  -6   60.29    5.00
   1  -5  -6   48.80    4.50
   1  -5  -6   47.60    4.40
  -1   5   6   47.70    4.50
  -1   5   6   43.30    6.00
  -1   5   6   50.39    3.80
  -1   5   6   50.19    4.70
  -1   5   6   52.69    4.50
  -1   5   6   46.50    4.50
  -1   5   6   56.69    4.40
   0  -5  -6   55.39    4.80
   0  -5  -6   56.39    6.00
   0  -5  -6   53.49    5.00
   0  -5  -6   57.39    4.80
   0  -5  -6   56.19    4.80
   0  -5  -6   60.49    5.20
   0   5   6   53.09    4.80
   0   5   6   49.40    3.60
   0   5   6   50.89    4.50
   0   5   6   52.59    4.80
   0   5   6   60.89    5.00
   0   5   6   57.19    5.10
  -1  -5  -6  656.33   20.10
  -1  -5  -6  650.63   20.20
  -1  -5  -6  639.64   20.70
   1   5   6  632.94   19.90
   1   5   6  683.03   19.80
   1   5   6  661.23   20.50
   1   5   6  646.14   16.80
   1   5   6  623.84   19.60
   1   5   6  635.14   19.80
  -2  -5  -6    1.40    1.60
  -2  -5  -6    2.90    2.10
  -2  -5  -6    0.90    1.90
  -2  -5  -6   -2.10    1.90
  -2  -5  -6    0.40    1.30
  -2  -5  -6   -0.30    1.60
   2   5   6    1.70    1.50
   2   5   6   -0.10    1.10
   2   5   6   -0.20    1.60
   2   5   6    0.50    1.60
   2   5   6   -2.00    1.60
   2   5   6   -1.10    1.30
   2   5   6    1.50    1.60
  -3  -5  -6    1.20    1.80
  -3  -5  -6    5.80    2.30
  -3  -5  -6    0.00    2.00
  -3  -5  -6    2.70    2.40
  -3  -5  -6    1.50    1.70
  -3  -5  -6    1.00    1.50
  -3  -5  -6   -0.20    1.60
   3   5   6   -0.60    1.80
   3   5   6   -1.00    1.10
   3   5   6    1.70    1.80
   3   5   6   -0.80    1.90
   3   5   6    0.90    1.90
   3   5   6    0.60    1.80
   3   5   6   -0.30    1.10
  -4  -5  -6    5.90    3.40
  -4  -5  -6    1.90    2.20
  -4  -5  -6    1.70    2.40
  -4  -5  -6    2.20    2.50
  -4  -5  -6   -0.30    2.70
  -4  -5  -6    4.00    2.20
   4   5   6    1.80    1.70
   4   5   6   -1.70    2.10
   4   5   6    3.30    1.70
   4   5   6    0.40    2.10
   9  -6  -6   21.10    4.80
  -9   6   6   23.70    5.00
  -9   6   6   19.20    4.30
  -9   6   6   18.10    4.20
  -9   6   6   28.90    5.60
  -9   6   6   18.70    4.10
   8  -6  -6    4.60    2.90
  -8   6   6    3.60    2.80
  -8   6   6    2.90    2.40
  -8   6   6    3.90    2.50
  -8   6   6    1.30    2.80
  -8   6   6    0.50    1.80
   7  -6  -6   32.70    5.10
   7  -6  -6   24.90    4.40
   7  -6  -6   31.50    4.60
   7  -6  -6   26.80    5.40
   7  -6  -6   30.20    4.40
  -7   6   6   32.70    4.90
  -7   6   6   38.10    5.60
  -7   6   6   29.10    4.30
  -7   6   6   29.20    5.20
  -7   6   6   32.30    5.30
   6  -6  -6   21.20    3.90
   6  -6  -6   27.80    2.00
   6  -6  -6   25.80    4.10
   6  -6  -6   25.70    5.00
   6  -6  -6   27.00    4.50
  -6   6   6   27.40    4.50
  -6   6   6   32.40    4.70
  -6   6   6   25.20    4.20
  -6   6   6   24.30    4.40
   5  -6  -6   56.09    3.50
   5  -6  -6   58.79    5.50
   5  -6  -6   53.79    4.90
   5  -6  -6   50.69    5.20
   5  -6  -6   59.99    5.40
   5  -6  -6   52.99    5.30
  -5   6   6   58.39    5.20
  -5   6   6   56.49    5.20
  -5   6   6   59.39    7.40
  -5   6   6   58.89    5.30
  -5   6   6   65.19    6.00
   4  -6  -6    8.70    1.90
   4  -6  -6    4.00    2.10
   4  -6  -6    9.20    2.50
   4  -6  -6    9.00    2.70
   4  -6  -6   13.80    3.20
   4  -6  -6    4.80    2.10
  -4   6   6    7.10    2.30
  -4   6   6    9.70    2.80
  -4   6   6    8.40    2.40
  -4   6   6    6.60    2.50
   3  -6  -6   19.80    3.60
   3  -6  -6   23.90    4.20
   3  -6  -6   22.40    3.00
   3  -6  -6   16.80    3.40
   3  -6  -6   22.20    3.80
   3  -6  -6   24.10    4.00
  -3   6   6   29.50    4.20
  -3   6   6   21.40    3.80
  -3   6   6   23.00    3.40
  -3   6   6   20.30    3.60
  -3   6   6   23.60    4.10
  -3   6   6   22.10    3.10
   2  -6  -6  126.59    6.60
   2  -6  -6  122.89    7.50
   2  -6  -6  100.29    7.00
   2  -6  -6  113.39    7.30
   2  -6  -6  123.69    7.50
   2  -6  -6  107.89    7.40
  -2   6   6  115.59    6.40
  -2   6   6  127.79    7.70
  -2   6   6  123.09    8.80
  -2   6   6  122.59    7.80
  -2   6   6  122.29    7.30
  -2   6   6  123.39    6.70
  -2   6   6  113.39    8.80
   1  -6  -6    4.90    2.50
   1  -6  -6   -0.50    1.40
   1  -6  -6    2.70    1.70
   1  -6  -6    3.50    2.10
   1  -6  -6    2.80    1.90
   1  -6  -6    3.90    2.00
  -1   6   6    7.70    2.10
  -1   6   6    3.70    2.30
  -1   6   6    3.80    1.80
  -1   6   6    1.80    2.20
  -1   6   6    3.50    2.10
  -1   6   6    4.30    2.00
  -1   6   6    6.40    2.20
   0  -6  -6    6.70    2.10
   0  -6  -6    9.40    2.70
   0  -6  -6    6.80    2.30
   0  -6  -6    9.50    3.10
   0  -6  -6    6.90    2.10
   0   6   6   11.50    2.90
   0   6   6    8.10    2.30
   0   6   6   11.80    2.90
   0   6   6   13.20    3.10
   0   6   6    8.60    2.10
   0   6   6    9.30    2.40
  -1  -6  -6   42.80    5.60
  -1  -6  -6   45.20    5.90
  -1  -6  -6   38.60    5.30
  -1  -6  -6   47.30    5.80
   1   6   6   46.70    6.00
   1   6   6   42.40    3.80
   1   6   6   43.10    5.50
   1   6   6   48.20    4.90
   1   6   6   38.10    5.10
  -2  -6  -6  179.58   10.60
  -2  -6  -6  156.08    9.40
  -2  -6  -6  148.69    9.30
  -2  -6  -6  154.48    9.40
  -2  -6  -6  170.98    9.60
  -2  -6  -6  143.19    9.60
   2   6   6  145.39    9.10
   2   6   6  159.08    9.60
   2   6   6  159.08    7.50
   2   6   6  162.68    9.40
   2   6   6  161.48    9.70
   2   6   6  144.19   10.40
   2   6   6  170.98    9.20
  -3  -6  -6    9.80    2.70
  -3  -6  -6    6.30    2.90
  -3  -6  -6    9.80    3.30
  -3  -6  -6   10.30    3.40
  -3  -6  -6    5.30    2.00
  -3  -6  -6    8.70    3.40
   3   6   6    7.40    3.10
   3   6   6   10.70    3.40
   3   6   6    9.20    3.20
   3   6   6    7.90    2.20
   3   6   6    6.50    2.50
  -4  -6  -6    1.80    2.90
  -4  -6  -6    2.00    2.00
  -4  -6  -6    1.40    3.10
  -4  -6  -6    1.40    3.10
  -4  -6  -6   -0.40    2.60
  -4  -6  -6    3.20    2.50
   4   6   6   -0.30    2.70
   4   6   6   -1.10    1.80
   4   6   6    1.40    2.00
   4   6   6   -0.20    2.40
   8  -7  -6   32.00    5.30
   8  -7  -6   25.00    5.10
  -8   7   6   29.50    5.10
  -8   7   6   21.00    4.30
  -8   7   6   22.70    4.30
   7  -7  -6  223.28   11.60
   7  -7  -6  203.38    8.10
  -7   7   6  211.78   11.90
  -7   7   6  215.28   11.20
  -7   7   6  230.38   11.80
  -7   7   6  211.68   11.70
  -7   7   6  221.18   11.40
   6  -7  -6  174.58   10.30
   6  -7  -6  189.98    5.80
   6  -7  -6  203.28   10.80
   6  -7  -6  195.98   10.40
   6  -7  -6  188.08   10.00
   6  -7  -6  200.38   10.60
  -6   7   6  192.88   10.90
  -6   7   6  172.28   10.10
  -6   7   6  198.88   11.00
  -6   7   6  190.38   10.20
  -6   7   6  207.28   10.70
   5  -7  -6  153.08    9.00
   5  -7  -6  175.08    9.60
   5  -7  -6  167.98    9.70
   5  -7  -6  164.08    9.70
   5  -7  -6  184.08    6.80
   5  -7  -6  194.98   10.30
  -5   7   6  197.68   10.40
  -5   7   6  161.68    9.60
  -5   7   6  161.98    9.40
  -5   7   6  185.38   10.30
  -5   7   6  179.28    9.60
   4  -7  -6  157.48    9.00
   4  -7  -6  132.19    6.40
   4  -7  -6  141.69    8.50
   4  -7  -6  131.19    8.30
   4  -7  -6  144.59    8.60
  -4   7   6  134.89    8.80
  -4   7   6  135.99    8.30
  -4   7   6  117.19    8.20
  -4   7   6  131.79    6.40
  -4   7   6  147.09    8.90
  -4   7   6  147.79   10.40
   3  -7  -6   82.19    6.50
   3  -7  -6   73.69    6.20
   3  -7  -6   64.79    5.90
   3  -7  -6   70.59    5.00
   3  -7  -6   79.99    6.50
  -3   7   6   65.79    5.70
  -3   7   6   69.29    6.30
  -3   7   6   77.79    6.30
  -3   7   6   73.09    6.00
  -3   7   6   66.89    5.50
  -3   7   6   67.19    4.90
  -3   7   6   74.59    6.20
   2  -7  -6   48.60    4.70
   2  -7  -6   60.49    5.70
   2  -7  -6   58.69    5.80
   2  -7  -6   49.99    5.30
   2  -7  -6   60.09    4.80
  -2   7   6   63.19    5.70
  -2   7   6   54.69    5.30
  -2   7   6   54.69    4.80
  -2   7   6   53.79    4.60
  -2   7   6   60.89    5.40
  -2   7   6   56.99    6.70
   1  -7  -6    6.20    2.60
   1  -7  -6    7.30    2.60
   1  -7  -6   11.90    2.90
   1  -7  -6    9.90    2.50
   1  -7  -6    6.50    2.60
  -1   7   6    8.90    2.70
  -1   7   6   10.30    2.80
  -1   7   6    6.00    2.50
  -1   7   6    8.10    2.80
  -1   7   6    9.20    3.30
  -1   7   6    9.50    2.20
  -1   7   6   11.30    2.70
   0  -7  -6  125.99    8.90
   0  -7  -6  119.89    7.70
   0  -7  -6  110.79    7.90
   0  -7  -6  128.89    9.90
   0   7   6  114.59    7.60
   0   7   6  115.09    8.20
   0   7   6  117.09    8.30
   0   7   6  120.89    8.50
   0   7   6  132.09    7.10
  -1  -7  -6   80.79    6.60
  -1  -7  -6   75.79    6.80
  -1  -7  -6   52.49    7.10
  -1  -7  -6   67.69    6.40
  -1  -7  -6   61.89    6.10
   1   7   6   76.19    7.10
   1   7   6   67.89    6.00
   1   7   6   77.89    6.70
   1   7   6   79.49    7.00
   1   7   6   83.39    5.60
  -2  -7  -6    3.00    2.50
  -2  -7  -6   -1.00    2.30
  -2  -7  -6   -0.80    2.60
  -2  -7  -6   -0.70    3.00
  -2  -7  -6    5.10    2.80
   2   7   6   -0.90    1.60
   2   7   6    1.10    2.10
   2   7   6    3.80    2.00
   2   7   6    4.20    2.50
   2   7   6    2.80    2.60
  -3  -7  -6  111.09    8.90
  -3  -7  -6  110.69    8.70
  -3  -7  -6  111.09    9.20
  -3  -7  -6   98.19    8.80
  -3  -7  -6   96.39    8.00
  -3  -7  -6  114.09    7.50
   3   7   6  114.89    8.40
   3   7   6  106.19    6.80
   3   7   6  115.99    8.90
   3   7   6  120.59    8.50
   7  -8  -6    2.20    2.80
   7  -8  -6   -0.50    1.60
   7  -8  -6    2.40    2.60
  -7   8   6    0.70    2.80
  -7   8   6   -0.20    2.70
  -7   8   6    3.40    2.40
   6  -8  -6    1.50    1.60
   6  -8  -6    5.40    2.60
   6  -8  -6    4.50    2.80
  -6   8   6    4.90    2.60
  -6   8   6    1.00    2.40
  -6   8   6    2.00    2.50
  -6   8   6    6.40    3.00
  -6   8   6    4.80    2.70
   5  -8  -6    5.00    3.00
   5  -8  -6    2.80    2.50
   5  -8  -6    4.50    1.50
   5  -8  -6    3.20    2.30
  -5   8   6    5.50    2.60
  -5   8   6    3.50    2.30
  -5   8   6    2.80    2.60
  -5   8   6    4.90    2.70
  -5   8   6    3.20    2.40
  -5   8   6    4.30    2.20
   4  -8  -6   51.39    6.40
   4  -8  -6   45.30    3.80
   4  -8  -6   45.10    5.90
   4  -8  -6   33.50    5.10
   4  -8  -6   45.70    5.70
   4  -8  -6   23.70    5.40
  -4   8   6   44.10    6.00
  -4   8   6   34.90    5.70
  -4   8   6   36.40    5.40
  -4   8   6   30.90    4.70
  -4   8   6   43.10    6.10
  -4   8   6   35.00    5.00
  -4   8   6   35.90    3.70
   3  -8  -6   -0.60    1.30
   3  -8  -6   -0.50    2.30
   3  -8  -6   -0.80    1.60
   3  -8  -6   -1.00    1.60
   3  -8  -6   -0.40    2.00
  -3   8   6   -0.80    1.90
  -3   8   6    0.00    1.40
  -3   8   6   -0.30    2.10
  -3   8   6    0.10    2.10
  -3   8   6   -0.60    2.10
  -3   8   6    1.20    1.80
  -3   8   6   -0.20    2.00
   2  -8  -6   -1.50    1.80
   2  -8  -6    1.80    2.10
   2  -8  -6    0.90    1.70
   2  -8  -6   -3.00    2.30
   2  -8  -6   -1.10    2.20
   2  -8  -6    1.90    2.10
  -2   8   6   -1.00    1.40
  -2   8   6    1.10    2.30
  -2   8   6    0.30    1.30
  -2   8   6   -1.80    1.50
  -2   8   6    0.90    1.80
  -2   8   6    1.70    2.00
  -2   8   6   -3.10    2.00
   1  -8  -6  176.88    9.50
   1  -8  -6  153.38   10.00
   1  -8  -6  149.99    9.70
   1  -8  -6  177.78   11.80
  -1   8   6  176.88    9.20
  -1   8   6  173.88    9.70
  -1   8   6  159.58   10.30
  -1   8   6  155.78    9.80
  -1   8   6  170.88   10.00
  -1   8   6  173.28   10.70
   0  -8  -6    6.60    3.50
   0  -8  -6    7.30    3.40
   0  -8  -6   11.20    3.50
   0  -8  -6   12.60    3.60
   0   8   6    4.70    2.90
   0   8   6   11.30    3.70
   0   8   6    8.30    2.90
   0   8   6    8.70    3.70
   0   8   6    4.50    3.30
   0   8   6   10.90    2.60
  -1  -8  -6    2.90    2.20
  -1  -8  -6   -1.30    2.50
  -1  -8  -6    5.60    3.80
  -1  -8  -6   -2.40    2.10
  -1  -8  -6    5.20    3.50
   1   8   6    0.10    1.90
   1   8   6   -0.10    2.50
   1   8   6    0.20    2.20
   1   8   6   -0.10    2.10
  -2  -8  -6   84.39    7.80
  -2  -8  -6   70.49    8.20
  -2  -8  -6   79.29    7.40
  -2  -8  -6   76.39    7.20
   2   8   6   90.59    8.20
   2   8   6   82.29    7.90
   2   8   6   84.29    7.00
   2   8   6   80.19    6.50
   6  -9  -6    0.10    2.80
   6  -9  -6    0.40    2.10
   6  -9  -6    5.60    3.20
  -6   9   6    0.70    2.60
  -6   9   6    6.60    2.50
  -6   9   6    6.20    3.00
  -6   9   6    3.00    2.50
  -6   9   6    6.40    3.20
  -6   9   6    1.90    2.40
   5  -9  -6   -2.90    2.60
   5  -9  -6   -0.20    1.50
   5  -9  -6    6.70    3.00
  -5   9   6    6.40    3.20
  -5   9   6    1.10    1.90
  -5   9   6    1.50    2.40
  -5   9   6   -0.30    2.20
  -5   9   6    3.40    2.10
   4  -9  -6  107.29    6.30
   4  -9  -6  109.29    8.40
   4  -9  -6  100.89    8.10
  -4   9   6   98.59    7.50
  -4   9   6  104.39    8.00
  -4   9   6   98.19    7.80
  -4   9   6   89.19    7.60
  -4   9   6  117.09    8.70
  -4   9   6  112.69    8.80
   3  -9  -6   42.70    6.10
   3  -9  -6   56.89    5.80
  -3   9   6   48.20    6.70
  -3   9   6   55.99    5.30
  -3   9   6   49.90    6.70
  -3   9   6   52.79    6.70
  -3   9   6   45.70    5.90
  -3   9   6   48.10    6.20
  -3   9   6   42.90    6.20
   2  -9  -6    7.30    3.20
   2  -9  -6    7.00    3.20
   2  -9  -6    3.70    2.90
   2  -9  -6    8.30    2.70
  -2   9   6   18.30    4.10
  -2   9   6    6.10    3.00
  -2   9   6    9.60    3.00
  -2   9   6    6.20    3.10
  -2   9   6   11.40    3.60
  -2   9   6    7.30    3.80
   1  -9  -6    1.80    2.50
   1  -9  -6    2.90    2.10
  -1   9   6    0.40    2.00
  -1   9   6    7.80    3.20
  -1   9   6   -2.40    3.10
  -1   9   6    1.20    2.10
  -1   9   6    1.50    2.30
  -1   9   6    0.40    3.30
   0  -9  -6    5.90    2.80
   0  -9  -6    6.40    3.70
   0  -9  -6    3.00    3.10
   0   9   6    5.90    4.70
   0   9   6    5.40    2.50
   0   9   6    2.40    2.10
   0   9   6    4.00    3.10
   4 -10  -6   43.30    6.20
   4 -10  -6   33.80    6.40
   4 -10  -6   37.60    6.50
   4 -10  -6   38.20    4.70
  -4  10   6   34.90    5.70
  -4  10   6   24.60    5.00
  -4  10   6   28.60    4.10
  -4  10   6   37.30    6.50
  -4  10   6   30.40    5.70
  -4  10   6   48.90    6.90
   3 -10  -6    2.80    3.50
   3 -10  -6   12.60    3.10
   3 -10  -6    7.00    3.70
  -3  10   6    8.90    3.30
  -3  10   6   11.10    3.40
  -3  10   6    3.90    3.70
  -3  10   6   13.80    3.80
  -3  10   6    6.60    3.40
  -3  10   6    1.70    3.30
   2  10  -7    7.10    2.20
   2  10  -7    3.10    2.20
   2  10  -7    5.50    2.10
   2  10  -7   -1.40    2.40
   2  10  -7    4.70    3.00
   2  10  -7    5.70    2.90
  -2 -10   7    3.30    1.80
  -2 -10   7    2.70    2.40
  -2 -10   7    1.10    3.00
  -2 -10   7    1.00    2.30
   1  10  -7    1.30    1.80
   1  10  -7   -1.50    1.90
   1  10  -7    2.60    1.80
   1  10  -7    1.60    2.20
  -1 -10   7    3.00    2.20
  -1 -10   7   -3.10    2.00
  -1 -10   7    0.90    2.20
   0  10  -7   41.40    4.20
   0  10  -7   39.60    3.70
   0  10  -7   30.40    3.50
   0  10  -7   37.20    3.90
   0  10  -7   34.30    5.60
   0 -10   7   45.30    8.10
  -1  10  -7    8.70    2.20
  -1  10  -7    6.20    2.00
  -1  10  -7   11.50    2.20
  -1  10  -7   15.20    3.60
  -1  10  -7    9.70    2.10
  -1  10  -7    8.10    3.20
   1 -10   7    9.60    3.80
  -2  10  -7   -0.90    2.30
  -2  10  -7    0.50    1.00
  -2  10  -7    4.50    2.20
  -2  10  -7    0.40    1.10
  -2  10  -7   -0.10    0.80
   2 -10   7    0.70    2.90
   4   9  -7   12.60    3.10
   4   9  -7    5.00    2.70
   4   9  -7   10.50    2.70
   4   9  -7    6.70    2.20
  -4  -9   7    4.20    1.70
  -4  -9   7    1.60    2.60
  -4  -9   7   -0.30    2.70
  -4  -9   7    7.20    4.40
   3   9  -7    2.50    1.50
   3   9  -7    1.20    2.20
   3   9  -7    6.90    2.20
  -3  -9   7    1.30    2.40
  -3  -9   7    2.70    1.30
  -3  -9   7    4.90    2.40
  -3  -9   7    2.20    2.90
   2   9  -7  150.78    6.40
   2   9  -7  143.09    7.80
   2   9  -7  150.18    7.60
   2   9  -7  155.98    9.40
  -2  -9   7  132.69    7.30
  -2  -9   7  148.89    7.60
  -2  -9   7  118.99   10.70
   1   9  -7   40.30    5.60
   1   9  -7   47.80    4.20
   1   9  -7   46.70    4.00
   1   9  -7   42.30    5.70
   1   9  -7   43.80    4.10
   1   9  -7   36.30    3.50
  -1  -9   7   40.60    3.60
  -1  -9   7   45.50    7.60
  -1  -9   7   40.90    3.70
  -1  -9   7   44.70    3.90
   0   9  -7    0.20    2.10
   0   9  -7   -0.70    1.20
   0   9  -7   -0.20    1.20
   0   9  -7    0.90    1.30
   0   9  -7    0.30    1.00
   0   9  -7   -0.70    1.20
   0  -9   7    0.00    1.10
   0  -9   7   -0.30    1.20
   0  -9   7   -0.80    1.10
   0  -9   7    1.80    2.70
  -1   9  -7   49.70    3.70
  -1   9  -7   66.69    6.20
  -1   9  -7   52.79    3.20
  -1   9  -7   63.99    4.50
  -1   9  -7   54.29    3.60
  -1   9  -7   62.99    3.70
   1  -9   7   72.19    7.90
  -2   9  -7   10.20    1.30
  -2   9  -7    9.10    2.30
  -2   9  -7   12.80    1.20
  -2   9  -7    6.90    2.70
   2  -9   7   11.80    3.70
  -3   9  -7  161.38   10.10
  -3   9  -7  155.88    8.20
   3  -9   7  166.28   11.20
  -4   9  -7  104.49    6.30
  -4   9  -7  100.99    7.20
  -4   9  -7  105.59    8.20
   4  -9   7  123.99    9.70
   5   8  -7    8.70    2.20
   5   8  -7    4.20    2.70
   5   8  -7   15.70    3.70
   5   8  -7    8.50    3.50
   5   8  -7    8.10    2.80
  -5  -8   7   12.60    4.60
  -5  -8   7    2.10    2.60
  -5  -8   7    5.40    3.00
  -5  -8   7    9.90    2.60
   4   8  -7   39.40    5.60
   4   8  -7   45.60    5.60
   4   8  -7   57.79    5.70
   4   8  -7   41.00    5.40
   4   8  -7   54.39    5.30
   4   8  -7   43.50    3.60
  -4  -8   7   43.80    5.40
  -4  -8   7   53.79    5.60
  -4  -8   7   44.00    7.80
   3   8  -7  439.56   16.50
   3   8  -7  408.26   14.80
   3   8  -7  431.26   14.60
   3   8  -7  412.06   15.20
   3   8  -7  430.76   15.00
   3   8  -7  418.06   11.70
  -3  -8   7  397.16   19.60
  -3  -8   7  433.06   15.00
  -3  -8   7  404.46   10.20
  -3  -8   7  413.46   19.40
   2   8  -7   83.49    5.50
   2   8  -7   88.09    7.00
   2   8  -7   83.29    6.70
   2   8  -7   83.69    4.20
   2   8  -7   84.19    5.50
   2   8  -7   79.49    5.20
  -2  -8   7   85.39    5.40
  -2  -8   7   78.49    6.90
  -2  -8   7   80.39    8.30
  -2  -8   7   86.59    5.50
  -2  -8   7   61.09    4.80
   1   8  -7   85.29    6.60
   1   8  -7   94.29    5.30
   1   8  -7   86.09    5.00
  -1  -8   7   77.49    4.60
  -1  -8   7   87.89    4.90
  -1  -8   7   97.29    8.80
  -1  -8   7   90.39    4.90
   0   8  -7  340.47   10.10
   0   8  -7  338.87   10.00
   0   8  -7  335.37   10.40
   0   8  -7  311.87   10.40
   0   8  -7  313.17   10.10
   0   8  -7  320.57   13.40
   0  -8   7  327.87    8.60
   0  -8   7  351.36   16.60
  -1   8  -7    2.20    1.00
  -1   8  -7    0.20    0.80
  -1   8  -7   -1.20    1.00
  -1   8  -7    1.60    0.90
  -1   8  -7   -1.00    1.50
  -1   8  -7    0.90    0.90
   1  -8   7   -0.90    2.10
  -2   8  -7    1.60    1.30
  -2   8  -7    0.20    0.40
  -2   8  -7   -1.40    1.50
  -2   8  -7    0.60    0.40
   2  -8   7   -3.20    1.70
  -3   8  -7   82.29    6.00
  -3   8  -7   91.99    7.00
  -3   8  -7   98.79    6.20
   3  -8   7   72.59    7.40
  -4   8  -7  113.79    8.10
  -4   8  -7  119.39    7.70
  -4   8  -7  122.89    6.60
   4  -8   7  102.29    8.20
  -5   8  -7   31.80    5.20
  -5   8  -7   28.50    4.80
  -5   8  -7   34.80    3.60
   5  -8   7   44.50    6.60
   6   7  -7    4.80    2.80
   6   7  -7   12.70    3.90
   6   7  -7   10.60    3.10
   6   7  -7   15.00    2.90
  -6  -7   7   10.30    2.10
  -6  -7   7   11.90    4.00
  -6  -7   7   11.90    4.00
  -6  -7   7   10.50    3.90
   5   7  -7   36.90    5.00
   5   7  -7   37.40    5.40
   5   7  -7   35.50    5.30
   5   7  -7   32.70    4.90
   5   7  -7   30.10    3.20
  -5  -7   7   34.20    2.70
  -5  -7   7   24.90    4.50
  -5  -7   7   38.70    5.10
  -5  -7   7   38.70    6.90
   4   7  -7    0.50    1.20
   4   7  -7    2.40    2.40
   4   7  -7    0.80    1.10
   4   7  -7    0.00    1.50
   4   7  -7    2.40    2.10
   4   7  -7    2.10    1.70
   4   7  -7    0.60    1.70
  -4  -7   7    0.80    1.60
  -4  -7   7    0.90    2.00
  -4  -7   7    0.40    2.10
  -4  -7   7   -1.40    0.60
  -4  -7   7   -2.80    2.00
  -4  -7   7   -3.20    1.60
  -4  -7   7    3.10    2.70
   3   7  -7   21.90    3.50
   3   7  -7   18.80    3.50
   3   7  -7   21.80    3.40
   3   7  -7   21.40    3.30
   3   7  -7   24.40    3.40
  -3  -7   7   22.30    3.50
  -3  -7   7   25.10    3.90
  -3  -7   7   15.90    4.50
   2   7  -7   -0.30    1.10
   2   7  -7    1.00    1.20
   2   7  -7    0.90    0.80
   2   7  -7    2.90    1.60
   2   7  -7    1.40    1.20
   2   7  -7    1.00    1.50
  -2  -7   7    0.00    0.90
  -2  -7   7    1.90    2.20
  -2  -7   7   -2.30    1.50
  -2  -7   7    2.30    1.40
   1   7  -7    5.40    1.50
   1   7  -7    6.60    1.70
   1   7  -7    4.10    1.60
   1   7  -7    4.20    1.50
  -1  -7   7    5.50    1.50
  -1  -7   7    8.60    1.80
  -1  -7   7    7.70    1.70
  -1  -7   7    7.80    2.10
  -1  -7   7    7.30    3.00
   0   7  -7  213.88    7.10
   0   7  -7  205.58    9.70
   0  -7   7  214.78    6.00
   0  -7   7  213.38    5.70
   0  -7   7  206.08    5.70
   0  -7   7  207.78   12.10
  -1   7  -7   34.50    2.20
  -1   7  -7   36.50    3.10
  -1   7  -7   41.90    5.20
  -1   7  -7   36.70    2.30
  -1   7  -7   38.60    2.40
   1  -7   7   43.40    6.40
  -2   7  -7   99.99    6.60
  -2   7  -7   95.79    5.60
   2  -7   7   87.19    7.60
  -3   7  -7    2.50    2.30
  -3   7  -7    3.00    1.90
  -3   7  -7    6.60    2.20
   3  -7   7    4.00    2.60
  -4   7  -7  128.69    7.80
  -4   7  -7  129.59    6.80
  -4   7  -7  123.89    8.10
   4  -7   7  133.99    8.40
   4  -7   7  132.09    9.20
  -5   7  -7   26.90    3.50
  -5   7  -7   20.90    4.20
  -5   7  -7   28.40    4.50
   5  -7   7   32.70    5.60
   5  -7   7   30.60    5.40
   7   6  -7   14.70    3.20
   7   6  -7   15.20    4.20
   7   6  -7   13.60    4.30
   7   6  -7   20.00    3.90
   7   6  -7   17.10    4.40
   7   6  -7   11.40    4.00
  -7  -6   7   15.60    3.50
  -7  -6   7   12.90    3.60
  -7  -6   7   15.70    4.50
  -7  -6   7   17.00    4.80
   6   6  -7   67.29    6.40
   6   6  -7   58.59    6.20
   6   6  -7   62.49    4.50
   6   6  -7   61.89    5.90
   6   6  -7   73.69    6.50
   6   6  -7   60.39    6.10
  -6  -6   7   59.39    7.20
  -6  -6   7   73.39    6.50
  -6  -6   7   63.19    4.00
  -6  -6   7   68.99    7.50
   5   6  -7   46.50    5.70
   5   6  -7   60.99    6.00
   5   6  -7   57.79    3.80
   5   6  -7   58.39    5.30
   5   6  -7   65.09    5.90
   5   6  -7   50.39    5.00
   5   6  -7   53.59    5.20
  -5  -6   7   56.79    4.90
  -5  -6   7   45.30    7.00
  -5  -6   7   59.99    6.00
  -5  -6   7   56.39    5.20
  -5  -6   7   59.39    5.40
  -5  -6   7   58.79    5.40
   4   6  -7   17.60    2.10
   4   6  -7   13.60    2.80
   4   6  -7   19.20    3.40
   4   6  -7   17.30    3.50
   4   6  -7   14.70    3.30
   4   6  -7   16.80    3.10
  -4  -6   7   16.70    3.30
  -4  -6   7   20.70    3.80
  -4  -6   7   14.70    4.20
   3   6  -7    0.50    1.10
   3   6  -7    0.40    1.40
   3   6  -7    1.70    1.30
   3   6  -7    0.90    1.20
  -3  -6   7   -1.10    1.30
  -3  -6   7    0.30    1.30
  -3  -6   7   -1.70    0.80
  -3  -6   7    1.20    2.20
   2   6  -7  120.09    6.00
   2   6  -7  127.79    6.40
   2   6  -7  153.88    7.70
   2   6  -7  122.09    7.30
   2   6  -7  123.59    3.90
   2   6  -7  119.59    6.00
  -2  -6   7  121.59    9.00
  -2  -6   7  131.39    5.90
  -2  -6   7  128.29    5.90
  -2  -6   7  129.79    7.60
   1   6  -7  131.39    5.60
   1   6  -7  127.59    5.60
   1   6  -7  143.09    6.10
   1   6  -7  127.29    5.80
   1   6  -7  146.59    7.50
  -1  -6   7  134.39    7.50
  -1  -6   7  137.59    5.40
  -1  -6   7  129.79    9.10
  -1  -6   7  138.69    5.60
  -1  -6   7  136.39    5.40
   0   6  -7   41.50    4.00
   0   6  -7   36.20    2.40
   0   6  -7   39.70    2.60
   0   6  -7   37.00    2.60
   0   6  -7   43.70    2.80
   0  -6   7   40.90    1.80
   0  -6   7   41.20    1.90
   0  -6   7   44.90    5.30
   0  -6   7   40.70    2.00
  -1   6  -7  211.68    5.50
  -1   6  -7  213.98    5.70
  -1   6  -7  207.28    5.70
  -1   6  -7  203.88    7.40
  -1   6  -7  197.28    9.00
  -1   6  -7  208.68    5.50
   1  -6   7  231.08   11.90
  -2   6  -7    3.30    1.30
  -2   6  -7    3.40    1.70
  -2   6  -7    3.90    1.70
   2  -6   7    3.20    2.50
  -3   6  -7   64.59    4.80
  -3   6  -7   68.29    5.30
  -3   6  -7   64.89    5.00
   3  -6   7   58.69    5.90
   3  -6   7   59.39    5.30
  -4   6  -7   15.70    2.70
  -4   6  -7   12.20    2.90
   4  -6   7    8.30    3.10
   4  -6   7   22.60    4.10
  -5   6  -7    0.70    1.50
  -5   6  -7   -3.60    1.40
  -5   6  -7    0.00    1.60
   5  -6   7   -0.20    1.60
  -6   6  -7    1.70    1.80
  -6   6  -7    3.40    2.20
  -6   6  -7   -4.00    2.00
   6  -6   7    1.30    2.60
   7   5  -7   73.39    6.80
   7   5  -7   60.99    6.30
   7   5  -7   62.49    6.40
   7   5  -7   66.99    6.50
   7   5  -7   54.49    5.80
  -7  -5   7   73.89    7.20
  -7  -5   7   61.39    7.10
  -7  -5   7   52.99    6.70
  -7  -5   7   68.79    6.30
   6   5  -7   53.89    6.60
   6   5  -7   35.30    4.60
   6   5  -7   42.00    5.70
   6   5  -7   45.60    3.70
   6   5  -7   41.40    5.50
   6   5  -7   45.60    4.90
   6   5  -7   46.60    4.90
  -6  -5   7   44.40    5.90
  -6  -5   7   37.90    3.10
  -6  -5   7   46.80    4.50
  -6  -5   7   50.19    6.10
  -6  -5   7   34.70    4.80
  -6  -5   7   39.80    6.30
  -6  -5   7   51.29    5.40
   5   5  -7   59.59    5.40
   5   5  -7   75.39    5.50
   5   5  -7   64.89    5.50
   5   5  -7   67.89    5.40
   5   5  -7   59.09    5.20
   5   5  -7   60.99    3.60
  -5  -5   7   65.99    5.60
  -5  -5   7   57.69    3.00
  -5  -5   7   61.69    6.40
  -5  -5   7   62.69    5.00
  -5  -5   7   55.59    5.40
   4   5  -7  157.78    7.90
   4   5  -7  159.38    8.10
   4   5  -7  175.08    8.40
   4   5  -7  182.88    8.70
   4   5  -7  161.68    9.70
  -4  -5   7  172.08    9.00
  -4  -5   7  211.78    9.30
  -4  -5   7  157.68   10.00
  -4  -5   7  172.58    7.80
  -4  -5   7  164.38    8.00
   3   5  -7   20.80    3.20
   3   5  -7   20.40    2.90
   3   5  -7   21.50    1.10
   3   5  -7   26.20    3.70
   3   5  -7   21.90    3.00
   3   5  -7   19.90    1.20
   3   5  -7   22.10    3.20
  -3  -5   7   24.60    3.80
  -3  -5   7   17.20    4.00
  -3  -5   7   20.00    3.10
  -3  -5   7   25.30    3.10
   2   5  -7    1.10    0.90
   2   5  -7    1.20    1.20
   2   5  -7    2.70    1.20
   2   5  -7    0.50    0.90
   2   5  -7    0.30    1.00
  -2  -5   7    0.70    1.50
  -2  -5   7    0.00    2.00
  -2  -5   7   -0.40    0.90
  -2  -5   7    1.80    1.00
  -2  -5   7    0.10    1.10
   1   5  -7   17.20    2.80
   1   5  -7   21.50    2.20
   1   5  -7   19.80    2.50
   1   5  -7   19.80    2.00
   1   5  -7   18.90    1.20
   1   5  -7   20.80    2.10
  -1  -5   7   21.70    1.90
  -1  -5   7   24.20    2.20
  -1  -5   7   20.40    1.90
  -1  -5   7   18.70    4.00
  -1  -5   7   20.10    1.90
  -1  -5   7   21.90    3.90
   0   5  -7   34.10    2.30
   0   5  -7   35.40    2.20
   0   5  -7   36.40    2.40
   0   5  -7   35.90    2.40
   0   5  -7   39.30    2.30
   0   5  -7   40.10    3.40
   0  -5   7   35.80    5.40
   0  -5   7   35.30    1.60
   0  -5   7   37.90    1.40
   0  -5   7   33.10    1.50
   0  -5   7   32.30    1.30
  -1   5  -7  150.58    3.90
  -1   5  -7  145.89    5.90
  -1   5  -7  154.98    7.00
  -1   5  -7  147.79    4.20
   1  -5   7  150.68    9.10
  -2   5  -7  770.72   20.20
  -2   5  -7  751.62   19.60
  -2   5  -7  771.32   20.80
   2  -5   7  773.12   20.10
   2  -5   7  748.23   23.70
  -3   5  -7  314.57   11.20
  -3   5  -7  291.77   10.80
  -3   5  -7  282.67   10.70
   3  -5   7  279.67   11.20
   3  -5   7  290.67   13.20
  -4   5  -7    0.40    1.10
  -4   5  -7   -1.50    1.30
  -4   5  -7    2.70    1.70
   4  -5   7    1.00    1.60
  -5   5  -7    2.70    1.70
  -5   5  -7    0.10    1.20
  -5   5  -7    2.90    1.80
   5  -5   7    1.40    2.10
  -6   5  -7    1.20    1.80
  -6   5  -7   -2.10    1.60
   6  -5   7   -0.50    2.30
   8   4  -7   47.30    6.40
   8   4  -7   46.80    4.90
   8   4  -7   40.10    5.90
   8   4  -7   54.79    7.00
   8   4  -7   55.19    7.10
  -8  -4   7   48.90    4.60
  -8  -4   7   40.80    6.40
  -8  -4   7   47.00    7.00
  -8  -4   7   64.69    6.60
  -8  -4   7   52.89    6.90
   7   4  -7   17.40    3.90
   7   4  -7   13.70    2.80
   7   4  -7   17.50    3.40
   7   4  -7   12.90    3.30
   7   4  -7   17.10    3.80
   7   4  -7   14.00    3.30
   7   4  -7   19.90    4.20
  -7  -4   7   10.80    3.40
  -7  -4   7   14.80    2.70
  -7  -4   7   20.20    4.40
  -7  -4   7   19.60    3.90
  -7  -4   7   14.50    3.50
  -7  -4   7   17.60    4.20
   6   4  -7   38.10    5.40
   6   4  -7   41.80    5.40
   6   4  -7   36.50    5.20
   6   4  -7   40.90    5.20
   6   4  -7   40.00    5.10
   6   4  -7   32.20    3.20
  -6  -4   7   35.00    5.30
  -6  -4   7   43.70    5.10
  -6  -4   7   38.20    4.90
  -6  -4   7   34.00    2.90
  -6  -4   7   42.70    3.10
  -6  -4   7   39.80    6.30
  -6  -4   7   40.20    5.20
   5   4  -7  427.66   14.80
   5   4  -7  409.36   14.70
   5   4  -7  422.66   15.10
   5   4  -7  428.76   11.50
   5   4  -7  438.16   14.70
   5   4  -7  425.56   17.20
  -5  -4   7  434.66   14.90
  -5  -4   7  428.36   15.20
  -5  -4   7  431.86   14.10
  -5  -4   7  426.46   10.50
  -5  -4   7  413.96   10.50
  -5  -4   7  433.86   15.40
  -5  -4   7  462.55   14.80
  -5  -4   7  438.16   17.10
   4   4  -7  248.18   10.20
   4   4  -7  250.07   10.00
   4   4  -7  261.37   10.30
   4   4  -7  269.47   10.50
   4   4  -7  256.87    9.80
   4   4  -7  230.08    6.50
  -4  -4   7  229.28    9.20
  -4  -4   7  261.17   10.40
  -4  -4   7  251.07    9.40
  -4  -4   7  259.37   12.20
  -4  -4   7  263.07   10.20
  -4  -4   7  274.27   10.90
   3   4  -7    4.10    1.40
   3   4  -7    5.10    1.60
   3   4  -7    3.50    1.50
   3   4  -7    7.30    2.00
   3   4  -7    1.90    1.20
  -3  -4   7    4.50    2.40
  -3  -4   7    3.70    1.30
  -3  -4   7    5.50    1.60
  -3  -4   7    3.70    1.40
  -3  -4   7    4.10    1.50
  -3  -4   7    6.90    2.00
   2   4  -7   41.50    3.30
   2   4  -7   43.90    3.40
   2   4  -7   36.60    2.90
   2   4  -7   40.60    3.10
   2   4  -7   41.10    3.20
  -2  -4   7   42.70    3.10
  -2  -4   7   36.10    2.60
  -2  -4   7   43.90    3.70
  -2  -4   7   39.50    2.80
   1   4  -7    0.70    0.90
   1   4  -7    0.30    0.70
   1   4  -7    0.90    0.70
   1   4  -7    0.50    0.70
   1   4  -7   -0.30    0.50
  -1  -4   7    0.80    0.70
  -1  -4   7    0.70    0.70
  -1  -4   7    1.20    1.00
  -1  -4   7    1.60    0.60
  -1  -4   7    0.20    1.60
   0   4  -7  187.68    5.70
   0   4  -7  177.98    5.80
   0   4  -7  187.28    7.20
   0   4  -7  191.38    6.10
   0   4  -7  193.18    5.70
   0   4  -7  190.58    5.90
   0  -4   7  209.58   10.30
   0  -4   7  191.98    4.70
   0  -4   7  185.08    4.60
   0  -4   7  190.58    5.10
   0  -4   7  192.38    4.90
  -1   4  -7    4.40    0.70
  -1   4  -7    5.80    0.80
  -1   4  -7    4.30    1.30
  -1   4  -7    4.00    1.20
  -1   4  -7    5.50    1.20
  -1   4  -7    8.10    2.10
  -1   4  -7    4.40    0.80
   1  -4   7    6.20    1.60
   1  -4   7    8.30    2.70
  -2   4  -7  177.88    7.10
  -2   4  -7  183.58    7.40
  -2   4  -7  166.88    7.80
   2  -4   7  173.68    7.60
  -3   4  -7  187.98    7.70
  -3   4  -7  180.58    8.20
   3  -4   7  184.28    8.70
   3  -4   7  183.18   10.10
  -4   4  -7    1.50    1.30
  -4   4  -7    0.40    0.40
  -4   4  -7    0.40    0.40
  -4   4  -7    0.70    1.30
   4  -4   7   -0.20    1.40
  -5   4  -7    0.10    0.70
  -5   4  -7    1.70    1.60
  -5   4  -7    1.50    0.70
  -5   4  -7    1.30    0.80
  -5   4  -7    0.90    0.70
   5  -4   7   -0.70    1.80
  -6   4  -7   -0.20    1.70
  -6   4  -7   -0.60    1.00
  -6   4  -7    1.20    1.10
  -6   4  -7   -1.20    1.60
  -6   4  -7    0.00    0.90
  -6   4  -7    0.20    0.90
   6  -4   7   -0.20    2.10
   8   3  -7   12.50    3.20
   8   3  -7   14.50    4.20
   8   3  -7   14.90    4.20
   8   3  -7   10.90    3.40
   8   3  -7   22.30    4.40
   8   3  -7   14.20    3.50
  -8  -3   7   18.30    4.10
  -8  -3   7   15.60    3.50
  -8  -3   7   18.90    3.70
  -8  -3   7   11.30    2.60
  -8  -3   7   22.00    4.50
  -8  -3   7   11.30    3.50
   7   3  -7    1.90    2.30
   7   3  -7    4.00    2.60
   7   3  -7    2.20    1.60
   7   3  -7    2.90    2.30
   7   3  -7   -1.00    1.90
   7   3  -7   -0.40    1.40
  -7  -3   7    0.20    1.90
  -7  -3   7   -2.00    1.20
  -7  -3   7   -1.10    1.30
  -7  -3   7   -0.60    2.00
  -7  -3   7   -2.30    1.80
  -7  -3   7   -1.50    1.80
  -7  -3   7    2.90    2.40
   6   3  -7  112.99    7.50
   6   3  -7  121.39    7.40
   6   3  -7  112.99    7.20
   6   3  -7   97.79    5.40
   6   3  -7  118.99    7.20
   6   3  -7  133.09    7.80
  -6  -3   7  123.19    7.20
  -6  -3   7  117.19    5.40
  -6  -3   7  109.29    7.10
  -6  -3   7  114.59    6.70
  -6  -3   7  128.49    8.00
  -6  -3   7  114.29    7.80
   5   3  -7   31.60    4.30
   5   3  -7   30.20    2.40
   5   3  -7   33.10    4.50
   5   3  -7   38.10    4.70
   5   3  -7   29.00    3.90
   5   3  -7   33.50    4.40
  -5  -3   7   35.20    4.50
  -5  -3   7   32.50    2.20
  -5  -3   7   32.20    4.10
  -5  -3   7   39.20    4.00
  -5  -3   7   34.80    4.20
  -5  -3   7   33.80    4.30
   4   3  -7  101.79    5.90
   4   3  -7   96.69    3.30
   4   3  -7   99.19    5.70
   4   3  -7  104.39    6.10
   4   3  -7  103.99    5.80
   4   3  -7  107.59    6.00
  -4  -3   7  104.19    5.60
  -4  -3   7   95.09    5.70
  -4  -3   7   95.49    2.50
  -4  -3   7  101.69    5.60
  -4  -3   7  110.49    6.30
  -4  -3   7  102.49    6.00
  -4  -3   7   99.39    2.50
  -4  -3   7  111.29    7.40
   3   3  -7   72.59    4.50
   3   3  -7   73.39    4.50
   3   3  -7   63.59    4.30
   3   3  -7   69.19    4.60
   3   3  -7   69.19    4.30
  -3  -3   7   66.89    5.60
  -3  -3   7   65.49    4.50
  -3  -3   7   67.69    4.50
  -3  -3   7   69.89    4.10
  -3  -3   7   70.69    4.50
  -3  -3   7   67.29    4.10
   2   3  -7  123.39    5.70
   2   3  -7  126.89    5.60
   2   3  -7  136.59    5.70
   2   3  -7  117.79    5.50
   2   3  -7  126.19    5.40
  -2  -3   7  118.89    5.60
  -2  -3   7  125.39    5.20
  -2  -3   7  121.19    5.00
  -2  -3   7  126.49    7.70
  -2  -3   7  117.49    5.70
  -2  -3   7  112.39    5.20
   1   3  -7    2.00    1.00
   1   3  -7    3.20    1.10
   1   3  -7    2.90    1.00
   1   3  -7    2.80    1.00
   1   3  -7    3.00    0.40
   1   3  -7    3.20    0.40
   1   3  -7    4.80    1.40
  -1  -3   7    2.50    0.90
  -1  -3   7    4.10    1.10
  -1  -3   7    3.80    1.00
  -1  -3   7    6.40    1.40
  -1  -3   7    1.80    1.70
   0   3  -7   61.59    2.90
   0   3  -7   61.09    3.10
   0   3  -7   65.39    3.10
   0   3  -7   63.29    3.10
   0   3  -7   63.09    3.40
   0  -3   7   60.19    2.40
   0  -3   7   60.39    2.60
   0  -3   7   65.29    2.40
   0  -3   7   61.79    2.90
   0  -3   7   62.39    2.60
   0  -3   7   57.59    5.20
  -1   3  -7  250.77    7.70
  -1   3  -7  252.97    6.80
  -1   3  -7  251.77    6.60
  -1   3  -7  252.17    6.80
  -1   3  -7  243.28    9.50
   1  -3   7  245.68   11.30
   1  -3   7  248.78    8.20
  -2   3  -7    9.80    1.20
  -2   3  -7    9.90    1.00
  -2   3  -7   11.00    1.10
  -2   3  -7    8.40    2.10
  -2   3  -7   11.30    1.90
   2  -3   7   12.60    2.40
   2  -3   7   11.50    3.10
  -3   3  -7  161.08    5.00
  -3   3  -7  170.88    4.90
  -3   3  -7  170.08    5.10
  -3   3  -7  174.18    6.70
  -3   3  -7  182.38    8.10
   3  -3   7  164.98    8.10
  -4   3  -7    3.00    0.90
  -4   3  -7    3.40    1.00
  -4   3  -7    2.90    1.60
  -4   3  -7    3.80    1.10
   4  -3   7    1.90    1.90
  -5   3  -7   73.99    5.60
  -5   3  -7   71.19    3.90
  -5   3  -7   76.69    5.60
  -5   3  -7   69.39    3.80
   5  -3   7   80.39    6.80
  -6   3  -7   31.90    3.10
  -6   3  -7   37.50    3.10
  -6   3  -7   28.10    3.00
  -6   3  -7   47.30    4.70
  -6   3  -7   35.10    4.10
   6  -3   7   24.30    5.00
   9   2  -7   12.40    4.00
   9   2  -7   14.50    3.50
   9   2  -7    7.70    3.00
   9   2  -7    8.20    2.40
  -9  -2   7   13.50    3.30
  -9  -2   7   12.70    4.40
  -9  -2   7   19.50    3.70
  -9  -2   7    8.50    3.30
  -9  -2   7    7.50    2.80
   8   2  -7   75.59    6.90
   8   2  -7   76.99    6.40
   8   2  -7   79.99    6.50
   8   2  -7   78.29    6.10
  -8  -2   7   77.59    6.20
  -8  -2   7   83.49    7.40
  -8  -2   7   91.19    8.10
  -8  -2   7   83.79    7.30
  -8  -2   7   78.59    5.50
  -8  -2   7   83.49    6.90
   7   2  -7   82.09    6.90
   7   2  -7   74.29    6.40
   7   2  -7   76.19    6.10
   7   2  -7   74.09    6.20
   7   2  -7   92.19    5.80
  -7  -2   7   76.19    6.50
  -7  -2   7   83.59    6.40
  -7  -2   7   88.49    6.30
  -7  -2   7   80.89    5.20
  -7  -2   7   74.79    5.70
  -7  -2   7   77.79    6.70
  -7  -2   7   86.99    6.50
   6   2  -7  144.69    8.10
   6   2  -7  145.39    6.50
   6   2  -7  130.89    7.90
   6   2  -7  140.09    8.40
   6   2  -7  141.69    7.80
  -6  -2   7  153.48    6.20
  -6  -2   7  143.89    8.10
  -6  -2   7  138.69    7.60
  -6  -2   7  149.99    7.80
  -6  -2   7  147.69    8.60
  -6  -2   7  136.69    7.60
  -6  -2   7  134.29    8.00
   5   2  -7    3.40    1.90
   5   2  -7    0.90    1.20
   5   2  -7    0.90    1.10
   5   2  -7    1.00    1.20
   5   2  -7    0.70    1.10
   5   2  -7    3.80    1.50
  -5  -2   7    1.30    1.30
  -5  -2   7    0.80    1.60
  -5  -2   7   -0.60    0.80
  -5  -2   7    2.60    1.00
  -5  -2   7    0.50    1.50
  -5  -2   7    2.80    1.40
  -5  -2   7   -0.20    0.90
   4   2  -7  116.89    6.20
   4   2  -7  121.69    6.10
   4   2  -7  117.49    6.30
   4   2  -7  112.59    6.30
   4   2  -7  124.29    6.20
  -4  -2   7  113.99    5.80
  -4  -2   7  115.39    6.40
  -4  -2   7   98.29    5.80
  -4  -2   7  100.29    6.70
  -4  -2   7  119.09    6.00
  -4  -2   7  110.09    5.80
  -4  -2   7  107.89    3.60
   3   2  -7    8.10    1.70
   3   2  -7    6.70    1.80
   3   2  -7   11.30    2.20
   3   2  -7    7.00    1.80
   3   2  -7    9.30    1.80
  -3  -2   7    9.40    1.90
  -3  -2   7    9.60    1.90
  -3  -2   7    6.90    1.80
  -3  -2   7   11.10    2.80
  -3  -2   7    8.40    1.80
  -3  -2   7    8.70    1.70
   2   2  -7   22.80    2.40
   2   2  -7   17.60    2.50
   2   2  -7   19.10    2.40
   2   2  -7   17.00    1.90
   2   2  -7   22.20    2.80
  -2  -2   7   24.30    2.20
  -2  -2   7   16.00    2.20
  -2  -2   7   19.50    3.50
  -2  -2   7   18.30    2.70
  -2  -2   7   20.30    2.60
   1   2  -7    5.70    1.30
   1   2  -7    4.30    0.80
   1   2  -7    3.50    0.90
   1   2  -7    3.80    1.10
   1   2  -7    4.00    1.10
   1   2  -7    4.70    1.20
  -1  -2   7    4.20    1.10
  -1  -2   7    4.40    1.00
  -1  -2   7    2.10    1.40
  -1  -2   7    3.60    1.10
  -1  -2   7    5.40    1.10
  -1  -2   7    3.80    0.60
   0   2  -7  185.38    6.20
   0   2  -7  175.98    5.20
   0   2  -7  179.98    6.00
   0   2  -7  178.68    7.80
   0   2  -7  183.68    6.20
   0   2  -7  179.98    6.00
   0  -2   7  182.58    9.20
   0  -2   7  183.08    5.50
   0  -2   7  176.68    5.70
   0  -2   7  178.08    5.60
   0  -2   7  181.28    5.50
  -1   2  -7   28.50    2.10
  -1   2  -7   27.60    3.60
  -1   2  -7   27.60    2.00
  -1   2  -7   28.40    2.10
  -1   2  -7   24.60    1.60
  -1   2  -7   25.50    2.10
   1  -2   7   25.50    1.60
   1  -2   7   27.30    1.60
   1  -2   7   29.30    1.60
   1  -2   7   24.30    4.10
   1  -2   7   30.10    1.80
   1  -2   7   27.80    2.50
  -2   2  -7  135.59    5.10
  -2   2  -7  136.09    4.70
  -2   2  -7  144.09    7.00
  -2   2  -7  126.99    4.80
   2  -2   7  140.99    6.60
   2  -2   7  130.59    3.70
   2  -2   7  123.39    3.80
   2  -2   7  126.79    3.70
   2  -2   7  130.49    3.60
  -3   2  -7   -0.10    0.70
  -3   2  -7    0.80    0.80
  -3   2  -7    1.20    1.00
  -3   2  -7    2.30    1.30
  -3   2  -7    1.70    0.90
   3  -2   7    1.50    0.60
   3  -2   7    1.50    0.50
   3  -2   7   -0.10    1.20
   3  -2   7    1.10    0.60
  -4   2  -7   33.00    2.70
  -4   2  -7   35.80    2.70
  -4   2  -7   36.90    4.50
  -4   2  -7   37.50    3.10
  -4   2  -7   29.20    3.00
   4  -2   7   34.10    2.10
   4  -2   7   31.20    2.00
   4  -2   7   31.60    2.00
   4  -2   7   32.70    4.90
   4  -2   7   34.30    1.90
  -5   2  -7    5.90    1.70
  -5   2  -7    2.40    1.40
  -5   2  -7    4.10    1.90
  -5   2  -7    4.10    1.50
  -5   2  -7    4.20    1.50
  -5   2  -7    6.60    1.90
   5  -2   7    2.00    1.00
   5  -2   7    4.20    1.10
   5  -2   7    4.00    2.10
  -6   2  -7    4.90    2.00
  -6   2  -7    2.20    1.50
  -6   2  -7    7.60    2.00
  -6   2  -7    7.10    2.00
  -6   2  -7    4.00    1.80
  -6   2  -7    6.70    2.40
   6  -2   7    3.60    1.40
   6  -2   7    7.70    3.50
   6  -2   7    3.90    1.60
   9   1  -7    9.30    2.90
   9   1  -7    9.70    3.20
   9   1  -7    9.50    3.10
   9   1  -7    1.60    2.70
  -9  -1   7    8.50    3.10
  -9  -1   7    6.50    2.40
  -9  -1   7    5.30    3.50
  -9  -1   7   12.40    3.10
  -9  -1   7   13.00    3.60
  -9  -1   7    7.20    2.80
   8   1  -7    9.40    2.80
   8   1  -7    8.00    3.00
   8   1  -7   15.00    3.40
   8   1  -7   15.50    3.90
   8   1  -7   15.70    4.40
  -8  -1   7    7.70    2.30
  -8  -1   7   10.50    3.00
  -8  -1   7    4.00    2.60
  -8  -1   7   10.00    2.70
  -8  -1   7   11.10    2.90
  -8  -1   7   16.00    4.00
  -8  -1   7   14.10    3.70
   7   1  -7    5.00    2.10
   7   1  -7   10.00    3.00
   7   1  -7    6.90    2.20
   7   1  -7    4.90    2.30
   7   1  -7    8.30    2.60
   7   1  -7    7.30    2.80
  -7  -1   7    6.60    2.10
  -7  -1   7    7.20    2.50
  -7  -1   7    6.30    2.50
  -7  -1   7    8.10    2.20
  -7  -1   7    7.00    2.50
  -7  -1   7    6.40    2.90
   6   1  -7  162.18    8.10
   6   1  -7  151.98    8.30
   6   1  -7  155.38    8.30
   6   1  -7  170.38    9.00
   6   1  -7  150.38    6.90
  -6  -1   7  153.58    8.50
  -6  -1   7  159.08    6.70
  -6  -1   7  164.48    8.20
  -6  -1   7  147.19    7.70
  -6  -1   7  162.68    8.30
  -6  -1   7  152.98    8.60
  -6  -1   7  162.78    8.20
   5   1  -7    2.70    1.70
   5   1  -7    4.30    1.40
   5   1  -7    3.30    1.40
   5   1  -7    2.90    1.30
   5   1  -7    1.50    1.20
  -5  -1   7    6.20    2.20
  -5  -1   7    4.80    1.60
  -5  -1   7    1.00    1.30
  -5  -1   7    4.50    1.40
  -5  -1   7    1.90    1.20
  -5  -1   7    1.10    1.40
   4   1  -7   62.69    4.60
   4   1  -7   53.29    4.30
   4   1  -7   64.09    4.60
   4   1  -7   61.59    4.30
  -4  -1   7   56.99    4.30
  -4  -1   7   60.89    4.00
  -4  -1   7   59.29    4.80
  -4  -1   7   61.79    3.00
  -4  -1   7   59.79    4.90
  -4  -1   7   65.29    4.30
  -4  -1   7   58.29    4.50
   3   1  -7 1462.75   33.60
   3   1  -7 1496.45   33.40
   3   1  -7 1475.35   33.30
   3   1  -7 1501.35   33.00
  -3  -1   7 1429.26   33.00
  -3  -1   7 1485.85   31.80
  -3  -1   7 1453.55   33.50
  -3  -1   7 1442.96   28.80
  -3  -1   7 1530.65   32.70
  -3  -1   7 1528.35   35.80
  -3  -1   7 1463.35   29.50
   2   1  -7   78.69    4.50
   2   1  -7   69.19    2.80
   2   1  -7   69.09    3.30
   2   1  -7   67.39    4.10
   2   1  -7   78.29    4.30
   2   1  -7   67.09    5.20
  -2  -1   7   67.69    3.80
  -2  -1   7   69.39    3.90
  -2  -1   7   65.39    2.40
  -2  -1   7   70.69    3.40
  -2  -1   7   72.09    4.30
  -2  -1   7   65.79    4.00
  -2  -1   7   66.89    2.30
  -2  -1   7   68.69    5.20
   1   1  -7  117.49    5.10
   1   1  -7  121.79    5.20
   1   1  -7  121.29    3.80
   1   1  -7  122.79    5.40
   1   1  -7  117.19    4.40
   1   1  -7  115.29    5.30
   1   1  -7  124.49    6.20
  -1  -1   7  119.69    5.10
  -1  -1   7  117.49    3.90
  -1  -1   7  114.79    3.90
  -1  -1   7  108.29    6.90
  -1  -1   7  117.19    5.00
  -1  -1   7  121.79    5.00
   0   1  -7  225.78    7.50
   0   1  -7  231.18    7.60
   0   1  -7  225.98    8.80
   0   1  -7  212.78    7.40
   0   1  -7  210.78    7.20
   0   1  -7  232.58    7.40
   0  -1   7  205.48    6.90
   0  -1   7  222.78   10.20
   0  -1   7  219.08    7.10
   0  -1   7  209.38    6.80
   0  -1   7  209.98    6.90
  -1   1  -7   50.09    3.20
  -1   1  -7   44.10    3.00
  -1   1  -7   46.00    3.00
  -1   1  -7   44.00    3.80
  -1   1  -7   51.09    3.10
   1  -1   7   47.50    2.70
   1  -1   7   47.50    2.80
   1  -1   7   45.00    2.70
   1  -1   7   43.40    3.20
   1  -1   7   48.10    3.00
  -2   1  -7    1.00    0.40
  -2   1  -7    0.00    0.80
  -2   1  -7    1.00    0.60
  -2   1  -7    0.60    0.90
  -2   1  -7    0.60    0.80
  -2   1  -7    1.40    0.90
   2  -1   7    0.60    0.80
   2  -1   7    0.50    0.90
   2  -1   7    0.40    0.60
   2  -1   7    0.30    0.50
   2  -1   7    1.70    0.90
  -3   1  -7    7.30    1.20
  -3   1  -7    6.20    2.10
  -3   1  -7    6.30    1.60
  -3   1  -7    6.40    1.60
  -3   1  -7    6.50    1.70
  -3   1  -7    6.70    1.70
   3  -1   7    7.20    1.40
   3  -1   7    7.30    1.40
   3  -1   7    6.60    1.40
   3  -1   7    8.80    1.60
   3  -1   7    6.10    1.90
  -4   1  -7  489.45   18.30
  -4   1  -7  517.45   14.40
  -4   1  -7  496.25   13.80
  -4   1  -7  502.15   15.20
  -4   1  -7  491.85   14.20
  -4   1  -7  507.25   12.80
   4  -1   7  481.95   13.20
   4  -1   7  483.15   12.70
   4  -1   7  500.15   17.30
   4  -1   7  502.55   12.90
   4  -1   7  507.95   16.70
  -5   1  -7   21.00    3.20
  -5   1  -7   24.30    3.30
  -5   1  -7   29.50    2.80
  -5   1  -7   35.00    3.50
  -5   1  -7   30.70    2.80
  -5   1  -7   31.20    4.30
   5  -1   7   30.00    3.70
   5  -1   7   33.90    2.90
   5  -1   7   21.10    2.70
   5  -1   7   22.70    4.80
   5  -1   7   30.50    2.80
  -6   1  -7   20.40    3.20
  -6   1  -7   14.40    2.80
  -6   1  -7   20.80    4.00
  -6   1  -7   16.90    2.90
  -6   1  -7   19.20    3.10
  -6   1  -7   20.70    3.20
   6  -1   7   16.60    2.70
   6  -1   7   14.30    2.50
   6  -1   7   15.70    4.40
   6  -1   7   16.30    3.70
   9   0  -7   -1.60    1.90
   9   0  -7    2.50    2.30
   9   0  -7   -0.70    2.60
   9   0  -7    1.10    2.60
   9   0  -7    5.30    3.00
  -9   0   7    5.60    3.40
  -9   0   7    3.30    2.80
  -9   0   7    5.70    3.10
  -9   0   7    4.00    2.40
  -9   0   7    0.30    1.90
  -9   0   7    1.80    1.60
   8   0  -7   23.50    4.40
   8   0  -7   26.40    3.90
   8   0  -7   23.30    4.20
   8   0  -7   28.20    4.60
   8   0  -7   25.80    4.40
  -8   0   7   28.60    3.90
  -8   0   7   30.80    4.20
  -8   0   7   27.70    4.60
  -8   0   7   27.60    4.60
  -8   0   7   19.40    4.00
  -8   0   7   27.50    4.30
  -8   0   7   29.20    5.00
   7   0  -7   26.80    4.40
   7   0  -7   23.20    3.90
   7   0  -7   29.80    4.80
   7   0  -7   26.40    4.40
   7   0  -7   23.40    3.90
  -7   0   7   27.80    4.20
  -7   0   7   28.00    4.60
  -7   0   7   20.30    3.60
  -7   0   7   28.30    4.00
  -7   0   7   20.10    3.30
  -7   0   7   28.80    4.40
   6   0  -7   57.59    4.20
   6   0  -7   55.29    4.90
   6   0  -7   61.49    5.40
   6   0  -7   61.99    5.10
   6   0  -7   67.69    5.30
  -6   0   7   66.29    5.00
  -6   0   7   47.50    4.70
  -6   0   7   55.89    5.00
  -6   0   7   53.19    4.80
  -6   0   7   57.69    4.60
  -6   0   7   51.69    4.40
  -6   0   7   52.69    4.00
   5   0  -7  140.59    7.60
   5   0  -7  153.98    7.80
   5   0  -7  147.89    7.90
   5   0  -7  146.49    7.30
  -5   0   7  149.39    7.50
  -5   0   7  165.18    7.90
  -5   0   7  152.18    6.30
  -5   0   7  140.99    6.90
  -5   0   7  168.78    8.10
  -5   0   7  154.08    8.10
   4   0  -7  345.27   11.50
   4   0  -7  333.77   12.00
   4   0  -7  355.96   12.00
   4   0  -7  339.97    9.50
   4   0  -7  345.07   12.00
  -4   0   7  311.47   11.40
  -4   0   7  338.57   12.10
  -4   0   7  337.47   12.40
  -4   0   7  339.17   10.60
  -4   0   7  349.67   11.50
  -4   0   7  334.57   11.70
  -4   0   7  352.76    9.80
   3   0  -7  650.53   15.60
   3   0  -7  657.63   18.30
   3   0  -7  664.73   18.00
   3   0  -7  694.23   18.00
   3   0  -7  689.83   18.40
  -3   0   7  649.04   18.20
  -3   0   7  664.03   15.70
  -3   0   7  662.23   17.90
  -3   0   7  706.43   18.30
  -3   0   7  677.93   19.80
  -3   0   7  687.93   17.80
  -3   0   7  696.13   16.30
   2   0  -7  105.39    4.40
   2   0  -7  111.19    5.60
   2   0  -7  100.69    5.30
   2   0  -7  102.49    5.20
   2   0  -7  111.59    5.80
   2   0  -7   99.09    5.30
  -2   0   7  106.99    5.20
  -2   0   7  105.29    5.40
  -2   0   7  109.59    6.60
  -2   0   7  106.39    5.30
  -2   0   7  105.09    5.30
  -2   0   7  107.59    3.90
  -2   0   7  103.59    4.40
   1   0  -7   35.90    3.10
   1   0  -7   35.30    3.20
   1   0  -7   38.20    2.70
   1   0  -7   34.40    3.00
   1   0  -7   35.90    2.90
   1   0  -7   34.50    2.90
  -1   0   7   38.80    3.10
  -1   0   7   37.10    1.40
  -1   0   7   38.40    3.00
  -1   0   7   42.70    3.00
  -1   0   7   37.20    2.40
   0   0  -7   62.79    4.40
   0   0  -7   61.59    3.70
   0   0  -7   67.09    4.10
   0   0  -7   63.09    3.80
   0   0  -7   61.29    3.90
   0   0  -7   65.19    4.00
   0   0   7   62.19    3.50
   0   0   7   67.19    3.90
   0   0   7   60.59    4.30
  -1   0  -7   34.00    2.80
  -1   0  -7   26.00    3.30
  -1   0  -7   28.30    3.50
  -1   0  -7   23.70    2.60
  -1   0  -7   29.30    2.70
  -1   0  -7   33.00    2.80
   1   0   7   35.80    2.80
   1   0   7   29.90    2.90
   1   0   7   33.40    2.60
   1   0   7   23.60    3.30
  -2   0  -7   24.60    2.90
  -2   0  -7   21.20    3.30
  -2   0  -7   21.00    2.90
  -2   0  -7   23.80    2.50
   2   0   7   20.60    2.60
   2   0   7   23.00    3.40
   2   0   7   20.90    2.70
   2   0   7   24.10    3.60
  -3   0  -7   65.69    4.50
  -3   0  -7   69.29    2.90
  -3   0  -7   61.99    4.90
  -3   0  -7   69.29    4.70
  -3   0  -7   68.39    5.20
  -3   0  -7   69.49    5.20
   3   0   7   67.39    4.20
   3   0   7   68.49    4.00
   3   0   7   71.99    5.40
   3   0   7   66.09    4.30
   3   0   7   75.39    5.60
   3   0   7   63.19    3.70
  -4   0  -7   16.70    2.80
  -4   0  -7   13.00    2.90
  -4   0  -7   12.30    2.50
  -4   0  -7   14.10    1.90
  -4   0  -7   21.10    3.00
  -4   0  -7   14.00    2.70
   4   0   7   17.20    3.60
   4   0   7   15.50    2.40
   4   0   7   20.20    2.70
  -5   0  -7   30.30    4.70
  -5   0  -7   24.00    3.40
  -5   0  -7   20.00    3.40
  -5   0  -7   30.20    2.80
  -5   0  -7   25.50    3.50
  -5   0  -7   24.60    3.40
   5   0   7   31.10    3.20
   5   0   7   23.90    4.10
   5   0   7   32.50    3.90
   5   0   7   22.30    4.60
   5   0   7   23.20    3.10
  -6   0  -7   59.09    5.90
  -6   0  -7   63.29    5.80
  -6   0  -7   61.79    5.00
  -6   0  -7   69.39    5.50
   6   0   7   49.60    5.20
   6   0   7   61.59    8.00
   9  -1  -7   28.00    3.90
   9  -1  -7   23.00    4.70
   9  -1  -7   19.80    4.20
   9  -1  -7   24.70    5.80
   9  -1  -7   30.00    4.80
  -9   1   7   25.70    4.20
  -9   1   7   24.20    4.40
  -9   1   7   29.70    5.30
  -9   1   7   25.60    4.80
  -9   1   7   27.40    4.80
   8  -1  -7    0.40    1.70
   8  -1  -7    5.40    2.30
   8  -1  -7    1.10    1.70
   8  -1  -7    4.90    2.50
   8  -1  -7    4.00    2.00
  -8   1   7    2.60    1.70
  -8   1   7    4.10    2.90
  -8   1   7    1.30    1.60
  -8   1   7    7.00    2.60
  -8   1   7   -0.90    1.40
  -8   1   7    3.40    2.10
   7  -1  -7   56.39    5.50
   7  -1  -7   55.39    5.40
   7  -1  -7   54.59    4.90
   7  -1  -7   59.29    5.00
   7  -1  -7   53.79    5.30
  -7   1   7   52.89    4.70
  -7   1   7   55.99    5.30
  -7   1   7   56.59    5.00
  -7   1   7   46.90    5.90
  -7   1   7   60.19    5.10
   6  -1  -7  114.29    7.30
   6  -1  -7  132.49    7.70
   6  -1  -7  121.09    7.30
  -6   1   7  115.29    7.30
  -6   1   7  136.29    6.70
  -6   1   7  135.99    7.80
  -6   1   7  124.49    7.20
  -6   1   7  121.29    6.80
   5  -1  -7   90.69    5.90
   5  -1  -7   97.09    6.30
   5  -1  -7   91.79    6.10
   5  -1  -7   92.09    5.90
  -5   1   7   91.59    5.70
  -5   1   7   97.99    6.50
  -5   1   7  106.69    5.40
  -5   1   7  103.49    6.50
  -5   1   7  102.39    6.20
  -5   1   7   93.89    6.00
   4  -1  -7    0.10    0.90
   4  -1  -7    0.40    1.10
   4  -1  -7    1.30    1.00
   4  -1  -7    0.40    0.70
   4  -1  -7   -0.30    1.10
  -4   1   7    0.40    0.90
  -4   1   7    0.00    0.70
  -4   1   7    0.50    0.80
  -4   1   7    2.20    1.40
  -4   1   7   -0.90    0.70
   3  -1  -7   50.39    3.80
   3  -1  -7   54.89    4.00
   3  -1  -7   49.50    4.00
   3  -1  -7   48.40    4.00
   3  -1  -7   45.30    3.20
   3  -1  -7   50.49    4.10
  -3   1   7   52.49    3.40
  -3   1   7   56.99    3.20
  -3   1   7   55.39    4.10
  -3   1   7   56.89    4.00
  -3   1   7   51.79    4.00
  -3   1   7   50.49    4.00
   2  -1  -7  202.88    8.00
   2  -1  -7  202.78    8.10
   2  -1  -7  177.08    7.90
   2  -1  -7  198.38    7.20
   2  -1  -7  204.28    8.10
   2  -1  -7  201.08    8.20
  -2   1   7  195.78    7.80
  -2   1   7  195.78    7.80
  -2   1   7  202.98    8.10
  -2   1   7  187.98    8.00
  -2   1   7  194.88    7.20
  -2   1   7  203.08    5.80
   1  -1  -7  187.18    7.20
   1  -1  -7  200.78    7.70
   1  -1  -7  185.98    7.80
   1  -1  -7  176.88    7.30
   1  -1  -7  188.28    7.90
   1  -1  -7  173.78    7.40
  -1   1   7  189.88    7.50
  -1   1   7  178.78    7.50
  -1   1   7  195.98    8.90
  -1   1   7  181.28    4.10
  -1   1   7  180.78    4.20
  -1   1   7  188.28    7.40
   0  -1  -7    2.00    1.20
   0  -1  -7    2.30    1.10
   0  -1  -7    2.00    1.10
   0  -1  -7    3.30    1.30
   0  -1  -7    2.80    1.50
   0  -1  -7    4.90    1.60
   0   1   7    2.30    1.20
   0   1   7    0.80    1.10
   0   1   7    2.80    1.20
   0   1   7    3.90    1.30
   0   1   7    1.30    1.00
   0   1   7    2.70    1.10
  -1  -1  -7  633.54   20.30
  -1  -1  -7  641.84   17.80
  -1  -1  -7  623.74   18.10
  -1  -1  -7  622.04   17.00
  -1  -1  -7  618.64   16.90
  -1  -1  -7  634.94   17.20
   1   1   7  612.04   17.00
   1   1   7  626.14   17.00
   1   1   7  638.74   18.40
   1   1   7  646.94   16.80
   1   1   7  618.14   16.70
  -2  -1  -7   68.19    5.10
  -2  -1  -7   65.09    5.20
  -2  -1  -7   72.49    5.80
  -2  -1  -7   64.89    4.50
   2   1   7   66.39    5.00
   2   1   7   66.29    4.30
   2   1   7   64.89    4.30
   2   1   7   71.89    5.20
   2   1   7   69.89    4.50
  -3  -1  -7   34.30    4.60
  -3  -1  -7   28.80    3.60
  -3  -1  -7   31.90    4.00
  -3  -1  -7   32.70    2.20
  -3  -1  -7   32.10    4.20
  -3  -1  -7   26.90    3.50
  -3  -1  -7   32.80    4.60
   3   1   7   32.90    3.40
   3   1   7   34.50    3.20
   3   1   7   35.20    4.80
   3   1   7   29.00    3.10
   3   1   7   33.00    4.50
  -4  -1  -7  118.09    7.60
  -4  -1  -7  119.49    5.20
  -4  -1  -7  131.79    7.50
  -4  -1  -7  130.19    6.90
  -4  -1  -7  128.89    7.10
  -4  -1  -7  132.09    7.30
   4   1   7  127.09    6.40
   4   1   7  120.39    6.80
   4   1   7  119.89    7.90
   4   1   7  124.39    6.20
  -5  -1  -7    1.60    1.50
  -5  -1  -7    3.10    1.70
  -5  -1  -7    4.60    1.60
  -5  -1  -7    4.00    2.40
  -5  -1  -7    3.90    1.90
  -5  -1  -7    5.10    2.80
   5   1   7    4.90    3.00
   5   1   7    1.80    2.00
   5   1   7    1.10    2.60
  -6  -1  -7    7.40    2.60
  -6  -1  -7    5.40    2.10
  -6  -1  -7    7.20    2.90
  -6  -1  -7    6.80    2.70
  -6  -1  -7    4.30    2.70
  -6  -1  -7   12.10    3.40
   6   1   7   11.70    3.90
   9  -2  -7  169.38   11.40
   9  -2  -7  205.18   11.80
   9  -2  -7  159.08   10.00
   9  -2  -7  180.38    8.00
   9  -2  -7  166.38   10.30
  -9   2   7  150.98    9.40
  -9   2   7  183.18   10.10
  -9   2   7  156.98   10.30
  -9   2   7  176.38   10.00
  -9   2   7  167.98   10.80
   8  -2  -7   58.39    7.30
   8  -2  -7   64.49    6.00
   8  -2  -7   58.09    6.20
   8  -2  -7   65.79    6.00
   8  -2  -7   62.99    5.80
   8  -2  -7   51.79    6.30
  -8   2   7   63.29    6.20
  -8   2   7   62.59    5.90
  -8   2   7   53.39    5.20
  -8   2   7   70.09    5.80
  -8   2   7   49.80    5.30
  -8   2   7   67.79    5.70
   7  -2  -7  105.19    7.20
   7  -2  -7   97.89    6.90
   7  -2  -7   91.09    6.50
   7  -2  -7  100.69    7.40
  -7   2   7  115.69    7.40
  -7   2   7   97.59    7.00
  -7   2   7   98.79    6.80
  -7   2   7  108.09    6.60
  -7   2   7   91.99    7.30
   6  -2  -7  613.44   19.10
   6  -2  -7  645.64   19.80
   6  -2  -7  648.44   19.90
   6  -2  -7  644.44   20.30
  -6   2   7  632.84   19.80
  -6   2   7  670.43   19.90
  -6   2   7  599.74   18.80
  -6   2   7  656.53   20.60
  -6   2   7  662.53   18.70
  -6   2   7  651.93   18.90
   5  -2  -7  517.45   15.00
   5  -2  -7  498.15   16.00
   5  -2  -7  465.85   18.10
   5  -2  -7  518.95   16.50
   5  -2  -7  526.65   17.00
   5  -2  -7  518.85   14.60
  -5   2   7  517.95   16.10
  -5   2   7  524.85   15.40
  -5   2   7  542.25   16.90
  -5   2   7  516.25   16.50
  -5   2   7  521.05   15.30
  -5   2   7  508.95   16.90
   4  -2  -7  160.38    7.90
   4  -2  -7  158.98    8.00
   4  -2  -7  149.19    6.60
   4  -2  -7  151.28    6.80
   4  -2  -7  160.08    7.70
   4  -2  -7  155.48    7.60
  -4   2   7  150.08    7.90
  -4   2   7  159.38    6.60
  -4   2   7  155.78    7.70
  -4   2   7  144.79    7.20
  -4   2   7  159.58    7.00
   3  -2  -7    0.30    1.00
   3  -2  -7    0.60    1.10
   3  -2  -7   -0.40    0.90
   3  -2  -7    1.70    1.30
   3  -2  -7   -0.50    0.90
   3  -2  -7   -0.10    0.90
  -3   2   7    0.40    1.40
  -3   2   7    1.50    1.00
  -3   2   7    0.70    1.00
  -3   2   7    0.30    1.20
  -3   2   7   -0.40    1.20
   2  -2  -7   10.60    2.10
   2  -2  -7   16.10    2.80
   2  -2  -7   10.50    2.20
   2  -2  -7   11.30    2.20
   2  -2  -7   10.30    2.30
   2  -2  -7   16.80    2.80
  -2   2   7   12.90    2.40
  -2   2   7   11.80    2.20
  -2   2   7   13.10    2.60
  -2   2   7    8.50    2.00
   1  -2  -7   99.19    5.70
   1  -2  -7  101.49    5.60
   1  -2  -7  104.29    5.90
   1  -2  -7  109.69    5.80
   1  -2  -7   95.89    5.40
   1  -2  -7   97.19    5.50
  -1   2   7  106.39    5.80
  -1   2   7   98.09    5.50
  -1   2   7   91.89    3.20
  -1   2   7   99.89    5.50
  -1   2   7   95.29    5.70
  -1   2   7   89.99    5.40
   0  -2  -7    2.10    1.50
   0  -2  -7    2.90    1.50
   0  -2  -7    3.10    1.40
   0  -2  -7    3.80    1.50
   0  -2  -7    4.90    1.80
   0   2   7    5.20    1.90
   0   2   7    5.70    1.70
   0   2   7    7.80    1.90
   0   2   7    4.70    1.60
   0   2   7    5.30    1.60
   0   2   7    4.80    1.60
  -1  -2  -7  191.58    9.50
  -1  -2  -7  177.68    8.40
  -1  -2  -7  181.68    8.60
  -1  -2  -7  179.78    8.00
  -1  -2  -7  186.78    8.30
  -1  -2  -7  186.68    8.50
   1   2   7  172.98    7.60
   1   2   7  195.28    8.90
   1   2   7  181.88    7.90
   1   2   7  188.18    8.20
   1   2   7  190.98    8.30
   1   2   7  186.48    8.10
  -2  -2  -7   74.49    5.70
  -2  -2  -7   69.49    2.80
  -2  -2  -7   67.49    5.30
  -2  -2  -7   59.19    5.50
  -2  -2  -7   75.39    5.50
   2   2   7   69.29    4.60
   2   2   7   70.39    5.30
   2   2   7   63.99    5.30
   2   2   7   59.39    4.60
   2   2   7   63.89    4.60
  -3  -2  -7    2.70    1.40
  -3  -2  -7    3.20    2.20
  -3  -2  -7    6.50    2.30
  -3  -2  -7    5.70    1.70
  -3  -2  -7    5.80    1.20
  -3  -2  -7    6.00    2.70
  -3  -2  -7    4.40    2.30
   3   2   7    6.20    1.90
   3   2   7    2.60    2.00
   3   2   7    1.70    1.70
  -4  -2  -7   19.00    3.20
  -4  -2  -7   22.40    4.20
  -4  -2  -7   20.20    4.10
  -4  -2  -7   13.60    3.00
  -4  -2  -7   14.60    3.10
  -4  -2  -7   19.90    2.60
  -4  -2  -7   19.10    3.60
   4   2   7   22.30    4.50
   4   2   7   17.00    3.10
   4   2   7   13.40    3.40
   4   2   7   20.90    3.60
   4   2   7   13.10    3.00
   4   2   7   19.90    3.80
  -5  -2  -7   56.59    6.80
  -5  -2  -7   32.40    6.20
  -5  -2  -7   50.79    6.10
  -5  -2  -7   49.70    5.10
  -5  -2  -7   46.80    4.20
  -5  -2  -7   50.29    5.00
   5   2   7   54.89    4.90
   5   2   7   50.49    7.10
   9  -3  -7   32.70    5.80
   9  -3  -7   39.00    3.40
   9  -3  -7   29.60    5.00
  -9   3   7   30.80    5.30
  -9   3   7   32.70    5.40
  -9   3   7   32.20    4.90
  -9   3   7   35.40    5.50
  -9   3   7   32.70    5.60
   8  -3  -7  118.99    8.40
   8  -3  -7  108.29    5.50
   8  -3  -7  105.99    7.60
   8  -3  -7  118.89    8.30
   8  -3  -7  106.29    5.40
  -8   3   7  118.19    7.80
  -8   3   7  103.09    7.10
  -8   3   7  104.29    7.60
  -8   3   7  110.49    8.00
  -8   3   7  115.99    8.50
  -8   3   7  115.99    7.70
   7  -3  -7    0.80    1.20
   7  -3  -7    1.10    1.80
   7  -3  -7   -0.10    1.90
   7  -3  -7    0.10    1.90
   7  -3  -7   -1.80    1.50
  -7   3   7    0.30    1.30
  -7   3   7    2.20    1.50
  -7   3   7    0.20    1.90
  -7   3   7   -0.90    1.20
  -7   3   7    2.10    2.20
  -7   3   7    3.50    2.50
   6  -3  -7   -0.20    0.90
   6  -3  -7   -0.70    0.90
   6  -3  -7    2.70    1.60
   6  -3  -7    1.40    1.90
   6  -3  -7    1.80    1.40
   6  -3  -7    1.60    1.70
  -6   3   7    1.10    1.50
  -6   3   7    1.30    1.80
  -6   3   7   -1.60    1.20
  -6   3   7    0.30    1.00
  -6   3   7    0.60    1.50
  -6   3   7    1.40    1.90
   5  -3  -7   94.39    6.60
   5  -3  -7  104.39    5.30
   5  -3  -7   96.29    6.40
   5  -3  -7   95.59    6.30
   5  -3  -7   99.29    5.90
  -5   3   7   97.49    6.20
  -5   3   7   98.99    6.10
  -5   3   7  110.89    6.90
  -5   3   7  100.29    6.80
  -5   3   7   98.89    6.40
   4  -3  -7   78.69    5.50
   4  -3  -7   86.49    6.10
   4  -3  -7   94.79    6.10
   4  -3  -7   86.19    4.80
   4  -3  -7   90.79    6.00
  -4   3   7   90.29    6.20
  -4   3   7   73.39    5.60
  -4   3   7   86.39    5.80
  -4   3   7   88.59    5.40
  -4   3   7   79.09    5.40
   3  -3  -7   -0.90    1.00
   3  -3  -7   -0.60    1.20
   3  -3  -7   -0.70    0.80
   3  -3  -7    0.10    0.80
   3  -3  -7   -0.70    0.70
   3  -3  -7    0.50    1.30
  -3   3   7   -0.60    0.80
  -3   3   7    0.70    1.30
  -3   3   7   -0.30    1.00
  -3   3   7   -0.50    1.00
  -3   3   7    0.90    1.00
   2  -3  -7  508.05   15.10
   2  -3  -7  530.85   16.10
   2  -3  -7  537.75   16.40
   2  -3  -7  513.45   16.40
   2  -3  -7  549.05   17.80
   2  -3  -7  527.65   16.10
  -2   3   7  574.54   16.70
  -2   3   7  519.05   15.80
  -2   3   7  536.15   15.90
  -2   3   7  504.45   16.10
  -2   3   7  514.75   16.30
   1  -3  -7  252.07   10.40
   1  -3  -7  268.67   10.50
   1  -3  -7  267.47   10.00
   1  -3  -7  266.57   10.30
   1  -3  -7  251.27   10.00
   1  -3  -7  242.28    9.90
  -1   3   7  276.57   10.50
  -1   3   7  254.27   10.00
  -1   3   7  264.87   10.20
  -1   3   7  245.68   10.10
  -1   3   7  244.78    7.20
  -1   3   7  257.37    9.90
  -1   3   7  257.87   10.40
   0  -3  -7  147.09    7.90
   0  -3  -7  146.89    7.40
   0  -3  -7  148.29    7.70
   0  -3  -7  143.29    7.30
   0  -3  -7  152.88    7.60
   0  -3  -7  149.09    7.60
   0   3   7  147.79    7.20
   0   3   7  143.69    7.40
   0   3   7  146.49    4.50
   0   3   7  138.69    7.30
   0   3   7  142.49    7.30
   0   3   7  145.49    8.50
  -1  -3  -7  360.66   13.20
  -1  -3  -7  355.36   12.60
  -1  -3  -7  344.57   12.70
  -1  -3  -7  348.97   13.20
  -1  -3  -7  353.66   12.80
  -1  -3  -7  351.66   13.30
   1   3   7  351.76    8.60
   1   3   7  359.36   12.90
   1   3   7  352.76   12.50
   1   3   7  371.26   12.40
   1   3   7  351.86   12.60
   1   3   7  310.57   12.50
   1   3   7  354.06   12.80
  -2  -3  -7    1.40    1.70
  -2  -3  -7   -0.50    1.40
  -2  -3  -7    2.00    1.70
  -2  -3  -7    2.20    1.80
  -2  -3  -7    0.80    1.80
   2   3   7    0.90    1.60
   2   3   7    1.80    1.90
   2   3   7   -0.10    1.50
   2   3   7    0.40    1.50
  -3  -3  -7   91.79    6.70
  -3  -3  -7   92.59    6.40
  -3  -3  -7   92.89    6.90
  -3  -3  -7   93.69    6.60
  -3  -3  -7   87.89    6.40
  -3  -3  -7   85.29    4.50
  -3  -3  -7   78.69    6.40
   3   3   7   86.69    5.90
   3   3   7   78.89    6.60
   3   3   7   91.59    6.10
   3   3   7  103.79    7.40
   3   3   7   90.19    6.30
  -4  -3  -7   32.10    5.00
  -4  -3  -7   24.40    4.30
  -4  -3  -7   21.00    2.80
  -4  -3  -7   28.20    4.50
  -4  -3  -7   30.50    4.50
  -4  -3  -7   16.90    3.60
   4   3   7   27.70    4.00
   4   3   7   31.70    4.40
   4   3   7   27.90    5.10
  -5  -3  -7  127.49    9.20
  -5  -3  -7  144.79    9.00
  -5  -3  -7  149.49    7.20
  -5  -3  -7  175.48    9.80
   5   3   7  139.09    9.90
   5   3   7  160.78   10.20
   9  -4  -7   23.20    4.70
   9  -4  -7   16.50    2.00
   9  -4  -7   23.60    5.10
  -9   4   7   11.90    3.40
  -9   4   7   16.10    4.10
  -9   4   7   19.30    4.20
  -9   4   7   21.40    4.00
  -9   4   7   19.70    4.80
   8  -4  -7   31.30    2.60
   8  -4  -7   25.30    4.40
   8  -4  -7   25.70    4.70
   8  -4  -7   30.20    5.40
   8  -4  -7   31.60    2.80
   8  -4  -7   31.70    5.30
  -8   4   7   20.30    3.90
  -8   4   7   31.30    5.00
  -8   4   7   37.30    5.30
  -8   4   7   33.40    5.50
  -8   4   7   32.50    5.00
   7  -4  -7    7.70    2.30
   7  -4  -7    9.20    2.70
   7  -4  -7   10.20    2.90
   7  -4  -7    8.10    1.60
   7  -4  -7   15.90    3.80
  -7   4   7    9.70    2.70
  -7   4   7    7.30    2.80
  -7   4   7    8.60    2.80
  -7   4   7    7.40    2.60
  -7   4   7    9.90    3.00
   6  -4  -7  106.09    7.10
   6  -4  -7  101.79    5.00
   6  -4  -7   96.79    6.90
   6  -4  -7  104.49    7.40
   6  -4  -7  113.89    7.20
   6  -4  -7  110.79    6.90
  -6   4   7  118.59    7.30
  -6   4   7  104.09    7.30
  -6   4   7  114.29    7.20
  -6   4   7  113.59    7.60
  -6   4   7  112.69    7.50
   5  -4  -7  337.87   13.30
   5  -4  -7  319.17   12.30
   5  -4  -7  335.77   12.90
   5  -4  -7  338.47   10.50
   5  -4  -7  340.87   13.40
   5  -4  -7  353.46   13.30
  -5   4   7  324.07   12.50
  -5   4   7  347.17   13.30
  -5   4   7  335.07   13.20
  -5   4   7  342.97   13.00
  -5   4   7  301.47   13.00
   4  -4  -7    2.50    1.50
   4  -4  -7    4.20    1.90
   4  -4  -7    4.70    1.40
   4  -4  -7    4.20    2.00
   4  -4  -7    2.20    1.70
   4  -4  -7    2.30    1.40
  -4   4   7    4.80    1.90
  -4   4   7    3.10    1.40
  -4   4   7    3.80    2.00
  -4   4   7    2.80    1.90
  -4   4   7    3.80    1.40
   3  -4  -7   16.70    3.00
   3  -4  -7   15.60    3.10
   3  -4  -7   13.90    3.00
   3  -4  -7   14.60    3.00
   3  -4  -7   12.00    2.30
  -3   4   7   16.30    3.30
  -3   4   7   12.80    2.90
  -3   4   7   15.00    2.90
  -3   4   7   18.70    3.30
  -3   4   7   18.50    3.40
   2  -4  -7    4.30    2.10
   2  -4  -7    1.80    1.30
   2  -4  -7    5.20    1.80
   2  -4  -7    2.10    1.40
   2  -4  -7    3.10    1.70
   2  -4  -7    0.80    1.50
  -2   4   7    1.90    1.50
  -2   4   7    6.30    1.80
  -2   4   7    3.20    1.60
  -2   4   7    4.00    1.70
  -2   4   7    1.40    1.30
  -2   4   7    1.60    1.10
  -2   4   7    1.70    1.60
   1  -4  -7   37.60    4.00
   1  -4  -7   34.20    3.50
   1  -4  -7   35.00    4.50
   1  -4  -7   33.10    4.20
   1  -4  -7   34.50    4.30
   1  -4  -7   42.10    4.50
  -1   4   7   31.50    4.30
  -1   4   7   40.00    4.00
  -1   4   7   36.40    3.80
  -1   4   7   40.70    3.80
  -1   4   7   36.50    3.80
  -1   4   7   37.80    4.70
   0  -4  -7  134.59    7.50
   0  -4  -7  134.89    7.60
   0  -4  -7  124.29    7.10
   0  -4  -7  124.89    7.30
   0  -4  -7  116.69    7.40
   0  -4  -7  123.79    7.50
   0   4   7  122.19    7.20
   0   4   7  112.39    7.10
   0   4   7  132.29    7.30
   0   4   7  130.59    5.10
   0   4   7  127.19    7.20
  -1  -4  -7  765.32   22.50
  -1  -4  -7  819.22   23.10
  -1  -4  -7  735.33   22.90
  -1  -4  -7  796.32   23.50
   1   4   7  789.02   22.10
   1   4   7  787.32   22.80
   1   4   7  780.22   22.80
   1   4   7  813.22   22.90
   1   4   7  793.32   22.40
   1   4   7  802.22   23.00
  -2  -4  -7    2.10    1.90
  -2  -4  -7   -0.10    1.20
  -2  -4  -7    1.40    1.60
  -2  -4  -7    2.70    2.10
   2   4   7    0.50    1.70
   2   4   7    2.30    1.20
   2   4   7    0.40    1.10
   2   4   7    0.80    1.90
   2   4   7    1.00    1.10
  -3  -4  -7   -0.70    1.80
  -3  -4  -7    2.90    1.70
  -3  -4  -7    0.80    1.10
  -3  -4  -7    1.10    1.60
  -3  -4  -7   -3.50    1.80
  -3  -4  -7   -0.50    1.70
  -3  -4  -7    1.40    2.30
   3   4   7   -0.50    1.60
   3   4   7   -3.00    1.50
   3   4   7   -2.20    1.90
   3   4   7   -2.20    1.60
   3   4   7   -0.40    1.30
   3   4   7    1.20    2.00
  -4  -4  -7   42.70    5.70
  -4  -4  -7   42.30    5.90
  -4  -4  -7   37.90    5.30
  -4  -4  -7   38.30    5.60
  -4  -4  -7   37.70    5.50
   4   4   7   45.40    5.50
   4   4   7   41.30    6.00
   4   4   7   45.90    5.70
   9  -5  -7   -2.90    2.60
   9  -5  -7   -1.40    2.00
  -9   5   7   -0.30    2.70
  -9   5   7    1.40    2.20
  -9   5   7    0.10    2.40
  -9   5   7   -0.80    2.00
   8  -5  -7    3.30    2.30
   8  -5  -7    0.60    0.90
   8  -5  -7    0.40    0.70
   8  -5  -7   -2.20    2.20
  -8   5   7    3.00    2.00
  -8   5   7    5.80    3.30
  -8   5   7    1.90    2.50
  -8   5   7   -0.60    1.30
  -8   5   7    5.10    2.80
   7  -5  -7   17.90    3.80
   7  -5  -7   12.90    3.70
   7  -5  -7   30.00    4.50
   7  -5  -7   16.40    3.70
  -7   5   7   15.50    3.50
  -7   5   7   14.60    3.50
  -7   5   7   15.30    3.50
  -7   5   7   13.40    3.20
  -7   5   7   17.90    3.80
   6  -5  -7  238.28   11.30
   6  -5  -7  231.78    7.70
   6  -5  -7  240.08   11.00
   6  -5  -7  227.38   10.80
   6  -5  -7  212.38   10.90
   6  -5  -7  226.38   11.10
  -6   5   7  251.77   11.30
  -6   5   7  232.88   11.70
  -6   5   7  221.48   11.10
  -6   5   7  222.98   10.90
  -6   5   7  225.68   11.10
   5  -5  -7   30.40    2.70
   5  -5  -7   26.10    4.20
   5  -5  -7   28.40    4.50
   5  -5  -7   32.40    4.60
   5  -5  -7   28.60    4.10
   5  -5  -7   24.00    4.10
  -5   5   7   19.40    3.80
  -5   5   7   27.00    4.70
  -5   5   7   32.80    4.90
  -5   5   7   28.30    4.30
   4  -5  -7   58.69    5.00
   4  -5  -7   59.99    4.10
   4  -5  -7   61.89    5.40
   4  -5  -7   65.79    5.60
   4  -5  -7   63.99    5.40
   4  -5  -7   70.89    5.80
  -4   5   7   53.49    4.90
  -4   5   7   59.89    5.10
  -4   5   7   74.39    6.20
  -4   5   7   65.49    5.70
  -4   5   7   58.99    5.30
   3  -5  -7   42.90    4.30
   3  -5  -7   41.30    5.30
   3  -5  -7   38.90    3.50
   3  -5  -7   38.10    4.80
   3  -5  -7   40.00    4.10
   3  -5  -7   39.80    4.10
  -3   5   7   42.90    6.10
  -3   5   7   41.50    4.10
  -3   5   7   38.00    3.60
  -3   5   7   43.10    4.60
  -3   5   7   46.40    5.50
  -3   5   7   37.40    3.60
  -3   5   7   40.00    4.90
   2  -5  -7   -0.80    0.90
   2  -5  -7   -1.10    1.00
   2  -5  -7   -1.00    1.50
   2  -5  -7   -1.00    1.40
   2  -5  -7    0.80    1.70
   2  -5  -7    2.40    1.60
  -2   5   7    0.50    1.60
  -2   5   7   -1.80    1.10
  -2   5   7   -1.40    1.40
  -2   5   7   -1.20    0.90
  -2   5   7   -0.80    1.10
  -2   5   7   -0.80    1.00
  -2   5   7   -0.20    1.60
   1  -5  -7  135.39    7.90
   1  -5  -7  137.19    7.90
   1  -5  -7  139.99    7.90
   1  -5  -7  130.99    8.00
   1  -5  -7  133.79    7.40
   1  -5  -7  147.59    8.30
  -1   5   7  135.99    7.90
  -1   5   7  139.29    8.30
  -1   5   7  140.39    9.60
  -1   5   7  133.29    6.00
  -1   5   7  137.99    7.90
  -1   5   7  144.99    7.90
  -1   5   7  132.59    7.40
   0  -5  -7    9.90    2.60
   0  -5  -7    6.20    2.20
   0  -5  -7    0.80    2.10
   0  -5  -7    4.50    2.10
   0  -5  -7    4.20    2.10
   0  -5  -7    4.00    1.90
   0   5   7    8.60    2.40
   0   5   7    4.70    2.40
   0   5   7    5.80    1.40
   0   5   7    2.50    1.80
   0   5   7    3.80    2.30
   0   5   7    5.10    2.00
  -1  -5  -7    2.20    2.00
  -1  -5  -7    4.90    2.30
  -1  -5  -7    3.20    1.90
  -1  -5  -7    1.20    2.10
   1   5   7    3.80    1.90
   1   5   7    3.60    1.90
   1   5   7    3.70    1.90
   1   5   7    1.50    1.70
   1   5   7    3.80    1.40
   1   5   7    5.90    2.30
  -2  -5  -7    6.80    2.50
  -2  -5  -7    8.30    3.00
  -2  -5  -7    8.40    2.40
  -2  -5  -7    7.80    3.40
  -2  -5  -7    8.20    3.10
  -2  -5  -7    4.10    2.40
   2   5   7    6.30    2.30
   2   5   7    9.70    2.90
   2   5   7    7.80    2.50
   2   5   7    6.30    2.70
   2   5   7    7.10    1.80
   2   5   7   11.60    2.90
   2   5   7    6.30    2.80
  -3  -5  -7   51.19    6.80
  -3  -5  -7   64.59    6.30
  -3  -5  -7   60.69    6.20
  -3  -5  -7   59.19    5.80
  -3  -5  -7   57.49    5.10
  -3  -5  -7   51.39    6.50
   3   5   7   39.50    5.30
   3   5   7   70.19    6.00
   3   5   7   47.20    6.40
   3   5   7   56.39    4.20
  -4  -5  -7   13.90    2.90
  -4  -5  -7   16.00    4.50
  -4  -5  -7   16.30    4.00
  -4  -5  -7    4.90    4.10
  -4  -5  -7   13.70    3.60
  -4  -5  -7   12.20    3.60
   4   5   7   18.30    4.00
   4   5   7   11.40    3.30
   4   5   7   14.00    4.20
   8  -6  -7   76.19    7.10
   8  -6  -7   64.49    6.90
  -8   6   7   68.99    6.60
  -8   6   7   75.79    6.90
  -8   6   7   70.19    6.80
  -8   6   7   74.89    7.00
  -8   6   7   79.39    7.50
   7  -6  -7   64.29    3.00
   7  -6  -7   56.49    5.70
   7  -6  -7   62.29    7.30
   7  -6  -7   60.89    6.00
   7  -6  -7   68.09    6.40
  -7   6   7   63.79    6.70
  -7   6   7   72.59    6.50
  -7   6   7   56.69    7.00
  -7   6   7   64.89    6.20
  -7   6   7   73.69    6.20
   6  -6  -7  183.68   10.30
   6  -6  -7  194.58   10.20
   6  -6  -7  179.08   10.10
   6  -6  -7  177.88    6.50
   6  -6  -7  168.68    9.60
   6  -6  -7  191.68   10.40
  -6   6   7  171.48   10.10
  -6   6   7  165.08   10.00
  -6   6   7  171.18    9.60
  -6   6   7  171.38   10.00
  -6   6   7  183.88   10.00
   5  -6  -7   -0.80    1.90
   5  -6  -7    5.30    2.20
   5  -6  -7    0.60    1.60
   5  -6  -7    5.00    1.50
   5  -6  -7    5.10    2.20
   5  -6  -7    2.30    1.50
  -5   6   7   -0.80    2.20
  -5   6   7    3.00    2.00
  -5   6   7    1.60    2.10
  -5   6   7    2.60    2.30
  -5   6   7    5.10    2.70
   4  -6  -7   13.80    3.30
   4  -6  -7   15.00    3.40
   4  -6  -7    6.20    2.20
   4  -6  -7   11.20    2.90
   4  -6  -7   13.50    3.20
   4  -6  -7    9.60    2.30
  -4   6   7   17.20    3.90
  -4   6   7   12.30    3.00
  -4   6   7   13.10    2.90
  -4   6   7    9.50    2.90
   3  -6  -7    0.40    1.90
   3  -6  -7    1.60    1.20
   3  -6  -7    0.80    1.30
   3  -6  -7   -0.20    1.60
   3  -6  -7    1.70    1.70
   3  -6  -7    2.40    1.60
  -3   6   7    3.10    2.30
  -3   6   7    0.30    1.50
  -3   6   7    1.50    1.50
  -3   6   7    1.50    1.90
  -3   6   7    1.10    1.50
  -3   6   7   -1.70    1.20
  -3   6   7   -0.90    1.10
   2  -6  -7   98.89    6.90
   2  -6  -7  101.79    6.30
   2  -6  -7   90.39    6.80
   2  -6  -7   89.49    6.60
   2  -6  -7  106.69    7.30
   2  -6  -7   73.09    6.20
  -2   6   7   83.79    6.50
  -2   6   7   89.79    5.70
  -2   6   7   95.19    7.00
  -2   6   7   92.99    6.10
  -2   6   7   89.49    6.60
  -2   6   7   84.19    6.50
  -2   6   7   99.09    7.00
   1  -6  -7   39.60    5.50
   1  -6  -7   39.50    5.00
   1  -6  -7   45.60    5.70
   1  -6  -7   46.50    6.20
   1  -6  -7   42.00    5.70
   1  -6  -7   42.80    5.50
  -1   6   7   35.60    3.50
  -1   6   7   37.20    5.20
  -1   6   7   38.30    5.10
  -1   6   7   41.20    5.50
  -1   6   7   41.20    5.50
  -1   6   7   42.50    5.20
  -1   6   7   41.50    5.40
   0  -6  -7  369.66   14.80
   0  -6  -7  377.96   15.60
   0  -6  -7  368.66   14.30
   0  -6  -7  368.96   14.70
   0  -6  -7  356.56   14.60
   0  -6  -7  341.37   14.70
   0   6   7  357.36   11.70
   0   6   7  336.77   14.30
   0   6   7  363.36   14.30
   0   6   7  365.26   14.60
   0   6   7  359.96   15.00
   0   6   7  344.57   14.10
  -1  -6  -7  807.12   24.50
  -1  -6  -7  787.92   25.40
  -1  -6  -7  751.12   24.20
  -1  -6  -7  782.02   25.10
  -1  -6  -7  780.62   24.20
   1   6   7  787.72   24.90
   1   6   7  784.02   24.10
   1   6   7  803.32   20.20
   1   6   7  799.42   23.70
   1   6   7  729.03   26.50
   1   6   7  795.52   24.20
   1   6   7  766.82   24.40
  -2  -6  -7   18.20    4.10
  -2  -6  -7   27.30    4.60
  -2  -6  -7   28.90    5.60
  -2  -6  -7   20.30    4.10
  -2  -6  -7   27.40    4.60
   2   6   7   29.10    3.50
   2   6   7   25.60    4.20
   2   6   7   31.20    4.90
   2   6   7   23.30    4.70
   2   6   7   23.30    4.60
  -3  -6  -7   28.70    5.70
  -3  -6  -7   45.10    6.50
  -3  -6  -7   39.40    5.70
  -3  -6  -7   49.20    6.40
  -3  -6  -7   35.20    5.60
   3   6   7   41.30    6.40
   3   6   7   41.90    5.70
   3   6   7   37.40    5.50
   3   6   7   39.90    4.10
   8  -7  -7  167.18   10.80
   8  -7  -7  157.78   10.20
  -8   7   7  161.08   10.50
  -8   7   7  154.98   11.30
  -8   7   7  163.08   10.80
  -8   7   7  162.48   10.70
  -8   7   7  164.08   11.00
   7  -7  -7  189.38   11.10
   7  -7  -7  182.58   10.70
  -7   7   7  215.58   11.70
  -7   7   7  182.48   11.20
  -7   7   7  184.48   11.00
  -7   7   7  177.88   10.90
  -7   7   7  181.98   10.60
   6  -7  -7  144.59    9.20
   6  -7  -7  138.59    5.60
   6  -7  -7  148.39    9.50
   6  -7  -7  131.09    8.70
  -6   7   7  134.29    9.30
  -6   7   7  144.49    9.50
  -6   7   7  152.58    9.50
  -6   7   7  144.29   10.50
  -6   7   7  136.29    9.20
   5  -7  -7    3.60    2.70
   5  -7  -7    4.80    2.90
   5  -7  -7    4.30    2.20
   5  -7  -7    3.30    1.40
   5  -7  -7    6.10    2.40
  -5   7   7    2.20    2.10
  -5   7   7    6.00    2.80
  -5   7   7    0.00    1.60
  -5   7   7    3.90    2.90
  -5   7   7    3.60    2.50
   4  -7  -7    2.00    2.50
   4  -7  -7   -1.40    1.30
   4  -7  -7   -2.70    2.10
   4  -7  -7    2.40    1.60
   4  -7  -7   -2.90    1.90
  -4   7   7    1.30    2.40
  -4   7   7   -0.30    2.20
  -4   7   7   -2.50    1.90
  -4   7   7    0.80    1.50
  -4   7   7    3.50    2.00
   3  -7  -7    0.40    1.30
   3  -7  -7   -0.90    1.90
   3  -7  -7    1.00    1.50
   3  -7  -7   -1.50    2.20
   3  -7  -7    1.00    2.30
   3  -7  -7   -1.10    1.70
  -3   7   7    1.00    2.20
  -3   7   7    0.20    2.30
  -3   7   7   -0.60    1.50
  -3   7   7   -2.60    1.10
  -3   7   7    1.20    1.80
  -3   7   7   -2.30    1.10
  -3   7   7   -0.10    1.60
   2  -7  -7   10.00    3.10
   2  -7  -7    9.10    2.50
   2  -7  -7    1.40    2.50
   2  -7  -7    9.60    2.80
   2  -7  -7    6.50    2.60
   2  -7  -7    4.50    2.50
  -2   7   7    8.50    2.70
  -2   7   7   10.20    2.40
  -2   7   7    2.90    1.50
  -2   7   7    5.50    2.60
  -2   7   7    6.60    2.50
  -2   7   7    9.30    3.50
  -2   7   7    7.00    2.60
   1  -7  -7  180.88   10.10
   1  -7  -7  188.58   10.50
   1  -7  -7  198.38   10.80
   1  -7  -7  179.48   10.50
   1  -7  -7  187.48    9.80
   1  -7  -7  202.68   11.60
  -1   7   7  198.48   10.20
  -1   7   7  188.68   10.30
  -1   7   7  200.18   11.00
  -1   7   7  193.98   10.90
  -1   7   7  199.18    9.00
  -1   7   7  204.98   11.30
   0  -7  -7  311.97   14.70
   0  -7  -7  314.17   14.10
   0  -7  -7  306.07   14.10
   0  -7  -7  313.57   13.60
   0   7   7  317.57   13.60
   0   7   7  294.17   13.20
   0   7   7  291.67   14.30
   0   7   7  315.47   11.60
   0   7   7  287.37   13.70
  -1  -7  -7    1.80    2.50
  -1  -7  -7    1.60    1.90
  -1  -7  -7    2.40    3.10
  -1  -7  -7   -2.50    2.00
  -1  -7  -7   -0.50    1.90
   1   7   7    0.60    2.00
   1   7   7   -1.20    1.40
   1   7   7    3.40    2.10
   1   7   7    1.10    1.80
   1   7   7   -3.50    2.30
  -2  -7  -7   16.90    4.20
  -2  -7  -7   27.50    4.60
  -2  -7  -7   32.10    5.90
  -2  -7  -7   16.90    4.50
  -2  -7  -7   11.10    3.60
   2   7   7   24.10    4.60
   2   7   7   21.90    3.40
   2   7   7   31.40    5.60
   2   7   7   17.10    4.40
   7  -8  -7   35.60    5.70
   7  -8  -7   42.80    6.20
  -7   8   7   52.29    7.20
  -7   8   7   41.70    6.50
  -7   8   7   22.70    5.30
  -7   8   7   47.80    6.40
   6  -8  -7    0.40    1.30
   6  -8  -7    2.60    3.30
   6  -8  -7    2.10    2.60
  -6   8   7   -0.80    2.40
  -6   8   7   -1.10    2.50
  -6   8   7    5.50    3.30
  -6   8   7    3.10    2.90
  -6   8   7    5.30    2.80
   5  -8  -7    3.90    3.30
   5  -8  -7    3.50    2.40
   5  -8  -7    6.50    3.00
   5  -8  -7    4.60    1.90
  -5   8   7    5.10    2.70
  -5   8   7    3.60    3.10
  -5   8   7    7.10    2.90
  -5   8   7    2.80    1.90
  -5   8   7    7.50    3.10
  -5   8   7    4.30    2.60
   4  -8  -7    3.10    2.20
   4  -8  -7    4.90    2.70
   4  -8  -7    5.10    2.00
   4  -8  -7    5.10    2.60
  -4   8   7    2.60    2.20
  -4   8   7    9.80    3.10
  -4   8   7    6.30    2.80
  -4   8   7    7.10    2.40
  -4   8   7    3.50    1.90
  -4   8   7    7.30    2.40
  -4   8   7    4.60    2.40
   3  -8  -7    8.70    3.30
   3  -8  -7   11.10    3.30
   3  -8  -7    5.10    2.80
   3  -8  -7    7.90    3.00
  -3   8   7    9.90    3.50
  -3   8   7    6.90    2.30
  -3   8   7    8.10    3.20
  -3   8   7   11.70    3.20
  -3   8   7    6.30    2.10
  -3   8   7    7.40    2.50
  -3   8   7    9.30    2.90
   2  -8  -7   98.29    7.80
   2  -8  -7   76.99    7.20
   2  -8  -7   81.89    6.40
   2  -8  -7   77.69    6.80
  -2   8   7   98.39    7.40
  -2   8   7   86.19    6.30
  -2   8   7   95.69    7.90
  -2   8   7   95.29    7.00
  -2   8   7   98.19    8.00
  -2   8   7   92.09    8.20
  -2   8   7   92.59    7.80
   1  -8  -7   53.09    6.90
   1  -8  -7   56.19    7.30
   1  -8  -7   59.89    5.90
   1  -8  -7   45.20    7.70
  -1   8   7   59.19    6.00
  -1   8   7   56.49    7.20
  -1   8   7   52.99    5.20
  -1   8   7   56.69    7.30
  -1   8   7   54.59    6.90
  -1   8   7   58.59    5.90
  -1   8   7   49.00    6.80
   0  -8  -7   27.60    4.80
   0  -8  -7   33.70    6.00
   0  -8  -7   39.40    6.40
   0   8   7   40.90    6.00
   0   8   7   22.20    4.60
   0   8   7   37.30    6.00
   0   8   7   28.00    4.20
  -1  -8  -7   41.00    6.50
  -1  -8  -7   34.90    6.00
  -1  -8  -7   46.40    6.70
  -1  -8  -7   29.90    5.50
   1   8   7   41.20    5.80
   1   8   7   35.50    6.10
   1   8   7   55.69    5.00
   1   8   7   47.90    6.70
   6  -9  -7   94.39    8.20
   6  -9  -7   98.39    8.00
  -6   9   7  102.49    8.60
  -6   9   7   97.19    8.60
  -6   9   7  105.09    8.90
  -6   9   7  105.19   10.20
  -6   9   7   83.19    7.80
  -6   9   7   80.19   10.60
   5  -9  -7   27.30    5.00
   5  -9  -7   31.50    3.80
   5  -9  -7   29.40    5.20
  -5   9   7   38.20    5.80
  -5   9   7   32.80    5.90
  -5   9   7   33.40    5.90
  -5   9   7   30.60    5.50
  -5   9   7   38.30    6.00
   4  -9  -7    8.90    3.50
   4  -9  -7    8.10    2.30
   4  -9  -7   11.60    3.80
  -4   9   7    9.10    2.90
  -4   9   7   17.20    4.30
  -4   9   7   15.20    4.40
  -4   9   7    6.30    3.00
  -4   9   7   11.00    3.20
  -4   9   7   10.00    3.40
  -4   9   7   12.30    4.00
   3  -9  -7   -1.40    2.00
   3  -9  -7    3.70    3.10
   3  -9  -7    1.00    2.10
  -3   9   7    0.20    2.80
  -3   9   7   -0.50    2.00
  -3   9   7   -2.00    1.90
  -3   9   7   -3.90    2.20
  -3   9   7   -1.80    3.20
  -3   9   7   -2.30    1.70
   2  -9  -7    1.80    2.30
   2  -9  -7   -0.40    2.60
   2  -9  -7   -0.90    2.60
  -2   9   7    0.80    2.20
  -2   9   7    2.70    2.30
  -2   9   7    4.90    4.00
  -2   9   7   -2.00    2.40
  -2   9   7    1.60    2.40
  -2   9   7    1.20    2.70
  -2   9   7    0.40    2.30
   1  -9  -7   46.60    6.00
  -1   9   7   68.79    7.30
  -1   9   7   48.00    7.20
  -1   9   7   53.19    6.90
  -1   9   7   55.49    5.50
  -1   9   7   44.30    6.50
   1  10  -8    1.10    2.60
   1  10  -8    2.80    2.40
   1  10  -8   -1.40    1.70
   1  10  -8    3.10    1.70
   1  10  -8    3.30    2.10
  -1 -10   8    0.00    2.10
  -1 -10   8    6.70    4.30
  -1 -10   8   -0.40    2.10
   0  10  -8   19.00    2.70
   0  10  -8   24.70    3.20
   0  10  -8   12.80    2.10
   0  10  -8   20.00    3.60
   0 -10   8   15.50    5.60
  -1  10  -8   -0.60    2.00
  -1  10  -8    0.70    1.20
  -1  10  -8    1.40    1.60
  -1  10  -8   -1.40    1.20
  -1  10  -8    3.20    2.80
   1 -10   8    2.90    3.10
   3   9  -8   15.40    2.10
   3   9  -8   10.40    3.00
   3   9  -8   15.50    3.10
  -3  -9   8   14.70    4.80
   2   9  -8    5.70    2.90
   2   9  -8    5.60    1.50
   2   9  -8    7.30    2.60
  -2  -9   8    7.90    2.20
  -2  -9   8   15.30    5.30
  -2  -9   8    7.00    2.50
   1   9  -8    6.20    1.90
   1   9  -8    0.60    1.70
   1   9  -8    5.00    2.10
   1   9  -8    0.60    2.50
  -1  -9   8    6.80    2.00
  -1  -9   8   -1.00    2.80
  -1  -9   8    5.80    2.00
  -1  -9   8    8.50    3.90
   0   9  -8   -0.60    1.10
   0   9  -8    0.70    2.00
   0   9  -8    0.90    1.10
   0   9  -8    2.30    1.40
   0   9  -8   -1.20    1.20
   0   9  -8    1.00    1.30
   0  -9   8    0.00    2.50
  -1   9  -8   -0.30    0.90
  -1   9  -8   -0.10    0.90
  -1   9  -8   -0.70    1.40
  -1   9  -8   -0.80    1.00
  -1   9  -8   -1.40    1.80
  -1   9  -8   -1.90    0.70
   1  -9   8    0.30    1.70
  -2   9  -8   76.39    5.40
  -2   9  -8   64.49    6.10
   2  -9   8   93.49    8.90
  -3   9  -8   95.89    7.60
  -3   9  -8   98.99    7.10
  -3   9  -8   94.99    6.70
   3  -9   8   88.39    8.80
   5   8  -8    2.10    2.20
   5   8  -8    1.80    2.30
   5   8  -8   -0.80    1.40
   5   8  -8    2.80    2.10
   5   8  -8   -0.40    2.50
   5   8  -8    2.70    3.20
  -5  -8   8    0.90    2.70
  -5  -8   8    0.20    2.40
  -5  -8   8   -1.50    2.70
   4   8  -8   43.00    6.00
   4   8  -8   25.90    4.60
   4   8  -8   33.70    5.30
   4   8  -8   52.59    5.00
  -4  -8   8   40.10    5.60
  -4  -8   8   36.70    7.30
   3   8  -8   28.80    4.60
   3   8  -8   22.90    3.70
   3   8  -8   27.00    4.30
   3   8  -8   26.40    4.00
   3   8  -8   24.60    3.70
   3   8  -8   26.50    2.20
  -3  -8   8   34.50    6.90
   2   8  -8   15.80    2.10
   2   8  -8   10.80    2.50
   2   8  -8   14.90    2.70
   2   8  -8    8.50    2.40
   2   8  -8   12.70    3.20
   2   8  -8   14.80    2.80
  -2  -8   8   14.30    3.70
  -2  -8   8   15.60    5.30
  -2  -8   8   15.70    2.60
  -2  -8   8   14.70    2.80
   1   8  -8    1.90    2.10
   1   8  -8    6.70    1.80
   1   8  -8    6.00    1.80
  -1  -8   8    2.90    1.70
  -1  -8   8    4.90    1.50
  -1  -8   8    7.70    2.80
  -1  -8   8    3.30    1.40
  -1  -8   8    3.50    2.20
   0   8  -8   98.39    5.00
   0   8  -8  107.49    5.20
   0   8  -8  102.09    4.80
   0   8  -8  108.99    5.10
   0   8  -8  101.89    5.00
   0   8  -8  108.89    7.40
   0  -8   8   98.19    9.20
  -1   8  -8   13.10    1.70
  -1   8  -8   11.20    1.40
  -1   8  -8    7.20    2.50
  -1   8  -8   14.70    2.30
  -1   8  -8   11.60    1.40
  -1   8  -8   11.80    1.60
   1  -8   8   12.70    4.10
  -2   8  -8   12.60    2.80
  -2   8  -8   13.20    3.20
  -2   8  -8   14.50    2.60
   2  -8   8   13.00    4.40
  -3   8  -8  225.88   10.10
  -3   8  -8  231.28   11.30
  -3   8  -8  237.58   10.40
   3  -8   8  224.08   13.20
  -4   8  -8   11.50    3.10
  -4   8  -8   11.50    3.20
  -4   8  -8   11.40    3.30
   4  -8   8    9.60    4.00
   6   7  -8   -0.80    1.40
   6   7  -8   -8.10    2.40
   6   7  -8    0.10    2.40
   6   7  -8    0.50    3.00
   6   7  -8    0.20    1.80
  -6  -7   8    0.10    0.80
  -6  -7   8    1.50    2.90
  -6  -7   8   -1.90    2.20
  -6  -7   8   -2.80    2.50
  -6  -7   8   -1.70    1.00
   5   7  -8    4.90    2.60
   5   7  -8   10.00    1.80
   5   7  -8    6.90    3.30
   5   7  -8    6.30    2.20
   5   7  -8    9.00    2.90
   5   7  -8    3.10    2.60
  -5  -7   8    4.30    3.00
  -5  -7   8    5.50    3.10
  -5  -7   8    7.30    2.70
   4   7  -8   15.30    3.30
   4   7  -8   29.10    4.40
   4   7  -8   33.90    5.00
   4   7  -8   21.80    3.90
   4   7  -8   27.40    4.60
  -4  -7   8   27.70    6.00
  -4  -7   8   21.10    3.80
  -4  -7   8   24.70    4.20
  -4  -7   8   26.90    4.30
   3   7  -8    0.20    1.50
   3   7  -8    1.70    1.50
   3   7  -8    0.90    1.40
   3   7  -8    3.30    2.00
   3   7  -8    2.60    0.70
   3   7  -8    2.90    2.10
  -3  -7   8    2.40    1.80
  -3  -7   8    2.90    2.00
  -3  -7   8    1.70    2.60
  -3  -7   8    5.70    1.90
  -3  -7   8    1.70    1.80
  -3  -7   8    4.10    1.90
   2   7  -8    0.30    1.30
   2   7  -8   -2.40    1.30
   2   7  -8    0.30    1.30
   2   7  -8    0.80    0.90
   2   7  -8    3.00    1.50
   2   7  -8   -0.60    0.50
  -2  -7   8    0.30    1.30
  -2  -7   8   -0.10    1.40
  -2  -7   8    1.20    1.80
  -2  -7   8   -0.30    2.20
  -2  -7   8    0.80    1.30
   1   7  -8  108.29    5.30
   1   7  -8  103.69    7.90
   1   7  -8   96.29    5.30
   1   7  -8   99.99    5.40
   1   7  -8   95.59    5.10
  -1  -7   8  102.79    4.80
  -1  -7   8  106.99    8.90
  -1  -7   8  114.39    7.40
  -1  -7   8  101.19    4.70
   0   7  -8   69.89    5.70
   0   7  -8   66.79    3.80
   0   7  -8   69.79    3.30
   0   7  -8   73.49    3.80
   0  -7   8   75.59    7.40
  -1   7  -8   -0.60    0.50
  -1   7  -8    0.10    0.50
  -1   7  -8   -0.50    0.40
  -1   7  -8   -0.10    0.50
  -1   7  -8   -2.50    1.20
  -1   7  -8    0.50    0.90
   1  -7   8   -0.60    1.80
  -2   7  -8   -0.30    1.70
  -2   7  -8    2.60    1.90
  -2   7  -8    0.40    1.40
   2  -7   8    3.10    2.80
  -3   7  -8   47.80    4.40
  -3   7  -8   42.60    4.20
   3  -7   8   43.30    6.70
  -4   7  -8   19.50    3.70
  -4   7  -8   22.60    3.80
  -4   7  -8   23.10    3.90
   4  -7   8   12.60    3.20
   4  -7   8   18.50    4.60
  -5   7  -8  115.79    8.10
  -5   7  -8   89.39    7.10
   5  -7   8   81.29    7.40
   7   6  -8   -1.00    2.50
   7   6  -8    6.80    3.60
   7   6  -8    2.10    1.90
   7   6  -8    4.30    2.80
   7   6  -8    3.10    2.40
   7   6  -8    1.10    2.20
  -7  -6   8    2.20    2.60
  -7  -6   8    3.40    1.70
  -7  -6   8    2.00    3.40
  -7  -6   8   -0.80    1.30
  -7  -6   8    5.30    3.80
   6   6  -8   30.60    5.30
   6   6  -8   29.80    4.60
   6   6  -8   40.90    6.10
   6   6  -8   31.30    4.90
   6   6  -8   28.50    3.00
   6   6  -8   28.20    4.80
  -6  -6   8   23.30    5.40
  -6  -6   8   27.20    5.00
  -6  -6   8   25.80    1.90
  -6  -6   8   26.40    4.40
   5   6  -8   30.40    4.40
   5   6  -8   28.50    4.60
   5   6  -8   29.00    4.30
   5   6  -8   23.20    3.80
   5   6  -8   27.60    4.10
  -5  -6   8   30.50    5.00
  -5  -6   8   31.40    5.00
  -5  -6   8   29.30    5.70
  -5  -6   8   27.70    4.10
   4   6  -8   12.10    2.80
   4   6  -8    9.00    2.70
   4   6  -8   13.90    3.20
   4   6  -8    9.10    0.90
   4   6  -8    9.20    2.30
   4   6  -8   11.30    2.80
  -4  -6   8   14.00    3.10
  -4  -6   8    9.70    2.50
  -4  -6   8    9.90    4.00
  -4  -6   8   11.90    2.80
   3   6  -8    8.60    2.10
   3   6  -8    9.30    2.70
   3   6  -8    9.50    2.50
   3   6  -8   12.90    2.50
   3   6  -8    9.10    2.40
  -3  -6   8    9.10    3.60
  -3  -6   8   12.60    2.50
  -3  -6   8   15.90    2.80
  -3  -6   8   11.10    2.80
   2   6  -8  189.18    7.60
   2   6  -8  164.58    7.50
   2   6  -8  181.58    7.60
   2   6  -8  183.18    8.70
   2   6  -8  177.88    7.70
  -2  -6   8  161.88   10.90
  -2  -6   8  178.48    9.20
  -2  -6   8  181.28    7.10
  -2  -6   8  180.98    7.30
  -2  -6   8  178.08    7.40
   1   6  -8  106.59    5.30
   1   6  -8  118.79    6.70
   1   6  -8  120.59    5.40
   1   6  -8   94.69    3.00
   1   6  -8  106.19    5.00
  -1  -6   8   99.49    8.30
  -1  -6   8  114.99    4.60
  -1  -6   8  112.99    6.90
  -1  -6   8  114.19    4.60
  -1  -6   8  106.69    4.70
   0   6  -8   98.19    6.10
   0   6  -8  107.79    4.60
   0   6  -8  101.29    4.40
   0   6  -8   98.49    3.90
   0   6  -8  102.29    4.20
   0  -6   8  107.59    8.40
  -1   6  -8   42.30    1.60
  -1   6  -8   44.10    1.90
  -1   6  -8   41.80    1.90
  -1   6  -8   41.70    4.10
  -1   6  -8   44.30    1.60
  -1   6  -8   48.00    3.40
   1  -6   8   45.10    6.80
  -2   6  -8   16.50    3.10
  -2   6  -8   16.60    2.80
  -2   6  -8   16.10    2.90
   2  -6   8   12.30    3.60
  -3   6  -8   53.59    4.50
  -3   6  -8   55.99    4.80
  -3   6  -8   54.39    4.60
   3  -6   8   47.00    6.80
   3  -6   8   54.19    5.00
  -4   6  -8   -0.40    1.60
  -4   6  -8    0.00    1.60
  -4   6  -8   -1.00    1.50
   4  -6   8   -1.10    1.90
   4  -6   8    0.20    1.80
  -5   6  -8    1.30    2.40
  -5   6  -8    2.70    2.00
  -5   6  -8    3.60    1.90
   5  -6   8    1.70    2.60
   7   5  -8    0.40    1.40
   7   5  -8   -1.50    2.30
   7   5  -8   -1.20    2.70
   7   5  -8    4.20    2.30
   7   5  -8   -0.30    2.40
   7   5  -8    3.40    1.90
  -7  -5   8   -0.90    1.20
  -7  -5   8   -0.70    2.80
  -7  -5   8   -2.00    1.90
  -7  -5   8   -1.60    2.20
  -7  -5   8   -0.20    1.30
   6   5  -8  104.69    7.30
   6   5  -8   92.99    7.30
   6   5  -8  100.59    7.40
   6   5  -8  110.59    7.80
   6   5  -8  108.69    7.10
  -6  -5   8  102.69    4.00
  -6  -5   8  115.59    7.90
  -6  -5   8  102.29    7.80
  -6  -5   8   98.39    7.50
  -6  -5   8   90.89    6.40
  -6  -5   8  116.39    9.20
   5   5  -8   24.40    3.80
   5   5  -8   22.00    3.60
   5   5  -8   22.50    3.70
   5   5  -8   15.20    3.30
   5   5  -8   21.40    3.70
  -5  -5   8   25.40    3.70
  -5  -5   8   20.50    3.40
  -5  -5   8   17.10    4.30
  -5  -5   8   16.70    3.70
  -5  -5   8   18.50    3.60
   4   5  -8  204.38    9.50
   4   5  -8  228.38   11.70
   4   5  -8  200.48    9.00
   4   5  -8  209.08    9.40
   4   5  -8  210.38    9.30
  -4  -5   8  205.68   11.80
  -4  -5   8  208.48    9.60
  -4  -5   8  204.08    9.20
  -4  -5   8  204.58    8.60
  -4  -5   8  197.78    9.90
   3   5  -8  115.19    6.60
   3   5  -8  108.79    6.20
   3   5  -8  105.99    6.00
   3   5  -8  113.99    6.00
   3   5  -8  111.99    6.30
  -3  -5   8  114.79    5.90
  -3  -5   8  108.69    6.20
  -3  -5   8   92.89    7.80
  -3  -5   8  109.89    6.80
   2   5  -8   10.30    2.40
   2   5  -8    8.60    1.90
   2   5  -8    7.20    1.90
   2   5  -8    7.40    1.70
  -2  -5   8    4.20    2.80
  -2  -5   8    9.30    1.80
  -2  -5   8    7.90    1.70
  -2  -5   8    6.80    1.80
  -2  -5   8    9.70    1.70
  -2  -5   8   10.40    2.40
   1   5  -8  119.99    5.30
   1   5  -8  106.69    4.80
   1   5  -8  110.29    5.30
   1   5  -8  113.89    5.10
   1   5  -8  122.69    6.20
  -1  -5   8  118.09    4.70
  -1  -5   8  110.79    4.30
  -1  -5   8  113.89    4.70
  -1  -5   8  113.09    8.40
  -1  -5   8  110.29    4.40
   0   5  -8    1.40    1.30
   0   5  -8    1.20    0.70
   0   5  -8   -0.20    0.60
   0   5  -8   -0.10    0.70
   0   5  -8    2.70    1.00
   0   5  -8    1.30    0.90
   0  -5   8    1.30    2.00
  -1   5  -8   16.80    2.70
  -1   5  -8   11.90    1.10
  -1   5  -8   13.30    0.90
  -1   5  -8   13.80    1.10
  -1   5  -8   11.40    1.80
  -1   5  -8   14.10    1.00
  -1   5  -8   16.00    2.90
   1  -5   8   14.40    3.90
  -2   5  -8  183.18    7.80
  -2   5  -8  179.48    7.70
  -2   5  -8  183.88    8.80
   2  -5   8  190.18    8.20
   2  -5   8  199.08   11.10
  -3   5  -8  108.69    6.50
  -3   5  -8  103.29    6.00
  -3   5  -8  110.49    6.50
   3  -5   8  104.49    8.10
  -4   5  -8   -1.00    1.40
  -4   5  -8   -2.70    1.30
  -4   5  -8    0.30    1.80
   4  -5   8   -0.60    1.60
  -5   5  -8    5.50    2.00
  -5   5  -8    0.20    1.50
  -5   5  -8   -1.00    2.10
   5  -5   8    5.50    2.80
   8   4  -8   13.00    3.50
   8   4  -8   14.10    2.80
   8   4  -8   19.50    4.50
   8   4  -8   25.00    4.90
   8   4  -8   17.90    3.90
  -8  -4   8   22.00    3.30
  -8  -4   8   21.00    4.70
  -8  -4   8   14.50    3.00
  -8  -4   8   12.40    4.40
  -8  -4   8   18.40    5.00
   7   4  -8    3.70    1.70
   7   4  -8    7.60    2.80
   7   4  -8    8.60    2.80
   7   4  -8    8.10    3.00
   7   4  -8    6.30    3.00
   7   4  -8    5.60    2.40
  -7  -4   8   10.50    3.80
  -7  -4   8    3.00    1.60
  -7  -4   8   12.10    3.50
  -7  -4   8    7.10    1.80
  -7  -4   8    8.10    3.60
  -7  -4   8    6.70    2.70
   6   4  -8    6.70    2.50
   6   4  -8    6.20    1.60
   6   4  -8    7.60    2.50
   6   4  -8    9.70    3.00
   6   4  -8   10.50    2.60
   6   4  -8   11.20    2.80
  -6  -4   8    7.20    1.30
  -6  -4   8    5.90    2.90
  -6  -4   8    9.20    2.80
  -6  -4   8    7.80    3.00
  -6  -4   8    9.20    1.50
  -6  -4   8   10.00    2.90
  -6  -4   8    5.50    2.60
  -6  -4   8    6.40    2.20
   5   4  -8    5.20    2.10
   5   4  -8    3.40    0.90
   5   4  -8    2.00    1.30
   5   4  -8    2.50    1.80
   5   4  -8    3.90    2.00
   5   4  -8    4.50    2.00
  -5  -4   8    4.90    2.20
  -5  -4   8    5.80    2.80
  -5  -4   8    4.20    2.20
  -5  -4   8    2.70    2.00
  -5  -4   8    7.70    2.20
  -5  -4   8    5.00    1.90
   4   4  -8   42.60    4.20
   4   4  -8   39.20    4.00
   4   4  -8   34.70    3.60
   4   4  -8   44.00    4.00
  -4  -4   8   38.20    4.70
  -4  -4   8   30.60    5.30
  -4  -4   8   37.60    3.50
  -4  -4   8   41.60    4.00
  -4  -4   8   40.70    4.20
   3   4  -8    1.40    1.00
   3   4  -8    1.20    1.30
   3   4  -8   -0.20    1.00
   3   4  -8    0.70    1.20
   3   4  -8    0.20    1.10
  -3  -4   8   -0.60    0.60
  -3  -4   8    0.50    1.40
  -3  -4   8    2.00    1.20
  -3  -4   8    1.50    1.20
  -3  -4   8    2.40    1.20
   2   4  -8   45.00    3.60
   2   4  -8   41.90    3.40
   2   4  -8   46.50    3.50
   2   4  -8   46.70    3.50
   2   4  -8   48.00    3.40
  -2  -4   8   49.99    3.30
  -2  -4   8   50.99    4.00
  -2  -4   8   49.20    5.30
  -2  -4   8   43.80    3.00
   1   4  -8   32.40    2.60
   1   4  -8   36.80    2.90
   1   4  -8   32.00    2.50
   1   4  -8   29.50    2.70
   1   4  -8   30.50    2.60
  -1  -4   8   35.60    2.50
  -1  -4   8   29.90    3.00
  -1  -4   8   34.60    2.20
  -1  -4   8   35.20    2.60
  -1  -4   8   32.70    2.20
  -1  -4   8   30.60    5.20
   0   4  -8   60.59    3.30
   0   4  -8   54.29    2.80
   0   4  -8   59.79    3.10
   0   4  -8   52.69    3.50
   0   4  -8   57.79    3.10
   0  -4   8   55.99    1.70
   0  -4   8   62.09    5.80
   0  -4   8   55.59    1.80
   0  -4   8   58.69    2.00
   0  -4   8   56.29    2.10
  -1   4  -8    0.00    0.80
  -1   4  -8   -0.20    0.40
  -1   4  -8   -0.40    1.10
  -1   4  -8    0.50    0.50
  -1   4  -8    0.80    1.00
  -1   4  -8    0.30    0.60
   1  -4   8    0.30    1.00
   1  -4   8   -0.80    1.60
  -2   4  -8   27.20    2.70
  -2   4  -8   23.20    1.00
  -2   4  -8   32.10    4.20
  -2   4  -8   24.00    1.00
   2  -4   8   24.30    3.40
   2  -4   8   26.30    5.00
  -3   4  -8    5.20    1.90
  -3   4  -8    4.50    1.50
   3  -4   8    7.80    2.80
  -4   4  -8   74.89    4.90
  -4   4  -8   81.39    2.30
  -4   4  -8   76.09    2.30
   4  -4   8   82.59    6.60
  -5   4  -8    1.40    1.80
  -5   4  -8    1.20    0.60
  -5   4  -8    2.00    0.80
  -5   4  -8    1.90    0.80
  -5   4  -8    1.20    1.40
   5  -4   8    1.10    2.40
  -6   4  -8   12.90    1.80
  -6   4  -8   16.50    1.70
  -6   4  -8   11.20    1.70
  -6   4  -8   11.30    1.50
  -6   4  -8   11.40    2.80
  -6   4  -8    7.20    2.50
   6  -4   8   14.20    4.60
   8   3  -8    1.50    1.90
   8   3  -8    4.50    2.60
   8   3  -8    5.30    2.80
   8   3  -8    4.40    2.90
   8   3  -8    4.50    3.30
  -8  -3   8    5.30    1.90
  -8  -3   8    3.40    2.20
  -8  -3   8    3.10    3.00
  -8  -3   8    4.70    2.90
  -8  -3   8    3.10    2.50
   7   3  -8   45.40    5.90
   7   3  -8   51.19    4.20
   7   3  -8   62.39    5.80
   7   3  -8   55.79    7.00
   7   3  -8   55.89    5.70
   7   3  -8   66.39    6.00
  -7  -3   8   52.19    5.00
  -7  -3   8   64.09    6.00
  -7  -3   8   56.99    5.50
  -7  -3   8   51.09    5.80
  -7  -3   8   62.09    4.10
  -7  -3   8   62.19    6.40
   6   3  -8  162.18    6.40
   6   3  -8  170.98    9.50
   6   3  -8  154.18    8.70
   6   3  -8  156.68    8.80
   6   3  -8  160.18    8.80
   6   3  -8  156.28    8.50
  -6  -3   8  157.48    8.40
  -6  -3   8  167.38    6.40
  -6  -3   8  167.88    9.20
  -6  -3   8  151.78    9.20
  -6  -3   8  154.58    9.60
  -6  -3   8  154.18    8.00
   5   3  -8   81.29    7.30
   5   3  -8   83.09    5.90
   5   3  -8   82.99    6.00
   5   3  -8   83.89    5.60
   5   3  -8   82.29    6.00
  -5  -3   8   86.69    6.00
  -5  -3   8   79.19    2.80
  -5  -3   8   73.79    5.10
  -5  -3   8   84.49    6.90
  -5  -3   8   78.49    5.90
  -5  -3   8   86.79    5.70
  -5  -3   8   77.29    6.00
   4   3  -8  121.59    6.70
   4   3  -8  128.29    6.50
   4   3  -8  118.69    6.70
   4   3  -8  116.29    6.50
   4   3  -8  123.49    6.90
  -4  -3   8  129.39    6.80
  -4  -3   8  129.69    7.00
  -4  -3   8  119.39    6.60
  -4  -3   8  130.19    8.40
  -4  -3   8  104.79    5.80
  -4  -3   8  120.19    6.10
   3   3  -8  479.75   13.80
   3   3  -8  469.25   14.10
   3   3  -8  459.15   14.40
   3   3  -8  463.25   13.70
   3   3  -8  476.75   14.20
  -3  -3   8  456.85   14.20
  -3  -3   8  458.35   17.20
  -3  -3   8  480.15   13.30
  -3  -3   8  462.25   14.00
  -3  -3   8  471.35   13.50
   2   3  -8    2.00    1.00
   2   3  -8    1.20    1.00
   2   3  -8    3.10    1.30
   2   3  -8    2.00    1.10
   2   3  -8    1.20    1.00
  -2  -3   8    0.00    1.10
  -2  -3   8    2.40    1.00
  -2  -3   8    1.40    1.10
  -2  -3   8    4.00    1.30
  -2  -3   8    1.40    0.80
   1   3  -8    1.60    1.00
   1   3  -8    2.10    0.50
   1   3  -8    2.50    1.00
   1   3  -8    1.80    0.90
   1   3  -8    1.30    0.90
   1   3  -8    1.50    0.40
   1   3  -8    1.20    1.00
  -1  -3   8    1.50    0.90
  -1  -3   8    3.50    0.90
  -1  -3   8    0.10    0.80
  -1  -3   8    2.90    0.90
  -1  -3   8    0.80    1.70
   0   3  -8  789.72   21.20
   0   3  -8  732.33   17.40
   0   3  -8  747.83   17.30
   0   3  -8  730.63   17.00
   0   3  -8  762.92   17.20
   0   3  -8  784.12   17.70
   0  -3   8  742.13   16.10
   0  -3   8  744.93   23.40
   0  -3   8  739.93   15.80
   0  -3   8  761.12   16.20
   0  -3   8  704.43   19.90
  -1   3  -8  347.47    9.00
  -1   3  -8  363.16    9.30
  -1   3  -8  338.97    9.20
  -1   3  -8  361.16    9.50
  -1   3  -8  359.56    9.10
  -1   3  -8  352.76   12.60
   1  -3   8  355.66   10.80
   1  -3   8  348.97   14.80
  -2   3  -8   -0.50    1.00
  -2   3  -8    0.10    0.80
  -2   3  -8   -0.10    0.50
  -2   3  -8    0.10    0.50
  -2   3  -8   -0.10    0.80
   2  -3   8   -1.30    1.20
  -3   3  -8   19.30    2.40
  -3   3  -8   20.60    1.80
  -3   3  -8   15.20    1.60
  -3   3  -8   18.90    1.90
  -3   3  -8   17.60    1.80
  -3   3  -8   19.30    3.40
  -4   3  -8   49.50    3.00
  -4   3  -8   56.99    2.90
  -4   3  -8   60.69    5.10
  -4   3  -8   54.69    3.10
  -4   3  -8   54.19    3.50
  -4   3  -8   55.69    3.80
  -4   3  -8   50.29    3.30
   4  -3   8   61.59    5.60
  -5   3  -8    3.80    1.70
  -5   3  -8    7.80    1.70
  -5   3  -8    8.10    2.50
  -5   3  -8    9.90    1.80
  -5   3  -8    5.60    1.60
  -5   3  -8    7.80    1.50
   5  -3   8    3.30    2.80
  -6   3  -8   12.20    2.20
  -6   3  -8   17.90    2.50
  -6   3  -8   19.70    3.00
  -6   3  -8   31.80    4.60
   6  -3   8   23.40    5.20
   9   2  -8   44.00    7.20
   9   2  -8   52.89    6.90
   9   2  -8   49.10    5.20
   9   2  -8   50.69    6.40
  -9  -2   8   51.29    6.80
  -9  -2   8   47.90    5.20
  -9  -2   8   47.10    5.90
  -9  -2   8   51.19    7.60
  -9  -2   8   57.99    5.30
   8   2  -8    1.10    2.00
   8   2  -8    5.70    2.50
   8   2  -8    2.40    2.70
   8   2  -8   -1.60    2.10
   8   2  -8   -1.00    2.20
  -8  -2   8   -0.80    1.50
  -8  -2   8    4.90    2.50
  -8  -2   8    0.60    2.40
  -8  -2   8   -0.40    2.40
  -8  -2   8    1.90    2.30
  -8  -2   8   -0.80    1.90
   7   2  -8  321.77   11.20
   7   2  -8  321.77   13.30
   7   2  -8  309.07   15.80
   7   2  -8  291.17   13.20
   7   2  -8  330.77   14.30
  -7  -2   8  327.87   13.90
  -7  -2   8  332.47   13.60
  -7  -2   8  302.27   10.40
  -7  -2   8  322.07   14.30
  -7  -2   8  328.67   13.90
  -7  -2   8  304.87   12.50
   6   2  -8  524.25   17.70
   6   2  -8  532.55   17.10
   6   2  -8  529.95   17.70
   6   2  -8  522.85   14.20
   6   2  -8  523.75   20.70
  -6  -2   8  557.24   19.00
  -6  -2   8  529.85   17.20
  -6  -2   8  523.35   17.70
  -6  -2   8  501.55   16.40
  -6  -2   8  534.05   18.30
  -6  -2   8  532.25   13.80
  -6  -2   8  513.55   16.90
   5   2  -8  159.68    7.90
   5   2  -8  153.08    8.10
   5   2  -8  172.88    8.50
   5   2  -8  146.59    7.50
   5   2  -8  163.68    8.50
  -5  -2   8  148.29    8.20
  -5  -2   8  149.59    7.60
  -5  -2   8  157.78    8.00
  -5  -2   8  145.39    7.30
  -5  -2   8  155.88    7.70
  -5  -2   8  145.69    5.00
   4   2  -8   50.09    4.30
   4   2  -8   41.30    3.70
   4   2  -8   52.39    4.50
   4   2  -8   45.70    3.80
   4   2  -8   46.00    4.10
  -4  -2   8   44.70    4.20
  -4  -2   8   51.39    4.70
  -4  -2   8   45.70    4.00
  -4  -2   8   56.89    5.40
  -4  -2   8   50.19    1.70
  -4  -2   8   48.60    3.80
  -4  -2   8   56.59    4.10
   3   2  -8  211.68    8.50
   3   2  -8  207.18    8.20
   3   2  -8  197.68    8.30
   3   2  -8  202.78    7.60
   3   2  -8  208.98    8.70
  -3  -2   8  203.88    7.80
  -3  -2   8  202.48    7.70
  -3  -2   8  211.38    8.00
  -3  -2   8  206.18    8.30
  -3  -2   8  226.48    8.90
  -3  -2   8  209.18   10.40
   2   2  -8    0.70    0.70
   2   2  -8    1.50    1.00
   2   2  -8    1.20    0.90
   2   2  -8    2.60    1.20
   2   2  -8    1.60    1.10
   2   2  -8    1.20    0.30
  -2  -2   8    0.00    0.90
  -2  -2   8    2.00    0.90
  -2  -2   8    0.90    0.90
  -2  -2   8    0.10    0.70
  -2  -2   8   -0.10    0.60
  -2  -2   8    2.60    1.60
   1   2  -8  155.18    6.20
   1   2  -8  154.08    5.00
   1   2  -8  160.48    6.50
   1   2  -8  154.78    6.20
   1   2  -8  148.39    6.30
   1   2  -8  162.68    5.20
   1   2  -8  160.58    7.70
  -1  -2   8  158.28    5.50
  -1  -2   8  149.39    4.30
  -1  -2   8  159.88    5.90
  -1  -2   8  158.98    6.20
  -1  -2   8  159.78    5.70
  -1  -2   8  149.09    8.80
  -1  -2   8  153.08    6.10
   0   2  -8  325.47    9.70
   0   2  -8  331.27    7.80
   0   2  -8  318.77    9.50
   0   2  -8  330.97   11.90
   0   2  -8  326.47    9.80
   0   2  -8  334.67    9.70
   0   2  -8  317.47    9.40
   0  -2   8  323.27    8.80
   0  -2   8  318.97    9.00
   0  -2   8  323.57    8.80
   0  -2   8  319.37    8.70
   0  -2   8  340.57    9.10
  -1   2  -8    8.30    1.60
  -1   2  -8   10.60    1.70
  -1   2  -8   11.30    0.90
  -1   2  -8   10.30    2.50
  -1   2  -8   12.30    1.90
  -1   2  -8   12.30    1.80
   1  -2   8   11.40    1.50
   1  -2   8   10.10    1.30
   1  -2   8    9.20    1.30
   1  -2   8   10.80    2.10
   1  -2   8    9.20    1.20
  -2   2  -8   24.00    2.40
  -2   2  -8   22.00    3.40
  -2   2  -8   24.80    1.60
  -2   2  -8   23.80    2.20
   2  -2   8   30.00    3.20
   2  -2   8   24.60    1.70
   2  -2   8   24.00    1.50
   2  -2   8   23.30    1.50
   2  -2   8   23.10    1.40
  -3   2  -8  122.19    7.10
  -3   2  -8  114.19    5.50
  -3   2  -8  124.79    4.30
  -3   2  -8  121.99    5.00
  -3   2  -8  122.09    5.20
  -3   2  -8  118.89    4.60
  -3   2  -8  113.49    5.30
   3  -2   8  118.19    3.40
   3  -2   8  129.19    7.30
   3  -2   8  121.99    3.70
   3  -2   8  111.49    3.80
   3  -2   8  121.59    3.50
  -4   2  -8   33.80    3.00
  -4   2  -8   34.30    2.60
  -4   2  -8   40.50    5.10
  -4   2  -8   37.40    3.30
  -4   2  -8   35.50    2.80
  -4   2  -8   38.00    3.10
   4  -2   8   38.80    5.30
   4  -2   8   35.40    2.30
   4  -2   8   33.60    1.70
  -5   2  -8    0.60    1.10
  -5   2  -8    0.10    1.40
  -5   2  -8    1.90    1.20
  -5   2  -8    1.60    1.50
  -5   2  -8   -0.40    1.10
  -5   2  -8   -0.90    1.50
   5  -2   8   -0.50    0.90
   5  -2   8   -0.50    1.10
   5  -2   8   -0.60    0.80
   5  -2   8   -0.40    0.70
   5  -2   8    1.40    2.20
  -6   2  -8    6.10    1.90
  -6   2  -8    7.60    2.30
  -6   2  -8    5.90    1.90
  -6   2  -8    8.40    2.30
  -6   2  -8    9.80    3.30
   6  -2   8    6.70    3.60
   6  -2   8    7.10    1.20
   9   1  -8   14.70    4.00
   9   1  -8   15.80    3.90
   9   1  -8   11.00    3.40
   9   1  -8   15.90    3.90
   9   1  -8   15.20    4.80
  -9  -1   8    9.30    4.40
  -9  -1   8   19.40    4.00
  -9  -1   8    9.20    2.80
  -9  -1   8   10.70    4.20
  -9  -1   8   14.30    3.30
   8   1  -8    4.30    2.40
   8   1  -8    8.70    2.70
   8   1  -8    4.50    2.80
   8   1  -8    2.60    2.00
  -8  -1   8    4.30    2.80
  -8  -1   8    3.50    2.50
  -8  -1   8    8.40    3.00
  -8  -1   8    1.50    1.90
  -8  -1   8    0.40    2.00
  -8  -1   8   -0.20    1.90
   7   1  -8   39.50    3.90
   7   1  -8   44.30    5.80
   7   1  -8   44.80    4.60
   7   1  -8   44.10    5.90
   7   1  -8   42.60    5.60
  -7  -1   8   47.10    4.50
  -7  -1   8   53.79    5.70
  -7  -1   8   48.60    4.90
  -7  -1   8   43.30    3.90
  -7  -1   8   50.19    5.20
  -7  -1   8   38.20    5.30
   6   1  -8   52.29    5.30
   6   1  -8   57.09    5.10
   6   1  -8   40.50    4.40
   6   1  -8   43.30    5.10
  -6  -1   8   53.79    4.90
  -6  -1   8   54.99    4.70
  -6  -1   8   51.99    5.00
  -6  -1   8   52.09    3.60
  -6  -1   8   51.19    4.60
  -6  -1   8   55.49    5.20
  -6  -1   8   48.70    4.60
   5   1  -8    7.90    2.30
   5   1  -8    8.10    2.40
   5   1  -8    8.60    2.40
   5   1  -8    5.20    2.20
  -5  -1   8    8.90    2.30
  -5  -1   8    5.30    2.20
  -5  -1   8    8.20    1.40
  -5  -1   8   11.20    3.00
  -5  -1   8    7.20    1.90
  -5  -1   8    7.10    2.40
  -5  -1   8    8.60    2.20
   4   1  -8   10.20    2.10
   4   1  -8   11.80    2.60
   4   1  -8    8.90    2.10
   4   1  -8   12.50    2.70
  -4  -1   8    9.70    2.50
  -4  -1   8    8.20    2.10
  -4  -1   8    8.00    2.30
  -4  -1   8    9.30    2.20
  -4  -1   8   10.30    1.40
  -4  -1   8   10.00    2.00
  -4  -1   8    6.90    2.10
   3   1  -8   78.19    5.10
   3   1  -8   70.59    5.10
   3   1  -8   71.59    4.70
   3   1  -8   66.69    4.60
   3   1  -8   67.49    2.90
  -3  -1   8   73.49    4.80
  -3  -1   8   65.39    2.40
  -3  -1   8   77.39    4.70
  -3  -1   8   79.69    6.00
  -3  -1   8   72.89    4.50
  -3  -1   8   72.79    4.90
  -3  -1   8   76.29    4.10
   2   1  -8  322.17   10.50
   2   1  -8  310.17   10.30
   2   1  -8  311.17   10.70
   2   1  -8  299.97   10.50
   2   1  -8  324.67    8.40
   2   1  -8  339.57   11.80
  -2  -1   8  313.37    7.40
  -2  -1   8  314.17   10.20
  -2  -1   8  307.77   12.90
  -2  -1   8  303.37    9.90
  -2  -1   8  323.27    8.80
  -2  -1   8  319.67   10.60
   1   1  -8   38.20    2.60
   1   1  -8   33.70    2.90
   1   1  -8   40.80    3.70
   1   1  -8   34.20    3.00
   1   1  -8   37.40    3.00
   1   1  -8   34.20    2.80
  -1  -1   8   34.90    2.80
  -1  -1   8   33.30    2.20
  -1  -1   8   32.40    2.60
  -1  -1   8   33.00    2.70
  -1  -1   8   35.40    5.10
   0   1  -8   23.30    2.80
   0   1  -8   19.90    3.20
   0   1  -8   22.50    2.40
   0   1  -8   22.40    2.40
   0   1  -8   25.10    2.50
   0   1  -8   23.40    2.30
   0  -1   8   22.90    2.30
   0  -1   8   22.10    2.10
   0  -1   8   24.10    2.30
   0  -1   8   23.20    2.30
   0  -1   8   23.60    2.20
  -1   1  -8   95.99    5.40
  -1   1  -8   84.49    5.60
  -1   1  -8   87.49    4.60
  -1   1  -8   88.79    4.80
  -1   1  -8   95.49    4.70
  -1   1  -8   95.59    4.70
   1  -1   8   95.99    4.40
   1  -1   8   99.99    4.50
   1  -1   8   86.99    4.00
   1  -1   8   91.49    5.00
  -2   1  -8   11.90    2.00
  -2   1  -8   10.40    2.10
  -2   1  -8   11.40    2.70
  -2   1  -8    8.90    2.00
   2  -1   8   16.80    2.10
   2  -1   8   14.30    2.00
   2  -1   8   12.70    1.70
   2  -1   8   15.10    2.00
   2  -1   8   12.90    2.80
  -3   1  -8  211.88    8.00
  -3   1  -8  198.18    7.80
  -3   1  -8  208.48    7.70
  -3   1  -8  199.58    8.20
  -3   1  -8  195.78    5.50
  -3   1  -8  224.88   10.20
   3  -1   8  206.78    9.70
   3  -1   8  208.98    6.70
  -4   1  -8   -0.20    1.30
  -4   1  -8   -0.10    0.70
  -4   1  -8    0.80    1.10
  -4   1  -8   -0.70    1.10
  -4   1  -8   -2.20    1.40
   4  -1   8    1.00    1.10
   4  -1   8    0.40    1.20
   4  -1   8   -1.00    1.60
   4  -1   8    0.90    1.00
  -5   1  -8   21.70    3.20
  -5   1  -8   22.30    3.20
  -5   1  -8   19.10    3.80
  -5   1  -8   24.30    2.80
  -5   1  -8   19.90    3.00
  -5   1  -8   21.70    3.20
   5  -1   8   22.80    4.70
   5  -1   8   16.30    2.50
   5  -1   8   22.00    4.10
   5  -1   8   20.20    2.70
  -6   1  -8   21.30    2.90
  -6   1  -8   17.70    3.30
  -6   1  -8   15.10    3.70
  -6   1  -8   21.10    3.90
  -6   1  -8   25.20    3.80
   6  -1   8   18.00    4.50
   6  -1   8   17.90    2.80
   6  -1   8   21.10    3.00
   9   0  -8    1.60    3.20
   9   0  -8    5.80    2.80
   9   0  -8    2.90    2.80
  -9   0   8    1.00    2.80
  -9   0   8    2.90    2.60
  -9   0   8    4.80    2.40
  -9   0   8    6.00    3.40
  -9   0   8   -1.80    2.10
   8   0  -8   10.80    3.00
   8   0  -8   11.40    3.20
   8   0  -8   13.70    3.50
   8   0  -8    9.10    2.50
   8   0  -8   12.00    3.10
  -8   0   8   10.60    3.40
  -8   0   8    6.50    3.30
  -8   0   8    9.90    2.60
  -8   0   8    9.40    2.60
  -8   0   8    6.10    2.80
  -8   0   8   11.80    2.90
  -8   0   8    9.30    2.70
   7   0  -8   50.09    4.40
   7   0  -8   45.20    5.40
   7   0  -8   49.40    5.00
   7   0  -8   54.79    5.60
   7   0  -8   46.90    6.10
  -7   0   8   49.10    4.80
  -7   0   8   49.30    4.30
  -7   0   8   48.20    5.90
  -7   0   8   48.70    4.70
  -7   0   8   45.60    6.00
  -7   0   8   49.40    5.70
   6   0  -8  201.38   10.20
   6   0  -8  207.68    9.90
   6   0  -8  189.08    9.60
   6   0  -8  186.18    9.10
  -6   0   8  205.48    9.90
  -6   0   8  204.98    9.60
  -6   0   8  187.78    9.20
  -6   0   8  182.38    8.60
  -6   0   8  202.08   10.30
  -6   0   8  191.88    9.00
  -6   0   8  189.78    7.70
   5   0  -8   28.00    4.10
   5   0  -8   31.90    4.20
   5   0  -8   29.40    4.10
   5   0  -8   27.30    3.70
  -5   0   8   24.50    3.70
  -5   0   8   25.10    3.90
  -5   0   8   28.90    3.90
  -5   0   8   31.80    4.60
  -5   0   8   26.50    2.60
  -5   0   8   25.00    3.90
  -5   0   8   29.00    3.20
   4   0  -8   -0.10    1.00
   4   0  -8    1.50    1.10
   4   0  -8    0.80    1.10
   4   0  -8   -0.70    0.60
   4   0  -8   -0.50    0.50
  -4   0   8   -0.50    1.50
  -4   0   8    1.30    1.40
  -4   0   8    0.50    1.10
  -4   0   8    1.90    1.30
  -4   0   8    1.30    1.00
  -4   0   8   -0.40    0.70
   3   0  -8   66.39    4.60
   3   0  -8   70.49    4.90
   3   0  -8   73.19    5.00
   3   0  -8   68.59    4.60
   3   0  -8   75.29    3.70
   3   0  -8   69.99    4.90
  -3   0   8   79.39    4.80
  -3   0   8   71.39    3.70
  -3   0   8   66.59    4.50
  -3   0   8   81.39    6.00
  -3   0   8   73.39    5.00
  -3   0   8   67.49    4.70
  -3   0   8   69.79    3.70
   2   0  -8   25.40    3.40
   2   0  -8   22.60    3.10
   2   0  -8   21.40    2.80
   2   0  -8   21.50    3.20
   2   0  -8   22.10    2.10
   2   0  -8   23.80    3.40
  -2   0   8   23.90    3.20
  -2   0   8   23.20    3.00
  -2   0   8   20.20    2.80
  -2   0   8   20.30    2.80
  -2   0   8   21.30    1.70
   1   0  -8   68.09    4.30
   1   0  -8   71.19    4.10
   1   0  -8   75.69    4.70
   1   0  -8   84.19    4.80
   1   0  -8   75.69    5.10
  -1   0   8   77.39    4.70
  -1   0   8   83.79    4.60
  -1   0   8   73.89    3.70
  -1   0   8   76.59    4.60
   0   0  -8  415.66   12.50
   0   0  -8  396.56   12.50
   0   0  -8  399.36   12.30
   0   0  -8  412.06   12.60
   0   0  -8  427.46   13.00
   0   0  -8  442.96   14.20
   0   0   8  431.26   12.10
   0   0   8  424.46   12.00
   0   0   8  423.46   12.40
   0   0   8  408.16   12.10
   0   0   8  410.66   12.30
  -1   0  -8   15.70    2.50
  -1   0  -8   20.80    3.40
  -1   0  -8   21.70    3.10
  -1   0  -8   18.50    2.70
  -1   0  -8   16.70    3.40
  -1   0  -8   19.90    2.80
   1   0   8   19.30    2.50
   1   0   8   20.10    2.70
   1   0   8   18.80    2.80
   1   0   8   21.50    3.20
  -2   0  -8   89.69    5.40
  -2   0  -8   96.99    5.50
  -2   0  -8   95.69    6.20
  -2   0  -8   83.79    5.00
  -2   0  -8   84.89    6.00
   2   0   8   95.09    4.70
   2   0   8  117.59    7.50
   2   0   8   87.59    4.60
   2   0   8   99.49    5.00
   2   0   8   92.09    5.10
   2   0   8   86.79    6.20
  -3   0  -8    0.80    1.20
  -3   0  -8    1.30    1.30
  -3   0  -8   -0.40    1.10
  -3   0  -8    1.80    1.60
  -3   0  -8    0.40    0.30
  -3   0  -8    2.00    1.50
   3   0   8   -1.10    1.00
   3   0   8   -0.80    1.10
   3   0   8    2.30    1.20
   3   0   8    2.80    1.50
   3   0   8   -0.60    1.20
  -4   0  -8   10.50    2.40
  -4   0  -8    9.20    2.20
  -4   0  -8    7.90    2.20
  -4   0  -8   11.70    3.10
  -4   0  -8    8.90    1.40
  -4   0  -8    9.00    2.30
   4   0   8    8.10    2.00
   4   0   8    8.20    2.20
   4   0   8    9.60    2.00
   4   0   8    8.90    2.90
   4   0   8    4.40    2.60
  -5   0  -8    6.40    2.10
  -5   0  -8    5.20    1.50
  -5   0  -8    7.40    2.20
  -5   0  -8    5.20    2.20
  -5   0  -8    3.80    2.40
  -5   0  -8    5.40    2.10
   5   0   8    3.10    1.80
   5   0   8    5.10    2.20
   5   0   8    9.10    3.50
   9  -1  -8    8.90    3.70
   9  -1  -8    6.60    2.90
   9  -1  -8    6.40    3.20
   9  -1  -8    4.00    2.70
   9  -1  -8    4.20    2.50
  -9   1   8    0.20    2.80
  -9   1   8    5.00    2.70
  -9   1   8    7.20    2.70
  -9   1   8    3.30    3.50
  -9   1   8    2.10    2.20
   8  -1  -8   47.60    6.00
   8  -1  -8   52.69    6.60
   8  -1  -8   58.29    8.20
  -8   1   8   51.99    5.40
  -8   1   8   47.30    5.10
  -8   1   8   50.09    6.50
  -8   1   8   52.29    5.30
  -8   1   8   52.09    5.00
   7  -1  -8   11.00    3.30
   7  -1  -8   13.60    3.10
   7  -1  -8    6.20    2.60
   7  -1  -8   10.10    3.10
  -7   1   8   11.60    3.30
  -7   1   8   15.70    3.70
  -7   1   8   15.40    3.00
  -7   1   8   11.20    2.70
  -7   1   8   10.80    3.00
   6  -1  -8   35.70    4.80
   6  -1  -8   36.60    5.10
   6  -1  -8   27.30    4.30
  -6   1   8   34.10    3.60
  -6   1   8   35.10    4.60
  -6   1   8   29.80    4.20
  -6   1   8   35.10    5.10
  -6   1   8   35.70    3.40
  -6   1   8   26.30    4.10
   5  -1  -8   63.49    5.20
   5  -1  -8   70.49    5.10
   5  -1  -8   64.69    5.30
   5  -1  -8   62.59    4.00
   5  -1  -8   67.59    5.50
  -5   1   8   58.89    4.10
  -5   1   8   65.79    5.30
  -5   1   8   63.99    5.10
  -5   1   8   61.69    4.80
  -5   1   8   72.59    5.60
  -5   1   8   61.99    4.30
   4  -1  -8   85.29    5.60
   4  -1  -8  100.19    5.80
   4  -1  -8   92.89    5.70
   4  -1  -8   95.59    6.10
   4  -1  -8   86.99    5.90
   4  -1  -8   97.89    4.90
  -4   1   8   84.89    5.70
  -4   1   8   92.49    5.90
  -4   1   8   83.99    4.60
  -4   1   8   90.39    5.60
  -4   1   8   99.69    6.40
  -4   1   8   91.89    4.80
   3  -1  -8    1.20    1.00
   3  -1  -8   -0.40    0.90
   3  -1  -8   -0.10    0.80
   3  -1  -8    0.80    0.90
   3  -1  -8   -0.10    0.80
   3  -1  -8   -1.10    0.90
  -3   1   8   -0.50    0.70
  -3   1   8   -0.80    0.90
  -3   1   8    1.40    0.80
  -3   1   8    0.70    0.90
  -3   1   8    0.00    1.10
  -3   1   8   -1.40    0.90
   2  -1  -8   80.39    5.20
   2  -1  -8   94.69    5.60
   2  -1  -8   88.69    4.70
   2  -1  -8   69.59    4.70
   2  -1  -8   76.09    5.00
   2  -1  -8   84.59    5.20
  -2   1   8   74.09    4.40
  -2   1   8   82.09    5.30
  -2   1   8   81.99    5.00
  -2   1   8   81.99    5.00
  -2   1   8   78.19    3.10
  -2   1   8   78.99    5.10
   1  -1  -8  472.75   13.80
   1  -1  -8  448.26   14.40
   1  -1  -8  468.25   14.20
   1  -1  -8  491.45   14.70
   1  -1  -8  483.25   15.00
   1  -1  -8  459.85   14.20
  -1   1   8  481.85   14.50
  -1   1   8  474.15   14.00
  -1   1   8  490.65   14.50
  -1   1   8  467.35   14.00
   0  -1  -8  644.34   17.60
   0  -1  -8  629.34   17.60
   0  -1  -8  634.34   17.70
   0  -1  -8  625.04   18.40
   0  -1  -8  645.64   17.50
   0  -1  -8  646.14   18.00
   0   1   8  649.04   17.00
   0   1   8  623.74   17.10
   0   1   8  607.04   17.00
   0   1   8  625.64   17.40
   0   1   8  615.14   17.00
   0   1   8  609.94   18.50
  -1  -1  -8   68.89    4.70
  -1  -1  -8   68.29    4.80
  -1  -1  -8   73.39    5.50
  -1  -1  -8   80.99    5.50
  -1  -1  -8   74.99    5.00
  -1  -1  -8   73.99    5.10
   1   1   8   58.09    5.00
   1   1   8   77.79    4.70
   1   1   8   78.39    5.10
   1   1   8   70.09    4.80
   1   1   8   68.19    4.50
  -2  -1  -8  316.17   11.50
  -2  -1  -8  313.07   12.50
  -2  -1  -8  325.37   12.20
  -2  -1  -8  320.57   12.70
   2   1   8  338.97   11.60
   2   1   8  329.17   11.00
   2   1   8  322.47   10.70
   2   1   8  311.17   12.80
   2   1   8  325.47   12.30
  -3  -1  -8   28.00    3.80
  -3  -1  -8   31.00    4.60
  -3  -1  -8   37.50    2.10
  -3  -1  -8   33.90    4.20
  -3  -1  -8   35.80    4.50
  -3  -1  -8   32.50    5.10
  -3  -1  -8   37.90    3.80
   3   1   8   29.60    3.60
   3   1   8   27.70    4.70
   3   1   8   30.20    3.10
  -4  -1  -8   59.89    5.50
  -4  -1  -8   60.49    3.20
  -4  -1  -8   58.79    4.80
  -4  -1  -8   62.29    5.40
  -4  -1  -8   66.29    6.60
  -4  -1  -8   68.69    5.30
  -4  -1  -8   54.59    5.00
   4   1   8   65.69    6.20
   4   1   8   64.89    5.40
   4   1   8   64.89    4.70
   4   1   8   55.69    5.80
  -5  -1  -8   -1.80    2.20
  -5  -1  -8    0.30    1.10
  -5  -1  -8   -2.40    1.70
  -5  -1  -8   -0.80    2.00
  -5  -1  -8    0.20    2.20
   5   1   8    3.30    2.50
   5   1   8    2.20    1.70
   5   1   8    0.10    1.70
   9  -2  -8    6.70    3.60
   9  -2  -8    3.10    2.30
   9  -2  -8    5.70    2.40
  -9   2   8    6.90    3.60
  -9   2   8    5.50    2.80
  -9   2   8    4.10    3.20
  -9   2   8   10.30    3.40
   8  -2  -8   23.00    4.30
   8  -2  -8   14.70    3.70
   8  -2  -8   30.30    4.70
   8  -2  -8   34.10    5.50
  -8   2   8   22.80    4.40
  -8   2   8   26.30    4.30
  -8   2   8   28.20    4.50
  -8   2   8   33.00    5.60
  -8   2   8   26.10    4.60
  -8   2   8   21.60    3.80
   7  -2  -8   23.90    4.30
   7  -2  -8   24.40    4.00
   7  -2  -8   31.80    4.90
   7  -2  -8   25.70    4.30
  -7   2   8   31.70    5.00
  -7   2   8   23.30    3.80
  -7   2   8   23.00    4.10
  -7   2   8   23.70    4.40
  -7   2   8   26.50    4.30
   6  -2  -8 1457.75   36.50
   6  -2  -8 1377.56   34.90
   6  -2  -8 1367.96   35.50
   6  -2  -8 1467.05   33.10
   6  -2  -8 1430.56   35.80
  -6   2   8 1481.25   36.90
  -6   2   8 1347.77   33.60
  -6   2   8 1411.56   33.70
  -6   2   8 1464.25   35.20
  -6   2   8 1346.07   35.00
  -6   2   8 1431.36   35.90
   5  -2  -8    3.90    1.80
   5  -2  -8    3.20    1.40
   5  -2  -8    7.00    2.40
   5  -2  -8    4.20    2.00
   5  -2  -8    5.20    1.80
   5  -2  -8    4.50    1.70
  -5   2   8    6.20    1.80
  -5   2   8    4.70    1.70
  -5   2   8    3.50    1.80
  -5   2   8    4.00    2.00
  -5   2   8    3.70    1.80
  -5   2   8    7.50    2.50
   4  -2  -8  126.49    7.30
   4  -2  -8  119.69    7.20
   4  -2  -8  114.59    6.00
   4  -2  -8  122.79    7.00
   4  -2  -8  125.69    7.00
   4  -2  -8  128.69    6.50
  -4   2   8  115.99    6.80
  -4   2   8  128.89    7.00
  -4   2   8  132.19    6.50
  -4   2   8  123.99    5.80
  -4   2   8  117.29    7.20
  -4   2   8  129.09    7.30
   3  -2  -8   32.40    4.20
   3  -2  -8   28.10    3.60
   3  -2  -8   34.50    4.40
   3  -2  -8   27.30    3.70
   3  -2  -8   31.40    3.10
   3  -2  -8   30.40    3.90
  -3   2   8   32.30    3.30
  -3   2   8   28.60    2.30
  -3   2   8   36.00    3.80
  -3   2   8   36.80    3.80
  -3   2   8   30.20    3.90
  -3   2   8   31.60    3.20
   2  -2  -8    1.20    1.20
   2  -2  -8    0.90    1.20
   2  -2  -8   -0.70    0.70
   2  -2  -8    1.30    1.00
   2  -2  -8    0.10    1.00
   2  -2  -8    3.10    1.60
  -2   2   8    1.10    1.20
  -2   2   8    0.80    0.90
  -2   2   8    0.10    1.10
  -2   2   8   -1.10    1.00
  -2   2   8    1.60    0.60
  -2   2   8    0.60    1.00
   1  -2  -8  370.46   13.10
   1  -2  -8  369.76   12.80
   1  -2  -8  375.86   12.70
   1  -2  -8  379.86   12.90
   1  -2  -8  370.36   12.60
  -1   2   8  340.57    7.40
  -1   2   8  375.96   13.10
  -1   2   8  353.26   12.50
  -1   2   8  371.06   12.50
  -1   2   8  363.56    7.50
  -1   2   8  382.46   12.50
  -1   2   8  359.96   12.60
   0  -2  -8  272.27   11.00
   0  -2  -8  269.67   11.00
   0  -2  -8  285.77   10.90
   0  -2  -8  300.97   11.30
   0  -2  -8  289.07   11.00
   0  -2  -8  295.47   11.00
   0   2   8  300.07   10.70
   0   2   8  291.97   10.60
   0   2   8  291.87   11.60
   0   2   8  296.07   10.90
   0   2   8  312.77   11.10
   0   2   8  268.97   10.70
  -1  -2  -8 1205.78   31.00
  -1  -2  -8 1253.77   30.40
  -1  -2  -8 1254.57   31.00
   1   2   8 1175.18   29.60
   1   2   8 1225.18   29.30
   1   2   8 1224.58   29.60
   1   2   8 1247.18   30.30
  -2  -2  -8   55.79    5.10
  -2  -2  -8   46.10    4.50
  -2  -2  -8   57.29    5.40
  -2  -2  -8   51.29    4.80
   2   2   8   60.49    4.70
   2   2   8   60.29    4.40
   2   2   8   61.79    5.20
  -3  -2  -8  285.67   11.80
  -3  -2  -8  269.47    7.30
  -3  -2  -8  291.37   13.30
  -3  -2  -8  303.77   12.60
  -3  -2  -8  294.77   12.90
  -3  -2  -8  307.27   11.90
  -3  -2  -8  290.27   11.80
   3   2   8  303.67   11.30
   3   2   8  301.17   11.90
   3   2   8  287.17   12.80
   3   2   8  299.17   12.90
  -4  -2  -8   62.39    3.50
  -4  -2  -8   56.59    5.60
  -4  -2  -8   63.99    5.70
  -4  -2  -8   70.39    5.90
  -4  -2  -8   57.79    5.80
  -4  -2  -8   62.29    5.20
   4   2   8   70.79    5.50
   4   2   8   61.59    6.30
  -5  -2  -8   66.39    5.90
  -5  -2  -8   66.79    5.60
  -5  -2  -8   63.39    6.50
  -5  -2  -8   58.09    6.00
  -5  -2  -8   76.09    7.10
   5   2   8   60.89    8.10
   9  -3  -8   25.10    3.30
   9  -3  -8   16.20    4.00
   9  -3  -8   25.10    4.80
  -9   3   8   18.20    3.80
  -9   3   8   25.20    4.90
  -9   3   8   15.10    3.70
  -9   3   8   24.50    5.20
  -9   3   8   22.70    4.50
   8  -3  -8   16.50    4.40
   8  -3  -8   16.90    4.20
   8  -3  -8   14.50    2.50
   8  -3  -8   18.60    4.00
   8  -3  -8   14.90    4.20
  -8   3   8   17.80    4.20
  -8   3   8   10.60    3.30
  -8   3   8   12.90    3.00
  -8   3   8   10.00    3.00
  -8   3   8   17.00    3.80
  -8   3   8   16.80    4.20
   7  -3  -8    3.60    1.60
   7  -3  -8    6.40    2.80
   7  -3  -8    1.60    1.70
   7  -3  -8    6.30    2.50
   7  -3  -8   -1.90    1.90
  -7   3   8    0.60    2.00
  -7   3   8    3.50    2.20
  -7   3   8    3.00    2.00
  -7   3   8    1.60    1.60
  -7   3   8    1.60    1.80
   6  -3  -8    2.30    1.70
   6  -3  -8    2.70    1.70
   6  -3  -8    0.70    1.90
   6  -3  -8    5.30    2.10
   6  -3  -8    2.50    1.50
   6  -3  -8    3.30    2.00
  -6   3   8    3.60    2.00
  -6   3   8    4.80    2.10
  -6   3   8    2.10    1.60
  -6   3   8    4.50    2.00
  -6   3   8    0.10    1.50
  -6   3   8    1.80    2.00
   5  -3  -8   50.69    4.90
   5  -3  -8   43.30    4.10
   5  -3  -8   57.39    4.20
   5  -3  -8   47.80    4.80
   5  -3  -8   45.50    4.70
  -5   3   8   54.59    5.00
  -5   3   8   48.80    4.70
  -5   3   8   57.69    5.40
  -5   3   8   48.70    4.80
  -5   3   8   50.99    4.50
   4  -3  -8    0.70    1.40
   4  -3  -8    1.70    1.70
   4  -3  -8   -0.40    1.50
   4  -3  -8   -0.80    0.80
   4  -3  -8   -1.00    0.90
  -4   3   8    1.20    1.60
  -4   3   8    0.00    1.10
  -4   3   8    1.30    1.20
  -4   3   8    1.50    1.40
  -4   3   8    1.50    1.60
   3  -3  -8   24.90    3.60
   3  -3  -8   19.70    3.60
   3  -3  -8   24.20    3.60
   3  -3  -8   15.90    3.30
   3  -3  -8   26.30    3.50
   3  -3  -8   19.00    3.10
  -3   3   8   19.20    3.30
  -3   3   8   20.40    3.20
  -3   3   8   21.20    3.60
  -3   3   8   20.60    3.50
  -3   3   8   22.00    3.40
   2  -3  -8   -0.50    1.40
   2  -3  -8    0.70    1.10
   2  -3  -8    0.40    1.40
   2  -3  -8   -1.10    1.20
   2  -3  -8    0.30    1.40
   2  -3  -8   -1.90    1.20
  -2   3   8    0.10    1.00
  -2   3   8    0.80    1.10
  -2   3   8    0.60    0.90
  -2   3   8    2.50    1.40
  -2   3   8   -0.60    0.60
  -2   3   8    0.90    1.20
   1  -3  -8    3.30    1.90
   1  -3  -8    2.20    1.60
   1  -3  -8    1.30    1.30
   1  -3  -8    8.30    2.40
   1  -3  -8    5.40    1.90
   1  -3  -8    4.00    1.90
  -1   3   8    4.40    1.80
  -1   3   8    4.30    0.90
  -1   3   8    3.90    1.70
  -1   3   8    4.50    1.80
  -1   3   8    3.70    1.80
  -1   3   8    3.90    1.70
   0  -3  -8  149.19    7.80
   0  -3  -8  164.88    8.40
   0  -3  -8  161.78    8.50
   0  -3  -8  164.98    8.30
   0  -3  -8  143.99    8.10
   0  -3  -8  143.09    7.90
   0   3   8  151.78    8.00
   0   3   8  150.18    8.10
   0   3   8  154.38    4.00
   0   3   8  149.19    7.60
   0   3   8  155.38    7.80
   0   3   8  147.89    7.80
  -1  -3  -8  751.72   21.80
  -1  -3  -8  740.43   22.50
  -1  -3  -8  759.72   22.00
  -1  -3  -8  757.82   21.60
  -1  -3  -8  779.82   22.70
  -1  -3  -8  773.62   22.50
   1   3   8  749.92   21.00
   1   3   8  740.03   21.50
   1   3   8  769.32   21.50
   1   3   8  737.03   21.70
  -2  -3  -8  105.69    8.80
  -2  -3  -8   97.59    6.90
  -2  -3  -8  106.99    7.00
  -2  -3  -8  111.79    7.50
  -2  -3  -8  101.09    6.90
   2   3   8  110.69    7.30
   2   3   8   99.79    6.70
   2   3   8  112.09    6.60
   2   3   8  109.49    6.80
  -3  -3  -8  208.88   10.90
  -3  -3  -8  236.78   12.10
  -3  -3  -8  237.98   11.10
  -3  -3  -8  232.98   11.00
  -3  -3  -8  236.28   11.80
  -3  -3  -8  211.08   10.40
   3   3   8  239.18   10.50
   3   3   8  243.58   10.30
   3   3   8  239.68   11.90
  -4  -3  -8   -1.00    1.20
  -4  -3  -8    0.10    2.70
  -4  -3  -8   -1.20    2.30
  -4  -3  -8   -0.10    1.90
  -4  -3  -8    0.60    2.30
  -4  -3  -8   -1.80    1.80
   4   3   8    2.30    2.10
   4   3   8    0.30    2.10
   4   3   8    1.60    2.20
   9  -4  -8   60.59    7.70
   9  -4  -8   61.99    3.90
   9  -4  -8   69.19    6.70
  -9   4   8   80.59    7.50
  -9   4   8   60.49    6.30
  -9   4   8   76.69    7.50
  -9   4   8   71.09    7.40
  -9   4   8   56.89    5.80
   8  -4  -8    1.90    2.10
   8  -4  -8    0.30    2.40
   8  -4  -8    2.30    1.40
   8  -4  -8    0.60    2.50
  -8   4   8   11.60    3.40
  -8   4   8    0.10    2.20
  -8   4   8    0.10    1.80
  -8   4   8    0.20    1.90
  -8   4   8    7.00    3.00
  -8   4   8    1.10    2.00
   7  -4  -8    7.30    2.70
   7  -4  -8    6.50    2.20
   7  -4  -8    6.70    2.30
   7  -4  -8    6.40    2.50
   7  -4  -8    0.80    1.90
  -7   4   8    4.60    2.00
  -7   4   8   -0.20    1.50
  -7   4   8    6.10    2.80
  -7   4   8    1.50    1.90
   6  -4  -8  153.28    8.80
   6  -4  -8  138.29    8.50
   6  -4  -8  131.09    8.20
   6  -4  -8  134.39    7.70
   6  -4  -8  147.39    6.60
   6  -4  -8  132.49    8.80
  -6   4   8  130.79    8.60
  -6   4   8  149.69    8.90
  -6   4   8  150.48    8.90
  -6   4   8  125.89    8.00
   5  -4  -8   64.69    4.40
   5  -4  -8   71.79    6.00
   5  -4  -8   53.59    4.80
   5  -4  -8   68.39    6.00
   5  -4  -8   71.59    5.80
   5  -4  -8   60.19    5.50
  -5   4   8   71.59    5.80
  -5   4   8   58.79    5.70
  -5   4   8   69.59    5.60
  -5   4   8   57.29    5.60
  -5   4   8   58.09    5.20
   4  -4  -8   22.00    4.00
   4  -4  -8   21.70    3.70
   4  -4  -8   21.20    3.70
   4  -4  -8   19.00    3.50
   4  -4  -8   18.70    2.90
  -4   4   8   20.00    3.70
  -4   4   8   21.50    3.80
  -4   4   8   20.10    3.60
  -4   4   8   16.40    3.30
  -4   4   8   24.10    3.80
   3  -4  -8   62.89    5.30
   3  -4  -8   57.09    4.90
   3  -4  -8   60.79    5.30
   3  -4  -8   62.09    5.30
   3  -4  -8   65.59    5.30
   3  -4  -8   58.89    4.50
  -3   4   8   56.09    5.20
  -3   4   8   59.39    5.20
  -3   4   8   54.19    4.70
  -3   4   8   51.69    5.00
  -3   4   8   60.39    5.00
   2  -4  -8  117.59    7.20
   2  -4  -8  110.89    6.90
   2  -4  -8  107.49    6.90
   2  -4  -8  104.09    6.10
   2  -4  -8   96.89    6.50
   2  -4  -8  113.99    7.50
  -2   4   8  104.99    5.00
  -2   4   8   98.69    6.60
  -2   4   8   99.49    6.50
  -2   4   8   94.69    6.60
  -2   4   8  102.19    6.90
  -2   4   8  120.49    7.20
  -2   4   8   97.99    6.30
   1  -4  -8   20.50    3.60
   1  -4  -8   22.20    4.00
   1  -4  -8   21.40    3.60
   1  -4  -8   17.80    3.50
   1  -4  -8   21.20    3.80
   1  -4  -8   24.30    3.70
  -1   4   8   17.80    3.20
  -1   4   8   16.70    3.20
  -1   4   8   21.30    3.40
  -1   4   8   20.80    2.00
  -1   4   8   18.80    3.40
  -1   4   8   25.80    4.10
   0  -4  -8   23.50    3.90
   0  -4  -8   30.40    4.40
   0  -4  -8   28.00    4.70
   0  -4  -8   34.90    4.60
   0  -4  -8   32.20    4.70
   0  -4  -8   31.80    4.70
   0   4   8   27.50    4.40
   0   4   8   28.80    2.00
   0   4   8   18.50    3.60
   0   4   8   25.40    4.30
   0   4   8   26.10    3.90
  -1  -4  -8   65.09    5.90
  -1  -4  -8   67.29    5.60
  -1  -4  -8   71.39    6.30
  -1  -4  -8   71.99    6.00
  -1  -4  -8   73.89    6.10
   1   4   8   66.99    8.10
   1   4   8   65.09    5.40
   1   4   8   57.89    5.40
   1   4   8   63.69    3.10
   1   4   8   59.19    5.30
   1   4   8   69.49    5.70
  -2  -4  -8   58.59    5.70
  -2  -4  -8   55.39    5.90
  -2  -4  -8   55.09    5.50
  -2  -4  -8   65.09    6.00
  -2  -4  -8   63.09    6.00
   2   4   8   58.99    5.50
   2   4   8   59.99    5.30
   2   4   8   68.79    6.20
   2   4   8   74.29    6.40
   2   4   8   72.59    6.20
   2   4   8   66.49    5.50
  -3  -4  -8  187.68   10.70
  -3  -4  -8  168.68    9.70
  -3  -4  -8  157.88   11.60
  -3  -4  -8  192.48   10.40
  -3  -4  -8  182.58   10.00
   3   4   8  191.38    9.60
   3   4   8  195.58    9.90
   3   4   8  186.98   10.90
  -4  -4  -8   28.00    4.80
  -4  -4  -8   28.10    4.90
  -4  -4  -8   17.90    4.50
  -4  -4  -8   23.80    5.00
  -4  -4  -8   24.80    3.20
  -4  -4  -8   20.20    4.00
   4   4   8   22.30    4.80
   4   4   8   16.40    3.70
   9  -5  -8  109.69    9.20
   9  -5  -8  111.59    8.70
  -9   5   8  107.29    8.90
  -9   5   8  127.79    9.20
  -9   5   8   93.69    8.10
  -9   5   8  106.39    8.40
  -9   5   8   96.79    8.70
   8  -5  -8    3.30    2.50
   8  -5  -8    2.90    1.20
   8  -5  -8   -2.70    2.60
  -8   5   8    4.90    2.40
  -8   5   8    2.50    3.00
  -8   5   8    6.60    3.10
  -8   5   8    5.00    2.90
  -8   5   8    2.40    2.80
   7  -5  -8    3.30    2.20
   7  -5  -8    4.90    2.90
   7  -5  -8    5.80    1.50
   7  -5  -8    3.50    2.70
   7  -5  -8    4.40    2.30
   7  -5  -8    1.40    2.30
  -7   5   8    3.40    1.90
  -7   5   8    3.50    2.90
  -7   5   8    5.50    2.50
  -7   5   8    4.70    2.80
  -7   5   8    2.30    2.60
   6  -5  -8   -0.30    2.20
   6  -5  -8   -0.60    1.80
   6  -5  -8    1.30    2.00
   6  -5  -8   -2.90    1.60
   6  -5  -8    0.70    1.10
   6  -5  -8    1.60    1.70
  -6   5   8    0.20    1.40
  -6   5   8    3.70    2.60
  -6   5   8    2.40    2.70
  -6   5   8   -1.30    1.70
  -6   5   8   -0.10    2.10
   5  -5  -8   10.30    2.80
   5  -5  -8    8.40    2.50
   5  -5  -8    9.50    2.80
   5  -5  -8    5.40    2.40
   5  -5  -8    9.30    3.00
   5  -5  -8    7.60    2.00
  -5   5   8    7.80    2.50
  -5   5   8    9.10    2.60
  -5   5   8    6.80    2.70
  -5   5   8    6.40    2.60
  -5   5   8    6.10    2.60
   4  -5  -8   45.50    4.80
   4  -5  -8   39.30    5.30
   4  -5  -8   38.40    5.00
   4  -5  -8   38.90    5.30
   4  -5  -8   36.30    5.00
   4  -5  -8   45.50    3.80
  -4   5   8   51.19    5.10
  -4   5   8   46.50    5.80
  -4   5   8   46.70    5.70
  -4   5   8   43.30    5.50
  -4   5   8   45.70    5.80
   3  -5  -8   55.69    4.50
   3  -5  -8   60.69    5.50
   3  -5  -8   50.79    5.30
   3  -5  -8   70.19    5.70
   3  -5  -8   54.79    5.30
   3  -5  -8   62.69    5.50
  -3   5   8   61.59    4.50
  -3   5   8   60.19    5.30
  -3   5   8   45.60    6.80
  -3   5   8   61.59    5.70
  -3   5   8   49.50    5.20
  -3   5   8   72.79    5.70
   2  -5  -8  120.39    6.90
   2  -5  -8  116.99    7.50
   2  -5  -8  124.49    8.00
   2  -5  -8  109.79    7.80
   2  -5  -8  112.59    7.30
   2  -5  -8  115.39    7.60
  -2   5   8  119.69    7.10
  -2   5   8  120.39    7.70
  -2   5   8  118.79    7.40
  -2   5   8  121.89    6.00
  -2   5   8  130.69    8.00
  -2   5   8  109.79    7.50
  -2   5   8  113.89    7.80
   1  -5  -8   -0.90    1.80
   1  -5  -8   -1.40    1.50
   1  -5  -8    1.80    1.50
   1  -5  -8    2.10    1.50
   1  -5  -8   -0.70    1.20
   1  -5  -8    3.30    1.70
  -1   5   8    4.40    2.30
  -1   5   8    4.40    1.80
  -1   5   8   -0.10    1.20
  -1   5   8    4.60    2.30
  -1   5   8   -2.40    1.80
  -1   5   8    0.40    2.00
  -1   5   8    0.50    1.00
   0  -5  -8  110.39    7.50
   0  -5  -8   93.69    7.30
   0  -5  -8   97.79    6.80
   0  -5  -8  100.19    7.00
   0  -5  -8  108.19    7.60
   0   5   8  109.89    7.30
   0   5   8  110.99    4.90
   0   5   8  103.89    7.20
   0   5   8  104.59    8.80
   0   5   8   99.79    7.10
  -1  -5  -8    2.60    2.00
  -1  -5  -8    6.00    2.40
  -1  -5  -8    5.20    2.10
  -1  -5  -8    2.50    2.90
  -1  -5  -8    3.00    2.40
   1   5   8    4.30    2.40
   1   5   8    6.30    1.50
   1   5   8    4.90    2.30
   1   5   8    2.30    2.40
   1   5   8    6.50    2.70
   1   5   8    1.90    2.30
   1   5   8    5.50    2.10
  -2  -5  -8    2.90    2.00
  -2  -5  -8    0.30    1.90
  -2  -5  -8   -3.00    2.70
  -2  -5  -8    3.30    2.30
  -2  -5  -8    2.80    2.30
   2   5   8    3.00    1.70
   2   5   8    1.50    2.40
   2   5   8    3.70    2.20
   2   5   8   -0.10    1.10
  -3  -5  -8    1.50    2.50
  -3  -5  -8    3.40    2.50
  -3  -5  -8    3.20    2.60
  -3  -5  -8    2.80    2.90
   3   5   8    2.00    1.90
   3   5   8    1.60    2.50
   3   5   8    0.50    2.40
   8  -6  -8   10.20    3.50
   8  -6  -8    8.10    1.30
   8  -6  -8   12.10    4.40
  -8   6   8   19.00    4.00
  -8   6   8    3.00    3.10
  -8   6   8   19.40    4.70
  -8   6   8   11.60    3.00
  -8   6   8   13.40    4.50
   7  -6  -8   62.89    6.50
   7  -6  -8   56.99    5.70
   7  -6  -8   58.59    3.60
   7  -6  -8   51.39    6.50
  -7   6   8   54.89    6.80
  -7   6   8   60.59    6.10
  -7   6   8   51.79    6.90
  -7   6   8   52.09    6.60
  -7   6   8   59.89    6.30
   6  -6  -8   71.39    6.70
   6  -6  -8   61.89    6.20
   6  -6  -8   64.89    6.50
   6  -6  -8   67.69    6.30
   6  -6  -8   75.69    4.50
  -6   6   8   82.59    7.00
  -6   6   8   77.39    6.50
  -6   6   8   88.29    7.40
  -6   6   8   81.19    7.00
  -6   6   8   59.39    6.40
   5  -6  -8    6.50    2.80
   5  -6  -8    6.20    2.40
   5  -6  -8    2.40    2.10
   5  -6  -8    4.60    2.00
   5  -6  -8    4.00    1.60
   5  -6  -8    5.80    2.70
  -5   6   8    7.40    2.70
  -5   6   8    4.50    2.70
  -5   6   8    0.00    1.40
  -5   6   8    4.90    2.60
   4  -6  -8   12.80    2.50
   4  -6  -8   12.30    3.40
   4  -6  -8   16.20    3.50
   4  -6  -8   14.50    3.90
   4  -6  -8   14.70    3.60
  -4   6   8   19.10    4.40
  -4   6   8   11.30    2.80
  -4   6   8   21.70    4.10
  -4   6   8    7.80    3.20
  -4   6   8   17.60    3.80
  -4   6   8   12.90    2.90
   3  -6  -8  208.08    9.20
   3  -6  -8  189.68   10.60
   3  -6  -8  191.48   10.40
   3  -6  -8  198.68   10.40
   3  -6  -8  201.78   10.50
  -3   6   8  193.98   10.50
  -3   6   8  194.58    9.20
  -3   6   8  172.58    9.80
  -3   6   8  188.98   10.30
  -3   6   8  199.28    9.00
  -3   6   8  189.08   10.10
  -3   6   8  180.08   10.30
   2  -6  -8  107.99    8.00
   2  -6  -8  113.39    7.60
   2  -6  -8  105.79    8.50
   2  -6  -8  112.69    7.10
   2  -6  -8  115.89    9.30
   2  -6  -8  125.79    8.00
  -2   6   8  117.29    8.20
  -2   6   8  107.39    6.00
  -2   6   8  128.19    8.00
  -2   6   8  121.59    7.40
  -2   6   8  112.29    8.10
  -2   6   8  106.39    7.90
   1  -6  -8  103.29    8.00
   1  -6  -8  100.29    7.50
   1  -6  -8   97.79    7.70
   1  -6  -8   98.69    7.60
   1  -6  -8  102.09    7.20
  -1   6   8  100.69    8.30
  -1   6   8  102.19    7.20
  -1   6   8  106.49    7.60
  -1   6   8   93.39    7.20
  -1   6   8   98.59    5.50
  -1   6   8  119.59    9.70
  -1   6   8   94.09    7.20
   0  -6  -8   63.69    8.40
   0  -6  -8   50.49    6.50
   0  -6  -8   58.79    5.70
   0  -6  -8   64.79    6.20
   0  -6  -8   58.49    5.80
   0  -6  -8   55.89    6.60
   0   6   8   55.99    5.90
   0   6   8   55.69    7.00
   0   6   8   61.69    5.70
   0   6   8   59.99    4.20
   0   6   8   63.59    6.10
  -1  -6  -8  130.09    9.00
  -1  -6  -8  117.09    9.10
  -1  -6  -8  122.19    8.80
  -1  -6  -8  120.99    8.50
   1   6   8  123.29    8.90
   1   6   8  116.89    8.60
   1   6   8  120.29    5.90
   1   6   8  120.29    8.40
   1   6   8  134.49    8.60
  -2  -6  -8    4.50    2.10
  -2  -6  -8   -2.40    2.30
  -2  -6  -8    5.60    3.10
  -2  -6  -8    1.40    2.10
  -2  -6  -8    1.50    3.20
   2   6   8    0.90    2.60
   2   6   8    3.10    1.50
   2   6   8    2.70    2.20
   2   6   8    3.10    2.50
   7  -7  -8    2.50    3.30
   7  -7  -8    1.60    1.80
   7  -7  -8    2.70    3.60
  -7   7   8    6.90    2.60
  -7   7   8    2.60    2.10
  -7   7   8    8.20    3.70
  -7   7   8   -1.60    3.20
   6  -7  -8   90.19    7.30
   6  -7  -8  107.49    8.30
   6  -7  -8   92.89    5.20
   6  -7  -8   90.19    7.70
  -6   7   8  106.79    8.20
  -6   7   8   95.99    8.20
  -6   7   8   89.19    7.60
  -6   7   8   82.89    7.50
  -6   7   8   71.09    6.90
   5  -7  -8   10.90    3.60
   5  -7  -8   12.10    2.50
   5  -7  -8   20.20    4.40
   5  -7  -8   16.00    3.90
   5  -7  -8    9.40    3.70
  -5   7   8   18.30    4.20
  -5   7   8   13.00    3.90
  -5   7   8    6.80    3.40
  -5   7   8   10.20    3.80
  -5   7   8   15.00    3.50
  -5   7   8   12.50    3.20
   4  -7  -8    2.00    1.90
   4  -7  -8    3.10    2.80
   4  -7  -8   -3.40    1.90
   4  -7  -8    4.00    2.60
   4  -7  -8    0.80    1.80
   4  -7  -8   -0.30    1.80
  -4   7   8    0.30    2.20
  -4   7   8    1.90    1.90
  -4   7   8    2.20    2.20
  -4   7   8    2.30    1.60
  -4   7   8   -1.60    1.90
  -4   7   8    2.80    2.70
   3  -7  -8   31.00    4.20
   3  -7  -8   33.10    5.20
   3  -7  -8   21.80    5.30
   3  -7  -8   24.00    4.50
   3  -7  -8   28.50    4.80
  -3   7   8   19.30    3.60
  -3   7   8   29.80    5.20
  -3   7   8   27.80    4.80
  -3   7   8   30.40    4.30
  -3   7   8   28.20    4.90
  -3   7   8   28.50    4.80
  -3   7   8   26.70    4.90
   2  -7  -8   10.00    3.10
   2  -7  -8   10.00    3.70
   2  -7  -8   10.50    2.90
   2  -7  -8    8.90    2.60
   2  -7  -8   12.60    4.10
  -2   7   8    8.10    3.30
  -2   7   8    7.40    2.70
  -2   7   8   12.60    3.70
  -2   7   8    9.30    2.40
  -2   7   8    7.90    2.80
  -2   7   8   16.80    3.90
   1  -7  -8    2.40    2.40
   1  -7  -8    2.50    2.00
   1  -7  -8    4.60    3.30
   1  -7  -8    3.30    2.50
   1  -7  -8    3.60    3.10
  -1   7   8    7.80    3.40
  -1   7   8    3.00    2.50
  -1   7   8    2.80    2.30
  -1   7   8    0.80    2.70
  -1   7   8    5.00    2.10
  -1   7   8    4.40    2.50
   0  -7  -8   19.00    4.10
   0  -7  -8   16.40    3.90
   0  -7  -8   31.50    5.00
   0   7   8   20.60    3.20
   0   7   8   20.30    4.20
   0   7   8   23.00    4.80
   0   7   8   22.00    4.50
  -1  -7  -8   45.30    6.90
  -1  -7  -8   40.60    5.80
  -1  -7  -8   49.30    6.60
  -1  -7  -8   42.00    6.20
  -1  -7  -8   63.79    9.00
   1   7   8   36.90    5.60
   1   7   8   37.40    6.00
   1   7   8   59.89    7.30
   1   7   8   49.99    4.30
   6  -8  -8   12.50    4.10
   6  -8  -8    7.60    3.60
   6  -8  -8   10.60    2.30
  -6   8   8   10.80    3.50
  -6   8   8   10.40    3.90
  -6   8   8   13.00    4.10
  -6   8   8   10.00    3.80
  -6   8   8    9.10    3.70
  -6   8   8   13.00    3.60
   5  -8  -8    7.40    2.30
   5  -8  -8    1.00    2.90
   5  -8  -8   -2.60    2.40
  -5   8   8    7.10    3.20
  -5   8   8    9.30    3.50
  -5   8   8    6.50    3.60
  -5   8   8    5.50    2.70
  -5   8   8    7.10    2.90
  -5   8   8    1.50    2.40
   4  -8  -8    6.20    2.80
   4  -8  -8    9.90    3.70
   4  -8  -8    9.00    3.30
  -4   8   8    5.10    3.00
  -4   8   8    1.90    3.50
  -4   8   8    8.30    2.80
  -4   8   8   10.00    4.30
  -4   8   8    2.40    2.40
  -4   8   8    4.90    2.20
   3  -8  -8    1.80    2.70
   3  -8  -8    6.60    2.80
   3  -8  -8    6.70    2.60
   3  -8  -8    1.80    2.90
  -3   8   8    9.40    3.20
  -3   8   8    1.70    2.70
  -3   8   8    6.80    2.60
  -3   8   8    8.20    2.60
  -3   8   8    7.50    3.40
  -3   8   8    0.70    3.10
  -3   8   8    4.60    2.60
   2  -8  -8  128.29    9.30
   2  -8  -8  116.09    8.00
   2  -8  -8   98.49    8.20
   2  -8  -8  107.89    8.30
  -2   8   8  122.29    9.10
  -2   8   8  108.09    9.20
  -2   8   8  127.19    7.60
  -2   8   8  122.29    9.20
  -2   8   8  137.19    9.40
  -2   8   8  113.39   10.50
  -2   8   8  109.39    7.90
   1  -8  -8   72.59    7.60
   1  -8  -8   73.99    6.70
   1  -8  -8   65.59    7.00
  -1   8   8   69.39    5.70
  -1   8   8   58.49    7.20
  -1   8   8   61.29    7.60
  -1   8   8   57.19    7.50
   0  -8  -8   15.50    4.20
   0  -8  -8    5.30    4.20
   0   8   8    9.10    3.00
   0   8   8    5.10    3.70
   0   8   8    7.60    2.70
   4  -9  -8    9.40    2.90
   4  -9  -8   13.00    4.40
   4  -9  -8   15.90    4.50
  -4   9   8    7.30    3.50
  -4   9   8    4.40    3.10
  -4   9   8   13.10    4.30
  -4   9   8   11.40    3.60
  -4   9   8   15.50    4.90
  -4   9   8    6.80    3.00
   3  -9  -8    3.90    3.40
   3  -9  -8    7.70    2.90
   3  -9  -8   12.20    3.60
  -3   9   8   10.80    3.80
  -3   9   8    6.70    3.40
  -3   9   8   11.40    3.60
  -3   9   8    8.10    3.70
  -3   9   8    6.60    2.90
   3   9  -9    4.30    2.00
   3   9  -9   -1.20    2.30
   3   9  -9    1.20    2.00
   3   9  -9    3.00    2.60
  -3  -9   9   -0.30    2.10
  -3  -9   9    1.00    2.60
   2   9  -9   29.90    4.00
   2   9  -9   25.70    3.80
   2   9  -9   21.80    4.30
  -2  -9   9   20.20    3.30
  -2  -9   9   27.20    7.00
  -2  -9   9   28.80    3.80
   1   9  -9   -3.50    1.30
   1   9  -9   -1.40    1.60
   1   9  -9   -1.20    2.00
   1   9  -9    0.80    1.40
  -1  -9   9   -2.50    1.20
  -1  -9   9    2.20    1.50
  -1  -9   9   -1.90    2.60
  -1  -9   9    1.10    1.60
   0   9  -9   -0.10    1.80
   0   9  -9    2.10    1.20
   0   9  -9    0.20    1.30
   0   9  -9   -0.20    0.80
   0   9  -9   -1.10    1.10
   0   9  -9    0.90    1.30
   0  -9   9    2.20    2.90
  -1   9  -9   19.70    2.60
  -1   9  -9   24.50    1.90
  -1   9  -9   24.80    1.40
  -1   9  -9   23.50    1.40
  -1   9  -9   24.30    1.90
  -1   9  -9   32.30    5.10
   1  -9   9   23.60    6.10
  -2   9  -9    7.60    2.70
  -2   9  -9    5.30    2.50
  -2   9  -9    5.30    2.10
   2  -9   9    6.50    3.70
   4   8  -9   24.20    4.10
   4   8  -9   17.50    4.00
   4   8  -9   21.80    4.10
   4   8  -9   17.60    4.00
   4   8  -9   22.70    4.10
  -4  -8   9   25.80    6.50
   3   8  -9   -1.00    1.60
   3   8  -9    0.20    1.90
   3   8  -9    0.60    1.60
   3   8  -9    0.70    1.60
   3   8  -9   -0.60    1.70
  -3  -8   9   -1.50    1.50
  -3  -8   9    0.10    2.20
  -3  -8   9   -2.10    2.20
   2   8  -9    9.30    2.30
   2   8  -9    4.90    2.10
   2   8  -9    5.40    1.90
   2   8  -9    8.70    2.20
   2   8  -9   10.90    2.90
  -2  -8   9    4.20    3.30
  -2  -8   9    6.40    2.10
  -2  -8   9    7.70    2.20
  -2  -8   9    9.40    2.80
   1   8  -9   15.50    3.40
   1   8  -9   20.70    2.90
   1   8  -9   16.10    2.80
  -1  -8   9   13.00    4.50
  -1  -8   9   17.30    2.20
  -1  -8   9   14.20    1.90
  -1  -8   9   15.80    2.00
   0   8  -9   96.19    4.90
   0   8  -9   98.59    4.60
   0   8  -9  103.99    5.00
   0   8  -9   99.69    4.70
   0   8  -9   89.69    6.80
   0  -8   9  118.09   10.20
  -1   8  -9   -0.20    0.50
  -1   8  -9   -1.10    1.70
  -1   8  -9   -0.10    0.50
  -1   8  -9    1.40    1.20
   1  -8   9    1.80    2.90
  -2   8  -9    2.60    2.20
  -2   8  -9   -0.30    1.90
  -2   8  -9    0.60    1.50
   2  -8   9    2.30    3.00
  -3   8  -9   30.50    4.20
  -3   8  -9   23.70    4.20
  -3   8  -9   31.90    4.60
   3  -8   9   28.30    6.00
   5   7  -9   -1.20    2.20
   5   7  -9    0.00    2.50
   5   7  -9   -1.00    2.40
   5   7  -9   -2.50    1.70
  -5  -7   9    2.00    3.00
  -5  -7   9   -4.60    2.00
  -5  -7   9   -2.60    2.10
   4   7  -9   18.50    3.70
   4   7  -9   23.30    3.80
   4   7  -9   19.00    4.00
   4   7  -9   14.50    3.30
   4   7  -9   18.10    3.80
  -4  -7   9   17.00    4.90
  -4  -7   9   20.60    4.00
   3   7  -9   21.00    3.40
   3   7  -9   23.20    3.70
   3   7  -9   18.90    3.30
   3   7  -9   29.80    4.60
  -3  -7   9   19.30    5.00
  -3  -7   9   19.80    3.60
  -3  -7   9   19.50    4.20
  -3  -7   9   17.60    3.20
   2   7  -9    1.40    1.50
   2   7  -9    1.10    1.20
   2   7  -9    1.10    1.60
   2   7  -9    1.20    1.30
   2   7  -9    1.60    1.40
  -2  -7   9   -1.30    1.20
  -2  -7   9    0.60    1.30
  -2  -7   9   -1.10    1.40
  -2  -7   9    3.20    1.60
  -2  -7   9    1.20    2.30
   1   7  -9   70.99    5.60
   1   7  -9   67.49    4.50
   1   7  -9   68.69    4.20
   1   7  -9   68.89    4.30
   1   7  -9   69.49    4.40
  -1  -7   9   77.39    8.00
  -1  -7   9   62.49    3.30
  -1  -7   9   50.09    5.10
   0   7  -9    2.90    1.10
   0   7  -9    1.60    1.00
   0   7  -9    4.20    2.30
   0   7  -9    1.40    0.70
   0  -7   9    2.30    2.60
  -1   7  -9   -0.30    1.40
  -1   7  -9    0.00    0.30
  -1   7  -9   -0.20    0.30
  -1   7  -9   -0.60    1.00
   1  -7   9   -0.10    2.70
  -2   7  -9    0.40    1.70
  -2   7  -9   -0.70    1.70
  -2   7  -9    0.00    1.30
   2  -7   9    2.60    2.80
  -3   7  -9   54.49    4.70
  -3   7  -9   38.10    4.90
  -3   7  -9   38.20    5.80
   3  -7   9   45.30    7.10
  -4   7  -9    1.80    2.10
  -4   7  -9    1.10    1.70
  -4   7  -9    3.20    2.10
   4  -7   9    4.10    3.00
   4  -7   9    3.30    2.60
   6   6  -9    2.30    2.10
   6   6  -9    1.70    1.60
   6   6  -9   -3.10    2.50
   6   6  -9    1.60    2.20
  -6  -6   9    3.80    2.80
  -6  -6   9    0.30    2.60
  -6  -6   9    5.60    3.10
   5   6  -9    0.60    1.90
   5   6  -9   -1.50    1.30
   5   6  -9   -3.60    1.40
   5   6  -9   -4.10    1.80
   5   6  -9   -1.50    1.60
  -5  -6   9   -2.10    2.00
  -5  -6   9   -1.40    2.10
  -5  -6   9    0.30    2.50
  -5  -6   9    0.50    2.40
   4   6  -9   73.19    6.00
   4   6  -9   62.99    5.20
   4   6  -9   62.39    5.20
   4   6  -9   75.19    5.80
   4   6  -9   77.29    5.40
  -4  -6   9   68.09   10.50
  -4  -6   9   67.39    5.10
  -4  -6   9   60.29    8.80
  -4  -6   9   55.19    5.00
  -4  -6   9   70.69    5.70
   3   6  -9    6.60    2.20
   3   6  -9    2.40    1.30
   3   6  -9    5.50    1.80
   3   6  -9    3.40    2.00
  -3  -6   9    1.90    1.50
  -3  -6   9    8.40    3.50
  -3  -6   9   -0.40    1.50
  -3  -6   9    3.00    1.60
   2   6  -9    5.20    1.90
   2   6  -9    9.80    2.30
   2   6  -9    9.20    2.00
   2   6  -9    6.00    1.90
   2   6  -9    8.30    2.10
  -2  -6   9    6.20    1.80
  -2  -6   9    8.50    1.90
  -2  -6   9    6.40    3.30
  -2  -6   9    4.80    2.20
   1   6  -9   20.60    2.70
   1   6  -9   17.90    3.10
   1   6  -9   17.30    2.60
   1   6  -9   18.90    2.60
  -1  -6   9   15.90    4.40
  -1  -6   9   17.10    2.00
  -1  -6   9   19.30    2.00
  -1  -6   9   17.90    3.20
  -1  -6   9   17.50    1.80
   0   6  -9   45.70    2.30
   0   6  -9   47.90    2.80
   0   6  -9   47.80    2.80
   0   6  -9   49.10    4.30
   0  -6   9   53.09    7.70
  -1   6  -9   23.90    1.10
  -1   6  -9   33.40    4.70
  -1   6  -9   23.00    3.30
  -1   6  -9   28.70    2.60
   1  -6   9   19.50    4.80
  -2   6  -9    0.90    1.30
  -2   6  -9   -1.00    1.50
  -2   6  -9    1.80    1.80
   2  -6   9   -1.50    1.20
  -3   6  -9   41.40    5.10
  -3   6  -9   43.30    4.10
  -3   6  -9   41.70    4.20
   3  -6   9   35.10    6.50
   3  -6   9   38.50    4.90
  -4   6  -9   34.60    4.90
  -4   6  -9   37.40    4.70
  -4   6  -9   39.40    4.30
   4  -6   9   41.50    5.60
   7   5  -9   35.60    5.50
   7   5  -9   38.90    5.30
   7   5  -9   49.99    6.60
   7   5  -9   42.40    3.40
   7   5  -9   41.50    5.90
  -7  -5   9   43.90    6.10
  -7  -5   9   50.09    7.00
  -7  -5   9   39.30    7.00
   6   5  -9    0.20    1.00
   6   5  -9    0.30    1.70
   6   5  -9    2.70    2.40
   6   5  -9    3.10    2.30
   6   5  -9    0.40    2.00
   6   5  -9    4.30    2.20
  -6  -5   9    0.30    2.40
  -6  -5   9    2.30    2.10
   5   5  -9   13.20    3.10
   5   5  -9   19.00    3.50
   5   5  -9   15.10    3.40
   5   5  -9   15.80    3.20
   5   5  -9   12.50    3.00
  -5  -5   9   13.70    3.20
  -5  -5   9   12.20    2.80
  -5  -5   9   14.40    3.90
  -5  -5   9   13.00    3.00
  -5  -5   9   11.70    3.40
   4   5  -9  215.68   10.00
   4   5  -9  214.48    9.70
   4   5  -9  219.38    9.70
   4   5  -9  208.68    9.60
   4   5  -9  222.98   10.10
  -4  -5   9  220.48   12.70
  -4  -5   9  225.08    9.80
  -4  -5   9  196.78    9.60
  -4  -5   9  232.48   10.70
   3   5  -9    0.80    1.10
   3   5  -9    1.40    1.60
   3   5  -9    3.20    1.50
   3   5  -9   -0.70    1.10
  -3  -5   9    1.60    1.40
  -3  -5   9    2.50    2.10
  -3  -5   9    3.50    1.70
  -3  -5   9   -0.70    1.30
   2   5  -9   81.69    5.00
   2   5  -9   84.49    5.30
   2   5  -9   75.79    5.00
   2   5  -9   81.39    4.90
   2   5  -9   70.89    4.40
  -2  -5   9   66.79    5.10
  -2  -5   9   73.99    4.40
  -2  -5   9   85.29    5.70
  -2  -5   9   77.99    4.20
  -2  -5   9   61.99    6.80
   1   5  -9   53.89    3.60
   1   5  -9   49.80    3.90
   1   5  -9   57.09    3.40
   1   5  -9   54.19    3.60
  -1  -5   9   56.19    6.30
  -1  -5   9   54.59    2.80
  -1  -5   9   49.20    3.00
  -1  -5   9   50.39    3.00
  -1  -5   9   54.49    4.50
   0   5  -9  137.09    4.70
   0   5  -9  138.09    5.10
   0   5  -9  128.19    5.20
   0   5  -9  137.89    4.90
   0   5  -9  139.69    6.50
   0  -5   9  139.79    9.80
  -1   5  -9    3.00    0.60
  -1   5  -9    3.60    1.40
  -1   5  -9    2.40    1.40
  -1   5  -9    2.90    0.60
  -1   5  -9    3.10    2.00
  -1   5  -9    3.30    0.80
   1  -5   9    3.10    1.50
   1  -5   9    5.70    3.00
  -2   5  -9  150.78    6.90
  -2   5  -9  151.98    7.10
  -2   5  -9  140.69    8.10
   2  -5   9  155.48   10.40
   2  -5   9  158.28    7.50
  -3   5  -9   72.49    5.30
  -3   5  -9   80.49    6.00
  -3   5  -9   72.99    4.90
   3  -5   9   88.49    7.80
   3  -5   9   71.09    5.60
  -4   5  -9  122.29    7.30
  -4   5  -9  117.09    7.50
  -4   5  -9  111.49    6.30
   4  -5   9  108.89    7.70
  -5   5  -9    1.60    1.90
  -5   5  -9   -0.20    2.50
  -5   5  -9    1.10    1.80
   5  -5   9    3.40    2.50
   8   4  -9    3.60    3.30
   8   4  -9    0.00    1.70
   8   4  -9    4.40    3.50
   8   4  -9   -4.30    3.00
  -8  -4   9    1.50    1.70
  -8  -4   9   -5.20    2.90
  -8  -4   9    0.40    2.50
  -8  -4   9   -1.50    2.00
  -8  -4   9    3.10    1.70
   7   4  -9   31.90    5.00
   7   4  -9   29.60    3.00
   7   4  -9   43.30    5.40
   7   4  -9   32.00    5.50
   7   4  -9   40.10    5.90
   7   4  -9   36.20    5.40
  -7  -4   9   36.90    5.50
  -7  -4   9   28.70    5.70
  -7  -4   9   26.80    2.70
  -7  -4   9   28.70    5.20
   6   4  -9   43.10    5.80
   6   4  -9   48.20    5.00
   6   4  -9   40.20    5.40
   6   4  -9   37.40    5.20
   6   4  -9   47.50    5.90
  -6  -4   9   44.10    5.30
  -6  -4   9   37.40    6.20
  -6  -4   9   42.90    5.80
  -6  -4   9   44.70    4.70
  -6  -4   9   41.90    5.70
  -6  -4   9   36.70    5.70
   5   4  -9  128.89    7.90
   5   4  -9  130.89    7.70
   5   4  -9  120.89    7.50
   5   4  -9  129.59    7.40
   5   4  -9  130.89    7.80
  -5  -4   9  147.09    8.20
  -5  -4   9  138.59    9.70
  -5  -4   9  125.09    9.10
  -5  -4   9  103.69    7.50
   4   4  -9  163.28    8.90
   4   4  -9  138.59    7.50
   4   4  -9  154.48    8.20
   4   4  -9  136.89    7.40
   4   4  -9  143.19    7.70
  -4  -4   9  144.89    9.70
  -4  -4   9  153.08    8.10
  -4  -4   9  172.78    8.50
  -4  -4   9  136.69    7.30
   3   4  -9   41.00    3.60
   3   4  -9   45.80    4.10
   3   4  -9   48.00    4.20
   3   4  -9   46.80    4.10
   3   4  -9   46.00    3.90
  -3  -4   9   46.80    3.60
  -3  -4   9   43.00    6.40
  -3  -4   9   40.40    4.00
  -3  -4   9   45.60    4.20
  -3  -4   9   47.90    4.00
   2   4  -9   -0.50    1.00
   2   4  -9    0.20    0.90
   2   4  -9    0.60    1.00
   2   4  -9   -2.10    0.70
  -2  -4   9    0.40    1.80
  -2  -4   9    0.20    0.80
  -2  -4   9   -0.50    0.90
  -2  -4   9   -0.60    0.90
  -2  -4   9   -1.40    0.70
  -2  -4   9   -0.30    1.20
   1   4  -9   18.50    2.30
   1   4  -9   23.60    2.50
   1   4  -9   22.40    2.70
   1   4  -9   23.50    2.50
   1   4  -9   21.60    2.80
  -1  -4   9   24.60    3.10
  -1  -4   9   27.60    5.20
  -1  -4   9   21.10    2.10
  -1  -4   9   18.00    1.80
  -1  -4   9   20.60    2.10
  -1  -4   9   22.10    1.90
   0   4  -9   16.20    3.40
   0   4  -9   19.00    2.20
   0   4  -9   17.40    2.40
   0   4  -9   19.00    2.20
   0   4  -9   16.30    1.90
   0   4  -9   21.60    2.20
   0   4  -9   17.30    1.80
   0  -4   9   18.60    1.10
   0  -4   9   19.00    1.00
   0  -4   9   16.60    4.20
  -1   4  -9   29.20    4.10
  -1   4  -9   22.50    1.80
  -1   4  -9   25.90    3.00
  -1   4  -9   24.40    1.70
  -1   4  -9   26.90    2.00
  -1   4  -9   27.20    1.80
  -1   4  -9   25.80    2.40
   1  -4   9   22.80    3.00
   1  -4   9   22.60    5.00
  -2   4  -9  265.77    6.30
  -2   4  -9  262.27   11.50
  -2   4  -9  265.17    6.30
  -2   4  -9  267.17    5.80
  -2   4  -9  265.37    5.80
  -2   4  -9  272.27    8.80
   2  -4   9  284.87   10.50
   2  -4   9  244.28   13.20
  -3   4  -9    8.10    1.80
  -3   4  -9   10.70    2.80
   3  -4   9   10.50    2.90
  -4   4  -9    0.40    0.30
  -4   4  -9    1.80    1.30
  -4   4  -9   -1.70    1.40
   4  -4   9    0.90    2.00
  -5   4  -9    5.40    1.90
  -5   4  -9    9.20    2.50
  -5   4  -9    5.00    0.90
  -5   4  -9    9.00    2.50
   5  -4   9    5.00    3.00
   8   3  -9  105.79    8.50
   8   3  -9   91.99    7.40
   8   3  -9   94.99    6.00
   8   3  -9   97.39    8.40
   8   3  -9  107.69    9.70
  -8  -3   9   88.19    8.10
  -8  -3   9  102.09    5.60
  -8  -3   9  103.19    8.60
  -8  -3   9   91.29    7.90
   7   3  -9  224.08   12.00
   7   3  -9  212.78    8.00
   7   3  -9  197.08   11.00
   7   3  -9  228.48   11.00
   7   3  -9  227.28   11.60
  -7  -3   9  229.98   12.10
  -7  -3   9  222.88   12.20
  -7  -3   9  258.07   12.50
  -7  -3   9  211.38   10.50
  -7  -3   9  227.78   11.40
  -7  -3   9  221.68    7.60
   6   3  -9  373.36   14.40
   6   3  -9  367.06   13.90
   6   3  -9  390.96   14.90
   6   3  -9  344.07   14.60
   6   3  -9  372.66   14.70
  -6  -3   9  380.66   15.20
  -6  -3   9  374.36   14.70
  -6  -3   9  359.96    8.90
  -6  -3   9  406.86   16.80
  -6  -3   9  366.76   13.90
   5   3  -9    1.40    1.60
   5   3  -9   -2.30    1.20
   5   3  -9    0.20    1.10
   5   3  -9    0.30    1.30
   5   3  -9   -0.10    1.30
  -5  -3   9    0.80    2.00
  -5  -3   9    1.30    1.60
  -5  -3   9   -0.70    1.60
  -5  -3   9    0.30    1.50
  -5  -3   9    3.00    1.80
  -5  -3   9   -1.90    1.00
   4   3  -9  316.87   13.70
   4   3  -9  293.57   11.40
   4   3  -9  305.37   11.10
   4   3  -9  277.77   10.80
   4   3  -9  297.57   11.80
  -4  -3   9  312.27   10.70
  -4  -3   9  281.07   11.00
  -4  -3   9  292.97   11.60
  -4  -3   9  265.77   13.20
  -4  -3   9  301.37   11.20
   3   3  -9  350.66   11.20
   3   3  -9  324.87   11.90
   3   3  -9  342.67   11.80
   3   3  -9  320.77   11.50
   3   3  -9  324.87   11.20
  -3  -3   9  336.27   14.80
  -3  -3   9  340.47   11.80
  -3  -3   9  328.77   10.90
  -3  -3   9  345.87   11.50
   2   3  -9  128.09    6.40
   2   3  -9  135.39    6.40
   2   3  -9  129.39    6.00
   2   3  -9  138.39    5.80
   2   3  -9  126.49    6.20
  -2  -3   9  128.29    6.00
  -2  -3   9  130.59    8.90
  -2  -3   9  128.69    5.50
  -2  -3   9  124.09    5.60
   1   3  -9    7.20    1.70
   1   3  -9    5.00    2.10
   1   3  -9    7.80    1.70
   1   3  -9    7.10    1.50
   1   3  -9    5.60    0.90
   1   3  -9    5.00    1.20
   1   3  -9    4.50    1.50
  -1  -3   9    6.10    1.30
  -1  -3   9    5.50    2.70
  -1  -3   9    4.30    1.30
  -1  -3   9    7.40    1.60
  -1  -3   9    6.50    1.40
  -1  -3   9    7.10    1.60
   0   3  -9 1162.98   25.70
   0   3  -9 1171.58   29.70
   0   3  -9 1171.18   24.40
   0   3  -9 1122.29   25.10
   0   3  -9 1145.69   25.30
   0   3  -9 1155.48   25.60
   0   3  -9 1150.88   25.10
   0  -3   9 1122.19   32.80
   0  -3   9 1166.88   23.60
   0  -3   9 1134.49   24.70
  -1   3  -9  655.43   16.00
  -1   3  -9  672.83   15.70
  -1   3  -9  679.93   16.00
  -1   3  -9  671.23   15.70
  -1   3  -9  682.73   20.30
   1  -3   9  705.13   23.50
   1  -3   9  676.53   17.50
  -2   3  -9    4.00    1.00
  -2   3  -9    7.60    1.30
  -2   3  -9    7.80    2.40
  -2   3  -9    6.90    1.40
   2  -3   9    9.10    2.40
  -3   3  -9  236.58    6.80
  -3   3  -9  243.08    7.20
  -3   3  -9  237.08    7.40
  -3   3  -9  231.98    7.00
  -3   3  -9  226.48    7.00
  -3   3  -9  250.47   11.00
   3  -3   9  247.98   10.70
  -4   3  -9   37.60    2.70
  -4   3  -9   39.10    3.10
  -4   3  -9   38.80    3.00
  -4   3  -9   36.80    2.80
  -4   3  -9   40.50    5.20
  -4   3  -9   41.20    2.60
  -4   3  -9   38.90    2.60
   4  -3   9   44.40    5.90
  -5   3  -9    2.00    2.20
  -5   3  -9    3.10    1.40
  -5   3  -9    0.60    1.40
  -5   3  -9    1.00    1.20
  -5   3  -9    1.30    1.30
  -5   3  -9    0.10    1.00
  -5   3  -9   -0.10    1.00
   5  -3   9    1.00    2.70
   8   2  -9   48.10    6.30
   8   2  -9   50.19    6.30
   8   2  -9   53.79    4.60
   8   2  -9   71.49    6.60
   8   2  -9   54.69    7.30
  -8  -2   9   67.29    6.60
  -8  -2   9   56.69    5.60
  -8  -2   9   59.39    6.20
  -8  -2   9   65.69    8.00
  -8  -2   9   53.59    4.30
   7   2  -9  471.55   16.80
   7   2  -9  438.76   17.00
   7   2  -9  453.25   17.40
   7   2  -9  480.45   18.20
  -7  -2   9  459.95   13.10
  -7  -2   9  439.76   17.20
  -7  -2   9  475.55   17.00
  -7  -2   9  460.35   17.90
  -7  -2   9  522.85   18.60
  -7  -2   9  428.46   18.20
  -7  -2   9  465.65   16.70
   6   2  -9  179.88    9.40
   6   2  -9  186.98    9.90
   6   2  -9  163.58    9.40
   6   2  -9  174.78    9.10
  -6  -2   9  180.68    9.90
  -6  -2   9  191.08    9.10
  -6  -2   9  175.58    9.00
  -6  -2   9  193.78   10.00
  -6  -2   9  152.68    8.40
  -6  -2   9  180.78    6.10
  -6  -2   9  174.48   10.20
   5   2  -9    6.10    2.30
   5   2  -9    4.90    1.90
   5   2  -9    4.70    2.40
   5   2  -9    0.70    1.20
  -5  -2   9    7.70    2.90
  -5  -2   9    2.00    1.90
  -5  -2   9    3.90    1.70
  -5  -2   9    3.80    1.90
  -5  -2   9    1.50    1.70
  -5  -2   9    2.30    0.70
  -5  -2   9    6.20    1.80
   4   2  -9  268.87    9.90
   4   2  -9  279.07   10.60
   4   2  -9  273.47   11.20
   4   2  -9  258.57   10.70
   4   2  -9  267.97   10.80
  -4  -2   9  280.07   10.90
  -4  -2   9  265.07   11.00
  -4  -2   9  303.87   13.40
  -4  -2   9  271.37   10.10
   3   2  -9    5.60    1.50
   3   2  -9    6.00    1.80
   3   2  -9    6.00    1.80
   3   2  -9    3.60    1.30
   3   2  -9    9.20    2.20
  -3  -2   9    5.90    1.50
  -3  -2   9    6.60    1.60
  -3  -2   9    8.50    1.90
  -3  -2   9    8.90    2.00
  -3  -2   9    5.90    2.00
  -3  -2   9    1.50    2.20
   2   2  -9    3.10    1.20
   2   2  -9    4.00    1.50
   2   2  -9    5.60    1.70
   2   2  -9    5.10    1.50
   2   2  -9    5.00    1.40
  -2  -2   9    5.70    1.60
  -2  -2   9    4.20    2.50
  -2  -2   9    4.60    1.30
  -2  -2   9    2.30    0.90
  -2  -2   9    4.70    1.30
  -2  -2   9    3.50    1.10
   1   2  -9    1.80    1.10
   1   2  -9   -0.10    1.00
   1   2  -9    1.20    0.70
   1   2  -9    0.90    1.00
   1   2  -9    0.20    0.50
   1   2  -9   -0.10    1.00
   1   2  -9   -0.30    0.90
  -1  -2   9    0.50    0.90
  -1  -2   9   -0.40    0.80
  -1  -2   9   -0.50    0.70
  -1  -2   9    1.30    0.80
  -1  -2   9    0.70    0.60
  -1  -2   9   -1.50    1.30
   0   2  -9   31.20    1.50
   0   2  -9   37.90    3.00
   0   2  -9   34.20    4.50
   0   2  -9   30.00    2.80
   0   2  -9   36.80    3.00
   0   2  -9   35.00    3.00
   0   2  -9   35.60    2.90
   0  -2   9   31.30    2.60
   0  -2   9   42.20    4.90
   0  -2   9   36.70    2.50
   0  -2   9   37.10    2.50
   0  -2   9   35.70    2.60
   0  -2   9   37.40    2.50
  -1   2  -9   17.20    3.10
  -1   2  -9   14.80    2.20
  -1   2  -9   15.00    2.10
  -1   2  -9   17.10    2.30
  -1   2  -9   17.50    2.80
  -1   2  -9   18.60    2.40
   1  -2   9   17.00    1.60
   1  -2   9   14.10    1.60
   1  -2   9   18.70    1.70
   1  -2   9   16.10    2.60
   1  -2   9   20.90    1.80
  -2   2  -9   22.00    3.10
  -2   2  -9   22.20    3.70
  -2   2  -9   19.60    2.50
   2  -2   9   22.70    1.50
   2  -2   9   21.10    3.30
   2  -2   9   17.50    1.50
   2  -2   9   20.40    1.50
   2  -2   9   21.20    1.50
  -3   2  -9   71.89    5.80
  -3   2  -9   58.39    2.20
  -3   2  -9   56.19    3.90
  -3   2  -9   55.39    3.70
  -3   2  -9   64.99    3.70
  -3   2  -9   54.89    3.70
   3  -2   9   55.19    1.80
   3  -2   9   62.99    2.50
   3  -2   9   62.09    5.30
  -4   2  -9   64.79    4.20
  -4   2  -9   62.29    3.20
  -4   2  -9   69.59    4.30
  -4   2  -9   63.79    4.40
  -4   2  -9   61.79    3.80
  -4   2  -9   61.09    3.00
  -4   2  -9   76.79    6.00
   4  -2   9   70.79    6.30
   4  -2   9   63.79    2.40
  -5   2  -9   45.00    6.00
  -5   2  -9   40.30    3.80
  -5   2  -9   48.20    5.80
  -5   2  -9   37.10    3.40
   5  -2   9   43.30    6.70
   9   1  -9   75.49    7.50
   9   1  -9   65.19    8.20
   9   1  -9   73.69    7.60
   9   1  -9   67.09    6.60
   9   1  -9   72.99    6.10
  -9  -1   9   74.99    7.60
  -9  -1   9   70.49    7.00
  -9  -1   9   84.69    8.10
  -9  -1   9   71.19    6.20
   8   1  -9    9.60    3.60
   8   1  -9   10.10    3.30
   8   1  -9   11.60    2.90
   8   1  -9   12.60    3.90
   8   1  -9    7.80    3.40
  -8  -1   9   13.20    3.40
  -8  -1   9    9.50    3.30
  -8  -1   9   10.80    4.00
  -8  -1   9    8.50    2.60
  -8  -1   9   12.40    3.30
  -8  -1   9   11.00    2.40
   7   1  -9  302.17   13.90
   7   1  -9  318.87   13.20
   7   1  -9  308.37   13.50
   7   1  -9  312.17   13.70
  -7  -1   9  279.67   12.80
  -7  -1   9  325.57   14.00
  -7  -1   9  298.27   12.50
  -7  -1   9  326.67   14.40
  -7  -1   9  309.77   13.40
  -7  -1   9  317.67   10.60
   6   1  -9  179.28    9.30
   6   1  -9  178.18    9.60
   6   1  -9  172.88    9.80
   6   1  -9  169.68    9.50
  -6  -1   9  188.38    9.90
  -6  -1   9  175.58    8.70
  -6  -1   9  180.88    6.90
  -6  -1   9  191.58    9.20
  -6  -1   9  176.48    9.80
  -6  -1   9  176.28    9.40
  -6  -1   9  168.58    8.90
   5   1  -9  156.08    8.10
   5   1  -9  146.89    8.10
   5   1  -9  146.59    8.10
   5   1  -9  153.38    8.60
  -5  -1   9  160.88    8.60
  -5  -1   9  141.99    7.40
  -5  -1   9  146.39    8.90
  -5  -1   9  146.89    7.30
  -5  -1   9  151.58    5.50
  -5  -1   9  130.99    7.70
  -5  -1   9  155.38    7.70
   4   1  -9  142.29    7.70
   4   1  -9  160.18    7.70
   4   1  -9  136.39    7.40
   4   1  -9  150.08    7.90
  -4  -1   9  161.68    6.90
  -4  -1   9  155.08    9.20
  -4  -1   9  145.69    7.50
  -4  -1   9  154.18    7.50
  -4  -1   9  153.08    5.10
  -4  -1   9  154.98    7.40
  -4  -1   9  156.28    8.00
   3   1  -9   22.30    1.70
   3   1  -9   19.90    3.50
   3   1  -9   19.80    3.20
   3   1  -9   23.00    3.40
   3   1  -9   25.50    3.50
  -3  -1   9   17.60    3.10
  -3  -1   9   21.60    2.20
  -3  -1   9   20.30    1.40
  -3  -1   9   19.70    4.20
  -3  -1   9   21.10    3.00
  -3  -1   9   21.00    1.20
  -3  -1   9   23.50    3.00
  -3  -1   9   18.90    2.80
   2   1  -9  485.05   14.70
   2   1  -9  477.65   14.20
   2   1  -9  454.65   14.20
   2   1  -9  470.05   11.80
   2   1  -9  471.05   14.00
   2   1  -9  448.16   15.20
  -2  -1   9  460.65   14.10
  -2  -1   9  493.35   14.00
  -2  -1   9  462.85   17.50
  -2  -1   9  452.05   13.40
  -2  -1   9  477.35   11.70
  -2  -1   9  465.75   10.70
   1   1  -9    0.40    0.80
   1   1  -9    1.00    0.80
   1   1  -9   -0.30    0.90
   1   1  -9    0.60    1.10
   1   1  -9    1.60    1.30
   1   1  -9    0.70    1.10
  -1  -1   9    1.20    0.80
  -1  -1   9   -0.50    0.80
  -1  -1   9    0.10    0.80
  -1  -1   9    0.40    0.60
   0   1  -9  763.92   19.00
   0   1  -9  743.43   19.10
   0   1  -9  735.73   21.30
   0   1  -9  752.82   19.40
   0   1  -9  745.93   18.90
   0   1  -9  714.23   18.90
   0  -1   9  753.32   18.30
   0  -1   9  762.02   18.20
   0  -1   9  750.52   18.20
   0  -1   9  723.93   18.20
   0  -1   9  732.33   18.10
  -1   1  -9  123.59    5.90
  -1   1  -9  132.89    7.00
  -1   1  -9  122.59    5.90
  -1   1  -9  127.39    6.20
  -1   1  -9  123.39    8.40
   1  -1   9  123.39    6.20
   1  -1   9  128.79    5.30
   1  -1   9  126.79    5.50
   1  -1   9  116.19    5.20
   1  -1   9  135.29    5.40
  -2   1  -9  159.78    8.50
  -2   1  -9  149.29    6.60
  -2   1  -9  164.78   10.50
  -2   1  -9  139.99    6.50
  -2   1  -9  148.39    7.90
   2  -1   9  159.48    5.70
  -3   1  -9   10.40    2.10
  -3   1  -9   10.10    1.90
  -3   1  -9    7.00    1.80
  -3   1  -9    8.60    2.50
  -3   1  -9    6.70    2.10
   3  -1   9   11.50    1.80
   3  -1   9    9.80    1.60
   3  -1   9   11.00    2.20
   3  -1   9   10.80    3.10
  -4   1  -9   12.10    2.20
  -4   1  -9   15.60    3.10
  -4   1  -9   11.90    1.00
  -4   1  -9   15.40    2.60
  -4   1  -9   17.40    3.60
   4  -1   9   12.20    3.60
   4  -1   9   13.20    2.30
   4  -1   9   10.60    1.90
   4  -1   9   12.20    2.10
   4  -1   9   14.80    2.20
  -5   1  -9   54.79    5.00
  -5   1  -9   69.29    4.80
  -5   1  -9   68.69    6.30
   5  -1   9   71.39    7.10
   9   0  -9    9.60    3.70
   9   0  -9   12.40    3.40
   9   0  -9   10.00    3.40
   9   0  -9   11.60    3.30
  -9   0   9   19.30    3.80
  -9   0   9   15.30    4.90
  -9   0   9    9.80    3.50
  -9   0   9    9.90    3.50
   8   0  -9  304.67   13.50
   8   0  -9  303.87   14.70
   8   0  -9  325.57   14.70
  -8   0   9  289.57   13.30
  -8   0   9  321.57   13.90
  -8   0   9  310.37   11.80
  -8   0   9  309.67   14.90
  -8   0   9  314.87   14.30
  -8   0   9  306.57   12.60
  -8   0   9  300.07   13.30
   7   0  -9  662.23   20.80
   7   0  -9  610.64   20.90
   7   0  -9  670.23   21.80
   7   0  -9  638.74   21.90
  -7   0   9  651.53   20.60
  -7   0   9  664.33   20.50
  -7   0   9  617.84   21.70
  -7   0   9  673.53   21.70
  -7   0   9  632.34   17.90
  -7   0   9  653.23   20.70
   6   0  -9  661.03   20.50
   6   0  -9  713.83   21.70
   6   0  -9  679.03   21.20
  -6   0   9  706.13   19.90
  -6   0   9  647.44   21.30
  -6   0   9  653.73   21.50
  -6   0   9  647.44   20.40
  -6   0   9  684.63   17.80
  -6   0   9  700.53   21.50
  -6   0   9  687.63   20.30
   5   0  -9   40.30    4.10
   5   0  -9   38.80    4.90
   5   0  -9   31.30    4.30
   5   0  -9   33.80    4.70
  -5   0   9   33.50    3.30
  -5   0   9   36.70    4.80
  -5   0   9   32.30    4.20
  -5   0   9   38.60    5.00
  -5   0   9   33.80    3.60
  -5   0   9   34.80    6.00
  -5   0   9   35.30    3.00
   4   0  -9   81.69    5.70
   4   0  -9   78.49    5.40
   4   0  -9   87.09    4.20
   4   0  -9   83.69    5.90
   4   0  -9   81.09    5.70
  -4   0   9   84.19    5.50
  -4   0   9   87.49    5.70
  -4   0   9   87.39    4.70
  -4   0   9   78.69    4.20
  -4   0   9   85.99    6.10
  -4   0   9   78.89    5.30
   3   0  -9   63.99    4.80
   3   0  -9   67.09    4.70
   3   0  -9   60.59    4.50
   3   0  -9   67.59    5.00
   3   0  -9   65.89    5.00
   3   0  -9   63.79    3.70
  -3   0   9   69.79    3.90
  -3   0   9   66.09    3.50
  -3   0   9   64.19    4.60
  -3   0   9   59.49    4.30
  -3   0   9   59.09    4.90
  -3   0   9   64.79    4.80
   2   0  -9  272.67   11.00
   2   0  -9  274.47   10.60
   2   0  -9  272.97    8.90
   2   0  -9  278.87   10.30
   2   0  -9  272.27   10.50
   2   0  -9  291.97   10.50
  -2   0   9  262.47   10.00
  -2   0   9  282.77   10.00
  -2   0   9  277.47   10.40
  -2   0   9  273.27    8.10
  -2   0   9  280.27    7.20
  -2   0   9  272.77   10.00
   1   0  -9    5.40    1.90
   1   0  -9    6.20    1.80
   1   0  -9    7.50    1.80
   1   0  -9    5.70    1.60
   1   0  -9    6.40    2.00
  -1   0   9    8.40    2.10
  -1   0   9    7.60    1.60
  -1   0   9    6.80    1.70
  -1   0   9    8.10    1.80
   0   0  -9  639.64   17.50
   0   0  -9  655.63   18.20
   0   0  -9  627.84   17.60
   0   0  -9  630.94   17.50
   0   0  -9  643.94   17.80
   0   0  -9  627.14   19.20
   0   0   9  639.84   17.00
   0   0   9  640.74   17.30
   0   0   9  638.24   16.80
   0   0   9  626.34   16.70
  -1   0  -9  273.47   10.80
  -1   0  -9  256.27   11.10
  -1   0  -9  271.67    9.90
  -1   0  -9  264.57   11.30
  -1   0  -9  281.87   10.10
  -1   0  -9  271.87   10.30
   1   0   9  272.37    9.60
   1   0   9  268.87    9.20
   1   0   9  259.07    9.30
   1   0   9  289.17   10.40
  -2   0  -9  107.39    6.10
  -2   0  -9  111.79    7.10
  -2   0  -9  104.39    7.10
  -2   0  -9  116.19    6.20
  -2   0  -9  104.99    6.20
   2   0   9  123.99    7.10
   2   0   9  107.29    5.30
   2   0   9  112.39    5.50
  -3   0  -9   30.00    3.80
  -3   0  -9   30.10    4.90
  -3   0  -9   21.60    3.40
  -3   0  -9   24.00    4.20
  -3   0  -9   22.90    3.40
  -3   0  -9   26.90    3.70
   3   0   9   28.60    3.40
   3   0   9   29.90    4.60
   3   0   9   32.80    3.40
   3   0   9   32.00    3.00
   3   0   9   26.20    4.40
  -4   0  -9   20.40    3.30
  -4   0  -9   17.00    3.20
  -4   0  -9   18.90    3.10
  -4   0  -9   14.80    3.00
  -4   0  -9   15.90    3.50
   4   0   9   17.30    2.80
   4   0   9   20.70    2.90
   4   0   9   16.30    4.00
  -5   0  -9   32.80    4.20
  -5   0  -9   36.60    3.80
  -5   0  -9   25.40    4.40
  -5   0  -9   30.00    5.60
  -5   0  -9   29.40    4.10
   5   0   9   37.40    3.80
   5   0   9   36.10    6.30
   9  -1  -9    9.80    3.40
   9  -1  -9    3.00    2.40
   9  -1  -9   23.80    4.80
   9  -1  -9    9.80    4.00
  -9   1   9    7.50    4.00
  -9   1   9   11.60    3.40
  -9   1   9   13.60    4.20
  -9   1   9    7.60    3.00
   8  -1  -9   27.30    5.10
   8  -1  -9   29.70    5.00
   8  -1  -9   26.30    4.90
   8  -1  -9   16.80    3.70
  -8   1   9   21.20    4.10
  -8   1   9   23.90    4.20
  -8   1   9   20.00    3.80
  -8   1   9   22.30    4.80
  -8   1   9   17.10    4.90
  -8   1   9   22.80    3.90
   7  -1  -9   10.70    2.80
   7  -1  -9    9.10    2.60
   7  -1  -9   13.70    3.40
   7  -1  -9   10.00    3.50
  -7   1   9    8.30    3.30
  -7   1   9   10.60    3.20
  -7   1   9    8.20    2.20
  -7   1   9    5.40    2.60
  -7   1   9    8.80    2.70
   6  -1  -9    5.00    2.70
   6  -1  -9   -0.20    1.30
   6  -1  -9    2.70    1.90
  -6   1   9    1.50    1.40
  -6   1   9    4.30    1.90
  -6   1   9    3.30    1.80
  -6   1   9    1.20    1.60
  -6   1   9    1.90    1.60
  -6   1   9    0.20    1.00
   5  -1  -9  190.58    9.80
   5  -1  -9  192.98    9.30
   5  -1  -9  196.38    9.00
   5  -1  -9  203.48    9.90
   5  -1  -9  194.68    9.80
   5  -1  -9  194.38    7.70
  -5   1   9  185.08    9.80
  -5   1   9  195.78    7.90
  -5   1   9  201.18    9.70
  -5   1   9  177.78    9.00
  -5   1   9  192.28    8.10
  -5   1   9  205.38    9.40
   4  -1  -9  138.19    6.20
   4  -1  -9  130.79    7.50
   4  -1  -9  145.39    8.00
   4  -1  -9  142.29    7.60
   4  -1  -9  138.99    7.60
   4  -1  -9  135.89    7.20
  -4   1   9  134.39    6.20
  -4   1   9  138.29    6.00
  -4   1   9  121.69    7.00
  -4   1   9  142.79    7.60
  -4   1   9  130.79    7.40
  -4   1   9  139.19    7.90
   3  -1  -9    9.00    2.40
   3  -1  -9   11.20    2.50
   3  -1  -9    7.20    1.80
   3  -1  -9    7.10    2.20
   3  -1  -9    6.70    2.00
   3  -1  -9    9.30    2.50
  -3   1   9    6.90    2.30
  -3   1   9    9.20    1.90
  -3   1   9    9.10    2.40
  -3   1   9   11.60    2.30
  -3   1   9   10.50    1.60
  -3   1   9    7.70    2.10
   2  -1  -9   23.70    3.40
   2  -1  -9   18.80    3.10
   2  -1  -9   27.10    3.80
   2  -1  -9   21.90    3.40
   2  -1  -9   24.10    3.10
   2  -1  -9   31.10    4.10
  -2   1   9   27.00    3.70
  -2   1   9   29.80    3.80
  -2   1   9   27.10    3.60
  -2   1   9   24.20    1.50
  -2   1   9   22.30    3.40
   1  -1  -9   25.70    3.60
   1  -1  -9   24.70    3.80
   1  -1  -9   19.80    3.20
   1  -1  -9   23.30    3.40
   1  -1  -9   15.90    2.80
   1  -1  -9   19.60    3.00
  -1   1   9   22.90    2.50
  -1   1   9   25.50    3.30
  -1   1   9   18.40    3.00
  -1   1   9   17.90    3.00
  -1   1   9   23.20    3.40
   0  -1  -9 1465.75   36.80
   0  -1  -9 1587.74   38.20
   0  -1  -9 1480.15   35.10
   0  -1  -9 1525.55   35.50
   0  -1  -9 1507.65   35.80
   0  -1  -9 1550.74   35.60
   0   1   9 1479.75   34.20
   0   1   9 1524.65   34.80
   0   1   9 1519.55   35.10
  -1  -1  -9   30.00    3.90
  -1  -1  -9   26.00    4.00
  -1  -1  -9   35.20    4.30
  -1  -1  -9   29.50    4.20
  -1  -1  -9   28.50    3.80
  -1  -1  -9   30.40    4.10
   1   1   9   25.70    3.30
   1   1   9   27.80    2.90
   1   1   9   28.00    3.90
  -2  -1  -9   28.20    4.30
  -2  -1  -9   31.30    4.70
  -2  -1  -9   28.90    4.10
  -2  -1  -9   31.30    4.00
   2   1   9   29.30    3.50
   2   1   9   36.20    3.70
   2   1   9   26.40    4.40
   2   1   9   23.50    5.10
  -3  -1  -9   53.79    4.80
  -3  -1  -9   56.89    5.00
  -3  -1  -9   59.39    5.60
  -3  -1  -9   57.69    5.50
  -3  -1  -9   67.89    5.80
  -3  -1  -9   56.49    4.70
   3   1   9   66.09    8.60
   3   1   9   60.89    5.70
   3   1   9   61.19    4.40
   3   1   9   61.49    5.00
   3   1   9   52.49    6.30
  -4  -1  -9    1.90    2.10
  -4  -1  -9   -2.00    1.40
  -4  -1  -9    2.10    2.10
  -4  -1  -9   -0.40    1.70
  -4  -1  -9   -0.90    1.60
   4   1   9    0.30    1.90
   4   1   9    2.30    2.20
   4   1   9    1.00    1.70
   9  -2  -9   35.80    6.20
   9  -2  -9   50.49    4.80
   9  -2  -9   51.89    8.20
  -9   2   9   46.90    6.80
  -9   2   9   36.10    5.90
  -9   2   9   41.50    5.90
  -9   2   9   39.80    6.10
  -9   2   9   48.10    5.70
   8  -2  -9   15.40    3.50
   8  -2  -9   12.30    3.90
   8  -2  -9   22.80    4.40
   8  -2  -9   11.30    3.70
  -8   2   9   11.60    2.90
  -8   2   9   11.40    3.30
  -8   2   9   18.90    3.60
  -8   2   9   12.10    3.50
  -8   2   9   13.50    3.40
   7  -2  -9    7.70    2.50
   7  -2  -9    9.20    2.70
   7  -2  -9    8.10    2.10
   7  -2  -9    8.10    3.30
  -7   2   9   11.90    3.70
  -7   2   9   11.00    2.70
  -7   2   9   10.20    3.10
  -7   2   9   10.20    2.60
  -7   2   9    8.90    2.60
   6  -2  -9  141.59    8.70
   6  -2  -9  134.19    7.00
   6  -2  -9  156.38    9.10
   6  -2  -9  140.59    7.30
   6  -2  -9  152.08    8.70
   6  -2  -9  148.09    8.70
  -6   2   9  137.79    8.40
  -6   2   9  129.79    8.70
  -6   2   9  139.19    7.40
  -6   2   9  115.99    7.80
  -6   2   9  142.99    7.40
  -6   2   9  141.49    8.10
   5  -2  -9  139.69    7.20
   5  -2  -9  130.29    7.80
   5  -2  -9  145.19    8.10
   5  -2  -9  129.99    8.20
   5  -2  -9  136.29    8.10
   5  -2  -9  122.99    6.60
  -5   2   9  137.09    7.10
  -5   2   9  129.09    7.90
  -5   2   9  132.49    7.70
  -5   2   9  134.49    8.40
  -5   2   9  145.79    8.20
  -5   2   9  131.59    6.60
   4  -2  -9   12.60    2.80
   4  -2  -9   13.00    3.20
   4  -2  -9   11.50    2.70
   4  -2  -9    8.40    2.30
   4  -2  -9   12.00    2.90
   4  -2  -9   13.50    2.50
  -4   2   9   13.60    2.60
  -4   2   9   11.10    2.90
  -4   2   9   12.60    2.80
  -4   2   9   15.00    3.20
  -4   2   9   11.30    2.70
  -4   2   9   10.40    2.00
   3  -2  -9   65.29    5.10
   3  -2  -9   70.99    5.50
   3  -2  -9   73.19    5.20
   3  -2  -9   63.69    4.60
   3  -2  -9   52.29    4.90
   3  -2  -9   61.19    5.10
  -3   2   9   60.29    4.50
  -3   2   9   57.59    4.80
  -3   2   9   54.89    4.90
  -3   2   9   63.99    5.10
  -3   2   9   58.69    5.00
  -3   2   9   59.99    3.30
   2  -2  -9    8.80    2.60
   2  -2  -9   14.60    2.80
   2  -2  -9   10.30    2.60
   2  -2  -9    8.00    2.20
   2  -2  -9   10.40    2.60
   2  -2  -9    9.40    2.50
  -2   2   9   15.30    2.90
  -2   2   9    8.90    2.90
  -2   2   9    7.20    2.10
  -2   2   9   11.50    2.40
  -2   2   9   10.80    1.30
  -2   2   9   11.90    1.10
  -2   2   9    9.30    2.60
   1  -2  -9   27.00    4.00
   1  -2  -9   30.00    4.10
   1  -2  -9   29.00    4.10
   1  -2  -9   28.90    3.90
   1  -2  -9   25.30    3.90
   1  -2  -9   22.30    3.50
  -1   2   9   29.00    3.90
  -1   2   9   20.70    3.50
  -1   2   9   25.50    3.50
   0  -2  -9   98.79    6.40
   0  -2  -9   96.79    6.40
   0  -2  -9   93.09    6.40
   0  -2  -9   96.19    6.20
   0  -2  -9   93.79    6.30
   0  -2  -9   90.99    6.30
   0   2   9   98.59    6.10
   0   2   9  110.29    6.50
   0   2   9   97.19    5.90
  -1  -2  -9   92.29    6.00
  -1  -2  -9   78.29    6.00
  -1  -2  -9   84.69    6.20
  -1  -2  -9   88.29    6.50
  -1  -2  -9   80.99    5.90
   1   2   9   90.89    5.90
   1   2   9   86.59    5.60
   1   2   9   91.49    6.10
  -2  -2  -9   40.10    5.30
  -2  -2  -9   43.50    4.20
  -2  -2  -9   46.20    4.50
  -2  -2  -9   47.20    5.70
   2   2   9   51.19    4.50
   2   2   9   47.40    4.90
   2   2   9   37.30    5.60
   2   2   9   52.99    4.90
  -3  -2  -9   52.69   10.10
  -3  -2  -9   47.80    4.60
  -3  -2  -9   33.40    4.90
  -3  -2  -9   31.80    5.00
  -3  -2  -9   29.80    4.40
  -3  -2  -9   33.30    4.60
   3   2   9   40.10    5.80
   3   2   9   40.20    4.20
  -4  -2  -9    0.60    2.20
  -4  -2  -9    2.60    2.30
  -4  -2  -9   -3.50    2.20
  -4  -2  -9   -0.30    1.80
   4   2   9   -1.20    1.60
   4   2   9    0.30    2.20
   4   2   9   -0.90    1.70
   9  -3  -9    6.70    4.00
   9  -3  -9    7.70    2.50
   9  -3  -9    6.90    2.20
   9  -3  -9    9.70    4.00
  -9   3   9    5.10    2.60
  -9   3   9    4.60    3.40
  -9   3   9    7.70    2.70
  -9   3   9    3.10    3.10
  -9   3   9    4.30    3.10
   8  -3  -9    3.90    2.20
   8  -3  -9   -2.70    2.10
   8  -3  -9    2.20    1.60
   8  -3  -9   -3.80    2.50
   8  -3  -9    6.20    2.40
  -8   3   9   -0.10    2.00
  -8   3   9    5.00    2.90
  -8   3   9    2.10    2.90
  -8   3   9    2.80    2.50
  -8   3   9    4.20    2.80
  -8   3   9    1.40    2.00
   7  -3  -9   14.60    4.50
   7  -3  -9   15.90    3.80
   7  -3  -9   13.60    3.40
   7  -3  -9   15.70    2.80
   7  -3  -9   15.30    3.50
  -7   3   9   11.00    2.90
  -7   3   9   18.40    4.10
  -7   3   9   15.80    3.50
  -7   3   9   17.40    3.40
  -7   3   9   23.50    4.70
   6  -3  -9   54.29    4.20
   6  -3  -9   37.90    5.60
   6  -3  -9   43.30    4.40
   6  -3  -9   52.79    5.20
   6  -3  -9   51.99    6.30
   6  -3  -9   47.90    6.00
  -6   3   9   43.70    4.50
  -6   3   9   49.10    6.40
  -6   3   9   54.09    4.70
  -6   3   9   46.60    4.80
  -6   3   9   51.49    5.40
  -6   3   9   45.20    5.80
   5  -3  -9  133.59    7.30
   5  -3  -9  133.79    8.10
   5  -3  -9  128.69    8.30
   5  -3  -9  124.59    8.10
   5  -3  -9  120.89    7.70
   5  -3  -9  127.09    6.80
  -5   3   9  124.69    8.00
  -5   3   9  120.19    7.70
  -5   3   9  125.59    8.30
  -5   3   9  136.69    7.50
  -5   3   9  131.59    8.20
  -5   3   9  126.99    6.60
   4  -3  -9   33.80    5.00
   4  -3  -9   37.30    3.80
   4  -3  -9   29.10    4.40
   4  -3  -9   29.90    4.30
   4  -3  -9   39.50    4.00
   4  -3  -9   39.70    5.10
  -4   3   9   31.70    4.40
  -4   3   9   31.60    4.90
  -4   3   9   38.30    4.00
  -4   3   9   31.00    4.50
  -4   3   9   36.20    4.90
  -4   3   9   36.40    3.20
   3  -3  -9   87.19    6.20
   3  -3  -9   76.89    5.80
   3  -3  -9   83.59    6.40
   3  -3  -9   77.79    5.50
   3  -3  -9   81.79    6.00
   3  -3  -9   86.49    5.70
  -3   3   9   83.19    5.90
  -3   3   9   83.79    5.70
  -3   3   9   84.49    6.20
  -3   3   9   76.49    5.90
  -3   3   9   81.99    6.30
   2  -3  -9   11.20    2.40
   2  -3  -9   10.20    2.50
   2  -3  -9   11.00    2.80
   2  -3  -9   12.50    2.90
   2  -3  -9   14.00    2.90
   2  -3  -9   10.80    2.80
  -2   3   9    8.00    2.50
  -2   3   9   11.70    2.60
  -2   3   9   11.80    2.90
  -2   3   9    8.40    2.50
  -2   3   9   11.10    1.60
  -2   3   9   10.70    2.80
   1  -3  -9    7.10    2.30
   1  -3  -9    8.10    2.40
   1  -3  -9    5.40    2.10
   1  -3  -9   11.60    2.60
   1  -3  -9   11.10    2.80
   1  -3  -9   10.80    2.80
  -1   3   9    8.80    0.70
  -1   3   9    6.90    2.40
  -1   3   9   11.40    2.70
  -1   3   9    8.00    2.40
  -1   3   9    8.60    0.70
  -1   3   9    7.80    2.10
  -1   3   9   10.30    3.10
   0  -3  -9    1.80    2.10
   0  -3  -9    5.60    2.20
   0  -3  -9    5.50    2.30
   0  -3  -9    5.00    2.10
   0  -3  -9    3.30    1.70
   0  -3  -9    6.20    2.50
   0   3   9    3.00    1.80
   0   3   9    1.70    1.30
   0   3   9    3.10    1.90
   0   3   9    2.60    1.80
  -1  -3  -9    0.40    2.10
  -1  -3  -9   -3.00    1.60
  -1  -3  -9   -0.70    1.40
  -1  -3  -9    0.20    1.60
  -1  -3  -9    1.60    1.60
  -1  -3  -9    6.30    1.90
   1   3   9   -0.50    1.40
   1   3   9    3.20    1.90
   1   3   9   -0.20    1.40
   1   3   9    2.80    2.00
  -2  -3  -9   66.79    5.70
  -2  -3  -9   71.69    6.70
  -2  -3  -9   65.49    6.20
  -2  -3  -9   78.79    6.20
  -2  -3  -9   67.29    6.20
   2   3   9   68.69    6.10
   2   3   9   64.69    5.20
   2   3   9   74.59    5.90
  -3  -3  -9    1.20    2.10
  -3  -3  -9    3.70    2.50
  -3  -3  -9    5.90    2.90
  -3  -3  -9    0.20    2.60
  -3  -3  -9    2.00    2.10
   3   3   9    4.20    2.40
   3   3   9    3.80    2.50
   3   3   9    4.20    2.20
  -4  -3  -9    9.00    3.40
  -4  -3  -9    2.40    2.40
  -4  -3  -9    4.60    2.70
  -4  -3  -9    4.90    3.10
  -4  -3  -9    4.00    2.60
   4   3   9    4.80    3.10
   4   3   9    0.90    2.10
   4   3   9   -2.90    2.00
   9  -4  -9    8.00    2.10
   9  -4  -9   12.50    4.20
   9  -4  -9    7.60    3.40
  -9   4   9   13.30    3.80
  -9   4   9   16.40    4.30
  -9   4   9   13.00    4.40
  -9   4   9    8.70    3.40
  -9   4   9    9.30    3.00
   8  -4  -9   11.60    3.60
   8  -4  -9   14.30    4.10
   8  -4  -9   11.80    3.30
   8  -4  -9   16.80    2.50
  -8   4   9    7.70    4.10
  -8   4   9   12.80    3.30
  -8   4   9   11.80    3.90
  -8   4   9   14.30    3.60
  -8   4   9   10.60    3.40
   7  -4  -9    7.10    2.50
   7  -4  -9    3.00    2.90
   7  -4  -9    0.40    2.40
   7  -4  -9    9.50    2.20
   7  -4  -9    7.20    2.70
   7  -4  -9    4.00    2.60
  -7   4   9    1.30    2.50
  -7   4   9    4.10    2.00
  -7   4   9   -0.10    1.80
  -7   4   9    6.70    2.50
  -7   4   9    0.60    2.60
   6  -4  -9    6.90    2.50
   6  -4  -9    4.90    2.30
   6  -4  -9   12.30    2.40
   6  -4  -9    5.50    2.40
   6  -4  -9    8.40    3.20
   6  -4  -9    6.10    2.80
  -6   4   9    6.80    2.40
  -6   4   9    9.30    2.80
  -6   4   9    8.60    2.40
  -6   4   9    6.40    2.40
  -6   4   9    6.10    2.90
   5  -4  -9   76.69    6.60
   5  -4  -9   62.69    4.80
   5  -4  -9   65.69    5.70
   5  -4  -9   72.69    6.30
   5  -4  -9   72.39    5.70
   5  -4  -9   65.29    6.20
  -5   4   9   73.59    5.80
  -5   4   9   75.89    6.40
  -5   4   9   63.59    6.00
  -5   4   9   75.29    6.20
  -5   4   9   80.99    6.60
   4  -4  -9   -0.20    1.50
   4  -4  -9   -0.50    1.10
   4  -4  -9   -0.30    1.50
   4  -4  -9   -0.30    2.00
   4  -4  -9    2.40    1.50
   4  -4  -9   -0.50    1.90
  -4   4   9    1.10    1.70
  -4   4   9   -1.70    1.20
  -4   4   9    2.50    1.90
  -4   4   9   -0.90    1.20
  -4   4   9    0.00    1.60
   3  -4  -9  805.32   24.00
   3  -4  -9  856.01   24.10
   3  -4  -9  824.82   24.50
   3  -4  -9  802.02   22.90
   3  -4  -9  763.72   21.90
   3  -4  -9  814.92   23.90
  -3   4   9  760.72   19.90
  -3   4   9  770.92   23.00
  -3   4   9  816.02   24.20
  -3   4   9  776.62   23.40
  -3   4   9  830.62   23.70
  -3   4   9  814.92   24.10
   2  -4  -9   -2.30    1.90
   2  -4  -9    1.10    1.50
   2  -4  -9    0.60    1.50
   2  -4  -9   -3.20    1.30
   2  -4  -9   -0.20    1.60
  -2   4   9    2.90    2.20
  -2   4   9   -1.50    1.20
  -2   4   9    1.10    1.80
  -2   4   9    1.20    1.70
  -2   4   9   -0.70    1.80
  -2   4   9    0.40    1.20
  -2   4   9    2.60    1.40
   1  -4  -9   47.40    4.80
   1  -4  -9   55.09    5.30
   1  -4  -9   58.79    5.50
   1  -4  -9   56.59    5.60
   1  -4  -9   51.49    5.00
   1  -4  -9   46.60    4.90
  -1   4   9   57.59    5.50
  -1   4   9   51.39    5.20
  -1   4   9   56.19    5.40
  -1   4   9   45.50    4.80
  -1   4   9   48.20    4.80
   0  -4  -9    1.50    1.80
   0  -4  -9   -0.40    1.70
   0  -4  -9    3.30    2.10
   0  -4  -9    2.60    2.30
   0  -4  -9    0.60    1.60
   0  -4  -9    2.90    1.70
   0   4   9    1.40    1.90
   0   4   9   -1.50    2.00
   0   4   9    1.90    2.00
   0   4   9    0.60    0.50
   0   4   9    0.70    1.60
   0   4   9    4.00    1.90
  -1  -4  -9   27.30    4.50
  -1  -4  -9   31.30    4.70
  -1  -4  -9   24.70    4.70
  -1  -4  -9   27.10    4.40
  -1  -4  -9   24.50    4.20
   1   4   9   37.20    5.10
   1   4   9   32.20    4.80
   1   4   9   34.20    5.10
   1   4   9   39.50    5.30
   1   4   9   32.90    5.10
   1   4   9   23.50    4.10
  -2  -4  -9   66.79    6.10
  -2  -4  -9   61.19    8.10
  -2  -4  -9   76.19    6.30
  -2  -4  -9   55.79    6.80
  -2  -4  -9   56.89    6.90
   2   4   9   76.19    6.80
   2   4   9   76.09    6.00
   2   4   9   62.99    5.70
  -3  -4  -9    0.70    1.90
  -3  -4  -9    5.60    2.70
  -3  -4  -9   -1.00    3.10
  -3  -4  -9    2.90    2.80
   3   4   9   -1.20    1.80
   3   4   9    3.40    2.70
   3   4   9    1.30    2.10
   8  -5  -9   -0.40    2.20
   8  -5  -9    0.10    1.40
   8  -5  -9    1.40    3.00
  -8   5   9   -1.30    1.90
  -8   5   9   -4.40    2.80
  -8   5   9   -1.50    2.60
  -8   5   9    1.60    2.60
   7  -5  -9   53.59    6.60
   7  -5  -9   53.69    7.00
   7  -5  -9   49.99    6.10
   7  -5  -9   61.09    4.30
   7  -5  -9   60.29    7.20
  -7   5   9   51.39    6.90
  -7   5   9   59.09    6.10
  -7   5   9   55.09    7.10
  -7   5   9   58.19    6.90
  -7   5   9   43.80    6.00
   6  -5  -9   16.50    4.70
   6  -5  -9   13.20    3.60
   6  -5  -9   12.20    3.20
   6  -5  -9    6.00    2.80
   6  -5  -9   10.40    3.60
   6  -5  -9    9.40    2.20
  -6   5   9   11.00    3.50
  -6   5   9    7.70    2.60
  -6   5   9    7.90    3.40
  -6   5   9   15.70    3.70
   5  -5  -9    1.70    2.20
   5  -5  -9    0.80    2.00
   5  -5  -9   -0.60    1.60
   5  -5  -9    2.70    2.00
   5  -5  -9   -0.10    1.40
   5  -5  -9   -2.60    1.00
  -5   5   9    1.50    2.10
  -5   5   9    4.00    2.20
  -5   5   9    0.70    1.90
  -5   5   9   -0.10    1.80
   4  -5  -9   62.89    5.00
   4  -5  -9   70.09    6.10
   4  -5  -9   76.89    6.30
   4  -5  -9   74.69    6.90
   4  -5  -9   62.99    5.80
  -4   5   9   71.29    6.20
  -4   5   9   58.99    5.70
  -4   5   9   73.19    6.50
  -4   5   9   64.99    6.10
  -4   5   9   52.59    6.60
   3  -5  -9   12.90    3.20
   3  -5  -9   17.40    3.60
   3  -5  -9   20.60    4.20
   3  -5  -9   15.40    3.70
   3  -5  -9   18.30    3.50
   3  -5  -9   18.20    3.90
  -3   5   9   13.90    3.30
  -3   5   9   16.30    2.70
  -3   5   9   11.30    3.00
  -3   5   9   13.90    3.40
  -3   5   9   19.10    4.30
  -3   5   9   18.00    4.00
   2  -5  -9   23.50    4.00
   2  -5  -9   21.20    3.80
   2  -5  -9   19.30    4.30
   2  -5  -9   24.50    4.80
   2  -5  -9   18.20    4.10
  -2   5   9   19.60    4.30
  -2   5   9   17.80    2.50
  -2   5   9   18.60    3.90
  -2   5   9   20.00    3.80
  -2   5   9   20.50    3.90
  -2   5   9   22.60    3.90
  -2   5   9   23.10    4.10
   1  -5  -9   33.80    5.50
   1  -5  -9   28.50    4.60
   1  -5  -9   33.40    5.10
   1  -5  -9   29.50    4.70
   1  -5  -9   45.50    5.60
   1  -5  -9   34.10    5.20
  -1   5   9   32.50    2.70
  -1   5   9   34.30    6.00
  -1   5   9   37.60    5.30
  -1   5   9   30.90    4.80
  -1   5   9   33.70    5.00
  -1   5   9   36.60    5.00
   0  -5  -9   11.20    3.30
   0  -5  -9   13.50    3.30
   0  -5  -9   13.60    3.30
   0  -5  -9   10.00    3.40
   0  -5  -9   12.60    3.30
   0  -5  -9    8.70    3.00
   0   5   9   14.50    3.40
   0   5   9   10.40    3.00
   0   5   9   10.10    2.60
   0   5   9    9.30    2.90
   0   5   9   15.70    3.50
   0   5   9   15.30    3.60
  -1  -5  -9    2.70    2.40
  -1  -5  -9   -1.70    1.70
  -1  -5  -9   -6.40    2.20
   1   5   9    1.30    2.20
   1   5   9    2.60    2.30
   1   5   9    1.80    2.10
  -2  -5  -9   34.70    5.20
  -2  -5  -9   28.50    5.50
  -2  -5  -9   24.60    5.10
  -2  -5  -9   32.90    5.30
   2   5   9   32.50    5.10
   2   5   9   19.60    4.40
   2   5   9   23.40    4.20
   8  -6  -9   18.40    4.00
   8  -6  -9   11.30    2.00
   8  -6  -9   11.70    4.70
  -8   6   9   14.10    4.60
  -8   6   9   12.10    4.00
  -8   6   9   20.60    5.40
  -8   6   9   13.30    4.40
  -8   6   9   10.20    4.10
   7  -6  -9    4.20    1.60
   7  -6  -9    5.60    2.50
   7  -6  -9    7.80    3.30
  -7   6   9    1.90    2.80
  -7   6   9    2.30    3.20
  -7   6   9    3.70    3.20
  -7   6   9    0.90    2.80
  -7   6   9    4.70    2.70
   6  -6  -9    0.70    3.20
   6  -6  -9   -0.70    2.10
   6  -6  -9    3.40    1.70
   6  -6  -9    3.90    3.00
   6  -6  -9   10.80    3.70
   6  -6  -9    1.90    2.10
  -6   6   9   -0.50    2.60
  -6   6   9    6.20    2.80
  -6   6   9    1.20    1.80
  -6   6   9   -1.50    2.10
  -6   6   9    1.00    3.00
   5  -6  -9   14.60    3.80
   5  -6  -9   14.90    3.30
   5  -6  -9    7.20    3.20
   5  -6  -9   12.50    3.30
   5  -6  -9    7.10    2.30
   5  -6  -9    8.90    3.00
  -5   6   9   11.30    3.90
  -5   6   9   13.80    4.10
  -5   6   9   16.40    4.10
  -5   6   9   15.80    3.60
  -5   6   9    9.70    3.10
   4  -6  -9   56.79    6.70
   4  -6  -9   53.89    6.90
   4  -6  -9   65.19    5.10
   4  -6  -9   66.89    6.10
   4  -6  -9   62.99    6.10
   4  -6  -9   51.89    6.90
  -4   6   9   63.89    6.40
  -4   6   9   65.69    5.30
  -4   6   9   71.29    6.40
  -4   6   9   66.99    6.80
  -4   6   9   66.79    6.00
  -4   6   9   65.59    6.70
   3  -6  -9    7.60    2.50
   3  -6  -9    0.90    2.90
   3  -6  -9    4.20    2.50
   3  -6  -9    9.60    3.30
   3  -6  -9    3.30    2.40
   3  -6  -9    6.00    2.80
  -3   6   9    3.70    1.90
  -3   6   9    2.50    2.10
  -3   6   9    7.70    2.60
  -3   6   9    6.50    2.80
  -3   6   9    3.70    2.50
   2  -6  -9  117.29    8.60
   2  -6  -9  126.89    7.90
   2  -6  -9  130.59    9.30
   2  -6  -9  116.19    8.00
   2  -6  -9  109.79    8.20
   2  -6  -9  123.19    8.60
  -2   6   9  110.49    8.20
  -2   6   9  131.29    8.40
  -2   6   9  109.49    9.10
  -2   6   9  107.79    8.60
  -2   6   9  121.79    8.50
  -2   6   9  125.79    8.50
  -2   6   9  118.79    6.30
   1  -6  -9   42.30    6.00
   1  -6  -9   46.20    6.10
   1  -6  -9   47.30    6.10
   1  -6  -9   56.39    5.80
   1  -6  -9   49.00    5.90
  -1   6   9   53.19    6.70
  -1   6   9   55.49    6.50
  -1   6   9   55.39    6.90
  -1   6   9   53.99    6.70
  -1   6   9   52.49    3.90
  -1   6   9   51.89    6.50
   0  -6  -9  198.88   11.20
   0  -6  -9  219.48   12.50
   0  -6  -9  216.58   11.60
   0  -6  -9  224.48   11.60
   0  -6  -9  231.08   11.90
   0   6   9  202.08   11.00
   0   6   9  219.48   11.40
  -1  -6  -9   58.09    8.80
  -1  -6  -9   63.29    6.50
  -1  -6  -9   83.99    8.30
  -1  -6  -9   68.09    6.70
   1   6   9   66.19    6.80
   1   6   9   69.29    6.70
   1   6   9   67.39    6.80
   7  -7  -9   63.09    6.70
   7  -7  -9   63.69    4.20
   7  -7  -9   59.29    7.70
  -7   7   9   64.49    6.60
  -7   7   9   69.59    8.40
  -7   7   9   80.79    8.30
  -7   7   9   52.39    6.80
  -7   7   9   58.69    7.30
   6  -7  -9  439.16   18.40
   6  -7  -9  467.95   18.50
   6  -7  -9  440.86   13.70
  -6   7   9  421.56   17.80
  -6   7   9  439.26   18.10
  -6   7   9  439.96   17.90
  -6   7   9  440.96   18.70
  -6   7   9  405.66   18.40
   5  -7  -9    3.00    2.10
   5  -7  -9   -2.20    3.20
   5  -7  -9    0.80    2.20
   5  -7  -9    0.60    2.70
  -5   7   9    2.40    2.00
  -5   7   9    2.30    2.50
  -5   7   9   -0.40    2.00
  -5   7   9   -0.60    1.70
  -5   7   9   -1.00    2.60
  -5   7   9    0.10    2.80
   4  -7  -9   30.80    5.60
   4  -7  -9   17.30    4.40
   4  -7  -9   21.10    4.40
   4  -7  -9   26.80    4.00
  -4   7   9   21.80    3.90
  -4   7   9   18.40    5.00
  -4   7   9   22.40    4.40
  -4   7   9   20.90    4.30
  -4   7   9   29.90    5.20
  -4   7   9   23.20    4.70
   3  -7  -9    6.50    2.50
   3  -7  -9    9.40    3.30
   3  -7  -9    5.10    2.90
   3  -7  -9    6.00    2.60
   3  -7  -9    8.60    3.80
  -3   7   9    7.00    3.80
  -3   7   9    7.30    2.70
  -3   7   9    6.10    2.80
  -3   7   9   10.70    2.80
  -3   7   9    5.40    2.80
   2  -7  -9   36.40    5.70
   2  -7  -9   44.70    6.30
   2  -7  -9   51.39    6.10
   2  -7  -9   48.90    6.40
   2  -7  -9   46.30    7.00
  -2   7   9   40.60    4.20
  -2   7   9   34.40    5.40
  -2   7   9   50.09    6.30
  -2   7   9   36.00    6.00
  -2   7   9   50.69    7.70
  -2   7   9   43.00    6.10
  -2   7   9   48.20    6.80
   1  -7  -9   67.59    6.50
   1  -7  -9   58.09    7.40
   1  -7  -9   57.09    7.60
   1  -7  -9   72.69    6.50
   1  -7  -9   57.49    7.20
  -1   7   9   61.79    6.50
  -1   7   9   60.69    6.50
  -1   7   9   54.49    4.50
  -1   7   9   63.89    7.70
   0  -7  -9    3.30    4.00
   0  -7  -9    2.20    2.40
   0  -7  -9    0.60    3.10
   0   7   9    1.90    2.40
   0   7   9    1.60    1.60
   0   7   9   -3.50    2.70
   5  -8  -9   -0.10    3.50
   5  -8  -9    3.70    3.00
   5  -8  -9    6.60    3.30
  -5   8   9    0.90    3.80
  -5   8   9    3.30    2.80
  -5   8   9    5.70    3.30
  -5   8   9    9.20    3.60
  -5   8   9    1.90    2.60
  -5   8   9    4.50    3.30
   4  -8  -9   57.59    7.40
   4  -8  -9   64.49    8.00
   4  -8  -9   58.79    5.50
  -4   8   9   56.49    7.30
  -4   8   9   61.59    8.10
  -4   8   9   60.19    7.40
  -4   8   9   60.49    5.90
  -4   8   9   63.09    8.70
  -4   8   9   57.39    7.40
   3  -8  -9   23.90    5.20
   3  -8  -9   21.00    4.50
   3  -8  -9   34.90    4.90
   3  -8  -9   24.60    5.30
  -3   8   9   27.50    4.70
  -3   8   9   27.10    4.20
  -3   8   9   22.40    4.80
  -3   8   9   21.30    4.40
  -3   8   9   30.20    5.70
  -3   8   9   14.30    4.40
   2  -8  -9  380.66   17.40
   2  -8  -9  381.26   15.60
   2  -8  -9  382.86   17.20
   2  -8  -9  381.06   16.90
  -2   8   9  374.46   16.50
  -2   8   9  374.26   13.90
  -2   8   9  378.56   17.10
  -2   8   9  416.96   18.20
  -2   8   9  344.97   16.70
   3   8 -10    0.20    1.80
   3   8 -10    3.20    2.20
   3   8 -10    6.60    2.80
   3   8 -10   -1.30    1.70
   3   8 -10   -0.50    2.00
  -3  -8  10   -2.00    2.00
  -3  -8  10    3.50    2.50
  -3  -8  10    0.70    3.10
   2   8 -10   10.00    2.40
   2   8 -10   11.80    2.80
   2   8 -10   15.90    3.20
  -2  -8  10    9.20    2.20
  -2  -8  10   12.40    3.70
  -2  -8  10   13.40    5.30
   1   8 -10   44.70    4.90
   1   8 -10   57.79    4.10
   1   8 -10   54.99    4.20
  -1  -8  10   49.50    8.30
  -1  -8  10   58.19    2.30
   0   8 -10    7.00    1.50
   0   8 -10    2.40    2.60
   0   8 -10    8.50    1.60
   0   8 -10    8.30    1.50
   0   8 -10    7.90    1.60
   0  -8  10    4.50    3.90
  -1   8 -10   29.20    4.60
  -1   8 -10   32.70    4.90
   1  -8  10   26.30    6.10
  -2   8 -10   68.89    5.90
  -2   8 -10   79.89    6.80
   2  -8  10   75.09    8.50
   5   7 -10   26.60    4.80
   5   7 -10   34.70    5.20
   5   7 -10   38.70    5.40
   5   7 -10   39.20    5.30
   5   7 -10   30.50    5.10
  -5  -7  10   45.60    7.70
   4   7 -10  150.58    8.30
   4   7 -10  139.59    8.50
   4   7 -10  168.08    9.40
  -4  -7  10  165.08   12.60
  -4  -7  10  131.99    8.10
  -4  -7  10  138.29   12.40
   3   7 -10   64.99    5.20
   3   7 -10   56.39    5.00
   3   7 -10   59.99    4.70
   3   7 -10   57.39    4.80
   3   7 -10   52.99    5.40
  -3  -7  10   53.09    6.50
  -3  -7  10   55.79    8.00
  -3  -7  10   60.89    9.50
  -3  -7  10   62.59    4.80
   2   7 -10   71.39    5.20
   2   7 -10   79.59    5.20
   2   7 -10   81.59    6.20
   2   7 -10   78.19    5.30
   2   7 -10   85.69    5.30
  -2  -7  10   69.89    4.70
  -2  -7  10   60.79    8.90
   1   7 -10   56.19    3.80
   1   7 -10   50.39    4.90
   1   7 -10   56.89    4.00
   1   7 -10   56.19    3.90
   1   7 -10   53.29    4.10
  -1  -7  10   52.39    2.10
  -1  -7  10   56.59    2.70
  -1  -7  10   53.59    8.20
   0   7 -10   -0.90    0.90
   0   7 -10    0.90    0.90
   0  -7  10   -0.10    2.80
  -1   7 -10   14.40    3.10
  -1   7 -10   18.00    3.80
  -1   7 -10    9.70    1.80
   1  -7  10   19.00    5.30
  -2   7 -10   -0.80    1.80
  -2   7 -10   -0.60    1.80
  -2   7 -10    0.60    1.50
   2  -7  10    0.00    2.60
  -3   7 -10   -2.70    2.00
  -3   7 -10   -1.70    1.90
  -3   7 -10   -2.40    1.80
   3  -7  10    1.70    3.00
   6   6 -10    6.20    3.30
   6   6 -10   12.60    3.10
   6   6 -10   15.80    3.70
   6   6 -10   12.00    3.50
   6   6 -10    5.10    3.10
  -6  -6  10   12.90    4.50
  -6  -6  10    6.20    3.20
  -6  -6  10    0.40    2.50
   5   6 -10   22.90    4.60
   5   6 -10   22.40    3.70
   5   6 -10   22.90    4.00
   5   6 -10   24.10    4.30
   5   6 -10   21.40    4.20
  -5  -6  10   24.90    4.00
  -5  -6  10   24.20    4.20
  -5  -6  10   36.70    7.00
   4   6 -10   65.79    5.60
   4   6 -10   64.59    5.30
   4   6 -10   56.89    5.10
   4   6 -10   60.39    5.40
   4   6 -10   70.09    5.90
  -4  -6  10   67.29    6.10
  -4  -6  10   61.59    5.30
  -4  -6  10   71.29    8.00
  -4  -6  10   64.99    5.50
   3   6 -10    2.90    1.90
   3   6 -10    6.50    1.90
   3   6 -10    3.40    2.00
   3   6 -10    3.90    1.70
   3   6 -10    5.60    1.90
  -3  -6  10   -1.60    1.40
  -3  -6  10    1.60    1.60
  -3  -6  10    0.00    2.30
  -3  -6  10    3.20    1.60
  -3  -6  10    5.00    2.10
  -3  -6  10    5.10    2.00
   2   6 -10   66.29    4.90
   2   6 -10   61.19    4.40
   2   6 -10   62.49    4.30
   2   6 -10   61.49    5.00
   2   6 -10   61.59    4.50
  -2  -6  10   63.49    5.50
  -2  -6  10   60.79    8.80
  -2  -6  10   62.49    4.20
  -2  -6  10   63.69    3.90
   1   6 -10    2.40    1.40
   1   6 -10    0.70    1.10
   1   6 -10    0.00    1.00
   1   6 -10    1.70    1.30
   1   6 -10    2.40    1.60
  -1  -6  10    0.90    1.60
  -1  -6  10    0.30    0.70
  -1  -6  10    2.30    0.90
  -1  -6  10    2.30    1.10
   0   6 -10    2.20    1.40
   0   6 -10    3.90    1.10
   0   6 -10    5.60    1.30
   0   6 -10    2.50    1.10
   0   6 -10    3.50    1.10
   0   6 -10    2.60    0.70
   0  -6  10    4.20    2.80
  -1   6 -10    4.60    1.90
  -1   6 -10    5.20    2.30
  -1   6 -10    2.10    1.20
   1  -6  10    3.00    2.90
  -2   6 -10   59.99    4.60
  -2   6 -10   60.19    4.50
  -2   6 -10   64.19    5.80
   2  -6  10   67.79    7.60
  -3   6 -10    3.50    2.20
  -3   6 -10   -2.10    1.60
  -3   6 -10    0.50    1.90
   3  -6  10    0.90    1.90
   3  -6  10    0.50    2.20
   7   5 -10    2.60    2.70
   7   5 -10    0.30    3.50
   7   5 -10    1.60    2.20
   7   5 -10    2.40    2.60
  -7  -5  10    1.40    2.70
  -7  -5  10    0.40    2.90
  -7  -5  10    0.00    3.10
   6   5 -10   24.00    4.50
   6   5 -10   37.90    5.10
   6   5 -10   26.10    4.40
   6   5 -10   29.50    4.90
   6   5 -10   23.50    4.40
  -6  -5  10   22.40    5.60
  -6  -5  10   27.40    5.30
  -6  -5  10   24.00    4.60
   5   5 -10    4.90    2.10
   5   5 -10    0.50    1.60
   5   5 -10    1.20    1.80
   5   5 -10    0.40    1.70
   5   5 -10    2.00    2.00
  -5  -5  10   -0.40    1.90
  -5  -5  10    6.80    3.00
  -5  -5  10   -1.50    2.10
  -5  -5  10   -1.30    2.00
   4   5 -10   33.90    4.30
   4   5 -10   32.90    4.50
   4   5 -10   38.70    5.00
   4   5 -10   41.60    5.10
   4   5 -10   45.60    4.50
  -4  -5  10   43.10    5.20
  -4  -5  10   45.10    4.10
  -4  -5  10   42.20    3.80
  -4  -5  10   36.10    6.70
   3   5 -10  169.48    8.10
   3   5 -10  180.68    7.90
   3   5 -10  169.08    8.30
   3   5 -10  171.38    8.50
   3   5 -10  169.78    8.10
  -3  -5  10  169.98    7.80
  -3  -5  10  180.28    9.00
  -3  -5  10  170.98    7.20
  -3  -5  10  169.28   11.60
   2   5 -10   19.00    3.00
   2   5 -10   26.50    3.60
   2   5 -10   19.20    2.70
   2   5 -10   25.40    3.30
   2   5 -10   25.50    3.50
  -2  -5  10   23.80    3.00
  -2  -5  10   22.60    2.90
  -2  -5  10   28.30    4.00
  -2  -5  10   32.70    6.30
   1   5 -10   70.49    4.20
   1   5 -10   66.99    4.20
   1   5 -10   73.39    4.70
   1   5 -10   66.29    4.30
  -1  -5  10   62.39    3.20
  -1  -5  10   66.19    6.90
  -1  -5  10   68.79    3.40
  -1  -5  10   57.89    2.90
   0   5 -10   23.50    2.30
   0   5 -10   25.70    1.90
   0   5 -10   25.60    3.10
   0   5 -10   28.50    2.20
   0   5 -10   24.30    1.90
   0   5 -10   20.60    3.80
   0   5 -10   27.60    2.40
   0  -5  10   25.80    5.60
  -1   5 -10   -0.40    0.90
  -1   5 -10   -1.00    0.40
  -1   5 -10    0.30    1.50
  -1   5 -10    1.50    0.60
  -1   5 -10   -0.60    1.10
  -1   5 -10    0.30    0.40
  -1   5 -10    0.80    0.50
   1  -5  10    0.70    1.20
   1  -5  10    1.20    2.10
  -2   5 -10   52.49    4.20
  -2   5 -10   49.80    3.80
  -2   5 -10   49.10    5.00
   2  -5  10   57.09    4.60
   2  -5  10   53.49    7.80
  -3   5 -10    0.90    1.20
  -3   5 -10    0.00    1.70
  -3   5 -10    0.50    1.80
   3  -5  10    2.60    2.00
  -4   5 -10   56.99    5.50
  -4   5 -10   54.59    5.40
  -4   5 -10   53.19    4.00
   4  -5  10   50.89    6.40
   7   4 -10  222.98   11.50
   7   4 -10  214.68   11.80
   7   4 -10  220.08   12.30
   7   4 -10  226.88   12.00
  -7  -4  10  207.88   11.70
  -7  -4  10  215.68   12.20
  -7  -4  10  224.68   13.40
   6   4 -10   79.39    6.30
   6   4 -10   81.39    6.80
   6   4 -10   79.09    6.40
   6   4 -10   76.29    6.90
   6   4 -10   84.89    6.90
  -6  -4  10   78.69    7.70
  -6  -4  10   75.19    6.60
  -6  -4  10   74.99    6.60
  -6  -4  10   79.69    7.00
   5   4 -10   41.60    5.20
   5   4 -10   44.40    4.50
   5   4 -10   47.90    5.00
   5   4 -10   51.19    4.80
   5   4 -10   48.20    4.90
  -5  -4  10   41.40    5.20
  -5  -4  10   44.00    4.40
  -5  -4  10   50.99    4.50
  -5  -4  10   46.80    5.60
  -5  -4  10   54.49    7.80
   4   4 -10   14.10    2.90
   4   4 -10   23.60    3.90
   4   4 -10   21.90    3.50
   4   4 -10   20.00    3.40
   4   4 -10   18.00    3.20
  -4  -4  10   17.50    3.00
  -4  -4  10   24.30    3.60
  -4  -4  10   16.90    3.50
  -4  -4  10   16.40    4.20
   3   4 -10    1.80    1.30
   3   4 -10   -0.70    1.40
   3   4 -10    0.50    1.20
   3   4 -10    0.70    1.20
   3   4 -10    2.10    1.50
  -3  -4  10    3.20    1.60
  -3  -4  10    0.40    1.60
  -3  -4  10    1.50    2.20
   2   4 -10  116.69    6.10
   2   4 -10  111.79    5.60
   2   4 -10  120.99    5.80
   2   4 -10  105.69    5.70
   2   4 -10  103.49    6.00
  -2  -4  10  109.89    6.00
  -2  -4  10  121.69    9.40
  -2  -4  10  109.19    5.10
  -2  -4  10   99.79    5.30
   1   4 -10    8.60    1.90
   1   4 -10    5.90    1.60
   1   4 -10    7.30    1.70
   1   4 -10    5.30    1.50
   1   4 -10   10.00    2.60
   1   4 -10    9.80    1.80
  -1  -4  10    8.60    1.50
  -1  -4  10    7.30    1.50
  -1  -4  10    7.20    1.40
  -1  -4  10    6.10    1.40
  -1  -4  10   10.10    3.50
   0   4 -10   27.70    3.30
   0   4 -10   31.10    2.50
   0   4 -10   39.30    2.90
   0   4 -10   33.00    2.40
   0   4 -10   32.70    2.60
   0   4 -10   32.60    2.60
   0   4 -10   31.60    4.60
   0   4 -10   32.50    2.40
   0  -4  10   30.40    1.10
   0  -4  10   37.40    1.30
   0  -4  10   31.00    6.00
  -1   4 -10   13.90    1.70
  -1   4 -10   15.50    2.20
  -1   4 -10   14.70    1.50
  -1   4 -10   16.60    3.50
  -1   4 -10   14.40    1.70
   1  -4  10   15.40    2.60
   1  -4  10   15.40    4.20
  -2   4 -10    6.70    2.60
  -2   4 -10    6.60    0.80
  -2   4 -10    7.30    0.90
  -2   4 -10    5.70    1.00
   2  -4  10    5.00    2.20
  -3   4 -10   45.60    5.50
  -3   4 -10   36.30    3.80
  -3   4 -10   38.00    1.40
   3  -4  10   38.80    5.00
  -4   4 -10    8.90    1.80
  -4   4 -10   12.00    3.20
  -4   4 -10    5.90    1.50
   4  -4  10   10.80    3.30
   8   3 -10   70.19    6.70
   8   3 -10   86.69    8.30
   8   3 -10   68.69    9.60
   8   3 -10   79.19    7.20
  -8  -3  10   94.79    8.40
  -8  -3  10   76.09    7.40
  -8  -3  10   83.39    8.00
  -8  -3  10   76.99    4.30
   7   3 -10  316.17   13.60
   7   3 -10  326.27   14.40
   7   3 -10  325.87   14.90
   7   3 -10  296.67   13.90
  -7  -3  10  340.87   15.90
  -7  -3  10  283.77   14.20
  -7  -3  10  318.07   14.30
   6   3 -10   27.30    4.10
   6   3 -10   34.10    5.10
   6   3 -10   34.80    5.10
   6   3 -10   35.00    5.10
  -6  -3  10   38.90    4.90
  -6  -3  10   34.50    5.30
  -6  -3  10   33.60    5.60
  -6  -3  10   32.90    4.40
   5   3 -10   95.89    6.40
   5   3 -10  107.39    7.10
   5   3 -10  103.39    6.60
   5   3 -10   89.49    6.40
   5   3 -10   85.59    6.40
  -5  -3  10  100.09    8.30
  -5  -3  10   81.59    6.10
  -5  -3  10  109.59    7.10
  -5  -3  10   92.79    6.00
   4   3 -10   51.09    4.30
   4   3 -10   50.99    4.90
   4   3 -10   53.59    4.70
   4   3 -10   60.09    4.90
  -4  -3  10   48.20    4.70
  -4  -3  10   54.19    4.60
  -4  -3  10   53.79    4.50
  -4  -3  10   51.29    6.00
   3   3 -10   12.30    2.60
   3   3 -10   13.50    2.70
   3   3 -10   12.10    2.60
   3   3 -10   11.20    2.20
   3   3 -10   11.50    2.40
  -3  -3  10    9.20    2.20
  -3  -3  10    9.60    3.60
  -3  -3  10    9.50    2.20
  -3  -3  10   14.80    2.70
   2   3 -10   70.69    4.00
   2   3 -10   64.39    4.50
   2   3 -10   77.59    4.90
   2   3 -10   71.19    4.90
   2   3 -10   70.69    4.50
  -2  -3  10   61.49    6.70
  -2  -3  10   71.99    4.50
  -2  -3  10   59.99    4.10
  -2  -3  10   56.99    3.80
  -2  -3  10   62.19    4.40
  -2  -3  10   70.29    4.10
   1   3 -10  405.86   12.10
   1   3 -10  386.66    9.60
   1   3 -10  406.66   15.00
   1   3 -10  389.56   12.10
   1   3 -10  367.36   13.50
   1   3 -10  409.06   11.90
  -1  -3  10  405.06   10.70
  -1  -3  10  410.06   11.30
  -1  -3  10  387.46   17.30
  -1  -3  10  385.06   11.20
   0   3 -10   91.19    4.60
   0   3 -10   87.49    4.70
   0   3 -10   98.29    6.80
   0   3 -10   91.09    4.70
   0   3 -10   89.59    3.50
   0   3 -10   98.39    6.70
   0  -3  10   89.69    8.20
   0  -3  10   98.59    3.70
   0  -3  10   89.09    3.40
   0  -3  10   96.19    3.80
   0  -3  10   99.49    4.50
  -1   3 -10    9.20    1.70
  -1   3 -10    6.80    1.40
  -1   3 -10    4.10    1.20
  -1   3 -10    8.40    2.20
  -1   3 -10    7.50    1.60
  -1   3 -10    6.10    0.80
  -1   3 -10    5.50    2.20
   1  -3  10    9.00    2.30
  -2   3 -10    4.10    1.30
  -2   3 -10    6.20    2.20
  -2   3 -10    4.20    1.20
  -2   3 -10    3.40    1.20
  -2   3 -10    3.50    0.60
   2  -3  10    9.30    2.20
  -3   3 -10    4.60    1.80
  -3   3 -10    1.30    1.00
  -3   3 -10    3.90    1.10
  -3   3 -10    1.80    1.00
  -3   3 -10    2.30    0.60
  -3   3 -10    1.00    1.10
   3  -3  10    2.00    1.70
  -4   3 -10    5.80    1.00
  -4   3 -10    9.70    1.70
  -4   3 -10    9.20    2.90
  -4   3 -10    7.70    1.40
  -4   3 -10    6.60    1.50
  -4   3 -10    6.60    1.10
  -4   3 -10    7.10    1.40
   4  -3  10    7.00    3.00
   8   2 -10    0.10    3.20
   8   2 -10    1.70    2.00
   8   2 -10    3.90    2.90
  -8  -2  10   -0.90    2.10
  -8  -2  10   -1.40    2.20
  -8  -2  10   -0.70    3.10
  -8  -2  10    0.00    1.30
   7   2 -10  238.48   12.60
   7   2 -10  231.48   12.00
   7   2 -10  227.28   12.00
   7   2 -10  232.68   11.20
  -7  -2  10  247.58   12.90
  -7  -2  10  261.37   12.50
  -7  -2  10  244.38   11.60
  -7  -2  10  233.98   12.40
  -7  -2  10  253.47   11.50
  -7  -2  10  233.08    9.70
   6   2 -10   26.60    4.40
   6   2 -10   32.20    4.50
   6   2 -10   26.20    4.30
   6   2 -10   18.20    3.70
  -6  -2  10   33.60    5.70
  -6  -2  10   25.00    3.90
  -6  -2  10   23.80    1.80
  -6  -2  10   26.60    4.20
  -6  -2  10   24.60    4.70
  -6  -2  10   23.10    3.90
   5   2 -10  179.48    9.40
   5   2 -10  188.78    9.60
   5   2 -10  196.48    9.20
   5   2 -10  194.58   10.00
  -5  -2  10  198.28    9.80
  -5  -2  10  215.78   11.80
  -5  -2  10  188.88    8.80
  -5  -2  10  191.48    8.80
  -5  -2  10  171.38    9.30
   4   2 -10   49.10    4.60
   4   2 -10   44.40    4.10
   4   2 -10   42.70    4.50
   4   2 -10   45.60    4.50
  -4  -2  10   41.60    3.80
  -4  -2  10   42.40    6.50
  -4  -2  10   41.00    3.80
  -4  -2  10   43.70    4.30
  -4  -2  10   46.30    4.60
   3   2 -10  339.37   12.30
   3   2 -10  357.06   12.10
   3   2 -10  352.06   12.40
   3   2 -10  338.97   12.60
  -3  -2  10  350.96   15.60
  -3  -2  10  338.07   10.90
  -3  -2  10  338.47   12.30
  -3  -2  10  351.16   11.70
   2   2 -10   23.20    1.70
   2   2 -10   23.40    3.30
   2   2 -10   29.90    3.60
   2   2 -10   22.10    3.90
   2   2 -10   27.00    4.30
   2   2 -10   26.60    3.40
  -2  -2  10   29.60    3.10
  -2  -2  10   28.10    3.40
  -2  -2  10   26.20    2.40
  -2  -2  10   26.50    2.70
  -2  -2  10   23.80    5.00
   1   2 -10    9.00    1.60
   1   2 -10    8.10    1.90
   1   2 -10   10.10    2.30
   1   2 -10    8.70    2.00
   1   2 -10    8.10    2.10
  -1  -2  10    9.50    2.10
  -1  -2  10    9.70    1.90
  -1  -2  10    8.80    2.00
  -1  -2  10   10.20    1.70
  -1  -2  10   12.80    3.80
   0   2 -10  278.17    9.40
   0   2 -10  272.77    9.70
   0   2 -10  276.27   11.90
   0   2 -10  267.77    9.40
   0   2 -10  287.37    9.90
   0   2 -10  278.57    9.50
   0  -2  10  291.07    8.70
   0  -2  10  281.27    8.50
   0  -2  10  287.37    8.60
   0  -2  10  257.37    8.70
  -1   2 -10   -1.30    0.80
  -1   2 -10    2.10    1.70
  -1   2 -10    0.30    1.20
  -1   2 -10    0.70    1.00
  -1   2 -10   -0.30    1.50
  -1   2 -10    0.70    1.00
   1  -2  10    0.00    0.70
   1  -2  10   -2.50    1.10
   1  -2  10   -0.70    0.70
   1  -2  10   -1.00    0.70
   1  -2  10   -0.10    0.80
  -2   2 -10    0.90    1.30
  -2   2 -10   -1.60    1.40
  -2   2 -10    0.00    1.70
  -2   2 -10   -0.50    1.00
   2  -2  10   -0.60    0.60
   2  -2  10   -0.50    1.10
   2  -2  10    0.20    1.60
   2  -2  10   -0.70    0.50
  -3   2 -10    0.30    1.10
  -3   2 -10    1.80    1.20
  -3   2 -10   -0.30    1.20
  -3   2 -10    1.70    1.90
  -3   2 -10    0.50    1.00
   3  -2  10   -0.90    0.60
   3  -2  10    0.80    1.80
  -4   2 -10   20.40    2.70
  -4   2 -10   26.90    4.40
  -4   2 -10   21.30    3.00
  -4   2 -10   18.60    2.50
   4  -2  10   24.20    4.80
   8   1 -10  334.27   15.30
   8   1 -10  369.96   16.40
   8   1 -10  318.07   14.40
  -8  -1  10  327.97   15.10
  -8  -1  10  345.57   16.20
  -8  -1  10  320.87   14.50
  -8  -1  10  326.17   11.40
  -8  -1  10  315.57   14.00
   7   1 -10   56.49    5.40
   7   1 -10   57.89    6.10
   7   1 -10   60.79    6.10
   7   1 -10   55.19    5.80
  -7  -1  10   56.29    5.70
  -7  -1  10   53.09    3.90
  -7  -1  10   70.09    7.00
  -7  -1  10   56.59    5.80
  -7  -1  10   56.59    6.10
  -7  -1  10   58.49    5.60
  -7  -1  10   64.49    5.80
   6   1 -10   97.49    6.90
   6   1 -10  107.09    7.60
   6   1 -10  100.19    7.30
   6   1 -10  104.29    7.50
  -6  -1  10   99.09    6.80
  -6  -1  10  103.29    7.90
  -6  -1  10   93.89    5.20
  -6  -1  10  102.69    6.50
  -6  -1  10   94.79    6.40
  -6  -1  10  107.89    7.60
  -6  -1  10   96.99    7.40
   5   1 -10  132.99    8.00
   5   1 -10  147.89    8.40
   5   1 -10  144.59    8.60
   5   1 -10  135.09    7.70
  -5  -1  10  147.59    8.60
  -5  -1  10  139.49    5.10
  -5  -1  10  135.09    9.10
  -5  -1  10  124.39    7.80
  -5  -1  10  136.69    7.50
  -5  -1  10  139.09    7.10
  -5  -1  10  137.99    7.50
   4   1 -10    0.00    1.10
   4   1 -10   -0.40    1.40
   4   1 -10   -0.80    1.20
   4   1 -10    0.80    1.70
  -4  -1  10   -0.20    1.50
  -4  -1  10    1.50    1.40
  -4  -1  10   -0.90    1.80
  -4  -1  10   -0.10    0.90
  -4  -1  10    1.00    0.60
  -4  -1  10    0.90    1.30
   3   1 -10  162.98    8.30
   3   1 -10  151.18    5.30
   3   1 -10  153.58    7.80
   3   1 -10  152.68    7.60
  -3  -1  10  140.49    5.10
  -3  -1  10  157.48    6.20
  -3  -1  10  158.98    7.70
  -3  -1  10  162.28    8.10
  -3  -1  10  156.88    4.10
  -3  -1  10  170.98   10.40
   2   1 -10  672.03   16.10
   2   1 -10  678.53   19.10
   2   1 -10  656.73   18.40
  -2  -1  10  650.63   15.00
  -2  -1  10  671.83   23.00
  -2  -1  10  672.63   18.10
  -2  -1  10  642.54   18.40
   1   1 -10 2551.94   54.19
   1   1 -10 2499.25   56.69
   1   1 -10 2560.94   52.19
   1   1 -10 2598.54   53.79
   1   1 -10 2593.24   56.69
   1   1 -10 2492.85   53.49
  -1  -1  10 2506.35   50.79
  -1  -1  10 2504.25   52.79
  -1  -1  10 2564.44   52.79
   0   1 -10  299.87   10.60
   0   1 -10  300.97   10.50
   0   1 -10  293.87   10.80
   0   1 -10  307.47   12.50
   0   1 -10  306.27   10.70
   0   1 -10  301.67   10.40
   0  -1  10  286.47    9.70
   0  -1  10  315.07   10.00
   0  -1  10  299.17    9.70
   0  -1  10  303.67    9.90
  -1   1 -10   41.00    3.70
  -1   1 -10   43.60    5.40
  -1   1 -10   43.70    3.70
  -1   1 -10   41.40    3.70
  -1   1 -10   46.30    4.20
  -1   1 -10   45.00    3.70
   1  -1  10   47.30    4.10
   1  -1  10   45.00    3.30
   1  -1  10   45.30    3.20
   1  -1  10   39.70    3.30
  -2   1 -10   -0.90    1.30
  -2   1 -10   -0.30    1.80
  -2   1 -10    1.80    1.50
  -2   1 -10    2.80    1.80
   2  -1  10    0.20    1.00
   2  -1  10    0.10    1.20
   2  -1  10   -0.50    1.00
   2  -1  10    1.50    1.30
  -3   1 -10   13.40    4.20
  -3   1 -10    3.70    2.10
  -3   1 -10    7.60    2.00
  -3   1 -10    8.60    2.10
  -3   1 -10    8.00    2.90
   3  -1  10    5.20    2.30
   3  -1  10    5.50    1.70
   3  -1  10    6.70    1.70
   3  -1  10    3.70    1.60
   3  -1  10    4.50    1.50
  -4   1 -10    2.00    1.70
  -4   1 -10   -0.80    1.50
  -4   1 -10    2.40    2.10
  -4   1 -10    4.10    2.00
   4  -1  10   -3.00    1.80
   4  -1  10    0.10    1.40
   4  -1  10    0.70    1.70
   4  -1  10    2.20    1.40
   9   0 -10  109.39    8.90
   9   0 -10  106.89    8.20
   9   0 -10  124.99    9.40
   9   0 -10  109.59    9.80
  -9   0  10  114.79    9.40
  -9   0  10  119.49    7.60
  -9   0  10  119.69    9.80
   8   0 -10   17.30    4.30
   8   0 -10   22.90    4.60
   8   0 -10   20.70    3.90
   8   0 -10   26.70    5.00
  -8   0  10   23.70    4.50
  -8   0  10   21.40    4.60
  -8   0  10   19.40    4.70
  -8   0  10   16.60    3.00
   7   0 -10  141.39    9.50
   7   0 -10  141.09    9.70
   7   0 -10  152.08    8.90
   7   0 -10  154.18    9.50
  -7   0  10  154.18    7.20
  -7   0  10  150.08    9.00
  -7   0  10  140.69    9.90
  -7   0  10  157.08    9.40
  -7   0  10  160.28   10.20
  -7   0  10  158.08    9.50
   6   0 -10  127.39    8.50
   6   0 -10  118.49    7.50
   6   0 -10  134.29    8.40
   6   0 -10  136.39    8.60
  -6   0  10  149.59    9.10
  -6   0  10  128.19    8.50
  -6   0  10  120.19    7.00
  -6   0  10  128.49    6.10
  -6   0  10  122.59    8.00
  -6   0  10  114.99    7.50
   5   0 -10   56.69    4.90
   5   0 -10   68.39    5.80
   5   0 -10   67.99    6.00
  -5   0  10   73.69    6.60
  -5   0  10   65.69    4.10
  -5   0  10   57.79    5.20
  -5   0  10   60.59    4.90
  -5   0  10   63.09    5.60
  -5   0  10   65.99    4.70
   4   0 -10   16.50    3.20
   4   0 -10   18.50    2.40
   4   0 -10   16.30    3.40
   4   0 -10   22.10    3.80
   4   0 -10   16.20    3.40
   4   0 -10   17.40    3.10
  -4   0  10   18.60    2.40
  -4   0  10   23.30    4.00
  -4   0  10   19.80    3.30
  -4   0  10   20.00    3.30
  -4   0  10   21.60    3.90
  -4   0  10   17.40    2.50
   3   0 -10  473.65   15.30
   3   0 -10  475.05   15.80
   3   0 -10  476.65   13.10
   3   0 -10  491.35   16.00
   3   0 -10  491.15   16.30
  -3   0  10  458.45   15.60
  -3   0  10  482.45   15.40
  -3   0  10  465.05   12.20
  -3   0  10  482.65   15.10
   2   0 -10  162.28    7.90
   2   0 -10  176.28    8.50
   2   0 -10  162.98    9.50
   2   0 -10  173.18    7.10
  -2   0  10  167.78    7.90
  -2   0  10  175.38    6.30
  -2   0  10  187.98    8.30
  -2   0  10  211.78    9.10
   1   0 -10    8.30    2.40
   1   0 -10    4.20    2.10
   1   0 -10    4.20    1.70
   1   0 -10    6.50    2.00
   1   0 -10    7.90    2.10
   1   0 -10    7.70    2.20
  -1   0  10    5.80    1.60
  -1   0  10    6.40    1.90
  -1   0  10    4.80    1.60
  -1   0  10    6.00    2.00
   0   0 -10  116.59    6.30
   0   0 -10  123.09    6.80
   0   0 -10  111.09    6.30
   0   0 -10  102.99    7.10
   0   0 -10  104.09    6.20
   0   0 -10  109.79    6.30
   0   0  10  117.49    5.90
   0   0  10  119.79    6.10
  -1   0 -10   19.80    3.10
  -1   0 -10   19.70    3.40
  -1   0 -10   17.80    3.40
  -1   0 -10   18.90    3.50
  -1   0 -10   17.60    2.90
  -1   0 -10   16.60    3.00
   1   0  10   18.50    2.80
   1   0  10   22.10    3.00
  -2   0 -10   51.49    4.50
  -2   0 -10   50.19    4.60
  -2   0 -10   53.49    5.40
  -2   0 -10   59.29    5.40
   2   0  10   46.80    3.70
   2   0  10   42.20    4.50
   2   0  10   49.20    4.10
  -3   0 -10   25.20    3.60
  -3   0 -10   28.20    3.70
  -3   0 -10   31.40    3.90
  -3   0 -10   31.20    5.00
  -3   0 -10   32.60    4.40
  -3   0 -10   22.60    4.30
   3   0  10   27.80    3.30
   3   0  10   28.50    3.30
   3   0  10   31.50    4.90
   3   0  10   25.10    3.70
  -4   0 -10    6.40    2.50
  -4   0 -10    3.60    2.50
  -4   0 -10    3.80    2.50
  -4   0 -10    6.30    2.40
  -4   0 -10    3.50    2.00
   4   0  10    5.40    2.10
   4   0  10    3.70    2.60
   4   0  10    3.20    2.00
   9  -1 -10   62.09    8.00
   9  -1 -10   49.20    6.90
   9  -1 -10   53.69    7.00
  -9   1  10   56.49    7.80
  -9   1  10   45.10    6.20
  -9   1  10   56.39    7.70
  -9   1  10   59.09    5.70
   8  -1 -10   38.60    5.90
   8  -1 -10   34.30    5.60
   8  -1 -10   27.80    5.10
   8  -1 -10   31.20    5.70
  -8   1  10   42.30    6.50
  -8   1  10   35.00    5.50
  -8   1  10   40.30    6.20
  -8   1  10   27.40    4.00
  -8   1  10   33.50    5.70
  -8   1  10   32.50    5.10
   7  -1 -10   -3.00    2.10
   7  -1 -10    3.50    2.20
   7  -1 -10    4.50    2.20
   7  -1 -10    1.20    2.40
  -7   1  10   -2.50    1.20
  -7   1  10    2.40    2.30
  -7   1  10    1.00    1.90
  -7   1  10   -0.10    2.50
  -7   1  10   -2.50    1.90
   6  -1 -10   37.20    5.70
   6  -1 -10   20.30    4.20
   6  -1 -10   29.10    4.90
  -6   1  10   31.80    4.70
  -6   1  10   32.60    3.90
  -6   1  10   33.10    5.00
  -6   1  10   34.30    4.70
  -6   1  10   29.10    4.90
  -6   1  10   28.00    3.70
   5  -1 -10    8.40    2.80
   5  -1 -10   15.20    3.10
   5  -1 -10   11.70    2.80
   5  -1 -10    5.70    2.50
   5  -1 -10    9.60    2.00
  -5   1  10    9.40    2.20
  -5   1  10   12.50    3.20
  -5   1  10    6.90    2.50
  -5   1  10    7.00    1.90
  -5   1  10    9.80    2.80
  -5   1  10   10.10    2.80
   4  -1 -10   44.00    5.30
   4  -1 -10   53.59    5.20
   4  -1 -10   48.00    4.50
   4  -1 -10   43.50    4.60
   4  -1 -10   48.10    3.80
   4  -1 -10   42.20    5.30
  -4   1  10   49.30    3.50
  -4   1  10   52.39    3.90
  -4   1  10   52.99    4.90
  -4   1  10   51.09    4.50
  -4   1  10   46.30    4.70
  -4   1  10   49.20    5.00
   3  -1 -10  170.58    8.60
   3  -1 -10  174.88    8.80
   3  -1 -10  169.38    8.90
   3  -1 -10  166.28    7.30
   3  -1 -10  171.38    8.80
   3  -1 -10  171.38    8.90
  -3   1  10  182.08    9.30
  -3   1  10  174.38    7.50
  -3   1  10  180.98    5.90
  -3   1  10  190.38    9.00
  -3   1  10  174.98    8.50
   2  -1 -10  177.08    8.60
   2  -1 -10  165.88    7.50
   2  -1 -10  173.88   10.50
   2  -1 -10  179.88    8.80
   2  -1 -10  183.48    9.10
  -2   1  10  164.48    8.40
  -2   1  10  165.08    8.20
  -2   1  10  183.28    8.50
   1  -1 -10  103.19    6.10
   1  -1 -10  113.29    7.20
   1  -1 -10  103.29    6.40
   1  -1 -10  111.69    6.90
   1  -1 -10  104.99    6.60
   1  -1 -10  116.29    6.70
  -1   1  10  112.19    6.40
  -1   1  10  105.39    5.60
  -1   1  10  112.09    6.60
   0  -1 -10  167.98    8.20
   0  -1 -10  161.78    8.20
   0  -1 -10  173.08    8.50
   0  -1 -10  172.68    8.50
   0  -1 -10  177.78    8.90
   0  -1 -10  173.98    9.20
   0   1  10  160.68    7.80
   0   1  10  174.98    7.90
  -1  -1 -10  191.88    9.40
  -1  -1 -10  181.88    8.90
  -1  -1 -10  203.28   10.00
  -1  -1 -10  205.68    9.40
  -1  -1 -10  184.78    9.90
  -1  -1 -10  201.58    9.10
   1   1  10  202.18    8.60
   1   1  10  186.88    8.80
   1   1  10  197.48    9.20
   1   1  10  194.68    8.30
  -2  -1 -10   47.10    7.20
  -2  -1 -10   48.60    5.10
  -2  -1 -10   47.20    4.70
  -2  -1 -10   56.09    5.50
   2   1  10   50.19    4.10
   2   1  10   48.20    4.90
   2   1  10   43.20    6.70
   2   1  10   47.10    4.60
  -3  -1 -10   35.50    4.40
  -3  -1 -10   40.00    4.80
  -3  -1 -10   35.50    5.20
  -3  -1 -10   44.00    5.40
  -3  -1 -10   45.90    4.80
   3   1  10   35.60    5.60
   3   1  10   40.90    3.80
   3   1  10   34.70    3.60
  -4  -1 -10   15.50    4.00
  -4  -1 -10   13.30    4.10
  -4  -1 -10   15.40    3.50
  -4  -1 -10   18.70    4.00
  -4  -1 -10   12.80    3.30
   4   1  10   13.70    4.20
   9  -2 -10   10.00    4.00
   9  -2 -10   14.00    4.00
   9  -2 -10   15.30    3.10
  -9   2  10   13.70    3.90
  -9   2  10    7.70    3.30
  -9   2  10   14.90    4.70
  -9   2  10    9.00    3.10
   8  -2 -10    0.70    1.90
   8  -2 -10   -1.30    2.90
   8  -2 -10    0.30    2.00
   8  -2 -10    2.80    2.20
   8  -2 -10    0.10    2.60
  -8   2  10   -0.10    2.70
  -8   2  10    0.70    2.10
  -8   2  10   -1.60    1.90
  -8   2  10    3.10    2.30
  -8   2  10   -0.10    1.90
   7  -2 -10   15.60    4.00
   7  -2 -10   14.30    3.50
   7  -2 -10    9.30    3.40
   7  -2 -10   11.70    3.20
   7  -2 -10   13.70    3.20
  -7   2  10   12.70    3.10
  -7   2  10   10.30    3.10
  -7   2  10   10.90    2.80
  -7   2  10    8.90    3.40
   6  -2 -10   27.40    3.90
   6  -2 -10   19.60    4.20
   6  -2 -10   33.30    5.50
   6  -2 -10   22.10    4.40
   6  -2 -10   21.60    3.70
   6  -2 -10   25.40    3.60
  -6   2  10   23.00    4.40
  -6   2  10   28.70    3.90
  -6   2  10   21.70    4.10
  -6   2  10   31.20    4.00
  -6   2  10   34.40    5.20
  -6   2  10   31.30    5.10
   5  -2 -10   -0.40    1.30
   5  -2 -10    1.80    1.80
   5  -2 -10    0.50    2.10
   5  -2 -10    0.80    1.70
   5  -2 -10   -0.60    1.30
   5  -2 -10   -1.10    1.50
  -5   2  10   -0.40    1.10
  -5   2  10    1.40    1.50
  -5   2  10    1.90    1.80
  -5   2  10   -1.50    1.70
  -5   2  10   -1.10    2.00
  -5   2  10   -1.10    1.70
   4  -2 -10   71.29    6.00
   4  -2 -10   58.69    4.60
   4  -2 -10   72.69    6.00
   4  -2 -10   73.69    5.60
   4  -2 -10   76.39    6.10
   4  -2 -10   78.89    6.10
  -4   2  10   81.29    4.40
  -4   2  10   79.99    5.30
  -4   2  10   72.39    5.70
  -4   2  10   77.79    6.30
  -4   2  10   73.69    5.70
  -4   2  10   68.59    5.60
   3  -2 -10   53.09    6.30
   3  -2 -10   39.30    5.10
   3  -2 -10   53.79    5.20
   3  -2 -10   37.40    4.80
   3  -2 -10   46.70    6.10
   3  -2 -10   45.40    4.10
  -3   2  10   44.50    4.20
  -3   2  10   59.69    5.10
  -3   2  10   39.90    4.00
  -3   2  10   46.20    4.40
  -3   2  10   40.40    5.10
  -3   2  10   46.90    2.80
   2  -2 -10   36.30    4.80
   2  -2 -10   33.30    4.50
   2  -2 -10   34.30    4.50
   2  -2 -10   31.80    4.60
   2  -2 -10   34.80    4.70
   2  -2 -10   39.30    3.90
  -2   2  10   33.10    1.80
  -2   2  10   29.60    1.20
  -2   2  10   29.70    4.20
  -2   2  10   37.60    4.70
   1  -2 -10   30.00    4.30
   1  -2 -10   27.80    4.30
   1  -2 -10   26.00    4.40
   1  -2 -10   24.30    4.00
   1  -2 -10   24.20    4.00
   1  -2 -10   26.90    4.10
  -1   2  10   26.60    4.20
  -1   2  10   32.00    4.40
  -1   2  10   24.90    3.60
  -1   2  10   25.10    3.50
   0  -2 -10   59.19    5.00
   0  -2 -10   45.30    4.70
   0  -2 -10   60.59    5.50
   0  -2 -10   49.10    4.80
   0  -2 -10   62.19    5.20
   0  -2 -10   48.40    5.00
   0   2  10   53.39    4.60
   0   2  10   53.59    4.60
   0   2  10   48.90    4.60
   0   2  10   54.99    4.90
  -1  -2 -10  219.08   11.00
  -1  -2 -10  219.58   10.30
  -1  -2 -10  235.18   11.00
  -1  -2 -10  189.58   11.50
  -1  -2 -10  208.38   10.70
  -1  -2 -10  237.08   10.40
   1   2  10  224.48    9.90
   1   2  10  227.68   10.10
   1   2  10  219.98   13.30
   1   2  10  209.68    9.60
   1   2  10  214.88   10.20
  -2  -2 -10    1.00    2.00
  -2  -2 -10   -0.70    2.20
  -2  -2 -10   -2.00    1.50
  -2  -2 -10   -1.60    2.00
  -2  -2 -10    2.30    1.90
   2   2  10   -1.30    1.20
   2   2  10    1.50    1.80
   2   2  10    3.50    2.20
  -3  -2 -10  154.98    9.70
  -3  -2 -10  156.88    9.20
  -3  -2 -10  155.78    8.90
  -3  -2 -10  167.18    9.40
   3   2  10  167.08   10.10
   3   2  10  136.09    7.60
   8  -3 -10   22.60    3.60
   8  -3 -10   26.50    5.30
   8  -3 -10   21.10    4.90
   8  -3 -10   25.60    4.80
  -8   3  10   22.50    4.20
  -8   3  10   15.70    4.90
  -8   3  10   28.80    5.10
  -8   3  10   16.70    3.30
  -8   3  10   14.60    3.90
   7  -3 -10  106.29    8.30
   7  -3 -10  123.79    8.40
   7  -3 -10  133.39    7.30
  -7   3  10  130.09    8.00
  -7   3  10  115.49    8.00
  -7   3  10  134.79    9.30
  -7   3  10  113.69    8.40
  -7   3  10  128.29    9.00
   6  -3 -10   50.09    6.50
   6  -3 -10   33.10    4.20
   6  -3 -10   43.00    5.90
   6  -3 -10   50.09    6.30
   6  -3 -10   48.50    4.70
   6  -3 -10   48.50    6.10
  -6   3  10   49.50    6.40
  -6   3  10   44.90    5.90
  -6   3  10   50.29    5.10
  -6   3  10   53.39    4.90
  -6   3  10   39.30    6.00
  -6   3  10   43.10    4.20
   5  -3 -10    6.90    2.80
   5  -3 -10   10.50    2.80
   5  -3 -10   10.80    3.10
   5  -3 -10    7.40    2.30
   5  -3 -10    9.00    2.60
   5  -3 -10   11.10    3.50
  -5   3  10    7.70    3.20
  -5   3  10    7.00    2.60
  -5   3  10    5.30    2.00
  -5   3  10    6.90    2.50
  -5   3  10    7.20    2.00
  -5   3  10   13.20    3.00
   4  -3 -10   -1.70    1.40
   4  -3 -10    0.10    1.10
   4  -3 -10    0.30    1.30
   4  -3 -10    1.40    1.70
   4  -3 -10    3.90    2.50
  -4   3  10   -4.30    1.80
  -4   3  10   -0.80    1.80
  -4   3  10   -1.40    1.30
  -4   3  10    2.50    2.00
  -4   3  10    1.10    1.70
  -4   3  10   -0.40    1.00
   3  -3 -10    0.30    1.50
   3  -3 -10    2.40    1.70
   3  -3 -10    0.80    1.50
   3  -3 -10   -0.70    1.50
   3  -3 -10   -0.50    1.20
   3  -3 -10    1.40    1.80
  -3   3  10    0.70    0.80
  -3   3  10    0.90    1.70
  -3   3  10    3.10    1.60
  -3   3  10   -3.30    1.40
  -3   3  10    0.50    1.70
  -3   3  10    0.40    1.50
   2  -3 -10    7.90    2.50
   2  -3 -10    8.50    2.90
   2  -3 -10    8.90    2.90
   2  -3 -10    6.70    2.30
   2  -3 -10    5.70    2.60
   2  -3 -10   11.20    2.80
  -2   3  10    5.90    0.90
  -2   3  10    7.30    1.00
  -2   3  10    4.50    2.30
  -2   3  10   11.80    3.10
  -2   3  10    5.60    2.10
  -2   3  10    7.00    2.30
   1  -3 -10   47.80    4.70
   1  -3 -10   38.80    5.40
   1  -3 -10   25.60    4.00
   1  -3 -10   36.00    4.90
   1  -3 -10   36.40    4.90
   1  -3 -10   44.70    4.60
  -1   3  10   48.40    5.00
  -1   3  10   44.10    4.70
  -1   3  10   46.90    5.40
   0  -3 -10  100.09    7.10
   0  -3 -10   96.39    6.90
   0  -3 -10  101.69    7.30
   0  -3 -10  105.89    7.30
   0  -3 -10  109.39    7.20
   0  -3 -10  108.59    7.40
   0   3  10  107.29    8.60
   0   3  10   97.49    6.70
   0   3  10   91.99    7.20
   0   3  10   97.69    6.70
   0   3  10  105.19    6.90
   0   3  10  102.69    7.60
  -1  -3 -10   32.80    4.90
  -1  -3 -10   42.10    5.80
  -1  -3 -10   26.60    4.40
  -1  -3 -10   32.80    5.30
  -1  -3 -10   29.50    4.80
  -1  -3 -10   33.20    4.70
   1   3  10   29.90    4.90
   1   3  10   27.90    4.20
   1   3  10   31.70    4.60
  -2  -3 -10    8.50    3.30
  -2  -3 -10    8.50    2.80
  -2  -3 -10    9.30    3.30
  -2  -3 -10    0.70    2.90
   2   3  10    6.90    2.50
   2   3  10    8.00    2.90
   2   3  10   13.80    3.90
  -3  -3 -10  144.29    9.50
  -3  -3 -10  166.88    9.90
  -3  -3 -10  169.28   10.90
  -3  -3 -10  174.88    9.80
  -3  -3 -10  167.68   10.60
   3   3  10  181.48   11.10
   8  -4 -10   -2.00    3.10
   8  -4 -10    1.00    2.70
   8  -4 -10    3.50    1.90
   8  -4 -10    2.50    3.50
  -8   4  10    5.60    2.60
  -8   4  10    2.90    3.10
  -8   4  10   -1.10    1.70
  -8   4  10   -5.10    2.90
  -8   4  10   -2.00    2.10
   7  -4 -10    6.60    2.80
   7  -4 -10    7.80    3.50
   7  -4 -10   12.80    3.30
   7  -4 -10   12.00    4.20
   7  -4 -10   12.90    3.50
   7  -4 -10   11.90    2.50
  -7   4  10   11.70    3.10
  -7   4  10    7.00    3.50
  -7   4  10   10.80    3.80
  -7   4  10    6.90    3.20
  -7   4  10   12.90    3.40
  -7   4  10    8.90    3.20
   6  -4 -10    4.30    2.80
   6  -4 -10   -0.90    1.20
   6  -4 -10    0.70    2.50
   6  -4 -10    1.90    2.50
   6  -4 -10   -1.60    1.70
   6  -4 -10    0.60    1.90
  -6   4  10    0.20    2.30
  -6   4  10   -1.00    1.80
  -6   4  10    2.10    2.00
  -6   4  10    1.30    1.80
  -6   4  10    0.30    1.60
   5  -4 -10   31.40    5.30
   5  -4 -10   33.60    4.20
   5  -4 -10   34.60    5.00
   5  -4 -10   40.10    5.60
   5  -4 -10   37.80    4.90
   5  -4 -10   29.60    4.80
  -5   4  10   31.50    5.70
  -5   4  10   42.70    5.40
  -5   4  10   36.60    3.80
  -5   4  10   42.70    5.50
  -5   4  10   34.00    5.30
  -5   4  10   24.90    4.90
   4  -4 -10   19.10    4.30
   4  -4 -10   25.20    4.50
   4  -4 -10   27.60    4.40
   4  -4 -10   19.90    4.20
  -4   4  10   22.20    4.10
  -4   4  10   16.50    3.90
  -4   4  10   27.90    4.00
  -4   4  10   25.30    4.50
  -4   4  10   17.90    4.50
   3  -4 -10   67.69    6.10
   3  -4 -10   68.49    5.70
   3  -4 -10   60.89    5.30
   3  -4 -10   54.49    5.30
   3  -4 -10   62.39    5.70
   3  -4 -10   73.69    6.70
  -3   4  10   55.99    5.30
  -3   4  10   65.09    5.90
  -3   4  10   63.19    4.00
  -3   4  10   69.69    6.20
  -3   4  10   57.19    5.50
   2  -4 -10   31.70    4.50
   2  -4 -10   27.70    4.40
   2  -4 -10   31.00    4.60
   2  -4 -10   31.60    4.90
   2  -4 -10   34.60    5.20
   2  -4 -10   33.00    5.20
  -2   4  10   39.90    5.60
  -2   4  10   30.20    4.50
  -2   4  10   31.90    4.80
  -2   4  10   40.00    5.50
  -2   4  10   34.90    2.40
   1  -4 -10   12.70    3.00
   1  -4 -10   11.10    3.10
   1  -4 -10   12.40    3.20
   1  -4 -10    8.80    2.90
   1  -4 -10   19.80    3.70
  -1   4  10   21.50    4.00
  -1   4  10   13.80    3.30
  -1   4  10   15.20    3.80
  -1   4  10   17.70    3.70
  -1   4  10   12.70    2.70
   0  -4 -10    1.50    1.50
   0  -4 -10    4.10    2.60
   0  -4 -10    0.50    1.40
   0  -4 -10    1.40    1.90
   0  -4 -10   -1.50    1.90
   0   4  10    0.00    2.00
   0   4  10    1.90    2.00
   0   4  10    2.50    2.40
   0   4  10    0.60    2.00
  -1  -4 -10   55.09    5.80
  -1  -4 -10   52.79    6.70
  -1  -4 -10   56.89    5.90
   1   4  10   54.19    5.00
   1   4  10   54.29    5.60
   1   4  10   46.10    6.10
  -2  -4 -10    9.00    3.10
  -2  -4 -10   12.90    4.30
  -2  -4 -10    9.20    3.70
  -2  -4 -10   16.90    4.00
  -2  -4 -10   13.70    4.00
   2   4  10    2.50    2.20
   2   4  10   14.50    3.80
   2   4  10   11.00    3.40
   8  -5 -10    7.50    2.20
   8  -5 -10   14.30    4.70
  -8   5  10    6.80    2.90
  -8   5  10    8.70    4.10
  -8   5  10    3.70    2.80
  -8   5  10    5.00    2.80
  -8   5  10    7.60    3.60
   7  -5 -10   79.99    5.50
   7  -5 -10   82.09    9.90
   7  -5 -10  105.89    8.50
   7  -5 -10   80.79    7.90
  -7   5  10   81.99    8.20
  -7   5  10   89.09    8.30
  -7   5  10   77.49    7.20
  -7   5  10   89.09    6.80
  -7   5  10   92.29    7.60
  -7   5  10   94.99    7.50
   6  -5 -10  122.89    6.90
   6  -5 -10  119.89    8.50
   6  -5 -10  121.09    8.20
   6  -5 -10  104.49    9.80
   6  -5 -10  113.79    8.90
   6  -5 -10  120.59    9.20
  -6   5  10  108.19    8.40
  -6   5  10  108.49    8.80
  -6   5  10  129.19    8.70
  -6   5  10  115.49    8.30
  -6   5  10  104.09    8.60
   5  -5 -10    3.20    2.40
   5  -5 -10   -1.80    2.30
   5  -5 -10    3.70    2.20
   5  -5 -10    5.80    2.40
   5  -5 -10    2.20    2.60
  -5   5  10    2.10    2.00
  -5   5  10    2.80    2.30
  -5   5  10    3.30    2.90
  -5   5  10    5.20    2.30
  -5   5  10    0.90    3.00
   4  -5 -10   28.00    4.70
   4  -5 -10   25.90    4.70
   4  -5 -10   33.30    4.50
   4  -5 -10   24.20    4.40
   4  -5 -10   23.70    4.40
   4  -5 -10   24.70    5.10
  -4   5  10   40.00    5.70
  -4   5  10   32.70    5.40
  -4   5  10   35.20    3.70
  -4   5  10   26.60    4.70
  -4   5  10   30.70    4.80
  -4   5  10   32.00    5.20
   3  -5 -10   29.00    4.90
   3  -5 -10   33.00    5.60
   3  -5 -10   34.10    5.10
   3  -5 -10   34.40    5.50
   3  -5 -10   35.20    4.70
   3  -5 -10   32.50    4.70
  -3   5  10   31.70    3.30
  -3   5  10   29.50    5.10
  -3   5  10   29.40    4.80
  -3   5  10   30.10    5.00
  -3   5  10   35.60    5.30
  -3   5  10   36.30    5.20
   2  -5 -10    0.30    1.70
   2  -5 -10    1.10    2.20
   2  -5 -10   -0.50    1.60
   2  -5 -10   -1.20    1.40
   2  -5 -10    0.10    2.50
   2  -5 -10   -0.80    1.40
  -2   5  10   -4.70    1.70
  -2   5  10    0.70    1.10
  -2   5  10   -0.70    1.50
  -2   5  10    2.20    2.20
  -2   5  10   -0.10    1.70
  -2   5  10    0.90    2.40
   1  -5 -10   36.30    5.40
   1  -5 -10   32.80    5.70
   1  -5 -10   40.90    6.00
   1  -5 -10   34.90    5.00
   1  -5 -10   40.90    5.90
  -1   5  10   44.50    5.60
  -1   5  10   32.30    5.30
  -1   5  10   36.50    6.20
  -1   5  10   34.00    5.00
   0  -5 -10    0.70    2.00
   0  -5 -10    2.20    2.90
   0  -5 -10    2.30    2.60
   0  -5 -10    1.00    2.10
   0  -5 -10    0.30    1.70
   0   5  10   -0.20    2.20
   0   5  10   -0.60    0.50
   0   5  10   -0.50    1.80
   0   5  10    0.90    1.80
  -1  -5 -10    2.30    2.30
  -1  -5 -10   -1.10    2.60
  -1  -5 -10    0.20    3.10
   1   5  10    1.90    2.00
   1   5  10    1.70    2.70
   1   5  10    2.10    1.70
   7  -6 -10   13.30    2.60
   7  -6 -10   19.10    4.80
  -7   6  10    9.70    4.00
  -7   6  10   10.00    3.30
  -7   6  10   19.30    4.50
  -7   6  10   16.60    4.30
  -7   6  10   11.30    3.50
   6  -6 -10   14.90    4.30
   6  -6 -10    5.10    3.00
   6  -6 -10   11.20    2.50
   6  -6 -10   11.70    3.90
  -6   6  10   12.60    4.00
  -6   6  10   13.50    3.40
  -6   6  10   18.10    4.10
  -6   6  10   12.80    3.60
  -6   6  10   15.30    4.50
   5  -6 -10   41.90    6.30
   5  -6 -10   37.60    4.60
   5  -6 -10   33.80    5.90
   5  -6 -10   40.80    6.30
   5  -6 -10   40.90    6.00
  -5   6  10   39.60    6.00
  -5   6  10   43.90    6.30
  -5   6  10   51.69    6.60
  -5   6  10   37.80    6.00
  -5   6  10   35.40    6.20
  -5   6  10   35.30    5.60
   4  -6 -10   80.59    7.10
   4  -6 -10   97.39    8.20
   4  -6 -10   83.99    6.30
   4  -6 -10   89.19    8.30
   4  -6 -10   88.59    7.30
  -4   6  10   90.49    6.00
  -4   6  10   78.89    7.30
  -4   6  10   90.49    7.40
  -4   6  10   91.79    7.50
  -4   6  10   99.99    8.30
   3  -6 -10    3.50    2.40
   3  -6 -10    1.60    2.90
   3  -6 -10    3.90    2.30
   3  -6 -10    8.00    3.00
   3  -6 -10    3.50    3.20
  -3   6  10    0.80    2.30
  -3   6  10    1.60    2.10
  -3   6  10    4.40    1.90
  -3   6  10    9.00    4.10
  -3   6  10    9.50    3.10
  -3   6  10    4.20    2.80
   2  -6 -10    7.50    3.50
   2  -6 -10   12.50    3.50
   2  -6 -10   15.20    3.50
   2  -6 -10    4.90    2.70
   2  -6 -10    9.30    4.00
  -2   6  10   13.60    2.50
  -2   6  10   18.60    4.10
  -2   6  10   17.90    4.60
  -2   6  10   16.90    4.30
  -2   6  10   15.60    3.70
   1  -6 -10   19.10    4.30
   1  -6 -10   24.90    5.20
   1  -6 -10   23.10    4.30
   1  -6 -10   20.70    4.20
   1  -6 -10   18.00    4.60
  -1   6  10   25.00    4.60
  -1   6  10   22.60    4.50
  -1   6  10   20.80    2.60
   0  -6 -10   -1.00    2.30
   0  -6 -10   -2.00    3.30
   0  -6 -10    0.00    2.40
   0  -6 -10   -2.70    2.40
   0   6  10    0.40    1.50
   0   6  10   -5.80    2.40
   0   6  10    1.40    2.40
   0   6  10    1.30    2.40
   6  -7 -10   66.29    7.00
   6  -7 -10   63.29    5.90
   6  -7 -10   67.29    8.40
  -6   7  10   53.19    8.50
  -6   7  10   83.39    7.80
  -6   7  10   60.19    7.50
  -6   7  10   57.59    7.90
   5  -7 -10   76.49    7.80
   5  -7 -10   72.09    7.00
   5  -7 -10   74.79    8.50
   5  -7 -10   67.79    5.70
  -5   7  10   82.19    7.80
  -5   7  10   95.89   15.00
  -5   7  10   69.19    6.30
  -5   7  10   62.99    8.10
  -5   7  10   55.99    7.50
   4  -7 -10   15.80    3.30
   4  -7 -10   13.90    4.50
   4  -7 -10   17.10    4.30
   4  -7 -10   17.50    4.80
  -4   7  10   20.70    4.80
  -4   7  10   16.60    4.20
  -4   7  10   20.40    4.70
  -4   7  10   20.90    4.70
  -4   7  10   18.50    4.80
   3  -7 -10    1.90    2.00
   3  -7 -10    3.00    2.60
   3  -7 -10   -1.10    3.30
   3  -7 -10   -2.10    2.80
   3  -7 -10   -0.30    2.10
  -3   7  10    1.90    2.40
  -3   7  10   -0.90    1.90
  -3   7  10   -0.40    1.80
  -3   7  10    0.70    3.00
   2  -7 -10   10.80    4.40
   2  -7 -10    5.40    3.10
   2  -7 -10    5.40    3.50
   2  -7 -10    3.00    3.00
   2  -7 -10    0.50    2.50
  -2   7  10   10.10    3.70
  -2   7  10   -2.60    2.70
  -2   7  10    3.60    1.90
   2   8 -11   34.00    5.10
   2   8 -11   39.30    4.10
   2   8 -11   33.40    4.30
   2   8 -11   42.80    4.80
   2   8 -11   46.20    4.30
  -2  -8  11   41.20    9.40
   1   8 -11   14.80    3.30
   1   8 -11    5.10    1.90
   1   8 -11    9.60    2.20
  -1  -8  11    5.50    4.00
   0   8 -11   -0.10    1.10
   0   8 -11    1.50    1.00
   0   8 -11   -0.30    0.90
   0   8 -11    0.30    0.80
   0   8 -11    0.10    1.90
   0  -8  11    4.80    3.50
   4   7 -11   24.70    4.20
   4   7 -11   32.70    4.60
   4   7 -11   37.50    5.30
   4   7 -11   30.00    4.70
   4   7 -11   27.70    4.40
  -4  -7  11   32.80    7.30
   3   7 -11    2.40    2.00
   3   7 -11    3.50    1.90
   3   7 -11    4.70    2.00
   3   7 -11    2.90    2.40
  -3  -7  11    3.90    2.40
  -3  -7  11    0.20    2.00
  -3  -7  11    5.40    2.80
  -3  -7  11    2.90    3.50
   2   7 -11   26.20    3.50
   2   7 -11   25.20    3.70
   2   7 -11   25.00    4.00
   2   7 -11   26.60    3.50
   2   7 -11   23.90    3.10
  -2  -7  11   12.80    4.40
  -2  -7  11   19.50    2.60
  -2  -7  11   18.30    2.60
   1   7 -11    1.80    1.70
   1   7 -11    2.40    1.50
   1   7 -11    1.60    1.50
   1   7 -11    1.60    1.40
  -1  -7  11    1.40    2.70
   0   7 -11   -0.20    0.90
   0   7 -11    0.40    2.20
   0   7 -11    2.30    2.30
   0   7 -11    0.80    0.80
   0  -7  11    1.70    3.20
  -1   7 -11    1.30    1.90
  -1   7 -11    1.00    2.40
   1  -7  11    1.80    2.60
  -2   7 -11   86.69    5.50
  -2   7 -11   83.29    7.20
  -2   7 -11  107.79    6.70
   2  -7  11  100.09    9.90
   5   6 -11   16.60    4.00
   5   6 -11   13.20    3.30
   5   6 -11   14.20    3.40
   5   6 -11   13.90    3.50
   5   6 -11   12.60    3.10
  -5  -6  11   14.10    4.80
   4   6 -11   16.50    3.40
   4   6 -11   22.00    3.90
   4   6 -11   19.60    3.50
   4   6 -11   17.80    3.40
   4   6 -11   21.20    4.10
  -4  -6  11   17.60    3.80
  -4  -6  11   20.70    4.40
  -4  -6  11   22.80    6.00
   3   6 -11  109.19    6.90
   3   6 -11  114.89    6.80
   3   6 -11  107.29    6.80
   3   6 -11  110.49    6.50
   3   6 -11  120.29    7.40
  -3  -6  11  128.09    6.90
  -3  -6  11  116.89   10.50
  -3  -6  11  145.09   10.30
   2   6 -11   39.20    3.90
   2   6 -11   31.60    3.90
   2   6 -11   41.90    3.60
   2   6 -11   41.70    4.30
   2   6 -11   34.70    3.70
  -2  -6  11   37.10    3.40
  -2  -6  11   39.00    7.10
  -2  -6  11   38.20    3.00
  -2  -6  11   39.40    5.00
  -2  -6  11   36.40    3.50
   1   6 -11   -0.50    1.10
   1   6 -11    1.10    1.30
   1   6 -11   -0.70    1.00
   1   6 -11    0.30    1.30
   1   6 -11    1.20    1.30
  -1  -6  11    1.50    2.80
  -1  -6  11    1.20    0.70
   0   6 -11   30.40    2.20
   0   6 -11   30.80    2.50
   0   6 -11   27.60    3.40
   0   6 -11   35.40    2.70
   0   6 -11   28.80    2.20
   0   6 -11   31.70    4.90
   0  -6  11   34.90    6.90
  -1   6 -11   16.90    3.50
  -1   6 -11   14.30    2.60
   1  -6  11   16.10    4.80
  -2   6 -11   38.70    5.40
  -2   6 -11   29.20    3.70
  -2   6 -11   37.30    3.70
   2  -6  11   34.60    7.00
   6   5 -11   50.29    6.20
   6   5 -11   37.80    6.80
   6   5 -11   55.49    7.10
   6   5 -11   34.40    5.30
   6   5 -11   47.90    6.80
  -6  -5  11   35.00    5.70
  -6  -5  11   55.49    8.70
   5   5 -11    5.80    2.50
   5   5 -11    2.50    2.30
   5   5 -11    5.90    2.40
   5   5 -11    6.50    2.90
   5   5 -11    4.20    2.10
  -5  -5  11    1.30    2.10
  -5  -5  11    2.20    2.70
  -5  -5  11    9.70    3.20
  -5  -5  11    4.90    2.50
   4   5 -11   68.59    5.90
   4   5 -11   61.99    5.20
   4   5 -11   54.39    5.00
   4   5 -11   62.29    5.30
   4   5 -11   60.29    4.90
  -4  -5  11   64.39    7.30
  -4  -5  11   58.09    5.10
  -4  -5  11   53.79    5.30
   3   5 -11   98.79    5.90
   3   5 -11  103.09    6.30
   3   5 -11  102.59    6.60
   3   5 -11  106.49    6.50
   3   5 -11  103.29    6.50
  -3  -5  11  110.49    5.80
  -3  -5  11   98.29    6.00
  -3  -5  11  104.49    6.40
  -3  -5  11  104.69    6.80
  -3  -5  11  104.29    9.20
   2   5 -11   14.40    2.70
   2   5 -11   11.40    2.50
   2   5 -11   13.90    2.30
   2   5 -11   11.40    2.30
   2   5 -11    9.80    2.20
  -2  -5  11    8.50    1.80
  -2  -5  11   13.60    2.50
  -2  -5  11   10.90    2.70
  -2  -5  11   14.20    4.60
  -2  -5  11    8.90    2.10
  -2  -5  11   10.70    2.30
   1   5 -11  325.47   10.50
   1   5 -11  335.47   14.40
   1   5 -11  367.16   11.40
   1   5 -11  323.27   10.90
   1   5 -11  328.57   10.50
   1   5 -11  334.37   10.20
  -1  -5  11  304.37    8.70
  -1  -5  11  325.47    8.00
  -1  -5  11  350.56   17.50
   0   5 -11   95.59    4.40
   0   5 -11   91.79    3.70
   0   5 -11   92.59    4.10
   0   5 -11   97.49    4.40
   0   5 -11   95.19    7.40
   0   5 -11  108.29    5.30
   0   5 -11  100.09    4.70
   0  -5  11   97.19    9.30
  -1   5 -11   76.99    6.60
  -1   5 -11   78.29    3.10
  -1   5 -11   79.39    4.70
  -1   5 -11   79.09    4.50
  -1   5 -11   77.09    3.00
  -1   5 -11   73.79    4.20
   1  -5  11   82.99    8.40
  -2   5 -11   42.50    3.10
  -2   5 -11   39.40    5.30
  -2   5 -11   36.80    3.80
   2  -5  11   41.60    4.10
   2  -5  11   50.59    7.90
  -3   5 -11   31.00    4.20
  -3   5 -11   33.40    5.00
   3  -5  11   34.10    4.80
   7   4 -11  167.48   11.90
   7   4 -11  186.48   10.90
   7   4 -11  178.78   11.40
  -7  -4  11  179.68   11.50
  -7  -4  11  196.28   12.80
  -7  -4  11  163.88   10.20
   6   4 -11   38.10    5.30
   6   4 -11   39.20    5.50
   6   4 -11   35.30    5.10
   6   4 -11   44.80    5.70
  -6  -4  11   47.40    7.70
  -6  -4  11   38.30    5.70
  -6  -4  11   43.30    5.70
  -6  -4  11   43.70    5.60
   5   4 -11   17.40    3.70
   5   4 -11   17.50    3.30
   5   4 -11   11.30    2.90
   5   4 -11   18.00    3.60
   5   4 -11   14.10    3.30
  -5  -4  11   13.20    3.40
  -5  -4  11   19.80    5.10
  -5  -4  11   12.70    3.20
   4   4 -11   18.10    3.30
   4   4 -11   10.20    2.80
   4   4 -11   15.00    3.20
   4   4 -11   14.10    3.00
   4   4 -11   14.10    2.70
  -4  -4  11   16.10    2.70
  -4  -4  11   15.90    4.50
  -4  -4  11   15.30    2.80
  -4  -4  11   13.20    3.10
  -4  -4  11   14.80    3.60
   3   4 -11   -0.60    1.20
   3   4 -11   -2.20    1.30
   3   4 -11   -0.60    1.30
   3   4 -11    0.80    1.40
   3   4 -11   -0.10    1.10
  -3  -4  11    0.00    2.40
  -3  -4  11    0.50    1.20
  -3  -4  11   -0.70    1.40
  -3  -4  11   -0.40    1.40
  -3  -4  11   -3.00    1.30
  -3  -4  11    0.10    1.20
   2   4 -11    5.70    2.00
   2   4 -11    6.40    1.90
   2   4 -11    9.70    2.00
   2   4 -11    8.70    2.10
   2   4 -11    6.90    2.20
  -2  -4  11    5.80    3.30
  -2  -4  11    8.30    2.20
  -2  -4  11    7.10    1.70
  -2  -4  11    9.90    2.10
  -2  -4  11    8.30    2.10
   1   4 -11   30.30    3.10
   1   4 -11   38.70    2.90
   1   4 -11   35.20    3.30
   1   4 -11   40.20    5.50
   1   4 -11   32.80    3.30
  -1  -4  11   27.90    2.20
  -1  -4  11   32.60    6.20
  -1  -4  11   34.00    2.70
  -1  -4  11   35.60    2.70
   0   4 -11    0.70    0.90
   0   4 -11    1.10    1.00
   0   4 -11   -0.10    1.80
   0   4 -11   -0.60    0.90
   0   4 -11   -0.90    0.90
   0   4 -11   -0.70    0.90
   0   4 -11   -1.10    0.90
   0  -4  11   -2.80    1.50
  -1   4 -11    3.40    1.00
  -1   4 -11    3.40    0.90
  -1   4 -11    2.80    1.00
  -1   4 -11    2.70    1.50
  -1   4 -11    3.00    1.10
  -1   4 -11    2.90    2.30
  -1   4 -11    2.90    1.20
   1  -4  11    1.70    2.60
   1  -4  11    4.70    1.80
  -2   4 -11   20.80    1.60
  -2   4 -11   23.20    1.80
  -2   4 -11   24.80    4.10
  -2   4 -11   22.10    1.70
  -2   4 -11   22.80    1.50
   2  -4  11   23.30    3.60
  -3   4 -11   48.20    1.60
  -3   4 -11   61.69    6.00
  -3   4 -11   38.40    2.10
   3  -4  11   58.79    5.40
   7   3 -11  143.99    9.70
   7   3 -11  172.58   10.80
   7   3 -11  155.38    9.90
  -7  -3  11  158.78   10.60
  -7  -3  11  167.88   10.20
  -7  -3  11  163.78   11.30
   6   3 -11  262.87   13.40
   6   3 -11  290.67   13.20
   6   3 -11  285.57   12.40
   6   3 -11  302.77   13.90
  -6  -3  11  284.87   13.50
  -6  -3  11  274.57   14.70
  -6  -3  11  290.57   13.20
   5   3 -11   81.29    6.40
   5   3 -11   77.19    5.70
   5   3 -11   69.09    6.00
   5   3 -11   77.79    6.50
  -5  -3  11   80.99    6.00
  -5  -3  11   77.89    6.50
  -5  -3  11   79.49    5.70
  -5  -3  11   83.49    7.90
  -5  -3  11   79.39    6.40
   4   3 -11   10.70    2.80
   4   3 -11   18.20    3.60
   4   3 -11   14.60    2.90
   4   3 -11    4.80    2.10
   4   3 -11   10.50    2.30
  -4  -3  11   17.00    4.40
  -4  -3  11   19.00    3.70
  -4  -3  11   17.10    3.30
  -4  -3  11   10.50    2.70
   3   3 -11   47.90    4.10
   3   3 -11   42.40    4.30
   3   3 -11   48.80    4.40
   3   3 -11   53.89    4.70
   3   3 -11   48.10    3.80
  -3  -3  11   45.90    4.10
  -3  -3  11   48.70    4.50
  -3  -3  11   47.10    3.90
  -3  -3  11   49.70    5.00
  -3  -3  11   49.50    7.40
   2   3 -11   20.80    4.10
   2   3 -11   18.00    3.10
   2   3 -11   20.90    2.30
   2   3 -11   23.20    3.50
   2   3 -11   17.50    2.90
   2   3 -11   21.60    3.20
  -2  -3  11   26.00    5.40
  -2  -3  11   16.40    2.80
  -2  -3  11   22.40    3.10
  -2  -3  11   20.10    2.50
   1   3 -11  294.47    8.20
   1   3 -11  309.17   10.80
   1   3 -11  318.87   10.40
   1   3 -11  315.77   10.70
   1   3 -11  308.47   10.70
   1   3 -11  307.07    8.50
   1   3 -11  311.07   13.30
  -1  -3  11  313.17    9.60
  -1  -3  11  321.67   16.20
  -1  -3  11  301.97    9.60
   0   3 -11  142.99    6.20
   0   3 -11  142.59    6.30
   0   3 -11  158.38    9.20
   0   3 -11  150.18    6.30
   0   3 -11  154.48    6.60
   0   3 -11  147.19    6.60
   0  -3  11  148.59    5.80
   0  -3  11  152.78   11.00
  -1   3 -11    8.40    2.30
  -1   3 -11   10.20    2.00
  -1   3 -11   11.10    1.90
  -1   3 -11   10.90    1.90
  -1   3 -11   10.30    3.00
  -1   3 -11   11.00    2.00
   1  -3  11   14.50    2.60
  -2   3 -11   21.70    2.70
  -2   3 -11   36.10    4.60
  -2   3 -11   31.90    2.60
  -2   3 -11   31.30    2.60
  -2   3 -11   33.10    4.90
   2  -3  11   34.60    4.50
  -3   3 -11   27.30    2.50
  -3   3 -11   22.30    4.00
  -3   3 -11   20.60    2.50
  -3   3 -11   23.50    2.20
  -3   3 -11   18.60    2.30
   3  -3  11   24.20    4.20
   8   2 -11  129.19    9.30
   8   2 -11  110.09    8.70
  -8  -2  11  140.89   10.30
  -8  -2  11  123.79    9.30
  -8  -2  11  134.79    9.90
   7   2 -11   70.39    6.90
   7   2 -11   67.39    6.80
   7   2 -11   60.39    7.60
   7   2 -11   77.69    6.40
  -7  -2  11   80.59    7.80
  -7  -2  11   70.09    7.20
  -7  -2  11   66.69    3.10
  -7  -2  11   87.89    6.70
  -7  -2  11   72.79    6.90
   6   2 -11   16.40    3.80
   6   2 -11   15.90    3.90
   6   2 -11   17.20    3.50
   6   2 -11   20.90    3.90
  -6  -2  11   25.30    5.20
  -6  -2  11   17.60    4.30
  -6  -2  11   15.40    3.00
  -6  -2  11   19.90    5.10
   5   2 -11   14.10    3.30
   5   2 -11   19.50    3.90
   5   2 -11   19.40    3.70
   5   2 -11   14.80    3.10
  -5  -2  11   16.10    2.90
  -5  -2  11   11.30    3.00
  -5  -2  11   12.50    2.90
  -5  -2  11   24.50    5.00
  -5  -2  11   16.90    3.20
  -5  -2  11   16.00    3.60
   4   2 -11  384.56   13.70
   4   2 -11  382.16   14.10
   4   2 -11  373.96   14.00
   4   2 -11  388.56   14.60
  -4  -2  11  381.86   13.90
  -4  -2  11  417.96   17.90
  -4  -2  11  384.26   14.40
  -4  -2  11  366.86   12.90
  -4  -2  11  385.66   12.90
   3   2 -11   13.60    2.70
   3   2 -11   12.70    2.70
   3   2 -11   14.20    3.20
   3   2 -11   22.30    3.50
   3   2 -11   12.90    3.00
  -3  -2  11   13.30    2.10
  -3  -2  11   12.40    2.80
  -3  -2  11   17.40    4.70
  -3  -2  11    6.90    2.10
   2   2 -11  120.29    6.80
   2   2 -11  124.39    8.00
   2   2 -11  133.89    6.90
   2   2 -11  122.49    4.40
   2   2 -11  126.69    7.00
   2   2 -11  125.99    6.60
  -2  -2  11  129.39    6.50
  -2  -2  11  128.19    5.00
  -2  -2  11  124.19    9.60
   1   2 -11  675.63   21.80
   1   2 -11  699.73   19.40
   1   2 -11  712.03   17.40
   1   2 -11  727.43   19.30
   1   2 -11  710.83   19.00
   1   2 -11  720.83   19.60
  -1  -2  11  716.53   18.20
   0   2 -11   34.70    5.00
   0   2 -11   29.10    3.40
   0   2 -11   32.10    3.20
   0   2 -11   31.60    3.30
   0   2 -11   27.60    3.30
   0   2 -11   29.80    3.20
   0  -2  11   28.10    2.70
   0  -2  11   33.80    2.80
   0  -2  11   29.10    2.90
  -1   2 -11   29.90    3.00
  -1   2 -11   36.10    3.20
  -1   2 -11   34.20    4.20
  -1   2 -11   35.30    3.30
  -1   2 -11   31.20    3.70
  -1   2 -11   36.00    5.10
   1  -2  11   36.40    4.30
   1  -2  11   37.10    2.90
   1  -2  11   38.30    3.80
  -2   2 -11   -0.60    1.20
  -2   2 -11    0.30    1.70
  -2   2 -11    1.50    1.20
  -2   2 -11   -1.50    1.40
  -2   2 -11   -0.30    1.80
   2  -2  11    0.40    0.70
   2  -2  11    0.60    0.50
   2  -2  11   -1.80    0.70
   2  -2  11    0.90    1.50
   2  -2  11   -0.70    0.80
  -3   2 -11   12.60    2.20
  -3   2 -11   12.90    3.30
  -3   2 -11   12.60    3.30
  -3   2 -11   11.60    3.60
  -3   2 -11   11.40    2.20
  -3   2 -11   13.90    2.40
   3  -2  11   22.60    4.00
   8   1 -11   93.99    8.30
   8   1 -11  102.79    8.80
   8   1 -11  120.79    8.70
   8   1 -11   96.69    8.00
  -8  -1  11  106.59    8.60
  -8  -1  11  104.69    9.30
  -8  -1  11   99.39    8.20
   7   1 -11   -1.70    2.30
   7   1 -11    1.10    2.60
   7   1 -11    4.00    2.70
   7   1 -11    2.10    2.30
  -7  -1  11   -0.20    2.80
  -7  -1  11    3.90    2.70
  -7  -1  11    0.80    1.30
  -7  -1  11    1.40    2.50
  -7  -1  11   -1.80    2.00
   6   1 -11    7.80    2.70
   6   1 -11    9.90    3.10
   6   1 -11    3.90    1.90
   6   1 -11    7.10    2.50
  -6  -1  11    3.80    2.20
  -6  -1  11    8.60    2.80
  -6  -1  11   10.90    2.60
  -6  -1  11    8.70    2.70
  -6  -1  11    1.60    2.50
  -6  -1  11   16.80    3.60
  -6  -1  11    9.30    3.50
   5   1 -11   94.49    6.90
   5   1 -11   84.59    6.50
   5   1 -11   78.99    6.10
   5   1 -11   82.99    6.50
  -5  -1  11   91.19    6.20
  -5  -1  11   95.09    5.90
  -5  -1  11   85.69    7.80
  -5  -1  11   83.59    6.90
  -5  -1  11  101.49    6.70
  -5  -1  11   75.19    6.20
   4   1 -11   41.20    5.30
   4   1 -11   46.10    4.50
   4   1 -11   35.70    4.60
   4   1 -11   47.40    5.70
   4   1 -11   42.80    5.20
  -4  -1  11   44.70    3.70
  -4  -1  11   35.90    6.10
  -4  -1  11   43.20    5.50
  -4  -1  11   46.50    4.80
   3   1 -11   15.20    3.30
   3   1 -11   21.50    3.60
   3   1 -11   18.50    3.20
   3   1 -11   14.80    3.00
   3   1 -11   15.50    1.90
   3   1 -11   16.30    3.30
  -3  -1  11   19.00    1.20
  -3  -1  11   19.60    3.90
  -3  -1  11   22.30    2.60
  -3  -1  11   21.30    3.70
  -3  -1  11   20.70    4.60
   2   1 -11   40.50    4.00
   2   1 -11   47.20    5.60
   2   1 -11   51.19    4.60
   2   1 -11   44.90    4.00
   2   1 -11   42.00    4.20
   2   1 -11   44.80    3.20
  -2  -1  11   48.50    4.10
  -2  -1  11   42.40    4.00
  -2  -1  11   43.90    2.60
   1   1 -11    5.50    2.50
   1   1 -11    9.80    2.40
   1   1 -11    7.70    1.90
   1   1 -11    6.70    2.00
   1   1 -11    5.80    2.00
   1   1 -11    9.30    2.40
  -1  -1  11   10.80    2.10
  -1  -1  11    9.10    1.70
  -1  -1  11    4.60    1.80
   0   1 -11  173.88    8.00
   0   1 -11  167.18    9.40
   0   1 -11  178.08    8.20
   0   1 -11  175.58    7.80
   0   1 -11  176.38    8.30
   0   1 -11  174.68    7.90
   0  -1  11  166.68    7.10
   0  -1  11  175.88    7.50
   0  -1  11  173.28    7.20
   0  -1  11  170.28   10.10
  -1   1 -11   35.70    3.70
  -1   1 -11   39.00    5.10
  -1   1 -11   31.60    4.40
  -1   1 -11   38.70    3.70
  -1   1 -11   32.00    3.40
  -1   1 -11   33.80    3.60
   1  -1  11   35.90    3.10
   1  -1  11   29.60    2.90
   1  -1  11   32.40    4.00
   1  -1  11   35.30    3.20
  -2   1 -11   27.00    4.40
  -2   1 -11   20.20    3.30
  -2   1 -11   26.10    4.70
  -2   1 -11   25.50    3.20
   2  -1  11   18.50    3.40
   2  -1  11   22.00    2.50
   2  -1  11   23.80    2.70
  -3   1 -11   43.50    5.90
  -3   1 -11   46.00    6.20
  -3   1 -11   49.10    4.70
  -3   1 -11   54.69    4.50
  -3   1 -11   43.00    4.10
   3  -1  11   45.70    6.10
   3  -1  11   64.69    5.40
   8   0 -11    5.10    3.60
   8   0 -11    0.10    3.20
   8   0 -11    0.40    3.00
   8   0 -11    1.60    2.00
  -8   0  11    1.30    2.80
  -8   0  11   -0.20    1.80
  -8   0  11    3.10    3.50
   7   0 -11   21.20    4.20
   7   0 -11   31.70    5.00
   7   0 -11   29.60    5.10
   7   0 -11   28.10    5.20
  -7   0  11   35.50    5.90
  -7   0  11   25.30    4.40
  -7   0  11   37.90    5.90
  -7   0  11   29.80    3.60
   6   0 -11    2.20    2.50
   6   0 -11    3.60    2.50
   6   0 -11    2.50    1.60
   6   0 -11    2.30    2.20
  -6   0  11    4.60    2.00
  -6   0  11    7.00    2.80
  -6   0  11    3.70    1.40
  -6   0  11    2.90    1.90
  -6   0  11    5.90    2.80
  -6   0  11    4.80    2.40
   5   0 -11    1.40    1.60
   5   0 -11    5.10    2.10
   5   0 -11    0.50    2.00
   5   0 -11    2.30    1.70
   5   0 -11    1.10    1.70
  -5   0  11    2.20    1.70
  -5   0  11    1.50    1.20
  -5   0  11    3.00    1.50
  -5   0  11    0.70    1.90
  -5   0  11    2.70    2.20
  -5   0  11    1.40    1.10
   4   0 -11   -1.30    1.60
   4   0 -11   -0.80    1.60
   4   0 -11   -2.10    1.30
   4   0 -11    0.60    1.50
   4   0 -11   -0.30    1.00
   4   0 -11    4.60    2.00
  -4   0  11    3.30    1.30
  -4   0  11    0.90    1.80
  -4   0  11   -0.70    1.70
  -4   0  11   -0.70    1.50
   3   0 -11  156.68    8.60
   3   0 -11  161.38    8.50
   3   0 -11  165.78    8.80
   3   0 -11  162.78    6.70
   3   0 -11  166.48    8.40
   3   0 -11  168.28    9.20
  -3   0  11  159.18    5.80
  -3   0  11  170.28    8.20
  -3   0  11  165.08    8.60
  -3   0  11  171.18    8.60
  -3   0  11  162.28    5.70
   2   0 -11    2.70    1.70
   2   0 -11   -0.10    1.30
   2   0 -11    0.70    1.50
   2   0 -11   -1.30    1.10
   2   0 -11    0.90    1.70
   2   0 -11    1.00    1.50
  -2   0  11    1.20    1.10
  -2   0  11    2.30    1.70
   1   0 -11  126.79    7.00
   1   0 -11  124.49    7.10
   1   0 -11  127.59    7.20
   1   0 -11  128.09    7.40
   1   0 -11  121.09    6.50
   1   0 -11  122.59    7.90
  -1   0  11  113.29    6.30
  -1   0  11  115.39    6.50
  -1   0  11  118.79    5.80
   0   0 -11   93.79    6.20
   0   0 -11   88.69    6.00
   0   0 -11   85.69    6.60
   0   0 -11   84.49    5.90
   0   0 -11   89.09    5.80
   0   0 -11   86.49    5.70
   0   0  11   97.39    5.90
   0   0  11   93.19    5.50
   0   0  11   82.39    5.20
   0   0  11   83.39    5.20
  -1   0 -11   53.59    4.90
  -1   0 -11   44.60    4.20
  -1   0 -11   51.49    5.00
  -1   0 -11   39.40    5.50
  -1   0 -11   43.90    4.30
  -1   0 -11   46.70    4.40
   1   0  11   47.20    4.20
   1   0  11   45.90    4.40
   1   0  11   47.30    3.80
   1   0  11   47.60    4.00
   1   0  11   47.00    4.10
  -2   0 -11   14.50    3.30
  -2   0 -11   17.40    3.90
  -2   0 -11   17.50    3.10
  -2   0 -11   14.40    3.30
   2   0  11   15.90    3.70
   2   0  11   18.70    2.90
   2   0  11   14.40    2.40
  -3   0 -11   -1.30    1.60
  -3   0 -11   -0.50    1.80
  -3   0 -11   -2.00    2.10
  -3   0 -11   -2.70    1.90
  -3   0 -11   -2.10    1.80
   3   0  11    0.20    1.70
   3   0  11    1.80    2.10
   3   0  11    1.20    1.90
   8  -1 -11   29.50    6.00
   8  -1 -11   37.10    6.00
   8  -1 -11   34.60    5.00
   8  -1 -11   34.20    5.10
   8  -1 -11   27.30    5.40
  -8   1  11   40.50    6.30
  -8   1  11   26.10    4.10
  -8   1  11   35.90    6.40
   7  -1 -11  106.29    8.30
   7  -1 -11  101.79    8.20
   7  -1 -11   87.79    7.70
   7  -1 -11   95.09    6.90
   7  -1 -11  104.09    7.50
  -7   1  11   84.19    7.80
  -7   1  11   95.59    7.10
  -7   1  11   94.59    7.80
  -7   1  11  102.59    6.20
   6  -1 -11   12.00    3.60
   6  -1 -11   19.60    4.30
   6  -1 -11   17.50    4.20
   6  -1 -11   18.40    3.80
   6  -1 -11   16.50    3.60
  -6   1  11   19.40    3.20
  -6   1  11   21.30    3.30
  -6   1  11   20.00    3.70
  -6   1  11   14.90    3.10
  -6   1  11   16.30    4.20
  -6   1  11   25.50    4.70
   5  -1 -11   14.80    3.60
   5  -1 -11   12.20    2.70
   5  -1 -11   22.40    4.00
   5  -1 -11   24.30    3.10
   5  -1 -11   18.50    3.60
   5  -1 -11   23.80    4.50
  -5   1  11   18.00    4.00
  -5   1  11   19.40    3.10
  -5   1  11   21.80    4.20
  -5   1  11   17.90    3.90
  -5   1  11   19.50    2.90
   4  -1 -11   87.69    6.60
   4  -1 -11   86.59    6.60
   4  -1 -11   74.79    6.00
   4  -1 -11   85.49    6.50
   4  -1 -11   88.09    5.30
   4  -1 -11   85.39    6.70
  -4   1  11   83.39    4.40
  -4   1  11   64.29    6.90
  -4   1  11   79.19    5.20
  -4   1  11   72.49    5.70
  -4   1  11   85.19    6.50
  -4   1  11   89.29    6.80
   3  -1 -11  236.58   10.90
   3  -1 -11  264.17   11.10
   3  -1 -11  224.38   10.80
   3  -1 -11  228.08   10.80
   3  -1 -11  233.18   10.80
  -3   1  11  236.48   10.60
  -3   1  11  221.88   10.30
  -3   1  11  233.08   12.60
   2  -1 -11  198.08   10.00
   2  -1 -11  217.28   10.20
   2  -1 -11  205.28    8.90
   2  -1 -11  203.08    9.60
   2  -1 -11  207.98   10.30
   2  -1 -11  220.48   10.00
  -2   1  11  190.28    9.20
  -2   1  11  199.68    7.90
  -2   1  11  211.98    9.90
   1  -1 -11    8.60    2.60
   1  -1 -11    7.90    2.30
   1  -1 -11    7.40    2.20
   1  -1 -11   15.90    3.10
   1  -1 -11    8.60    2.70
   1  -1 -11   10.20    2.70
  -1   1  11    7.10    2.60
  -1   1  11   12.20    2.50
  -1   1  11   10.00    2.80
   0  -1 -11  119.19    7.30
   0  -1 -11  140.69    7.60
   0  -1 -11  116.69    7.50
   0  -1 -11  130.79    7.60
   0  -1 -11  133.39    8.40
   0  -1 -11  119.69    7.40
   0   1  11  121.99    7.20
   0   1  11  116.79    8.40
   0   1  11  123.89    6.90
   0   1  11  133.19    7.00
   0   1  11  128.29    7.20
  -1  -1 -11    8.80    3.20
  -1  -1 -11   12.50    3.20
  -1  -1 -11    4.90    2.20
  -1  -1 -11    8.10    2.00
  -1  -1 -11   10.00    2.90
  -1  -1 -11   11.00    2.60
   1   1  11   10.30    2.80
  -2  -1 -11   12.60    2.80
  -2  -1 -11    5.60    2.90
  -2  -1 -11    7.10    2.60
  -2  -1 -11    8.20    2.80
  -2  -1 -11    7.90    2.80
   2   1  11    8.50    2.20
   2   1  11   10.60    3.10
   2   1  11   13.30    2.80
  -3  -1 -11  116.99    9.40
  -3  -1 -11  111.19    7.20
  -3  -1 -11  116.59    7.50
  -3  -1 -11  103.69    8.00
  -3  -1 -11  102.39    7.30
   3   1  11  116.99    8.50
   8  -2 -11   -0.40    3.20
   8  -2 -11    1.10    2.40
   8  -2 -11   -1.00    2.00
   8  -2 -11   -4.70    2.40
  -8   2  11    1.10    2.10
  -8   2  11   -2.40    2.00
  -8   2  11    0.80    2.40
  -8   2  11   -4.00    2.80
   7  -2 -11    8.70    2.40
   7  -2 -11    2.90    3.00
   7  -2 -11    0.80    2.10
   7  -2 -11    5.90    2.80
   7  -2 -11    9.20    3.30
  -7   2  11    1.00    3.00
  -7   2  11    7.40    2.40
  -7   2  11    7.00    3.10
  -7   2  11    3.50    2.40
   6  -2 -11   -2.70    1.20
   6  -2 -11    0.40    1.50
   6  -2 -11    0.50    1.70
   6  -2 -11    2.60    2.20
   6  -2 -11   -0.10    1.80
   6  -2 -11   -0.50    2.20
  -6   2  11    1.70    2.00
  -6   2  11    1.30    1.60
  -6   2  11   -0.80    2.80
  -6   2  11   -1.50    2.40
  -6   2  11    1.80    2.80
  -6   2  11    1.70    1.70
   5  -2 -11   90.59    6.80
   5  -2 -11   79.69    5.50
   5  -2 -11   89.99    6.50
   5  -2 -11   86.29    7.10
   5  -2 -11   98.09    7.50
   5  -2 -11   87.49    7.00
  -5   2  11   89.19    6.90
  -5   2  11   99.49    7.60
  -5   2  11   94.49    5.30
  -5   2  11   86.49    7.00
  -5   2  11   88.39    5.90
   4  -2 -11  166.38    9.30
   4  -2 -11  155.48    8.60
   4  -2 -11  163.38    9.10
   4  -2 -11  178.08    9.90
   4  -2 -11  167.18    8.20
   4  -2 -11  173.18   11.30
  -4   2  11  172.88    6.60
  -4   2  11  152.38    9.40
  -4   2  11  162.18   10.20
  -4   2  11  162.58    9.20
  -4   2  11  172.78    8.30
  -4   2  11  132.69    8.30
   3  -2 -11   95.29    7.30
   3  -2 -11  100.99    7.00
   3  -2 -11   89.89    6.70
   3  -2 -11   90.19    6.70
   3  -2 -11   86.29    6.70
   3  -2 -11   94.39    6.00
  -3   2  11   88.39    6.80
  -3   2  11   93.69    3.70
  -3   2  11   93.89    6.50
  -3   2  11   82.99    6.50
   2  -2 -11   27.10    4.10
   2  -2 -11   22.80    3.90
   2  -2 -11   20.90    3.60
   2  -2 -11   17.60    3.80
   2  -2 -11   23.00    4.20
   2  -2 -11   21.40    3.90
  -2   2  11   24.70    4.10
  -2   2  11   25.40    4.00
   1  -2 -11    5.30    2.50
   1  -2 -11    8.40    2.70
   1  -2 -11   10.60    2.80
   1  -2 -11    3.50    1.70
   1  -2 -11    3.50    2.10
   1  -2 -11    4.50    2.10
  -1   2  11    2.90    2.00
  -1   2  11    5.40    1.90
  -1   2  11    5.50    2.00
  -1   2  11    8.10    2.60
   0  -2 -11   26.10    4.10
   0  -2 -11   15.90    3.40
   0  -2 -11   14.90    3.30
   0  -2 -11   18.50    3.80
   0  -2 -11   19.20    3.80
   0  -2 -11   24.40    4.20
   0   2  11   26.00    4.00
   0   2  11   18.00    3.60
   0   2  11   22.70    3.70
  -1  -2 -11   23.90    4.40
  -1  -2 -11   32.50    4.70
  -1  -2 -11   26.10    4.40
  -1  -2 -11   27.40    4.80
  -1  -2 -11   24.00    4.50
  -1  -2 -11   27.30    4.20
   1   2  11   23.30    4.00
   1   2  11   34.00    5.10
  -2  -2 -11   -0.80    2.20
  -2  -2 -11    1.20    2.10
  -2  -2 -11    7.70    2.80
  -2  -2 -11    1.00    2.30
   2   2  11    2.20    2.10
   2   2  11   -1.90    2.00
   2   2  11    0.80    2.30
   8  -3 -11   24.30    5.40
   8  -3 -11   17.50    3.60
   8  -3 -11   22.60    5.40
   8  -3 -11   10.20    4.20
  -8   3  11   14.00    3.70
  -8   3  11   24.00    5.40
  -8   3  11   19.00    4.80
  -8   3  11   21.30    4.10
   7  -3 -11  245.38   13.30
   7  -3 -11  278.67   13.60
   7  -3 -11  241.08   11.00
   7  -3 -11  219.78   12.40
   7  -3 -11  247.08   12.70
   7  -3 -11  256.37   11.00
  -7   3  11  259.17   12.60
  -7   3  11  261.27   11.60
  -7   3  11  242.78   13.30
  -7   3  11  253.37   13.30
   6  -3 -11   26.20    4.80
   6  -3 -11   20.70    4.30
   6  -3 -11   20.20    4.40
   6  -3 -11   26.10    4.00
   6  -3 -11   22.20    3.60
   6  -3 -11   32.50    5.20
  -6   3  11   17.30    4.10
  -6   3  11   31.50    5.80
  -6   3  11   28.50    5.10
  -6   3  11   20.90    3.30
  -6   3  11   23.50    4.30
  -6   3  11   32.20    5.30
   5  -3 -11   31.80    5.10
   5  -3 -11   31.20    4.40
   5  -3 -11   28.80    4.30
   5  -3 -11   30.50    4.80
   5  -3 -11   33.90    5.50
   5  -3 -11   31.50    5.40
  -5   3  11   31.30    3.30
  -5   3  11   37.20    5.40
  -5   3  11   19.00    4.20
  -5   3  11   31.20    4.40
  -5   3  11   26.10    4.40
   4  -3 -11    0.00    1.50
   4  -3 -11    0.80    2.20
   4  -3 -11   -1.20    1.70
   4  -3 -11   -0.50    1.70
   4  -3 -11    1.50    1.70
   4  -3 -11    2.60    1.70
  -4   3  11    2.40    1.80
  -4   3  11   -1.90    2.00
  -4   3  11   -2.50    2.00
  -4   3  11   -0.70    2.40
  -4   3  11    0.80    1.10
  -4   3  11    2.40    2.00
   3  -3 -11    1.40    1.90
   3  -3 -11   -0.70    1.60
   3  -3 -11    2.90    2.00
   3  -3 -11    2.70    2.40
   3  -3 -11    3.60    2.20
   3  -3 -11    3.00    2.10
  -3   3  11    1.70    1.60
  -3   3  11    1.00    1.80
  -3   3  11    1.30    0.90
  -3   3  11    5.40    2.20
  -3   3  11    3.00    2.30
  -3   3  11    0.70    2.10
  -3   3  11    1.90    1.00
   2  -3 -11    2.80    1.80
   2  -3 -11    3.50    2.00
   2  -3 -11   -0.90    2.20
   2  -3 -11    2.10    2.00
   2  -3 -11    2.10    2.00
   2  -3 -11   -1.80    1.30
  -2   3  11    3.50    2.30
  -2   3  11   -0.80    1.90
  -2   3  11    2.60    2.10
  -2   3  11    0.80    2.10
   1  -3 -11    1.70    2.10
   1  -3 -11   -0.30    1.60
   1  -3 -11    0.80    1.20
   1  -3 -11    3.40    2.20
   1  -3 -11    3.40    1.90
   1  -3 -11    4.00    2.50
  -1   3  11    3.20    2.40
  -1   3  11    1.00    1.80
  -1   3  11    3.50    2.00
  -1   3  11    4.80    1.80
   0  -3 -11   65.29    6.20
   0  -3 -11   61.69    5.80
   0  -3 -11   61.59    5.70
   0  -3 -11   55.39    5.80
   0  -3 -11   62.99    6.30
   0  -3 -11   60.89    5.70
   0   3  11   69.59    7.30
   0   3  11   66.39    5.70
   0   3  11   57.89    5.40
  -1  -3 -11   45.60    6.20
  -1  -3 -11   45.20    6.10
  -1  -3 -11   41.00    6.00
   1   3  11   47.70    5.70
   1   3  11   52.39    5.20
   1   3  11   43.20    6.10
  -2  -3 -11    3.10    2.80
  -2  -3 -11    1.50    2.20
  -2  -3 -11    3.00    2.80
  -2  -3 -11    0.80    3.00
   2   3  11   -0.90    2.40
   2   3  11   -1.00    2.50
   2   3  11   -1.10    1.90
   8  -4 -11    5.30    2.40
   8  -4 -11    8.00    4.40
   8  -4 -11    0.10    2.20
  -8   4  11    3.80    2.90
  -8   4  11    7.30    3.30
  -8   4  11    6.80    2.80
  -8   4  11   -3.10    3.10
   7  -4 -11   12.50    4.50
   7  -4 -11    7.90    2.60
   7  -4 -11    6.20    3.00
   7  -4 -11    5.60    2.60
   7  -4 -11    6.60    3.20
  -7   4  11    5.30    2.50
  -7   4  11    3.10    3.40
  -7   4  11    5.70    2.90
  -7   4  11    8.70    3.10
  -7   4  11   10.20    3.30
   6  -4 -11    2.70    2.00
   6  -4 -11    1.20    3.00
   6  -4 -11    2.40    2.40
   6  -4 -11    0.00    2.50
   6  -4 -11    5.50    2.80
  -6   4  11    3.70    2.20
  -6   4  11    3.80    3.40
  -6   4  11   -0.90    3.00
  -6   4  11    4.80    2.80
  -6   4  11    2.00    2.10
  -6   4  11    6.30    2.30
   5  -4 -11   16.30    4.20
   5  -4 -11   15.50    3.50
   5  -4 -11   17.50    3.50
   5  -4 -11   18.70    4.40
   5  -4 -11   23.80    5.00
   5  -4 -11   15.80    3.90
  -5   4  11   16.00    3.60
  -5   4  11   23.40    4.00
  -5   4  11   16.90    2.90
  -5   4  11   25.50    4.40
  -5   4  11   18.50    4.50
  -5   4  11   15.70    4.30
   4  -4 -11    4.50    3.10
   4  -4 -11    4.90    2.00
   4  -4 -11    5.30    2.20
   4  -4 -11    0.60    2.10
   4  -4 -11    2.00    1.80
   4  -4 -11    4.00    2.10
  -4   4  11    0.20    1.80
  -4   4  11    3.00    2.70
  -4   4  11    2.70    2.30
  -4   4  11   -0.80    1.80
  -4   4  11   -0.40    2.50
  -4   4  11    5.50    1.50
   3  -4 -11    4.00    2.30
   3  -4 -11    2.10    1.70
   3  -4 -11   -2.30    1.50
   3  -4 -11    1.20    1.60
   3  -4 -11    1.20    1.90
   3  -4 -11   -0.20    2.40
  -3   4  11   -1.40    1.40
  -3   4  11    0.10    2.30
  -3   4  11    1.00    2.10
  -3   4  11   -0.30    1.00
  -3   4  11    3.10    2.40
  -3   4  11    3.80    2.30
  -3   4  11    0.50    0.90
   2  -4 -11   -2.80    1.30
   2  -4 -11    1.80    2.30
   2  -4 -11   -3.90    1.60
   2  -4 -11    1.50    2.30
   2  -4 -11    2.40    1.90
   2  -4 -11   -0.50    2.30
  -2   4  11    0.00    1.50
  -2   4  11   -1.90    1.80
  -2   4  11    0.70    0.40
  -2   4  11   -0.30    0.50
  -2   4  11   -1.50    1.40
   1  -4 -11    2.50    2.50
   1  -4 -11    1.70    2.10
   1  -4 -11    0.00    1.80
   1  -4 -11   -2.50    1.80
   1  -4 -11    2.20    2.40
   1  -4 -11    1.90    1.90
  -1   4  11    0.90    1.90
  -1   4  11    2.50    2.30
  -1   4  11    0.40    2.40
   0  -4 -11  112.49    8.40
   0  -4 -11  130.49    8.90
   0  -4 -11  117.19    8.50
   0  -4 -11  114.99    8.20
   0  -4 -11  111.59    8.10
   0   4  11  113.09    8.30
   0   4  11  112.39    8.00
   0   4  11  114.19    7.80
  -1  -4 -11    2.10    3.30
  -1  -4 -11    7.50    2.80
  -1  -4 -11   -2.00    2.00
  -1  -4 -11    5.00    3.20
   1   4  11    0.90    2.20
   1   4  11    7.20    2.90
   1   4  11    0.80    2.00
   7  -5 -11  216.18   12.70
   7  -5 -11  189.78   11.60
   7  -5 -11  180.58   11.70
   7  -5 -11  217.38    9.70
  -7   5  11  206.88   11.60
  -7   5  11  210.28   10.60
  -7   5  11  188.88   11.30
  -7   5  11  203.48   12.50
  -7   5  11  197.48   12.20
   6  -5 -11   45.90    5.20
   6  -5 -11   31.00    5.90
   6  -5 -11   43.70    7.00
   6  -5 -11   34.40    5.60
   6  -5 -11   45.30    6.30
   6  -5 -11   44.50    6.10
  -6   5  11   39.80    6.20
  -6   5  11   32.50    5.80
  -6   5  11   38.70    5.60
  -6   5  11   37.30    6.10
   5  -5 -11    7.80    3.00
   5  -5 -11    9.90    3.80
   5  -5 -11    6.80    2.70
   5  -5 -11    6.60    2.70
   5  -5 -11    2.40    2.50
   5  -5 -11    9.30    2.70
  -5   5  11    2.50    2.10
  -5   5  11    6.30    2.60
  -5   5  11   11.60    3.90
  -5   5  11    2.00    3.00
   4  -5 -11   18.30    3.90
   4  -5 -11   13.60    3.60
   4  -5 -11   23.70    4.80
   4  -5 -11   17.50    4.60
   4  -5 -11   13.20    3.70
   4  -5 -11   21.40    3.90
  -4   5  11   13.60    4.60
  -4   5  11   22.60    3.30
  -4   5  11   16.40    3.90
  -4   5  11   15.30    3.90
  -4   5  11   20.40    4.50
   3  -5 -11   10.10    3.30
   3  -5 -11    7.50    3.20
   3  -5 -11    7.20    2.70
   3  -5 -11    5.80    2.50
   3  -5 -11    5.80    3.20
   3  -5 -11    9.70    2.40
  -3   5  11    5.00    2.80
  -3   5  11   10.40    3.10
  -3   5  11    1.80    2.20
  -3   5  11    5.80    1.70
  -3   5  11    6.80    2.90
   2  -5 -11    7.00    3.70
   2  -5 -11    5.20    2.80
   2  -5 -11    3.90    2.50
   2  -5 -11    3.00    2.20
   2  -5 -11    5.10    2.50
  -2   5  11    5.70    2.90
  -2   5  11    8.50    2.90
  -2   5  11    3.90    1.20
   1  -5 -11   62.59    7.60
   1  -5 -11   49.40    6.60
   1  -5 -11   46.40    6.60
   1  -5 -11   65.59    6.30
   1  -5 -11   77.29    6.90
  -1   5  11   58.59    6.00
  -1   5  11   67.59    6.30
  -1   5  11   77.89    7.10
   0  -5 -11   42.60    6.30
   0  -5 -11   32.10    5.60
   0  -5 -11   49.50    7.30
   0   5  11   34.80    5.60
   0   5  11   42.30    5.90
   0   5  11   47.10    6.60
   6  -6 -11    8.70    4.00
   6  -6 -11   -2.00    2.30
   6  -6 -11    0.40    2.60
   6  -6 -11    3.90    2.10
  -6   6  11    1.90    2.80
  -6   6  11    0.80    3.70
  -6   6  11    5.10    3.00
  -6   6  11    3.40    2.80
   5  -6 -11   18.70    4.10
   5  -6 -11   27.10    5.70
   5  -6 -11   16.60    3.50
   5  -6 -11   27.40    5.50
  -5   6  11   19.10    4.10
  -5   6  11   26.80    6.20
  -5   6  11   20.90    4.40
  -5   6  11   24.90    5.00
  -5   6  11   21.10    4.70
   4  -6 -11   28.10    5.90
   4  -6 -11   28.10    4.70
   4  -6 -11   32.00    4.80
   4  -6 -11   24.20    5.00
   4  -6 -11   23.20    5.00
  -4   6  11   35.60    5.50
  -4   6  11   27.40    5.30
  -4   6  11   32.00    5.40
  -4   6  11   19.00    3.30
   3  -6 -11   -4.10    3.00
   3  -6 -11    3.40    3.20
   3  -6 -11    5.30    2.60
   3  -6 -11    4.70    2.60
   3  -6 -11    3.40    2.50
  -3   6  11    7.20    3.50
  -3   6  11    6.20    1.90
  -3   6  11    4.80    2.80
  -3   6  11    7.70    3.10
   2  -6 -11   24.30    4.40
   2  -6 -11   25.30    5.20
   2  -6 -11   20.70    4.40
   2  -6 -11   21.80    4.50
  -2   6  11   22.40    4.50
  -2   6  11   18.70    4.70
  -2   6  11   23.80    2.60
   2   7 -12   16.10    2.80
   2   7 -12    6.40    2.60
   2   7 -12    9.70    2.20
   2   7 -12    6.50    2.40
   2   7 -12   10.90    2.60
  -2  -7  12    9.10    2.00
  -2  -7  12   10.00    2.00
  -2  -7  12   16.70    5.10
   1   7 -12   20.10    3.20
   1   7 -12   34.00    3.10
   1   7 -12   25.10    3.00
   1   7 -12   33.10    3.30
   1   7 -12   33.30    4.40
  -1  -7  12   27.80    6.40
   4   6 -12    1.30    2.00
   4   6 -12    4.70    2.20
   4   6 -12   -0.10    1.60
   4   6 -12    0.80    2.00
   4   6 -12    3.20    2.00
  -4  -6  12   -3.20    2.30
  -4  -6  12    2.80    2.80
  -4  -6  12   -0.30    2.50
  -4  -6  12   -1.20    2.50
   3   6 -12    9.40    2.30
   3   6 -12   11.70    2.70
   3   6 -12   15.40    3.20
   3   6 -12   14.00    2.90
  -3  -6  12   10.60    4.60
  -3  -6  12    9.90    2.80
  -3  -6  12   12.90    3.00
   2   6 -12   17.90    3.30
   2   6 -12    8.40    2.00
   2   6 -12   12.20    2.70
   2   6 -12   13.70    2.80
  -2  -6  12   10.00    2.10
  -2  -6  12   12.60    4.60
  -2  -6  12   11.50    2.30
   1   6 -12   15.50    2.60
   1   6 -12   14.70    2.40
   1   6 -12   17.40    2.50
   1   6 -12   18.00    3.00
   1   6 -12   13.70    3.20
  -1  -6  12    6.70    4.20
   0   6 -12   49.99    6.60
   0   6 -12   46.00    3.10
   0   6 -12   47.60    2.90
   0   6 -12   48.50    4.10
   0  -6  12   52.49    8.70
  -1   6 -12   11.30    1.80
  -1   6 -12    5.80    3.30
  -1   6 -12    7.60    1.80
  -1   6 -12    9.60    2.00
   1  -6  12   11.00    4.40
   5   5 -12   25.10    4.40
   5   5 -12   32.80    5.30
   5   5 -12   21.40    4.10
   5   5 -12   29.40    4.60
   5   5 -12   24.80    4.30
  -5  -5  12   34.30    7.00
  -5  -5  12   30.40    4.70
   4   5 -12    3.80    2.30
   4   5 -12    1.30    1.80
   4   5 -12    1.00    1.90
   4   5 -12    3.80    2.30
   4   5 -12   -0.40    1.90
  -4  -5  12    1.60    2.60
  -4  -5  12    0.90    2.20
   3   5 -12    5.80    2.40
   3   5 -12    7.00    2.20
   3   5 -12    4.80    2.10
   3   5 -12    5.60    1.70
   3   5 -12    6.50    2.30
  -3  -5  12    8.70    2.70
  -3  -5  12    5.30    2.20
  -3  -5  12    4.30    3.60
  -3  -5  12    7.50    2.40
   2   5 -12  131.49    6.70
   2   5 -12  122.09    6.70
   2   5 -12  133.59    7.40
   2   5 -12  142.69    7.00
   2   5 -12  129.79    7.10
  -2  -5  12  115.39    5.90
  -2  -5  12  129.59   11.20
  -2  -5  12  123.29    6.00
   1   5 -12  301.07   10.30
   1   5 -12  324.27   14.60
   1   5 -12  300.07   10.60
   1   5 -12  324.77   10.50
   1   5 -12  324.37   10.10
  -1  -5  12  337.07   18.00
   0   5 -12   56.59    3.50
   0   5 -12   45.30    2.50
   0   5 -12   47.30    3.00
   0   5 -12   49.50    3.40
   0   5 -12   59.89    6.20
   0  -5  12   50.99    8.70
  -1   5 -12    3.40    0.60
  -1   5 -12   -0.20    0.90
  -1   5 -12    1.50    1.30
  -1   5 -12    2.30    2.20
  -1   5 -12    0.70    1.40
  -1   5 -12    3.60    0.90
  -1   5 -12    2.30    0.90
   1  -5  12    6.00    3.30
  -2   5 -12   52.59    6.50
  -2   5 -12   56.19    4.70
  -2   5 -12   63.99    5.20
   2  -5  12   58.09    5.80
   6   4 -12   44.50    5.80
   6   4 -12   48.80    6.20
   6   4 -12   30.30    5.20
  -6  -4  12   49.80    8.20
  -6  -4  12   46.40    6.50
  -6  -4  12   51.49    5.60
   5   4 -12   16.10    4.10
   5   4 -12   12.80    3.10
   5   4 -12   27.90    4.10
   5   4 -12   23.70    3.80
   5   4 -12   18.50    3.50
  -5  -4  12   16.30    3.90
  -5  -4  12   19.90    5.50
  -5  -4  12   20.70    3.80
   4   4 -12   17.60    3.20
   4   4 -12   15.40    3.10
   4   4 -12   17.40    3.70
   4   4 -12   15.30    3.60
   4   4 -12   14.50    3.00
  -4  -4  12   24.40    3.80
  -4  -4  12   16.60    3.30
  -4  -4  12   20.20    5.30
  -4  -4  12   13.60    2.90
   3   4 -12   58.69    5.00
   3   4 -12   50.29    4.60
   3   4 -12   49.99    4.10
   3   4 -12   56.79    5.00
   3   4 -12   58.99    4.60
  -3  -4  12   50.79    8.20
  -3  -4  12   45.10    4.30
  -3  -4  12   47.30    4.50
  -3  -4  12   57.39    4.60
   2   4 -12   47.90    4.30
   2   4 -12   42.10    3.90
   2   4 -12   49.50    4.10
   2   4 -12   55.59    5.70
   2   4 -12   49.60    4.30
   2   4 -12   48.10    3.60
  -2  -4  12   48.20    4.00
  -2  -4  12   50.09    7.90
  -2  -4  12   46.00    3.80
  -2  -4  12   46.70    4.00
   1   4 -12   71.59    4.90
   1   4 -12   63.39    4.20
   1   4 -12   72.39    6.60
   1   4 -12   64.79    4.50
   1   4 -12   63.19    3.60
  -1  -4  12   62.49    9.00
  -1  -4  12   49.30    3.60
  -1  -4  12   67.69    3.50
   0   4 -12    0.10    1.10
   0   4 -12    0.50    1.20
   0   4 -12    1.70    1.20
   0   4 -12    2.60    1.30
   0   4 -12   -0.10    0.60
   0   4 -12    4.10    2.30
   0   4 -12    1.60    1.10
   0  -4  12    5.60    2.20
  -1   4 -12    1.20    1.00
  -1   4 -12   -1.30    1.60
  -1   4 -12   -1.10    0.90
  -1   4 -12   -0.40    0.90
  -1   4 -12    1.80    2.30
  -1   4 -12    0.80    1.00
   1  -4  12    0.70    1.50
  -2   4 -12  144.39    4.90
  -2   4 -12  137.29    4.20
  -2   4 -12  127.39    7.60
  -2   4 -12  129.09    9.00
   2  -4  12  126.19    7.40
   7   3 -12   10.90    4.40
   7   3 -12   17.10    4.50
   7   3 -12   15.90    4.40
   7   3 -12   10.30    3.70
  -7  -3  12   13.70    4.60
  -7  -3  12   11.10    4.10
  -7  -3  12    3.40    3.00
   6   3 -12   -1.50    2.70
   6   3 -12   -0.20    2.20
   6   3 -12   -0.80    2.40
   6   3 -12    1.70    2.60
  -6  -3  12    6.90    3.00
  -6  -3  12    1.40    2.40
  -6  -3  12    2.70    2.80
  -6  -3  12    2.90    3.40
   5   3 -12  194.18   10.30
   5   3 -12  180.68   10.10
   5   3 -12  189.48    9.80
   5   3 -12  183.18   10.00
  -5  -3  12  197.18    9.40
  -5  -3  12  181.58   10.20
  -5  -3  12  195.68   12.70
  -5  -3  12  187.28    9.90
   4   3 -12   10.40    2.70
   4   3 -12   13.50    3.20
   4   3 -12    9.30    2.80
   4   3 -12    6.90    2.70
  -4  -3  12    0.60    1.50
  -4  -3  12    8.40    3.00
  -4  -3  12    5.90    3.10
  -4  -3  12    5.30    2.10
   3   3 -12    1.70    1.40
   3   3 -12    0.90    1.70
   3   3 -12    1.40    2.10
   3   3 -12    0.30    2.10
   3   3 -12   -0.40    1.50
  -3  -3  12   -0.90    1.50
  -3  -3  12   -0.40    1.60
  -3  -3  12    1.80    2.30
  -3  -3  12    3.60    1.70
   2   3 -12   63.79    5.00
   2   3 -12   64.79    6.30
   2   3 -12   62.69    5.00
   2   3 -12   65.69    4.90
   2   3 -12   61.59    4.70
  -2  -3  12   69.09    5.30
  -2  -3  12   63.69    4.10
  -2  -3  12   64.19    4.50
  -2  -3  12   64.09    4.20
  -2  -3  12   60.19    8.80
   1   3 -12  370.16   12.00
   1   3 -12  368.76   12.40
   1   3 -12  374.46   12.70
   1   3 -12  395.26   15.80
   1   3 -12  374.36   12.40
  -1  -3  12  377.46   11.10
  -1  -3  12  368.66   18.40
  -1  -3  12  378.16   10.60
   0   3 -12   15.00    2.50
   0   3 -12   18.40    2.80
   0   3 -12   12.80    2.30
   0   3 -12   11.30    2.40
   0   3 -12   16.50    2.50
   0   3 -12   23.60    4.40
   0  -3  12   12.00    1.50
   0  -3  12   12.50    2.00
  -1   3 -12   88.69    4.90
  -1   3 -12   82.79    6.90
  -1   3 -12   81.99    5.50
  -1   3 -12   89.49    4.80
   1  -3  12   91.49    5.60
  -2   3 -12   80.19    4.30
  -2   3 -12   77.89    6.90
  -2   3 -12   83.39    4.70
  -2   3 -12   84.39    4.20
  -2   3 -12   80.99    6.40
   2  -3  12   83.69    6.20
   7   2 -12   92.59    8.00
   7   2 -12   82.39    7.40
   7   2 -12   80.89    7.50
  -7  -2  12   88.39    8.00
  -7  -2  12   72.79    6.50
  -7  -2  12   95.99    8.90
  -7  -2  12   90.99    8.40
   6   2 -12   19.40    3.60
   6   2 -12   18.50    4.30
   6   2 -12   22.00    4.30
   6   2 -12   16.10    3.70
  -6  -2  12   30.60    5.40
  -6  -2  12   24.10    5.60
  -6  -2  12   18.40    4.20
   5   2 -12   25.90    4.20
   5   2 -12   27.20    4.50
   5   2 -12   28.60    4.50
   5   2 -12   28.50    4.60
  -5  -2  12   33.00    6.00
  -5  -2  12   29.30    4.20
  -5  -2  12   22.00    3.70
   4   2 -12   10.10    3.50
   4   2 -12   13.20    3.10
   4   2 -12    7.30    2.60
   4   2 -12   16.40    3.40
   4   2 -12    9.40    3.00
  -4  -2  12   16.50    3.60
  -4  -2  12   18.00    3.80
  -4  -2  12    5.90    3.40
  -4  -2  12   13.70    3.20
   3   2 -12    4.30    2.00
   3   2 -12    1.80    2.00
   3   2 -12    2.80    2.00
   3   2 -12    4.20    1.90
   3   2 -12    5.20    1.90
  -3  -2  12    2.80    1.80
  -3  -2  12    4.90    2.10
  -3  -2  12    4.50    1.50
  -3  -2  12    1.10    2.00
  -3  -2  12    3.20    2.10
  -3  -2  12    4.70    3.10
   2   2 -12   46.20    4.40
   2   2 -12   44.20    2.70
   2   2 -12   50.09    4.40
   2   2 -12   46.80    4.60
   2   2 -12   45.40    5.90
   2   2 -12   42.80    4.10
  -2  -2  12   47.60    4.30
  -2  -2  12   44.20    3.60
  -2  -2  12   44.30    4.00
  -2  -2  12   44.20    7.20
  -2  -2  12   47.50    4.00
   1   2 -12  102.19    6.20
   1   2 -12   99.79    6.00
   1   2 -12  105.69    7.70
   1   2 -12   95.39    6.00
   1   2 -12   99.79    6.00
   1   2 -12  113.99    5.30
  -1  -2  12   97.59    5.20
  -1  -2  12  105.69    5.60
  -1  -2  12   96.69    5.30
  -1  -2  12  101.79    4.30
   0   2 -12   21.90    3.20
   0   2 -12   21.80    3.10
   0   2 -12   20.50    3.00
   0   2 -12   23.70    4.40
   0   2 -12   21.60    2.90
   0   2 -12   21.50    3.30
   0  -2  12   22.80    2.80
   0  -2  12   18.90    2.40
   0  -2  12   18.50    2.40
   0  -2  12   22.80    2.90
   0  -2  12   20.90    2.60
  -1   2 -12   -0.30    1.40
  -1   2 -12   -0.20    1.40
  -1   2 -12    0.60    1.80
  -1   2 -12    1.80    1.50
  -1   2 -12    1.60    1.50
  -1   2 -12   -0.50    1.70
   1  -2  12   -0.50    1.10
   1  -2  12   -0.70    1.20
   1  -2  12    0.60    1.20
   1  -2  12    2.50    1.60
  -2   2 -12    2.10    1.50
  -2   2 -12    0.30    1.60
  -2   2 -12   -0.30    1.90
  -2   2 -12    2.60    2.10
  -2   2 -12    4.20    2.70
   2  -2  12   -0.40    1.60
   7   1 -12   47.60    6.50
   7   1 -12   43.20    6.10
   7   1 -12   38.90    5.80
   7   1 -12   34.50    5.40
  -7  -1  12   35.70    5.70
  -7  -1  12   43.00    7.20
  -7  -1  12   36.50    6.30
  -7  -1  12   37.00    5.20
   6   1 -12   14.30    3.10
   6   1 -12    9.20    3.20
   6   1 -12   12.70    3.40
   6   1 -12   17.00    3.80
  -6  -1  12   13.70    3.30
  -6  -1  12   11.20    4.00
  -6  -1  12   19.40    5.00
  -6  -1  12   21.50    4.40
   5   1 -12    0.70    1.70
   5   1 -12   -1.60    1.20
   5   1 -12    0.10    2.10
   5   1 -12    0.20    2.10
   5   1 -12   -0.60    2.00
  -5  -1  12   -0.20    2.00
  -5  -1  12   -1.40    1.40
  -5  -1  12    0.40    2.00
  -5  -1  12    2.60    2.40
   4   1 -12   39.30    5.30
   4   1 -12   31.20    4.60
   4   1 -12   37.80    5.40
   4   1 -12   33.80    4.90
   4   1 -12   34.30    4.90
  -4  -1  12   37.10    4.60
  -4  -1  12   35.50    5.20
  -4  -1  12   41.70    4.30
  -4  -1  12   32.00    3.20
  -4  -1  12   36.50    5.00
   3   1 -12   10.60    2.80
   3   1 -12   11.80    3.30
   3   1 -12    5.60    2.10
   3   1 -12    4.30    1.90
   3   1 -12    7.30    2.20
   3   1 -12    8.50    1.70
  -3  -1  12    6.10    0.80
  -3  -1  12    9.30    2.30
  -3  -1  12    6.60    1.40
  -3  -1  12    7.80    2.40
  -3  -1  12    6.50    2.40
   2   1 -12    2.70    1.70
   2   1 -12    0.40    1.30
   2   1 -12    1.50    1.70
   2   1 -12    1.90    1.50
   2   1 -12   -0.40    1.00
   2   1 -12    1.10    1.60
  -2  -1  12   -1.10    1.40
  -2  -1  12    0.10    1.50
  -2  -1  12   -1.50    1.40
  -2  -1  12   -0.50    0.90
  -2  -1  12   -0.50    1.20
   1   1 -12   42.50    4.20
   1   1 -12   32.50    4.40
   1   1 -12   39.70    3.90
   1   1 -12   38.40    4.00
   1   1 -12   39.10    5.50
   1   1 -12   34.90    4.50
  -1  -1  12   37.50    3.20
  -1  -1  12   42.90    4.00
  -1  -1  12   49.50    4.00
  -1  -1  12   38.10    3.80
  -1  -1  12   41.30    3.90
   0   1 -12   13.50    3.00
   0   1 -12   15.30    2.70
   0   1 -12   13.30    2.70
   0   1 -12   13.10    3.00
   0   1 -12   14.00    2.80
   0   1 -12   13.70    2.80
   0  -1  12   14.60    2.70
   0  -1  12   15.70    3.00
   0  -1  12   20.70    2.80
   0  -1  12   17.20    2.70
  -1   1 -12   47.60    4.20
  -1   1 -12   58.89    4.70
  -1   1 -12   52.19    6.50
  -1   1 -12   39.60    5.10
  -1   1 -12   45.10    4.20
  -1   1 -12   51.09    4.60
   1  -1  12   52.49    3.70
   1  -1  12   42.70    3.90
   1  -1  12   45.00    3.60
   1  -1  12   57.89    4.90
  -2   1 -12    0.80    2.60
  -2   1 -12    1.20    3.00
  -2   1 -12    4.50    2.30
  -2   1 -12   -0.10    1.50
  -2   1 -12    0.40    2.00
   2  -1  12    0.30    1.50
   2  -1  12    1.00    1.70
   2  -1  12    0.10    1.50
   7   0 -12    3.20    3.60
   7   0 -12    5.10    2.20
   7   0 -12    6.40    2.70
   7   0 -12    4.20    2.40
  -7   0  12    6.50    1.90
  -7   0  12    5.80    3.60
  -7   0  12    5.00    2.50
  -7   0  12    5.50    3.30
   6   0 -12   31.60    5.10
   6   0 -12   36.80    5.60
   6   0 -12   32.80    5.30
   6   0 -12   29.80    4.90
   6   0 -12   33.80    5.10
  -6   0  12   40.80    5.70
  -6   0  12   36.00    3.30
  -6   0  12   37.20    4.50
  -6   0  12   26.20    5.00
   5   0 -12   28.00    4.60
   5   0 -12   33.40    5.90
   5   0 -12   23.50    4.30
   5   0 -12   26.00    4.40
   5   0 -12   26.30    4.40
  -5   0  12   32.60    4.40
  -5   0  12   31.00    5.20
  -5   0  12   30.30    3.30
  -5   0  12   22.70    4.40
   4   0 -12  252.87   12.00
   4   0 -12  259.27   12.00
   4   0 -12  244.98   11.60
   4   0 -12  239.98    8.50
   4   0 -12  243.58   11.20
   4   0 -12  243.38   11.50
  -4   0  12  264.57   11.20
  -4   0  12  257.57   11.30
  -4   0  12  240.48   11.20
   3   0 -12  299.57   12.70
   3   0 -12  296.57   12.30
   3   0 -12  299.07   12.20
   3   0 -12  307.17   12.90
   3   0 -12  288.77   13.00
   3   0 -12  270.57    9.60
  -3   0  12  275.97    7.50
  -3   0  12  290.17   12.40
  -3   0  12  305.57   12.20
  -3   0  12  282.87   11.60
  -3   0  12  282.67    8.60
  -3   0  12  288.77   11.70
   2   0 -12  147.99    8.50
   2   0 -12  139.89    8.20
   2   0 -12  151.78    8.30
   2   0 -12  134.19    8.50
   2   0 -12  148.79    8.10
  -2   0  12  154.38    7.80
  -2   0  12  141.19    7.80
  -2   0  12  153.48    8.30
  -2   0  12  149.88    6.20
   1   0 -12    0.70    1.80
   1   0 -12    1.50    1.50
   1   0 -12    4.60    2.40
   1   0 -12    1.30    1.40
   1   0 -12    0.20    1.20
   1   0 -12    2.00    1.60
  -1   0  12    2.30    2.90
  -1   0  12    6.30    1.90
  -1   0  12    4.10    2.10
  -1   0  12    1.70    1.40
   0   0 -12   11.90    2.70
   0   0 -12   12.90    3.00
   0   0 -12    9.20    2.50
   0   0 -12   12.10    3.20
   0   0 -12   21.20    3.90
   0   0 -12   15.70    3.40
   0   0  12   17.90    3.20
   0   0  12   22.50    3.60
   0   0  12   20.30    3.50
  -1   0 -12    0.40    2.50
  -1   0 -12    5.90    2.90
  -1   0 -12    1.70    2.00
  -1   0 -12    7.70    2.40
  -1   0 -12    3.30    1.80
  -1   0 -12    1.80    1.80
   1   0  12    4.40    2.20
   1   0  12    4.80    1.90
   1   0  12    0.20    1.80
  -2   0 -12   61.59    5.80
  -2   0 -12   72.19    6.70
  -2   0 -12   68.59    5.50
  -2   0 -12   60.09    8.10
  -2   0 -12   70.19    5.70
   2   0  12   50.49    4.40
   2   0  12   68.19    6.10
   8  -1 -12   36.10    5.20
   8  -1 -12   36.70    6.00
   8  -1 -12   32.50    6.20
   8  -1 -12   40.80    6.60
  -8   1  12   46.00    4.80
  -8   1  12   47.80    7.70
   7  -1 -12    5.30    2.70
   7  -1 -12   11.60    3.30
   7  -1 -12    3.10    2.90
   7  -1 -12    8.20    3.50
   7  -1 -12    8.70    3.30
  -7   1  12    4.90    2.30
  -7   1  12    2.70    3.30
  -7   1  12   10.00    3.40
   6  -1 -12    0.10    2.70
   6  -1 -12    0.60    2.60
   6  -1 -12    0.10    2.00
   6  -1 -12    0.70    2.00
   6  -1 -12    1.60    1.70
  -6   1  12   -0.50    1.80
  -6   1  12   -1.40    1.40
  -6   1  12    3.50    3.00
  -6   1  12   -2.40    1.60
   5  -1 -12    0.40    1.50
   5  -1 -12    2.30    2.00
   5  -1 -12    3.70    2.20
   5  -1 -12    0.40    2.10
   5  -1 -12   -0.90    1.40
   5  -1 -12   -0.60    2.00
  -5   1  12   -0.30    2.60
  -5   1  12   -0.10    1.50
  -5   1  12    0.20    2.60
  -5   1  12    0.40    1.60
  -5   1  12   -1.20    1.30
   4  -1 -12  183.48   10.20
   4  -1 -12  159.28    9.10
   4  -1 -12  179.18    9.80
   4  -1 -12  196.18    8.20
   4  -1 -12  176.98    9.90
   4  -1 -12  182.68   10.10
  -4   1  12  181.68   11.00
  -4   1  12  176.28    9.50
  -4   1  12  168.68    9.20
  -4   1  12  157.98    9.60
   3  -1 -12  207.18   10.70
   3  -1 -12  188.78    8.50
   3  -1 -12  193.88   10.30
   3  -1 -12  211.68   10.40
   3  -1 -12  181.68   10.00
   3  -1 -12  193.28    9.90
  -3   1  12  209.38   10.20
  -3   1  12  195.08    9.70
  -3   1  12  207.58   11.90
  -3   1  12  209.78   10.00
  -3   1  12  191.08    7.60
   2  -1 -12   29.80    4.70
   2  -1 -12   32.50    4.20
   2  -1 -12   29.40    4.40
   2  -1 -12   28.60    4.60
   2  -1 -12   34.10    4.80
   2  -1 -12   33.40    4.50
  -2   1  12   33.40    5.40
  -2   1  12   35.10    3.30
  -2   1  12   30.80    4.30
  -2   1  12   36.70    4.80
  -2   1  12   32.50    5.20
   1  -1 -12    0.50    2.00
   1  -1 -12    1.00    1.70
   1  -1 -12    2.20    2.00
   1  -1 -12    2.30    2.20
   1  -1 -12   -1.40    1.50
   1  -1 -12    2.20    2.10
  -1   1  12    1.40    2.10
  -1   1  12    1.50    1.60
   0  -1 -12    0.40    1.40
   0  -1 -12    0.60    2.20
   0  -1 -12   -0.70    1.30
   0  -1 -12    3.40    2.00
   0  -1 -12    2.10    2.00
   0  -1 -12    0.90    1.70
   0   1  12   -0.30    1.60
   0   1  12    1.00    1.50
   0   1  12   -0.90    1.40
  -1  -1 -12   -5.10    1.70
  -1  -1 -12    1.90    2.60
  -1  -1 -12    1.40    2.60
   1   1  12   -1.60    1.60
   1   1  12   -1.90    1.90
  -2  -1 -12   73.49    6.00
  -2  -1 -12   68.09    6.20
  -2  -1 -12   71.09    6.50
  -2  -1 -12   54.89    7.10
   2   1  12   57.19    6.10
   7  -2 -12    1.40    3.30
   7  -2 -12    4.30    2.40
   7  -2 -12    3.10    2.10
   7  -2 -12    8.60    5.40
   7  -2 -12    5.60    3.50
  -7   2  12    2.20    2.40
  -7   2  12    3.20    3.10
  -7   2  12    4.40    2.50
   6  -2 -12    3.30    2.70
   6  -2 -12   -1.00    2.50
   6  -2 -12   -2.00    1.50
   6  -2 -12    5.60    2.10
   6  -2 -12   -3.60    1.70
   6  -2 -12    0.10    2.40
  -6   2  12   -0.50    1.70
  -6   2  12    0.80    1.70
  -6   2  12    2.20    1.90
  -6   2  12   -2.40    2.60
   5  -2 -12    3.00    2.10
   5  -2 -12   -0.10    1.90
   5  -2 -12    1.20    2.10
   5  -2 -12    2.00    2.50
   5  -2 -12   -3.30    2.50
   5  -2 -12    3.30    2.00
  -5   2  12    1.50    2.60
  -5   2  12    2.50    1.90
  -5   2  12    1.80    1.90
  -5   2  12    1.90    1.80
  -5   2  12    1.70    1.60
   4  -2 -12   58.29    5.60
   4  -2 -12   40.90    5.40
   4  -2 -12   38.10    5.30
   4  -2 -12   38.70    5.50
   4  -2 -12   35.70    5.30
   4  -2 -12   41.00    4.90
  -4   2  12   53.89    6.40
  -4   2  12   51.69    6.70
  -4   2  12   45.40    3.10
  -4   2  12   49.50    5.90
   3  -2 -12   -0.10    2.10
   3  -2 -12    0.50    1.80
   3  -2 -12    2.10    2.00
   3  -2 -12    3.00    2.40
   3  -2 -12    7.00    2.30
   3  -2 -12   -3.10    1.50
  -3   2  12   -0.20    1.40
  -3   2  12   -1.00    1.10
  -3   2  12   -2.70    1.80
   2  -2 -12   36.30    5.20
   2  -2 -12   35.60    4.70
   2  -2 -12   31.20    4.60
   2  -2 -12   28.60    4.80
   2  -2 -12   29.20    4.50
   2  -2 -12   33.90    4.80
  -2   2  12   32.90    4.20
  -2   2  12   40.30    5.00
   1  -2 -12   36.50    5.40
   1  -2 -12   27.30    4.70
   1  -2 -12   32.20    4.80
   1  -2 -12   31.00    4.80
   1  -2 -12   34.00    5.00
   1  -2 -12   34.30    5.30
  -1   2  12   29.80    4.60
  -1   2  12   38.00    4.90
  -1   2  12   35.50    4.50
   0  -2 -12   -1.10    1.60
   0  -2 -12   -2.70    2.40
   0  -2 -12    0.20    1.90
   0  -2 -12    2.10    2.30
   0  -2 -12    1.80    2.40
   0  -2 -12   -2.10    2.10
   0   2  12   -0.10    2.40
   0   2  12    1.70    1.40
  -1  -2 -12   35.80    5.20
  -1  -2 -12   31.80    5.20
  -1  -2 -12   43.10    6.10
  -1  -2 -12   39.40    5.60
   1   2  12   43.70    6.00
   7  -3 -12   39.90    6.30
   7  -3 -12   42.80    6.50
   7  -3 -12   42.20    5.30
   7  -3 -12   35.00    5.90
   7  -3 -12   53.19    7.50
  -7   3  12   46.60    6.80
  -7   3  12   38.90    5.20
  -7   3  12   32.10    6.00
  -7   3  12   51.99    7.40
   6  -3 -12    0.30    3.00
   6  -3 -12    5.50    2.30
   6  -3 -12    3.90    2.80
   6  -3 -12   -1.40    1.90
   6  -3 -12   -0.10    3.00
   6  -3 -12    0.10    2.70
  -6   3  12    2.20    1.80
  -6   3  12   -1.50    2.90
  -6   3  12   -1.00    2.00
   5  -3 -12    5.00    2.20
   5  -3 -12    1.80    2.90
   5  -3 -12    3.20    2.00
   5  -3 -12    6.80    3.30
   5  -3 -12    3.30    2.50
   5  -3 -12    4.80    2.80
  -5   3  12    4.10    2.40
  -5   3  12    4.20    1.70
  -5   3  12    8.20    3.80
  -5   3  12    4.00    2.40
  -5   3  12    2.50    3.20
   4  -3 -12  164.78    9.40
   4  -3 -12  177.28   10.20
   4  -3 -12  196.78   10.70
   4  -3 -12  163.38    9.00
   4  -3 -12  179.78   10.60
   4  -3 -12  173.68   10.50
  -4   3  12  170.58    6.40
  -4   3  12  172.98   10.20
  -4   3  12  159.18    9.90
  -4   3  12  178.88    9.40
   3  -3 -12   13.40    3.60
   3  -3 -12   11.90    3.70
   3  -3 -12    9.20    3.30
   3  -3 -12   14.30    3.50
   3  -3 -12   15.20    3.60
   3  -3 -12   14.90    3.60
  -3   3  12   12.50    1.00
  -3   3  12   12.00    3.20
  -3   3  12   13.30    3.90
   2  -3 -12  103.39    7.90
   2  -3 -12   92.49    9.20
   2  -3 -12  105.89    7.90
   2  -3 -12  108.89    7.90
   2  -3 -12   95.99    7.70
  -2   3  12  105.89    7.80
  -2   3  12  104.69    7.40
  -2   3  12  121.99    7.30
   1  -3 -12   67.39    6.40
   1  -3 -12   57.99    6.00
   1  -3 -12   58.29    7.20
   1  -3 -12   71.19    6.00
   1  -3 -12   57.89    5.80
   1  -3 -12   69.79    6.70
  -1   3  12   59.89    6.10
  -1   3  12   58.69    6.00
  -1   3  12   69.19    5.80
   0  -3 -12   -0.40    2.70
   0  -3 -12    7.50    2.60
   0  -3 -12    6.50    3.20
   0  -3 -12    6.70    3.00
   0  -3 -12    0.60    3.00
   0   3  12    5.90    2.60
   0   3  12   -0.60    2.00
   7  -4 -12   91.09    8.50
   7  -4 -12   71.09    6.90
   7  -4 -12   65.79    8.10
   7  -4 -12   52.19    6.80
   7  -4 -12   74.09    6.40
  -7   4  12   80.79    6.90
  -7   4  12   77.19    6.30
  -7   4  12   70.99    7.50
  -7   4  12   77.09    7.90
   6  -4 -12   -0.30    2.70
   6  -4 -12    2.00    2.60
   6  -4 -12   -0.50    1.90
   6  -4 -12    1.80    2.10
   6  -4 -12   -4.00    2.80
   6  -4 -12   -0.80    2.40
  -6   4  12    0.40    2.20
  -6   4  12   -0.90    2.00
  -6   4  12   -3.50    2.80
  -6   4  12   -1.90    3.10
   5  -4 -12   15.30    3.30
   5  -4 -12   24.80    4.90
   5  -4 -12   11.30    3.60
   5  -4 -12   22.90    4.30
   5  -4 -12   15.30    4.30
   5  -4 -12   18.30    3.80
  -5   4  12   15.30    3.20
  -5   4  12   28.10    5.20
  -5   4  12   13.90    2.80
  -5   4  12   21.90    4.60
   4  -4 -12    4.10    2.70
   4  -4 -12    7.30    3.20
   4  -4 -12    6.70    2.70
   4  -4 -12    3.70    2.10
   4  -4 -12    4.30    2.70
   4  -4 -12    1.60    2.00
  -4   4  12    3.50    2.90
  -4   4  12   -0.40    2.30
  -4   4  12    5.50    2.80
  -4   4  12    2.40    1.40
  -4   4  12    2.40    1.60
   3  -4 -12   20.90    4.10
   3  -4 -12   19.70    4.50
   3  -4 -12   15.20    4.70
   3  -4 -12   18.40    3.70
   3  -4 -12   19.70    4.20
   3  -4 -12   18.00    4.10
  -3   4  12   15.20    1.60
  -3   4  12   22.90    4.80
  -3   4  12   12.10    3.20
  -3   4  12   13.50    1.50
   2  -4 -12    3.30    2.50
   2  -4 -12    5.50    2.80
   2  -4 -12    7.30    3.90
   2  -4 -12    5.90    2.70
   2  -4 -12    2.40    2.20
   2  -4 -12    2.60    3.20
  -2   4  12    4.30    3.20
  -2   4  12    6.80    3.40
   1  -4 -12  195.48   11.00
   1  -4 -12  186.78   10.90
   1  -4 -12  163.68   14.00
   1  -4 -12  159.58   10.40
   1  -4 -12  164.78   11.10
  -1   4  12  207.68   10.70
  -1   4  12  173.58   10.50
   6  -5 -12    2.40    2.70
   6  -5 -12    4.80    3.60
   6  -5 -12    2.50    3.70
   6  -5 -12    0.90    2.30
  -6   5  12    3.10    2.40
  -6   5  12    0.40    3.80
  -6   5  12    1.00    2.50
  -6   5  12    1.40    2.80
   5  -5 -12   32.80    5.90
   5  -5 -12   33.70    5.80
   5  -5 -12   24.30    4.50
   5  -5 -12   16.90    4.70
   5  -5 -12   30.60    5.70
  -5   5  12   23.90    3.50
  -5   5  12   23.10    5.30
  -5   5  12   24.10    3.70
  -5   5  12   27.60    5.60
  -5   5  12   31.40    5.30
   4  -5 -12   26.10    4.50
   4  -5 -12   24.80    5.10
   4  -5 -12   25.70    5.80
   4  -5 -12   37.00    5.90
  -4   5  12   29.00    5.00
  -4   5  12   25.30    5.00
  -4   5  12   36.40    5.80
  -4   5  12   34.80    3.70
   3  -5 -12   24.90    4.30
   3  -5 -12   34.10    5.70
   3  -5 -12   29.30    5.50
   3  -5 -12   25.30    4.80
   3  -5 -12   19.50    4.40
  -3   5  12   29.10    5.60
  -3   5  12   22.20    4.90
  -3   5  12   14.80    2.40
  -3   5  12   24.70    2.40
   2  -5 -12   33.10    5.60
   2  -5 -12   33.40    5.60
   2  -5 -12   23.30    4.60
   2  -5 -12   25.00    5.50
  -2   5  12   28.30    5.00
  -2   5  12   33.90    5.40
   4   5 -13   15.90    3.50
   4   5 -13   16.40    3.50
   4   5 -13   14.80    3.20
   4   5 -13   16.00    3.80
   4   5 -13   15.20    3.50
  -4  -5  13   13.70    5.10
  -4  -5  13    4.70    2.80
   3   5 -13   18.40    3.50
   3   5 -13   19.60    3.20
   3   5 -13   22.20    3.40
   3   5 -13   18.20    3.60
   3   5 -13   23.00    3.80
  -3  -5  13   17.10    3.30
  -3  -5  13   27.20    6.80
  -3  -5  13   20.10    3.50
  -3  -5  13   21.00    3.60
   2   5 -13  357.36   12.60
   2   5 -13  374.06   13.20
   2   5 -13  392.86   17.10
  -2  -5  13  401.16   20.60
   1   5 -13   17.70    4.50
   1   5 -13   17.30    2.50
   1   5 -13   19.90    3.00
   1   5 -13   16.80    2.40
  -1  -5  13   23.60    6.20
   0   5 -13   -0.40    1.10
   0   5 -13    0.10    1.60
   0   5 -13    0.70    1.10
   0   5 -13    0.50    1.20
   0   5 -13    1.00    0.80
   0   5 -13   -3.70    2.30
   0   5 -13   -0.30    1.20
   0  -5  13    4.00    3.10
   5   4 -13   17.20    3.80
   5   4 -13   13.30    3.90
   5   4 -13   25.60    4.40
   5   4 -13   22.80    4.40
  -5  -4  13   21.40    6.00
   4   4 -13   24.60    4.40
   4   4 -13   34.30    5.70
   4   4 -13   33.30    4.60
   4   4 -13   26.40    4.00
  -4  -4  13   26.60    4.20
  -4  -4  13   34.80    4.70
  -4  -4  13   33.10    7.00
   3   4 -13   57.19    4.80
   3   4 -13   66.89    5.40
   3   4 -13   49.10    4.90
  -3  -4  13   60.29    5.20
  -3  -4  13   50.29    4.80
  -3  -4  13   72.39    8.50
   2   4 -13  205.58    9.50
   2   4 -13  218.48    9.60
   2   4 -13  218.78    9.90
   2   4 -13  221.48   14.20
   2   4 -13  216.08    9.00
  -2  -4  13  219.48    8.50
  -2  -4  13  227.38   14.90
   1   4 -13   70.39    5.00
   1   4 -13   63.89    4.90
   1   4 -13   78.99    5.10
   1   4 -13   67.39    4.60
  -1  -4  13   61.09    3.60
  -1  -4  13   75.29    4.60
  -1  -4  13   68.19    9.90
   0   4 -13   16.90    2.40
   0   4 -13   13.30    2.20
   0   4 -13   14.40    2.50
   0   4 -13   15.50    2.20
   0   4 -13   15.30    2.60
   0   4 -13   15.30    4.00
   6   3 -13   25.20    4.50
   6   3 -13   24.40    4.90
   6   3 -13   20.70    4.10
   6   3 -13   15.30    3.50
  -6  -3  13   21.30    4.30
  -6  -3  13   42.60    7.80
  -6  -3  13    9.20    3.60
   5   3 -13   -1.30    1.50
   5   3 -13   -2.20    1.90
   5   3 -13   -1.00    1.70
  -5  -3  13    3.60    2.40
  -5  -3  13    0.40    2.60
  -5  -3  13    0.70    2.70
  -5  -3  13    3.20    3.00
   4   3 -13   17.10    4.00
   4   3 -13    9.80    3.30
   4   3 -13   21.20    3.70
   4   3 -13   19.20    3.70
   4   3 -13   15.10    3.60
  -4  -3  13   18.10    3.20
  -4  -3  13    9.80    2.80
  -4  -3  13   14.70    5.00
  -4  -3  13   16.20    3.40
   3   3 -13    3.90    2.00
   3   3 -13    4.10    2.30
   3   3 -13    7.40    2.60
   3   3 -13    5.80    2.20
  -3  -3  13    3.70    1.70
  -3  -3  13    8.00    4.20
  -3  -3  13    3.60    2.50
  -3  -3  13    4.20    2.00
   2   3 -13  265.37   11.00
   2   3 -13  261.07   10.70
   2   3 -13  265.07   10.50
   2   3 -13  277.47   13.60
   2   3 -13  286.17   11.40
  -2  -3  13  251.97    9.70
  -2  -3  13  264.77   15.80
  -2  -3  13  262.97   10.00
   1   3 -13   35.40    2.60
   1   3 -13   38.10    3.80
   1   3 -13   25.20    4.80
   1   3 -13   40.90    3.90
   1   3 -13   29.40    3.80
  -1  -3  13   27.90    3.10
   0   3 -13    2.90    1.40
   0   3 -13    3.30    1.70
   0   3 -13    4.20    1.60
   0   3 -13    6.80    2.10
   0   3 -13    6.40    1.90
   0  -3  13    2.80    1.20
   0  -3  13    3.80    0.90
   0  -3  13    3.70    1.90
  -1   3 -13    0.70    1.20
  -1   3 -13    1.50    2.00
  -1   3 -13   -1.30    1.30
  -1   3 -13    1.30    1.60
  -1   3 -13    1.90    2.70
   1  -3  13   -0.50    1.80
   6   2 -13   32.10    5.00
   6   2 -13   38.70    5.30
   6   2 -13   32.60    5.40
   6   2 -13   25.30    5.20
  -6  -2  13   28.90    6.10
  -6  -2  13   30.70    5.40
   5   2 -13  193.48   10.40
   5   2 -13  176.68   10.60
   5   2 -13  172.48    9.60
   5   2 -13  182.88   10.40
  -5  -2  13  186.28    8.90
  -5  -2  13  190.38   10.60
  -5  -2  13  184.08   12.70
  -5  -2  13  188.58   10.40
   4   2 -13   29.60    4.40
   4   2 -13   30.30    5.40
   4   2 -13   27.10    4.50
   4   2 -13   28.00    4.60
   4   2 -13   18.80    3.80
  -4  -2  13   29.70    4.60
  -4  -2  13   25.50    5.00
  -4  -2  13   35.70    6.90
   3   2 -13   17.60    3.40
   3   2 -13   17.90    3.70
   3   2 -13   23.00    4.00
   3   2 -13   22.20    4.20
   3   2 -13   22.10    3.60
  -3  -2  13   16.20    2.20
   2   2 -13    5.90    2.30
   2   2 -13    5.20    2.20
   2   2 -13    3.10    1.70
   2   2 -13    4.30    1.40
   2   2 -13    3.70    2.20
   2   2 -13    7.70    3.20
  -2  -2  13    7.10    2.60
  -2  -2  13    7.60    2.10
   1   2 -13    3.40    2.20
   1   2 -13    0.50    2.10
   1   2 -13    6.90    1.90
   1   2 -13    4.00    1.90
   1   2 -13    4.10    1.80
   1   2 -13    4.60    2.00
  -1  -2  13    6.20    2.10
  -1  -2  13    4.20    1.30
  -1  -2  13    3.80    1.80
   0   2 -13   62.29    5.00
   0   2 -13   62.59    5.10
   0   2 -13   69.49    5.20
   0   2 -13   76.99    6.10
   0  -2  13   71.69    6.00
   0  -2  13   65.69    4.50
  -1   2 -13   19.90    3.10
  -1   2 -13   27.80    4.50
  -1   2 -13   17.20    3.10
  -1   2 -13   18.10    3.10
  -1   2 -13   21.20    4.20
   1  -2  13   21.10    3.60
   1  -2  13   18.10    2.10
   1  -2  13   17.10    1.90
   1  -2  13   18.80    1.90
   6   1 -13   62.19    6.50
   6   1 -13   40.90    6.00
   6   1 -13   72.09    6.70
   6   1 -13   44.70    6.20
  -6  -1  13   53.69    6.90
   5   1 -13    1.80    2.20
   5   1 -13    4.90    3.00
   5   1 -13    6.50    3.00
   5   1 -13    8.00    2.90
   5   1 -13    7.30    2.80
  -5  -1  13    6.80    2.40
  -5  -1  13   11.50    3.90
  -5  -1  13    5.80    3.10
   4   1 -13    2.00    2.40
   4   1 -13    0.30    1.90
   4   1 -13    0.30    1.80
   4   1 -13    1.90    1.80
   4   1 -13    1.50    2.10
  -4  -1  13    1.20    2.30
  -4  -1  13    0.00    1.30
  -4  -1  13    1.80    2.00
   3   1 -13    6.30    1.50
   3   1 -13    4.50    2.40
   3   1 -13    5.60    2.70
   3   1 -13    1.60    2.20
   3   1 -13    2.40    2.30
   3   1 -13    9.40    2.90
  -3  -1  13    2.90    0.90
  -3  -1  13    4.40    2.40
  -3  -1  13    6.40    2.30
   2   1 -13    9.30    3.10
   2   1 -13   14.60    3.20
   2   1 -13    4.30    2.40
   2   1 -13   12.60    3.00
   2   1 -13   13.10    3.00
   2   1 -13   11.60    2.20
  -2  -1  13   17.40    3.10
   1   1 -13   18.70    3.30
   1   1 -13   20.10    3.40
   1   1 -13   21.70    3.10
   1   1 -13   15.80    3.30
   1   1 -13   17.20    4.10
   1   1 -13   21.60    3.40
  -1  -1  13   18.30    2.70
  -1  -1  13   21.20    3.30
   0   1 -13    2.10    1.90
   0   1 -13    3.30    2.10
   0   1 -13    3.20    1.80
   0   1 -13    0.10    1.80
   0  -1  13    2.40    1.90
   0  -1  13    0.20    1.60
   0  -1  13    1.10    1.80
  -1   1 -13   84.79   10.60
  -1   1 -13   94.49    6.20
  -1   1 -13   83.09    6.50
  -1   1 -13   86.49    7.60
  -1   1 -13   84.29    5.90
   1  -1  13   82.09    5.90
   1  -1  13   78.99    6.00
   7   0 -13   -0.10    2.50
   7   0 -13    0.60    2.30
   7   0 -13    3.40    2.80
   7   0 -13    0.00    2.70
   7   0 -13   -3.40    3.20
  -7   0  13   -0.80    3.20
  -7   0  13   -1.50    3.50
  -7   0  13    2.40    1.70
  -7   0  13    0.10    2.80
   6   0 -13    8.10    2.80
   6   0 -13    5.80    2.40
   6   0 -13    7.80    3.30
   6   0 -13   12.40    3.80
   6   0 -13    9.80    3.80
  -6   0  13    8.10    2.90
  -6   0  13    5.70    3.30
  -6   0  13   11.60    2.70
   5   0 -13   -0.20    2.00
   5   0 -13   -2.00    1.30
   5   0 -13    4.00    2.40
   5   0 -13   -2.90    2.30
   5   0 -13    2.90    2.40
  -5   0  13    0.10    2.90
  -5   0  13   -0.30    1.70
  -5   0  13    0.70    2.70
   4   0 -13    1.20    2.10
   4   0 -13   -1.80    2.20
   4   0 -13   -3.70    1.70
   4   0 -13    0.70    2.20
   4   0 -13    0.20    2.10
   4   0 -13   -0.50    1.30
  -4   0  13    3.30    2.50
  -4   0  13    0.10    1.20
  -4   0  13    1.30    1.10
   3   0 -13  140.89    8.50
   3   0 -13  150.58    9.00
   3   0 -13  138.09    8.80
   3   0 -13  136.69    9.00
   3   0 -13  145.99    8.70
   3   0 -13  140.99    7.70
  -3   0  13  137.19    8.20
  -3   0  13  134.29    8.40
   2   0 -13  131.69    8.30
   2   0 -13  123.89    8.70
   2   0 -13  117.39    6.50
   2   0 -13  123.89    8.00
   2   0 -13  136.39    8.10
   2   0 -13  130.69    8.00
  -2   0  13  125.69    7.70
  -2   0  13  114.99    7.20
   1   0 -13   34.10    5.20
   1   0 -13   41.70    4.80
   1   0 -13   39.60    5.10
   1   0 -13   29.50    4.50
   1   0 -13   27.20    4.40
   1   0 -13   48.20    5.90
  -1   0  13   49.40    4.70
  -1   0  13   41.00    3.80
   0   0 -13   39.00    5.80
   0   0 -13   43.00    4.40
   0   0 -13   46.50    5.80
   0   0 -13   42.60    5.10
   0   0 -13   30.90    4.30
   0   0  13   40.20    4.30
   0   0  13   29.60    5.20
   0   0  13   44.90    4.50
  -1   0 -13   28.50    5.50
  -1   0 -13   27.50    4.20
  -1   0 -13   30.30    5.20
  -1   0 -13   33.60    4.40
  -1   0 -13   31.30    4.80
  -1   0 -13   31.00    4.70
   1   0  13   30.50    4.00
   1   0  13   43.20    5.50
   7  -1 -13   46.50    6.90
   7  -1 -13   30.30    5.50
   7  -1 -13   50.09    6.60
   7  -1 -13   72.99    6.50
  -7   1  13   43.20    4.70
  -7   1  13   58.79    9.30
  -7   1  13   55.09    7.40
  -7   1  13   69.99    6.90
   6  -1 -13   23.90    4.60
   6  -1 -13   27.00    4.70
   6  -1 -13   23.30    4.80
   6  -1 -13   27.90    5.70
   6  -1 -13   28.10    4.50
  -6   1  13   18.90    4.10
  -6   1  13   24.00    5.30
  -6   1  13   33.20    4.10
  -6   1  13   29.50    4.00
   5  -1 -13   60.69    6.20
   5  -1 -13   70.59    6.80
   5  -1 -13   60.69    6.00
   5  -1 -13   67.49    4.80
   5  -1 -13   60.39    6.20
   5  -1 -13   83.39    7.10
  -5   1  13   65.79    6.90
  -5   1  13   64.59    6.60
   4  -1 -13    4.50    2.60
   4  -1 -13    2.60    1.80
   4  -1 -13    2.80    2.00
   4  -1 -13    3.90    2.40
   4  -1 -13    6.30    3.40
   4  -1 -13    2.40    1.90
  -4   1  13    1.30    1.10
  -4   1  13   -0.10    2.30
  -4   1  13    3.40    2.60
  -4   1  13    2.80    1.40
   3  -1 -13    3.30    2.50
   3  -1 -13   -1.80    1.90
   3  -1 -13    2.30    1.90
   3  -1 -13    3.10    2.20
   3  -1 -13    5.40    2.10
   3  -1 -13   -0.60    1.90
  -3   1  13    1.60    1.50
  -3   1  13    2.90    2.00
  -3   1  13    4.10    2.80
   2  -1 -13   60.39    5.90
   2  -1 -13   54.99    5.70
   2  -1 -13   71.89    6.50
   2  -1 -13   72.09    6.60
   2  -1 -13   67.09    5.60
   2  -1 -13   74.59    6.40
  -2   1  13   70.79    6.10
  -2   1  13   69.59    5.30
  -2   1  13   56.99    5.40
   1  -1 -13   -3.80    2.40
   1  -1 -13   -0.90    2.10
   1  -1 -13   -0.90    2.00
  -1   1  13    2.50    2.00
  -1   1  13    2.10    1.60
  -1   1  13   -2.80    2.00
   0  -1 -13    2.80    2.30
   0  -1 -13   10.40    3.20
   0  -1 -13   10.40    2.80
   0  -1 -13    9.00    3.20
   0  -1 -13    5.70    3.40
   0  -1 -13    8.60    3.30
   0   1  13    0.80    2.20
   0   1  13    7.10    2.40
   6  -2 -13    5.80    2.50
   6  -2 -13   -1.70    3.10
   6  -2 -13    8.30    3.60
   6  -2 -13   13.70    4.40
   6  -2 -13    9.80    2.90
   6  -2 -13    9.20    3.60
  -6   2  13    5.70    2.60
  -6   2  13    8.10    3.10
  -6   2  13    8.60    2.40
  -6   2  13    8.30    4.00
   5  -2 -13  211.28   11.30
   5  -2 -13  216.98    9.90
   5  -2 -13  200.88   11.80
   5  -2 -13  229.28   12.40
   5  -2 -13  233.78   12.30
  -5   2  13  219.48    9.60
  -5   2  13  217.18   11.60
  -5   2  13  228.38   10.20
  -5   2  13  237.08   12.70
   4  -2 -13  125.39    9.00
   4  -2 -13  136.89    8.90
   4  -2 -13  126.29    7.70
   4  -2 -13  144.29    9.30
   4  -2 -13  135.19    9.20
   4  -2 -13  138.09    9.10
  -4   2  13  125.59    4.80
  -4   2  13  140.09    9.50
   3  -2 -13    6.70    2.80
   3  -2 -13   10.70    3.30
   3  -2 -13    2.90    2.30
   3  -2 -13    6.10    2.60
   3  -2 -13    4.50    2.60
  -3   2  13    3.60    1.70
  -3   2  13    3.50    2.60
  -3   2  13    5.30    3.10
   2  -2 -13   20.10    4.40
   2  -2 -13   20.70    4.00
   2  -2 -13   17.80    4.50
   2  -2 -13   19.90    4.40
   2  -2 -13   23.00    4.20
  -2   2  13   26.20    3.80
  -2   2  13   20.50    4.10
   1  -2 -13   30.90    5.10
   1  -2 -13   46.70    5.90
   1  -2 -13   26.80    4.50
   1  -2 -13   56.49    5.90
   1  -2 -13   38.20    5.50
   1  -2 -13   38.40    5.80
  -1   2  13   34.30    4.60
   0  -2 -13    0.20    2.00
   0  -2 -13    1.20    2.60
   0  -2 -13    3.80    2.30
   0  -2 -13    5.50    3.00
   0   2  13    0.40    2.20
   0   2  13   -2.70    2.10
   0   2  13    0.00    2.60
   6  -3 -13    4.40    2.80
   6  -3 -13    3.90    2.30
   6  -3 -13    0.40    2.50
   6  -3 -13    2.00    3.40
  -6   3  13    0.40    3.10
  -6   3  13    0.40    2.50
  -6   3  13    2.40    2.00
  -6   3  13    0.70    2.50
   5  -3 -13   77.59    7.10
   5  -3 -13   84.09    6.90
   5  -3 -13  102.29    9.80
   5  -3 -13   86.69    7.20
   5  -3 -13   80.59    7.80
   5  -3 -13   78.09    7.50
  -5   3  13   85.79    7.40
  -5   3  13   93.79    7.00
  -5   3  13   76.39    8.10
   4  -3 -13   61.09    6.10
   4  -3 -13   56.39    6.90
   4  -3 -13   62.49    6.00
  -4   3  13   51.89    3.00
  -4   3  13   52.49    7.00
  -4   3  13   60.79    6.00
   3  -3 -13   53.89    7.00
   3  -3 -13   40.00    5.60
   3  -3 -13   51.19    6.20
   3  -3 -13   42.70    5.90
   3  -3 -13   43.90    7.50
   3  -3 -13   48.10    5.90
  -3   3  13   40.90    5.70
  -3   3  13   49.00    6.70
   2  -3 -13   -1.20    2.70
   2  -3 -13   -1.20    3.00
   2  -3 -13   -2.40    1.90
   2  -3 -13    2.80    3.00
   2  -3 -13    0.90    2.70
   2  -3 -13   -2.10    2.40
  -2   3  13   -0.70    1.60
  -2   3  13   -2.60    2.90
  -2   3  13   -2.60    2.30
   1  -3 -13  247.28   15.40
   1  -3 -13  269.17   13.20
   1  -3 -13  252.27   13.20
   1  -3 -13  273.57   13.30
   1  -3 -13  244.78   12.70
  -1   3  13  280.77   12.30
   5  -4 -13    6.20    3.60
   5  -4 -13    8.40    3.00
   5  -4 -13   14.60    3.70
   5  -4 -13   10.00    2.80
   5  -4 -13   19.20    4.50
   5  -4 -13    5.60    2.80
  -5   4  13    7.50    3.30
  -5   4  13   12.30    2.70
  -5   4  13   18.20    4.60
  -5   4  13   10.50    2.60
  -5   4  13   11.10    3.40
   4  -4 -13    9.10    3.30
   4  -4 -13    4.10    2.60
   4  -4 -13    3.30    2.90
   4  -4 -13   12.00    3.70
   4  -4 -13   20.20    4.90
  -4   4  13    3.40    1.40
  -4   4  13    1.20    3.40
  -4   4  13    2.00    2.60
   3  -4 -13   -2.80    2.60
   3  -4 -13   -3.10    2.70
   3  -4 -13    3.50    3.90
   3  -4 -13    1.00    2.80
  -3   4  13   -1.30    2.80
  -3   4  13    1.20    3.30
   4   3 -14   -2.90    2.20
   4   3 -14   -1.30    2.00
   4   3 -14   -2.70    1.60
   4   3 -14   -2.10    2.40
   4   3 -14    2.80    3.00
  -4  -3  14    1.50    2.80
  -4  -3  14   -0.70    1.90
  -4  -3  14   -1.20    2.10
   3   3 -14    3.60    2.60
   3   3 -14    4.90    2.60
   3   3 -14    2.80    2.50
   3   3 -14    3.40    2.40
   3   3 -14    6.20    2.80
  -3  -3  14    4.60    2.60
  -3  -3  14    3.60    3.70
   2   3 -14   27.10    3.80
   2   3 -14   24.50    4.30
   2   3 -14   25.80    5.00
   2   3 -14   31.70    4.40
   2   3 -14   30.00    4.10
  -2  -3  14   27.90    3.80
   1   3 -14   22.10    3.80
   1   3 -14   22.70    3.50
   1   3 -14   17.80    3.20
   1   3 -14   19.60    4.30
   1   3 -14   19.00    3.10
  -1  -3  14   15.50    2.60
   5   2 -14    7.90    2.90
   5   2 -14   23.50    4.50
   5   2 -14   15.20    3.90
   5   2 -14   18.40    4.20
   5   2 -14   15.10    4.00
  -5  -2  14   -0.20    3.00
  -5  -2  14   11.40    3.20
   4   2 -14   17.00    4.00
   4   2 -14   10.50    2.90
   4   2 -14   16.80    4.00
   4   2 -14   18.40    3.80
   4   2 -14   14.80    3.40
  -4  -2  14   12.90    2.50
  -4  -2  14    2.40    2.50
   3   2 -14   -3.30    2.00
   3   2 -14    2.80    2.50
   3   2 -14    0.00    2.20
   3   2 -14   -2.80    1.70
   3   2 -14    1.60    2.70
  -3  -2  14   -1.30    2.60
  -3  -2  14   -1.00    4.00
   2   2 -14    6.80    2.80
   2   2 -14    1.90    1.30
   2   2 -14    3.60    2.20
   2   2 -14    7.50    2.30
   2   2 -14    4.00    3.10
   2   2 -14    0.60    1.80
  -2  -2  14    1.40    2.20
  -2  -2  14    0.60    2.30
   1   2 -14   40.00    6.30
   1   2 -14   39.10    4.80
   1   2 -14   49.50    5.10
   1   2 -14   60.69    5.40
   1   2 -14   54.09    5.00
  -1  -2  14   52.99    4.60
   5   1 -14   17.30    4.50
   5   1 -14   28.30    5.10
   5   1 -14   24.60    4.80
   5   1 -14   16.30    3.70
   5   1 -14   20.90    4.40
  -5  -1  14   16.30    3.10
   4   1 -14    1.20    2.60
   4   1 -14    5.70    2.60
   4   1 -14    6.30    2.40
   4   1 -14    4.40    2.90
   4   1 -14    4.20    2.20
  -4  -1  14    1.50    2.60
  -4  -1  14    1.40    1.50
   3   1 -14   63.89    5.80
   3   1 -14   48.50    6.10
   3   1 -14   58.69    6.10
   3   1 -14   68.99    5.90
   3   1 -14   62.29    6.30
   2   1 -14   -5.70    2.10
   2   1 -14    0.40    2.60
   2   1 -14   -0.60    2.00
   2   1 -14   -0.10    1.90
   2   1 -14    1.40    1.90
  -2  -1  14   -1.30    1.20
  -2  -1  14    1.10    2.10
  -2  -1  14    2.40    2.30
   1   1 -14   35.40    4.20
   1   1 -14   41.30    6.10
   1   1 -14   37.20    5.00
   1   1 -14   39.70    5.00
   1   1 -14   53.29    5.40
   1   1 -14   39.80    4.90
  -1  -1  14   45.10    4.90
   5   0 -14   46.00    6.30
   5   0 -14   42.10    6.10
   5   0 -14   47.50    6.20
   5   0 -14   46.50    6.20
   5   0 -14   39.80    5.60
  -5   0  14   38.90    6.30
   4   0 -14   -0.70    2.40
   4   0 -14   -0.80    1.80
   4   0 -14    1.40    1.50
   4   0 -14   -0.30    1.90
   4   0 -14   -2.10    2.60
   4   0 -14    1.20    2.20
  -4   0  14    3.40    3.00
  -4   0  14   -0.30    0.90
  -4   0  14   -2.60    2.20
   3   0 -14  123.59    8.20
   3   0 -14  112.99    8.80
   3   0 -14   98.19    7.70
   3   0 -14  101.79    7.70
   3   0 -14   98.09    7.60
   2   0 -14   54.29    4.80
   2   0 -14   52.19    5.50
   2   0 -14   62.19    6.30
   2   0 -14   52.49    6.30
   2   0 -14   55.49    6.70
   2   0 -14   53.99    5.50
   1   0 -14   13.20    3.30
   1   0 -14   15.50    3.70
   1   0 -14   11.70    3.40
   1   0 -14   20.90    3.80
   1   0 -14   12.00    3.50
   1   0 -14   15.20    3.40
  -1   0  14   12.80    3.10
   5  -1 -14    7.90    3.30
   5  -1 -14   14.00    2.80
   5  -1 -14   12.70    3.70
   5  -1 -14   11.30    3.40
   5  -1 -14   15.00    4.20
   5  -1 -14   17.00    4.50
  -5   1  14   11.60    2.10
  -5   1  14   13.00    4.30
  -5   1  14    9.80    2.30
   4  -1 -14   28.80    5.00
   4  -1 -14   30.90    3.90
   4  -1 -14   21.40    5.10
   4  -1 -14   24.50    4.60
   4  -1 -14   20.40    4.50
   4  -1 -14   30.90    5.70
  -4   1  14   30.80    5.40
   3  -1 -14   21.80    4.70
   3  -1 -14   29.80    5.40
   3  -1 -14   29.70    5.30
   3  -1 -14   21.50    3.60
   3  -1 -14   22.60    4.60
   3  -1 -14   22.30    4.40
  -3   1  14   24.60    3.20
   2  -1 -14  162.18   10.40
   2  -1 -14  147.69    9.20
   2  -1 -14  163.88   10.10
   2  -1 -14  145.09    9.40
   2  -1 -14  158.28    9.60
   2  -1 -14  139.69    8.20
   4  -2 -14  259.27   11.50
   4  -2 -14  282.87   14.00
   4  -2 -14  272.57   13.70
   4  -2 -14  255.37   13.20
   4  -2 -14  277.47   13.90
   4  -2 -14  273.97   14.20
  -4   2  14  271.77   10.30
  -4   2  14  285.87   14.10
   0   0   0    0.00    0.00

_computing_structure_solution     'SHELXT 2014/5 (Sheldrick, 2014)'
;
_shelx_hkl_checksum              56874
loop_
_space_group_symop_operation_xyz
'x, y, z'
'-x, -y, -z'
loop_
_atom_site_label
_atom_site_type_symbol
_atom_site_fract_x
_atom_site_fract_y
_atom_site_fract_z
_atom_site_U_iso_or_equiv
_atom_site_adp_type
_atom_site_occupancy
_atom_site_site_symmetry_order
_atom_site_calc_flag
_atom_site_refinement_flags_posn
_atom_site_refinement_flags_adp
_atom_site_refinement_flags_occupancy
_atom_site_disorder_assembly
_atom_site_disorder_group
F1 F -0.09564(10) -0.02482(8) 0.22867(7) 0.02437(18) Uani 1 1 d . . . . .
N1 N 0.37186(13) 0.14468(11) 0.29829(9) 0.0160(2) Uani 1 1 d . . . . .
C1 C 0.23270(15) 0.20263(13) 0.30320(10) 0.0148(2) Uani 1 1 d . . . . .
F2 F 0.24045(10) 0.40097(9) 0.12479(7) 0.02688(19) Uani 1 1 d . . . . .
N2 N 0.20992(13) 0.27345(11) 0.40618(9) 0.0150(2) Uani 1 1 d . . . . .
C2 C 0.51657(15) 0.16757(12) 0.40867(11) 0.0148(2) Uani 1 1 d . . . . .
C3 C 0.67390(16) 0.11297(13) 0.40793(11) 0.0178(2) Uani 1 1 d . . . . .
H3 H 0.673486 0.055007 0.333668 0.021 Uiso 1 1 calc R U . . .
C4 C 0.82635(16) 0.14365(13) 0.51404(12) 0.0190(2) Uani 1 1 d . . . . .
H4 H 0.931237 0.105894 0.513404 0.023 Uiso 1 1 calc R U . . .
C5 C 0.82949(16) 0.23090(13) 0.62459(11) 0.0180(2) Uani 1 1 d . . . . .
H5 H 0.937603 0.253546 0.697019 0.022 Uiso 1 1 calc R U . . .
C6 C 0.67817(16) 0.28331(13) 0.62854(11) 0.0163(2) Uani 1 1 d . . . . .
H6 H 0.682259 0.342776 0.703245 0.020 Uiso 1 1 calc R U . . .
C7 C 0.51505(15) 0.24889(12) 0.52111(10) 0.0141(2) Uani 1 1 d . . . . .
C8 C 0.34805(15) 0.29448(12) 0.51451(10) 0.0138(2) Uani 1 1 d . . . . .
C9 C 0.31811(15) 0.36841(13) 0.62640(10) 0.0145(2) Uani 1 1 d . . . . .
C10 C 0.37307(15) 0.31751(13) 0.74320(11) 0.0167(2) Uani 1 1 d . . . . .
H10 H 0.430540 0.233001 0.752140 0.020 Uiso 1 1 calc R U . . .
C11 C 0.34416(16) 0.38973(14) 0.84606(11) 0.0198(2) Uani 1 1 d . . . . .
H11 H 0.381537 0.354458 0.925088 0.024 Uiso 1 1 calc R U . . .
C12 C 0.26068(17) 0.51344(14) 0.83356(11) 0.0215(3) Uani 1 1 d . . . . .
H12 H 0.244345 0.564840 0.904638 0.026 Uiso 1 1 calc R U . . .
C13 C 0.20100(17) 0.56213(14) 0.71717(12) 0.0210(3) Uani 1 1 d . . . . .
H13 H 0.141013 0.645164 0.708220 0.025 Uiso 1 1 calc R U . . .
C14 C 0.22883(16) 0.48971(13) 0.61392(11) 0.0171(2) Uani 1 1 d . . . . .
H14 H 0.186899 0.522855 0.534323 0.021 Uiso 1 1 calc R U . . .
C15 C 0.07892(15) 0.18750(13) 0.18109(10) 0.0154(2) Uani 1 1 d . . . . .
C16 C -0.07894(16) 0.07200(13) 0.14541(11) 0.0174(2) Uani 1 1 d . . . . .
C17 C -0.21674(16) 0.04853(14) 0.02960(12) 0.0214(3) Uani 1 1 d . . . . .
H17 H -0.322100 -0.033397 0.008404 0.026 Uiso 1 1 calc R U . . .
C18 C -0.19681(17) 0.14812(15) -0.05487(11) 0.0218(3) Uani 1 1 d . . . . .
H18 H -0.289019 0.133365 -0.135577 0.026 Uiso 1 1 calc R U . . .
C19 C -0.04454(18) 0.26860(14) -0.02322(11) 0.0207(3) Uani 1 1 d . . . . .
H19 H -0.032478 0.338370 -0.080257 0.025 Uiso 1 1 calc R U . . .
C20 C 0.08946(16) 0.28474(13) 0.09347(11) 0.0184(2) Uani 1 1 d . . . . .
loop_
_atom_site_aniso_label
_atom_site_aniso_U_11
_atom_site_aniso_U_22
_atom_site_aniso_U_33
_atom_site_aniso_U_23
_atom_site_aniso_U_13
_atom_site_aniso_U_12
F1 0.0226(4) 0.0237(4) 0.0254(4) 0.0088(3) 0.0068(3) 0.0020(3)
N1 0.0162(5) 0.0160(5) 0.0149(5) -0.0005(4) 0.0055(4) 0.0027(4)
C1 0.0154(5) 0.0145(5) 0.0141(5) 0.0013(4) 0.0055(4) 0.0021(4)
F2 0.0267(4) 0.0262(4) 0.0215(4) 0.0045(3) 0.0054(3) -0.0046(3)
N2 0.0152(5) 0.0163(4) 0.0137(4) 0.0013(4) 0.0051(4) 0.0038(4)
C2 0.0151(5) 0.0127(5) 0.0163(5) 0.0020(4) 0.0055(4) 0.0021(4)
C3 0.0194(6) 0.0158(5) 0.0198(6) 0.0003(4) 0.0087(5) 0.0049(4)
C4 0.0158(5) 0.0177(5) 0.0259(6) 0.0044(5) 0.0084(5) 0.0067(4)
C5 0.0147(5) 0.0195(6) 0.0180(6) 0.0044(4) 0.0030(4) 0.0031(4)
C6 0.0168(5) 0.0168(5) 0.0148(5) 0.0023(4) 0.0049(4) 0.0031(4)
C7 0.0146(5) 0.0133(5) 0.0144(5) 0.0024(4) 0.0051(4) 0.0029(4)
C8 0.0147(5) 0.0125(5) 0.0140(5) 0.0025(4) 0.0053(4) 0.0019(4)
C9 0.0120(5) 0.0155(5) 0.0146(5) -0.0003(4) 0.0050(4) 0.0003(4)
C10 0.0152(5) 0.0183(5) 0.0157(5) 0.0019(4) 0.0045(4) 0.0032(4)
C11 0.0185(6) 0.0254(6) 0.0130(5) 0.0010(4) 0.0052(4) 0.0002(5)
C12 0.0220(6) 0.0233(6) 0.0187(6) -0.0051(5) 0.0109(5) 0.0003(5)
C13 0.0224(6) 0.0170(5) 0.0262(6) 0.0001(5) 0.0124(5) 0.0048(5)
C14 0.0172(5) 0.0171(5) 0.0177(5) 0.0025(4) 0.0071(4) 0.0034(4)
C15 0.0158(5) 0.0184(5) 0.0126(5) -0.0012(4) 0.0051(4) 0.0065(4)
C16 0.0188(6) 0.0176(5) 0.0176(5) 0.0028(4) 0.0070(5) 0.0067(4)
C17 0.0158(6) 0.0209(6) 0.0231(6) -0.0026(5) 0.0020(5) 0.0042(5)
C18 0.0221(6) 0.0257(6) 0.0145(5) -0.0022(5) 0.0002(5) 0.0108(5)
C19 0.0272(6) 0.0224(6) 0.0141(5) 0.0026(4) 0.0067(5) 0.0100(5)
C20 0.0196(6) 0.0182(5) 0.0165(6) -0.0008(4) 0.0066(5) 0.0028(4)
loop_
_atom_type_symbol
_atom_type_description
_atom_type_scat_dispersion_real
_atom_type_scat_dispersion_imag
_atom_type_scat_source
C C 0.0033 0.0016 'International Tables Vol C Tables 4.2.6.8 and 6.1.1.4'
H H 0.0000 0.0000 'International Tables Vol C Tables 4.2.6.8 and 6.1.1.4'
F F 0.0171 0.0103 'International Tables Vol C Tables 4.2.6.8 and 6.1.1.4'
N N 0.0061 0.0033 'International Tables Vol C Tables 4.2.6.8 and 6.1.1.4'
loop_
_geom_angle_atom_site_label_1
_geom_angle_atom_site_label_2
_geom_angle_atom_site_label_3
_geom_angle
_geom_angle_site_symmetry_1
_geom_angle_site_symmetry_3
_geom_angle_publ_flag
C1 N1 C2 115.78(10) . . ?
N1 C1 N2 127.84(10) . . ?
N1 C1 C15 116.26(10) . . ?
N2 C1 C15 115.90(9) . . ?
C8 N2 C1 116.99(10) . . ?
N1 C2 C3 118.32(10) . . ?
N1 C2 C7 121.79(10) . . ?
C3 C2 C7 119.85(10) . . ?
C4 C3 C2 119.97(11) . . ?
C4 C3 H3 120.0 . . ?
C2 C3 H3 120.0 . . ?
C3 C4 C5 120.61(11) . . ?
C3 C4 H4 119.7 . . ?
C5 C4 H4 119.7 . . ?
C6 C5 C4 120.66(11) . . ?
C6 C5 H5 119.7 . . ?
C4 C5 H5 119.7 . . ?
C5 C6 C7 120.15(11) . . ?
C5 C6 H6 119.9 . . ?
C7 C6 H6 119.9 . . ?
C2 C7 C6 118.62(10) . . ?
C2 C7 C8 116.03(10) . . ?
C6 C7 C8 125.31(10) . . ?
N2 C8 C7 121.21(10) . . ?
N2 C8 C9 116.03(10) . . ?
C7 C8 C9 122.76(10) . . ?
C14 C9 C10 119.06(10) . . ?
C14 C9 C8 119.09(10) . . ?
C10 C9 C8 121.82(10) . . ?
C11 C10 C9 120.39(11) . . ?
C11 C10 H10 119.8 . . ?
C9 C10 H10 119.8 . . ?
C10 C11 C12 120.03(11) . . ?
C10 C11 H11 120.0 . . ?
C12 C11 H11 120.0 . . ?
C11 C12 C13 120.01(11) . . ?
C11 C12 H12 120.0 . . ?
C13 C12 H12 120.0 . . ?
C14 C13 C12 120.11(11) . . ?
C14 C13 H13 119.9 . . ?
C12 C13 H13 119.9 . . ?
C13 C14 C9 120.35(11) . . ?
C13 C14 H14 119.8 . . ?
C9 C14 H14 119.8 . . ?
C16 C15 C20 115.50(10) . . ?
C16 C15 C1 122.52(10) . . ?
C20 C15 C1 121.92(10) . . ?
F1 C16 C17 118.80(11) . . ?
F1 C16 C15 117.45(10) . . ?
C17 C16 C15 123.74(11) . . ?
C16 C17 C18 118.04(11) . . ?
C16 C17 H17 121.0 . . ?
C18 C17 H17 121.0 . . ?
C19 C18 C17 120.91(11) . . ?
C19 C18 H18 119.5 . . ?
C17 C18 H18 119.5 . . ?
C20 C19 C18 118.22(11) . . ?
C20 C19 H19 120.9 . . ?
C18 C19 H19 120.9 . . ?
F2 C20 C19 118.74(11) . . ?
F2 C20 C15 117.70(10) . . ?
C19 C20 C15 123.56(11) . . ?
loop_
_geom_bond_atom_site_label_1
_geom_bond_atom_site_label_2
_geom_bond_distance
_geom_bond_site_symmetry_2
_geom_bond_publ_flag
F1 C16 1.3542(14) . ?
N1 C1 1.3102(15) . ?
N1 C2 1.3667(15) . ?
C1 N2 1.3589(14) . ?
C1 C15 1.4968(15) . ?
F2 C20 1.3543(14) . ?
N2 C8 1.3269(14) . ?
C2 C3 1.4149(16) . ?
C2 C7 1.4184(15) . ?
C3 C4 1.3658(17) . ?
C3 H3 0.9500 . ?
C4 C5 1.4110(17) . ?
C4 H4 0.9500 . ?
C5 C6 1.3702(16) . ?
C5 H5 0.9500 . ?
C6 C7 1.4217(15) . ?
C6 H6 0.9500 . ?
C7 C8 1.4283(15) . ?
C8 C9 1.4857(15) . ?
C9 C14 1.3957(16) . ?
C9 C10 1.3986(16) . ?
C10 C11 1.3873(16) . ?
C10 H10 0.9500 . ?
C11 C12 1.3875(18) . ?
C11 H11 0.9500 . ?
C12 C13 1.3887(18) . ?
C12 H12 0.9500 . ?
C13 C14 1.3875(16) . ?
C13 H13 0.9500 . ?
C14 H14 0.9500 . ?
C15 C16 1.3827(16) . ?
C15 C20 1.3866(16) . ?
C16 C17 1.3807(17) . ?
C17 C18 1.3870(18) . ?
C17 H17 0.9500 . ?
C18 C19 1.3831(18) . ?
C18 H18 0.9500 . ?
C19 C20 1.3805(16) . ?
C19 H19 0.9500 . ?
