#------------------------------------------------------------------------------
#$Date: 2021-02-05 01:31:35 +0200 (Fri, 05 Feb 2021) $
#$Revision: 261767 $
#$URL: file:///home/coder/svn-repositories/cod/cif/7/15/78/7157825.cif $
#------------------------------------------------------------------------------
#
# This file is available in the Crystallography Open Database (COD),
# http://www.crystallography.net/
#
# All data on this site have been placed in the public domain by the
# contributors.
#
data_7157825
loop_
_publ_author_name
'Hu, Wangcheng'
'He, Xinwei'
'Zhou, Tongtong'
'Zuo, Youpeng'
'Zhang, Shiwen'
'Yang, Tingting'
'Shang, Yongjia'
_publ_section_title
;
 Construction of isoxazolone-fused phenanthridines <i>via</i> Rh-catalyzed
 cascade C-H activation/cyclization of 3-arylisoxazolones with cyclic
 2-diazo-1,3-diketones.
;
_journal_issue                   3
_journal_name_full               'Organic &amp; biomolecular chemistry'
_journal_page_first              552
_journal_page_last               556
_journal_paper_doi               10.1039/d0ob02310h
_journal_volume                  19
_journal_year                    2021
_chemical_formula_moiety         'C17 H15 N O3'
_chemical_formula_sum            'C17 H15 N O3'
_chemical_formula_weight         281.30
_space_group_crystal_system      triclinic
_space_group_IT_number           2
_space_group_name_Hall           '-P 1'
_space_group_name_H-M_alt        'P -1'
_atom_sites_solution_hydrogens   geom
_atom_sites_solution_primary     dual
_audit_creation_date             2019-05-21
_audit_creation_method
;
Olex2 1.2
(compiled 2018.05.29 svn.r3508 for OlexSys, GUI svn.r5506)
;
_audit_update_record
;
2020-11-19 deposited with the CCDC.	2020-12-18 downloaded from the CCDC.
;
_cell_angle_alpha                71.977(4)
_cell_angle_beta                 78.405(4)
_cell_angle_gamma                83.669(4)
_cell_formula_units_Z            2
_cell_length_a                   5.6716(5)
_cell_length_b                   11.2488(11)
_cell_length_c                   11.2777(10)
_cell_measurement_reflns_used    7722
_cell_measurement_temperature    293.15
_cell_measurement_theta_max      27.520
_cell_measurement_theta_min      3.672
_cell_volume                     669.34(11)
_computing_cell_refinement       'SAINT v8.37A (Bruker, 2015)'
_computing_data_collection       'SAINT v8.37A (Bruker, 2015)'
_computing_data_reduction        'SAINT v8.37A (Bruker, 2015)'
_computing_molecular_graphics    'Olex2 (Dolomanov et al., 2009)'
_computing_publication_material  'Olex2 (Dolomanov et al., 2009)'
_computing_structure_refinement  'ShelXL (Sheldrick, 2015)'
_computing_structure_solution    'ShelXT (Sheldrick, 2015)'
_diffrn_ambient_temperature      293.15
_diffrn_measured_fraction_theta_full 0.996
_diffrn_measured_fraction_theta_max 0.994
_diffrn_measurement_device_type  'Bruker APEX-II CCD'
_diffrn_measurement_method       '\f and \w scans'
_diffrn_radiation_type           MoK\a
_diffrn_radiation_wavelength     0.71073
_diffrn_reflns_av_R_equivalents  0.0308
_diffrn_reflns_av_unetI/netI     0.0195
_diffrn_reflns_Laue_measured_fraction_full 0.996
_diffrn_reflns_Laue_measured_fraction_max 0.994
_diffrn_reflns_limit_h_max       7
_diffrn_reflns_limit_h_min       -7
_diffrn_reflns_limit_k_max       14
_diffrn_reflns_limit_k_min       -14
_diffrn_reflns_limit_l_max       14
_diffrn_reflns_limit_l_min       -14
_diffrn_reflns_number            20030
_diffrn_reflns_point_group_measured_fraction_full 0.996
_diffrn_reflns_point_group_measured_fraction_max 0.994
_diffrn_reflns_theta_full        25.242
_diffrn_reflns_theta_max         27.562
_diffrn_reflns_theta_min         3.672
_diffrn_standards_number         0
_exptl_absorpt_coefficient_mu    0.096
_exptl_absorpt_correction_T_max  0.7456
_exptl_absorpt_correction_T_min  0.7028
_exptl_absorpt_correction_type   multi-scan
_exptl_absorpt_process_details
'SADABS-2014/5 (Bruker,2014/5) was used for absorption correction. wR2(int) was 0.0596 before and 0.0464 after correction. The Ratio of minimum to maximum transmission is 0.9426. The \l/2 correction factor is Not present.'
_exptl_crystal_colour            colourless
_exptl_crystal_colour_primary    colourless
_exptl_crystal_density_diffrn    1.396
_exptl_crystal_description       block
_exptl_crystal_F_000             296
_exptl_crystal_size_max          0.23
_exptl_crystal_size_mid          0.21
_exptl_crystal_size_min          0.2
_refine_diff_density_max         0.240
_refine_diff_density_min         -0.171
_refine_diff_density_rms         0.036
_refine_ls_extinction_method     none
_refine_ls_goodness_of_fit_ref   1.036
_refine_ls_hydrogen_treatment    constr
_refine_ls_matrix_type           full
_refine_ls_number_parameters     192
_refine_ls_number_reflns         3082
_refine_ls_number_restraints     0
_refine_ls_restrained_S_all      1.036
_refine_ls_R_factor_all          0.0588
_refine_ls_R_factor_gt           0.0429
_refine_ls_shift/su_max          0.000
_refine_ls_shift/su_mean         0.000
_refine_ls_structure_factor_coef Fsqd
_refine_ls_weighting_details
'w=1/[\s^2^(Fo^2^)+(0.0551P)^2^+0.1471P] where P=(Fo^2^+2Fc^2^)/3'
_refine_ls_weighting_scheme      calc
_refine_ls_wR_factor_gt          0.1052
_refine_ls_wR_factor_ref         0.1145
_reflns_Friedel_coverage         0.000
_reflns_number_gt                2398
_reflns_number_total             3082
_reflns_threshold_expression     'I > 2\s(I)'
_cod_data_source_file            d0ob02310h2.cif
_cod_data_source_block           20190520a
_cod_depositor_comments          'Adding full bibliography for 7157825.cif.'
_cod_database_code               7157825
_shelx_shelxl_version_number     2018/3
_shelx_space_group_comment
;
The symmetry employed for this shelxl refinement is uniquely defined
by the following loop, which should always be used as a source of
symmetry information in preference to the above space-group names.
They are only intended as comments.
;
_shelx_estimated_absorpt_t_max   0.981
_shelx_estimated_absorpt_t_min   0.978
_olex2_refinement_description
;
1. Fixed Uiso
 At 1.2 times of:
  All C(H) groups, All C(H,H) groups
 At 1.5 times of:
  All C(H,H,H) groups
2.a Secondary CH2 refined with riding coordinates:
 C12(H12A,H12B), C14(H14A,H14B)
2.b Aromatic/amide H refined with riding coordinates:
 C2(H2), C5(H5), C6(H6), C7(H7), C8(H8)
2.c Idealised Me refined as rotating group:
 C16(H16A,H16B,H16C), C17(H17A,H17B,H17C)
;
_shelx_res_file
;
TITL 20190520a_a.res in P-1
    20190520a.res
    created by SHELXL-2018/3 at 10:08:59 on 21-May-2019
REM Old TITL 20190520a in P-1
REM SHELXT solution in P-1: R1 0.151, Rweak 0.007, Alpha 0.049
REM <I/s> 0.000 for 0 systematic absences, Orientation as input
REM Formula found by SHELXT: C17 N O3
CELL 0.71073 5.6716 11.2488 11.2777 71.977 78.405 83.669
ZERR 2 0.0005 0.0011 0.001 0.004 0.004 0.004
LATT 1
SFAC C H N O
UNIT 34 30 2 6

L.S. 4 0 0
PLAN  1
SIZE 0.2 0.21 0.23
TEMP 20
BOND $H
conf
more -1
list 4
fmap 2 53
acta
REM <olex2.extras>
REM <HklSrc "%.\\20190520a.hkl">
REM </olex2.extras>

WGHT    0.055100    0.147100
FVAR       1.32701
O1    4    0.059412    0.771806    0.604181    11.00000    0.03699    0.04306 =
         0.04426   -0.01108   -0.02255    0.00084
O2    4   -0.149238    0.711302    0.483801    11.00000    0.06185    0.06829 =
         0.05348   -0.01216   -0.03475   -0.00901
O3    4    0.784912    0.736892    0.926161    11.00000    0.05171    0.05101 =
         0.06674   -0.01807   -0.03747    0.00278
N1    3    0.238962    0.714568    0.673081    11.00000    0.03196    0.03691 =
         0.03868   -0.01179   -0.01695    0.00102
C1    1    0.008374    0.681360    0.546921    11.00000    0.04474    0.04949 =
         0.03348   -0.00922   -0.01230   -0.01338
C2    1    0.164564    0.576075    0.583737    11.00000    0.04850    0.04279 =
         0.03534   -0.01282   -0.01174   -0.00944
AFIX  43
H2    2    0.173793    0.503631    0.559439    11.00000   -1.20000
AFIX   0
C3    1    0.300406    0.597881    0.661082    11.00000    0.03499    0.03365 =
         0.02974   -0.00940   -0.00429   -0.00675
C4    1    0.480723    0.526945    0.731185    11.00000    0.03321    0.03190 =
         0.03027   -0.00700   -0.00344   -0.00372
C5    1    0.550939    0.405052    0.725999    11.00000    0.05032    0.03491 =
         0.04196   -0.01363   -0.00511   -0.00381
AFIX  43
H5    2    0.480893    0.370388    0.677359    11.00000   -1.20000
AFIX   0
C6    1    0.722431    0.337138    0.792468    11.00000    0.05501    0.03211 =
         0.05354   -0.01034   -0.00680    0.00574
AFIX  43
H6    2    0.771378    0.256790    0.787811    11.00000   -1.20000
AFIX   0
C7    1    0.823412    0.387921    0.866791    11.00000    0.04175    0.03941 =
         0.04960   -0.00317   -0.01166    0.00706
AFIX  43
H7    2    0.938587    0.340731    0.912603    11.00000   -1.20000
AFIX   0
C8    1    0.755769    0.507222    0.873829    11.00000    0.03662    0.03899 =
         0.03867   -0.00684   -0.01112    0.00108
AFIX  43
H8    2    0.824897    0.539025    0.925031    11.00000   -1.20000
AFIX   0
C9    1    0.583742    0.581979    0.804874    11.00000    0.02821    0.03198 =
         0.02845   -0.00640   -0.00299   -0.00242
C10   1    0.505844    0.709642    0.806798    11.00000    0.02772    0.03145 =
         0.02990   -0.00822   -0.00685   -0.00190
C11   1    0.607211    0.775984    0.877554    11.00000    0.03673    0.03469 =
         0.03126   -0.00663   -0.01114   -0.00484
C12   1    0.480720    0.897148    0.890643    11.00000    0.05587    0.03814 =
         0.03752   -0.01459   -0.01829    0.00100
AFIX  23
H12A  2    0.591209    0.943443    0.912728    11.00000   -1.20000
H12B  2    0.345763    0.878123    0.960435    11.00000   -1.20000
AFIX   0
C13   1    0.387015    0.981443    0.773006    11.00000    0.03695    0.03095 =
         0.03691   -0.00974   -0.01134   -0.00066
C14   1    0.227781    0.904100    0.734400    11.00000    0.03099    0.03557 =
         0.04739   -0.01404   -0.01353    0.00316
AFIX  23
H14A  2    0.071984    0.898407    0.789786    11.00000   -1.20000
H14B  2    0.202108    0.947311    0.648750    11.00000   -1.20000
AFIX   0
C15   1    0.331060    0.774525    0.739798    11.00000    0.02742    0.03309 =
         0.03265   -0.01059   -0.00696   -0.00319
C16   1    0.235736    1.092263    0.804879    11.00000    0.06007    0.03706 =
         0.05331   -0.01708   -0.01600    0.00654
AFIX 137
H16A  2    0.175512    1.144616    0.731154    11.00000   -1.50000
H16B  2    0.333796    1.139838    0.831774    11.00000   -1.50000
H16C  2    0.102895    1.061931    0.871726    11.00000   -1.50000
AFIX   0
C17   1    0.594781    1.029551    0.664896    11.00000    0.04435    0.04358 =
         0.05040   -0.00586   -0.00838   -0.00665
AFIX 137
H17A  2    0.683198    0.960198    0.641066    11.00000   -1.50000
H17B  2    0.699881    1.073303    0.691970    11.00000   -1.50000
H17C  2    0.532137    1.085457    0.593554    11.00000   -1.50000
AFIX   0
HKLF 4




REM  20190520a_a.res in P-1
REM wR2 = 0.1145, GooF = S = 1.036, Restrained GooF = 1.036 for all data
REM R1 = 0.0429 for 2398 Fo > 4sig(Fo) and 0.0588 for all 3082 data
REM 192 parameters refined using 0 restraints

END

WGHT      0.0552      0.1468

REM Highest difference peak  0.240,  deepest hole -0.171,  1-sigma level  0.036
Q1    1   0.5500  0.5574  0.7580  11.00000  0.05    0.24
;
_shelx_res_checksum              5414
_shelx_hkl_file
;
  -1   0   0 1934.11   25.50
  -1   0   0 1893.51   25.50
  -1   0   0 1921.51   25.90
   1   0   0 1820.42   25.50
   1   0   0 1812.62   25.80
   1   0   0 1909.61   25.50
  -2   0   0  544.05    9.10
  -2   0   0  525.95    8.50
  -2   0   0  533.45    8.50
   2   0   0  543.65    7.80
   2   0   0  525.25    9.00
   2   0   0  543.95    8.40
   2   0   0  537.95    8.40
   2   0   0  535.05    9.40
  -3   0   0  473.85    8.50
  -3   0   0  476.25    9.30
  -3   0   0  472.55    8.50
   3   0   0  470.05    8.10
   3   0   0  463.85    8.10
   3   0   0  465.95    9.80
   3   0   0  462.35    9.20
  -4   0   0  296.77    7.00
  -4   0   0  299.57    7.10
  -4   0   0  306.27    8.10
   4   0   0  300.67    6.40
   4   0   0  308.87    7.90
   4   0   0  313.37    8.80
   4   0   0  296.27    6.40
  -5   0   0   55.79    5.70
  -5   0   0   62.09    4.80
  -5   0   0   56.79    4.60
   5   0   0   48.00    8.90
   5   0   0   64.89    4.00
   5   0   0   65.59    3.70
   5   0   0   59.19    3.90
  -6   0   0    2.10    3.60
  -6   0   0    1.40    3.10
  -6   0   0    1.70    2.80
   6   0   0   -2.70    4.20
   6   0   0    2.40    2.60
   6   0   0    4.50    2.30
  -7   0   0    8.80    4.10
   7   0   0   14.40    3.00
   7   0   0    9.00    3.40
   7   0   0   13.70    5.80
   7  -1   0   87.09   10.20
   7  -1   0   80.49    6.30
  -7   1   0   65.99    6.90
   6  -1   0   18.20    3.00
   6  -1   0    7.90    2.20
   6  -1   0   10.80    2.50
   6  -1   0   13.50    4.50
  -6   1   0   13.10    4.00
  -6   1   0   16.80    3.50
  -6   1   0   13.10    3.20
   5  -1   0    6.10    1.80
   5  -1   0    3.90    2.10
   5  -1   0   10.60    3.70
   5  -1   0    3.80    2.00
  -5   1   0    3.70    2.40
  -5   1   0    4.10    2.90
  -5   1   0    7.80    2.60
   4  -1   0  615.44   11.20
   4  -1   0  645.24   10.50
   4  -1   0  637.34   13.40
   4  -1   0  636.34   10.40
  -4   1   0  652.63   11.40
  -4   1   0  585.94   16.40
  -4   1   0  641.44   11.30
   3  -1   0  430.86    7.30
   3  -1   0  421.46    7.20
   3  -1   0  418.66    9.30
   3  -1   0  412.76    7.20
  -3   1   0  427.16    8.70
  -3   1   0  426.26    7.80
  -3   1   0  419.46    7.70
   2  -1   0   55.39    1.90
   2  -1   0   60.39    2.10
   2  -1   0   54.59    2.10
   2  -1   0   53.69    3.20
  -2   1   0   54.29    2.80
  -2   1   0   53.59    2.30
  -2   1   0   56.29    2.20
   1  -1   0 1231.58   17.30
   1  -1   0 1224.18   17.40
   1  -1   0 1252.77   18.20
   1  -1   0 1371.76   17.50
  -1   1   0 1279.77   18.30
  -1   1   0 1286.67   17.40
  -1   1   0 1294.27   17.40
  -1   1   0 1250.77   17.20
  -1  -1   0  274.67    4.60
  -1  -1   0  280.17    4.70
   1   1   0  272.47    4.80
   1   1   0  281.27    4.70
   1   1   0  277.47    4.60
  -2  -1   0    0.60    1.20
  -2  -1   0    0.80    1.20
  -2  -1   0    0.80    1.10
   2   1   0   -0.70    1.10
   2   1   0   -1.00    1.10
   2   1   0   -0.40    1.00
  -3  -1   0  133.89    4.20
  -3  -1   0  135.99    4.80
  -3  -1   0  138.29    4.20
   3   1   0  131.39    4.00
   3   1   0  134.09    4.60
   3   1   0  136.59    4.00
   3   1   0  139.49    3.90
  -4  -1   0   62.09    4.10
  -4  -1   0   59.39    4.60
  -4  -1   0   68.29    4.00
   4   1   0   66.99    3.10
   4   1   0   65.19    5.20
   4   1   0   70.99    4.50
   4   1   0   66.79    3.50
   4   1   0   65.79    3.70
  -5  -1   0  135.59    5.90
  -5  -1   0  141.19    6.70
  -5  -1   0  143.89    5.90
   5   1   0  133.99    5.30
   5   1   0  134.89    6.60
   5   1   0  137.09    5.10
  -6  -1   0   26.10    3.80
  -6  -1   0   23.50    3.40
  -6  -1   0   25.70    4.40
   6   1   0   28.50    3.40
   6   1   0   29.10    3.20
   6   1   0   29.80    3.20
   6   1   0   32.90    5.50
  -7  -1   0   -4.10    3.80
   7   1   0   -2.10    3.20
   7   1   0    2.90    3.30
   7   1   0    2.10    4.50
   7   1   0   -4.80    5.40
   7  -2   0   32.10    6.50
   7  -2   0   30.40    4.10
  -7   2   0   31.90    4.60
   6  -2   0   55.09    5.00
   6  -2   0   54.09    3.50
   6  -2   0   56.09    8.00
   6  -2   0   53.99    3.00
  -6   2   0   51.99    5.00
  -6   2   0   53.59    5.70
  -6   2   0   61.69    6.90
   5  -2   0    9.00    1.90
   5  -2   0    9.20    3.90
   5  -2   0    5.80    1.60
   5  -2   0    3.00    2.20
  -5   2   0    2.60    2.60
  -5   2   0    5.70    2.40
  -5   2   0    5.30    3.10
   4  -2   0    7.40    2.90
   4  -2   0    7.60    1.60
   4  -2   0    6.90    1.90
   4  -2   0    6.20    1.40
  -4   2   0    7.10    2.00
  -4   2   0    9.10    2.60
  -4   2   0    6.60    2.00
   3  -2   0  493.85    8.30
   3  -2   0  478.75   10.20
   3  -2   0  485.05    7.90
   3  -2   0  496.25    7.90
  -3   2   0  479.65    8.50
  -3   2   0  496.15    8.60
  -3   2   0  506.25    9.90
   2  -2   0  140.09    4.60
   2  -2   0  141.99    3.40
   2  -2   0  140.99    3.00
   2  -2   0  140.39    2.90
  -2   2   0  141.19    3.30
  -2   2   0  132.69    4.60
  -2   2   0  140.79    3.30
  -2   2   0  140.39    4.30
   1  -2   0  475.65    7.00
   1  -2   0  449.66    6.60
   1  -2   0  453.05    7.80
   1  -2   0  445.76    6.60
  -1   2   0  448.06    7.40
  -1   2   0  443.26    7.80
  -1   2   0  453.55    6.80
  -1   2   0  458.45    6.80
   0  -2   0  360.06    5.30
   0  -2   0  348.27    5.30
   0  -2   0  345.07    5.30
   0  -2   0  349.77    5.60
   0   2   0  347.67    5.30
   0   2   0  342.57    5.60
   0   2   0  334.27    5.30
  -2  -2   0    0.10    1.40
  -2  -2   0   -0.10    1.10
  -2  -2   0   -0.80    1.20
   2   2   0   -1.10    1.20
   2   2   0   -0.20    1.20
  -3  -2   0   64.59    3.70
  -3  -2   0   67.39    3.50
  -3  -2   0   62.49    3.50
   3   2   0   66.49    3.60
   3   2   0   71.29    3.80
   3   2   0   66.59    3.40
   3   2   0   66.89    3.30
  -4  -2   0   26.70    4.50
  -4  -2   0   39.10    4.00
  -4  -2   0   41.40    4.40
   4   2   0   43.10    3.70
   4   2   0   37.90    3.40
   4   2   0   34.20    3.90
   4   2   0   39.20    3.70
  -5  -2   0    7.10    3.10
  -5  -2   0   11.80    4.90
  -5  -2   0   11.00    3.10
   5   2   0   14.60    2.80
   5   2   0   13.10    2.50
   5   2   0    9.10    1.70
   5   2   0   11.10    3.00
  -6  -2   0    0.20    3.00
  -6  -2   0   -6.90    4.10
  -6  -2   0   -2.00    3.20
   6   2   0    1.50    2.80
   6   2   0   -3.30    3.30
   6   2   0   -0.10    2.80
   6   2   0   -1.00    4.10
  -7  -2   0    7.30    3.90
   7   2   0   -2.50    3.30
   7   2   0    2.50    5.50
   7   2   0   -3.70    3.70
   6  -3   0   13.90    4.80
   6  -3   0   14.70    2.90
  -6   3   0   14.20    3.50
  -6   3   0   12.50    4.00
  -6   3   0    9.70    3.00
   5  -3   0   72.79    2.70
   5  -3   0   92.09    7.30
   5  -3   0   76.59    2.90
   5  -3   0   80.39    4.70
  -5   3   0   77.79    4.60
  -5   3   0   77.59    5.00
   4  -3   0  299.57    5.60
   4  -3   0  307.57    6.80
   4  -3   0  305.07    5.50
   4  -3   0  312.67    9.30
  -4   3   0  304.87    6.80
  -4   3   0  304.97    8.50
  -4   3   0  313.17    7.00
   3  -3   0    5.80    2.30
   3  -3   0    3.60    1.20
   3  -3   0    3.20    1.00
  -3   3   0    2.10    1.40
  -3   3   0    2.80    1.40
  -3   3   0    4.40    2.00
  -3   3   0    4.90    2.40
   2  -3   0   44.40    1.80
   2  -3   0   44.30    1.90
   2  -3   0   41.80    3.60
   2  -3   0   44.90    2.70
  -2   3   0   44.70    2.30
  -2   3   0   43.60    3.70
  -2   3   0   36.90    3.00
  -2   3   0   46.50    2.50
  -2   3   0   44.80    2.30
   1  -3   0  916.11   13.80
   1  -3   0  901.61   12.80
   1  -3   0  902.41   14.20
   1  -3   0  947.91   13.40
   1  -3   0  908.41   12.90
  -1   3   0  899.71   13.00
  -1   3   0  915.81   13.80
  -1   3   0  913.11   14.30
  -1   3   0  931.71   13.20
   0  -3   0 1171.48   16.20
   0  -3   0 1195.18   16.20
   0  -3   0 1149.58   16.10
   0  -3   0 1131.99   16.50
   0   3   0 1117.99   16.50
   0   3   0 1112.49   16.20
   0   3   0 1134.09   16.20
  -1  -3   0 1395.16   19.70
  -1  -3   0 1420.36   20.00
  -1  -3   0 1403.96   19.20
   1   3   0 1363.76   19.70
   1   3   0 1347.77   19.80
   1   3   0 1369.76   20.00
  -2  -3   0    3.70    1.10
  -2  -3   0    1.60    1.70
  -2  -3   0    1.50    1.60
  -2  -3   0    1.40    1.50
   2   3   0    2.40    1.40
   2   3   0    3.70    1.60
   2   3   0    1.70    1.50
  -3  -3   0    8.50    2.00
  -3  -3   0    9.70    1.90
  -3  -3   0    7.80    2.20
   3   3   0    7.70    1.80
   3   3   0    7.60    1.80
   3   3   0    9.20    2.00
  -4  -3   0  449.86   10.30
  -4  -3   0  437.36    9.40
  -4  -3   0  442.96    9.50
   4   3   0  462.15    9.80
   4   3   0  432.86   10.40
   4   3   0  446.46    9.20
   4   3   0  426.26    9.70
  -5  -3   0   -2.80    2.60
  -5  -3   0    1.80    2.60
   5   3   0    0.20    1.90
   5   3   0   -0.30    2.60
   5   3   0    0.40    2.30
   5   3   0    2.00    2.50
  -6  -3   0   -1.20    3.10
  -6  -3   0    1.80    3.30
  -6  -3   0    3.60    3.40
   6   3   0    3.00    3.10
   6   3   0   -0.70    1.90
   6   3   0   -0.40    4.30
   6   3   0    1.70    3.00
   6   3   0    2.10    3.60
  -7  -3   0   18.90    4.60
   7   3   0   26.90    6.40
   7   3   0   29.80    4.60
   7   3   0   32.10    4.70
   7   3   0   17.70    5.40
   6  -4   0   39.60    4.00
   6  -4   0   42.00    6.20
  -6   4   0   45.70    5.60
  -6   4   0   38.00    3.90
   5  -4   0    4.50    2.50
   5  -4   0    8.20    3.90
  -5   4   0   12.20    2.60
  -5   4   0    9.60    2.90
   4  -4   0   -0.40    2.90
   4  -4   0   -1.80    2.00
  -4   4   0   -1.30    1.80
  -4   4   0   -0.80    3.20
  -4   4   0   -0.90    1.90
  -4   4   0    2.60    2.60
   3  -4   0   34.70    4.10
   3  -4   0   24.90    2.90
   3  -4   0   30.60    1.70
   3  -4   0   31.30    1.80
  -3   4   0   27.70    3.00
  -3   4   0   34.00    2.60
  -3   4   0   31.70    4.30
  -3   4   0   32.30    2.50
  -3   4   0   30.20    2.10
  -3   4   0   29.90    3.30
   2  -4   0  565.34    9.70
   2  -4   0  571.84    8.50
   2  -4   0  571.14    8.60
   2  -4   0  583.64   11.10
  -2   4   0  569.54    9.20
  -2   4   0  584.24    9.30
  -2   4   0  557.34   10.20
  -2   4   0  582.34   11.20
  -2   4   0  580.14    9.90
   1  -4   0    9.00    1.20
   1  -4   0    7.60    1.50
   1  -4   0   11.80    1.20
   1  -4   0   14.00    1.60
  -1   4   0    8.50    1.80
  -1   4   0   13.30    1.70
  -1   4   0    9.70    1.30
  -1   4   0    8.90    1.50
   0  -4   0  827.42   12.40
   0  -4   0  861.31   12.40
   0  -4   0  834.82   12.30
   0  -4   0  831.22   12.90
   0   4   0  816.62   12.90
   0   4   0  829.92   12.40
   0   4   0  826.62   12.50
  -1  -4   0   10.40    1.60
  -1  -4   0   13.60    1.30
  -1  -4   0    8.80    1.40
  -1  -4   0   13.30    1.60
   1   4   0   10.50    1.60
   1   4   0    9.30    1.60
   1   4   0   11.40    1.40
  -2  -4   0  502.25    9.00
  -2  -4   0  516.85    9.60
  -2  -4   0  505.25    8.00
   2   4   0  493.75    9.50
   2   4   0  508.75    9.20
   2   4   0  495.25    9.00
  -3  -4   0    5.10    1.90
  -3  -4   0    4.10    2.20
  -3  -4   0    6.30    2.00
   3   4   0    2.80    1.70
   3   4   0    6.40    1.90
   3   4   0    6.40    2.10
  -4  -4   0   47.60    5.30
  -4  -4   0   44.40    4.60
  -4  -4   0   40.60    4.30
   4   4   0   53.39    5.20
   4   4   0   43.80    4.40
   4   4   0   46.60    4.20
   4   4   0   46.00    4.30
  -5  -4   0   87.19    6.00
  -5  -4   0   74.89    5.60
   5   4   0   85.69    6.00
   5   4   0   81.39    5.40
   5   4   0   90.99    5.50
   5   4   0   74.59    5.60
  -6  -4   0    5.60    3.50
  -6  -4   0   12.90    3.50
   6   4   0   12.80    3.60
   6   4   0   11.40    3.70
   7   4   0  172.48   11.70
   7   4   0  176.78    9.20
   7   4   0  148.19    8.20
   7   4   0  161.08   10.70
   6  -5   0   -2.80    4.70
   6  -5   0    0.80    3.10
  -6   5   0    1.40    3.40
  -6   5   0    4.10    3.50
  -6   5   0   -3.40    2.80
   5  -5   0   18.80    4.40
   5  -5   0   19.50    3.10
  -5   5   0   24.40    3.90
  -5   5   0   18.90    2.80
  -5   5   0   18.90    3.30
  -5   5   0   23.30    3.30
   4  -5   0  899.61   15.30
   4  -5   0  811.72   23.90
  -4   5   0  906.31   15.10
  -4   5   0  955.70   21.10
  -4   5   0  909.61   15.00
  -4   5   0  951.30   17.80
   3  -5   0   68.09    3.80
   3  -5   0   69.39    5.10
  -3   5   0   72.09    5.30
  -3   5   0   72.39    4.20
  -3   5   0   72.09    3.20
  -3   5   0   69.19    3.20
  -3   5   0   75.19    3.40
   2  -5   0  246.08    5.60
   2  -5   0  243.08    4.30
   2  -5   0  247.78    6.90
   2  -5   0  240.28    4.30
  -2   5   0  252.07    5.20
  -2   5   0  245.28    6.20
  -2   5   0  244.98    6.10
  -2   5   0  244.68    5.10
  -2   5   0  245.98    7.00
   1  -5   0   32.50    3.20
   1  -5   0   39.20    2.20
   1  -5   0   38.90    2.10
   1  -5   0   40.70    3.10
  -1   5   0   37.60    3.10
  -1   5   0   39.70    3.60
  -1   5   0   38.80    2.50
  -1   5   0   39.10    2.40
   0  -5   0  234.78    5.00
   0  -5   0  238.08    5.60
   0  -5   0  227.68    4.90
   0  -5   0  240.68    4.80
   0   5   0  233.78    5.20
   0   5   0  234.28    5.60
   0   5   0  230.28    5.00
  -1  -5   0  322.67    6.40
  -1  -5   0  322.67    5.90
  -1  -5   0  312.67    6.50
  -1  -5   0  318.07    6.80
   1   5   0  320.37    6.60
   1   5   0  306.07    6.40
   1   5   0  313.67    6.90
  -2  -5   0   59.99    4.00
  -2  -5   0   59.99    3.40
  -2  -5   0   61.39    2.50
  -2  -5   0   57.29    3.60
   2   5   0   55.89    3.70
   2   5   0   61.29    3.30
   2   5   0   58.89    3.90
  -3  -5   0  833.92   15.80
  -3  -5   0  852.61   14.60
  -3  -5   0  878.71   18.30
  -3  -5   0  850.51   12.80
   3   5   0  757.52   17.90
   3   5   0  862.11   14.40
   3   5   0  838.02   14.60
  -4  -5   0  505.55   10.80
  -4  -5   0  502.15   12.00
  -4  -5   0  510.95   11.00
   4   5   0  509.25   12.10
   4   5   0  492.75   11.00
   4   5   0  502.15   10.80
   4   5   0  520.05   10.80
  -5  -5   0   15.80    3.50
  -5  -5   0    9.10    3.10
   5   5   0   15.90    3.30
   5   5   0   17.00    3.30
   5   5   0   15.90    3.30
  -6  -5   0    8.10    3.70
   6   5   0   -0.30    3.00
   6   5   0    7.10    3.30
   6   5   0    3.90    3.50
   6   5   0    2.60    3.40
   6  -6   0    3.00    5.20
   6  -6   0    0.00    3.40
  -6   6   0   -3.60    3.60
  -6   6   0    1.30    3.20
  -6   6   0    2.90    3.20
   5  -6   0    6.20    4.30
   5  -6   0    0.80    2.80
  -5   6   0   -0.90    3.20
  -5   6   0    2.70    2.70
  -5   6   0    1.60    2.80
  -5   6   0   -2.40    2.60
   4  -6   0   -0.40    3.40
   4  -6   0    4.50    2.60
  -4   6   0    3.90    2.60
  -4   6   0    6.10    2.10
   3  -6   0   22.60    3.60
   3  -6   0   18.60    2.70
  -3   6   0   26.00    2.90
  -3   6   0   22.60    2.90
  -3   6   0   24.20    3.50
  -3   6   0   19.50    2.70
  -3   6   0   26.00    3.90
   2  -6   0    8.30    1.20
   2  -6   0   12.00    1.20
   2  -6   0    7.50    1.90
  -2   6   0    8.00    1.90
  -2   6   0   11.10    1.70
  -2   6   0   10.10    2.80
  -2   6   0   11.00    2.00
  -2   6   0    9.70    1.70
   1  -6   0  195.88    4.20
   1  -6   0  204.08    5.50
   1  -6   0  192.08    4.10
  -1   6   0  200.18    6.10
  -1   6   0  203.98    4.80
  -1   6   0  200.38    4.70
  -1   6   0  204.28    6.70
  -1   6   0  206.98    5.60
   0  -6   0 1469.45   21.40
   0  -6   0 1478.05   22.20
   0  -6   0 1450.85   21.10
   0  -6   0 1471.15   21.30
   0   6   0 1449.85   22.20
   0   6   0 1447.26   21.50
   0   6   0 1460.55   21.60
  -1  -6   0  477.45    8.90
  -1  -6   0  485.35    8.70
  -1  -6   0  492.75    9.40
  -1  -6   0  447.36    9.00
   1   6   0  493.95    9.10
   1   6   0  484.05    9.50
   1   6   0  494.65    8.90
  -2  -6   0  159.48    5.60
  -2  -6   0  160.58    4.10
  -2  -6   0  156.38    5.10
  -2  -6   0  157.88    5.00
   2   6   0  166.68    5.20
   2   6   0  159.68    4.90
   2   6   0  162.88    5.60
  -3  -6   0  263.97    7.00
  -3  -6   0  251.57    6.20
  -3  -6   0  249.88    7.10
  -3  -6   0  257.97    7.70
   3   6   0  257.27    6.90
   3   6   0  266.17    7.20
   3   6   0  267.17    7.20
   3   6   0  256.17   10.80
  -4  -6   0   10.80    3.10
   4   6   0   11.80    2.80
   4   6   0    9.30    2.90
   4   6   0   12.00    3.00
  -5  -6   0   34.00    4.30
   5   6   0   28.50    4.10
   5   6   0   21.40    3.50
   5   6   0   35.20    4.20
  -6  -6   0   -1.80    3.70
   6   6   0   -1.20    3.60
   6   6   0   -4.40    3.20
   6   6   0    3.00    3.90
   6  -7   0    3.30    3.70
  -6   7   0    1.40    3.90
   5  -7   0    5.30    4.50
   5  -7   0    4.40    3.00
  -5   7   0    0.30    3.00
  -5   7   0    4.70    2.60
  -5   7   0    3.60    3.10
   4  -7   0    2.90    3.50
   4  -7   0    2.20    2.60
  -4   7   0   -0.70    1.30
  -4   7   0   -1.60    2.20
  -4   7   0   -2.10    1.90
  -4   7   0    3.50    2.60
   3  -7   0  126.69    5.40
   3  -7   0  138.09    9.50
  -3   7   0  130.89    4.50
  -3   7   0  137.09    7.00
  -3   7   0  132.89    4.70
  -3   7   0  109.59    9.50
  -3   7   0  132.19    5.60
   2  -7   0  113.59    2.90
   2  -7   0  108.79    2.90
   2  -7   0  112.19    4.60
  -2   7   0  119.69    5.80
  -2   7   0  115.69    6.10
  -2   7   0  113.29    4.00
  -2   7   0  115.79    5.20
  -2   7   0  113.49    3.90
   1  -7   0   11.60    2.20
   1  -7   0   14.30    1.60
   1  -7   0   10.70    2.50
   1  -7   0   11.10    1.60
  -1   7   0   10.30    2.40
  -1   7   0   10.30    2.00
  -1   7   0   11.10    2.50
  -1   7   0   11.40    1.80
  -1   7   0   11.20    1.90
   0  -7   0   34.10    2.60
   0  -7   0   28.60    2.80
   0  -7   0   32.40    3.40
   0  -7   0   37.00    3.00
   0   7   0   35.90    3.60
   0   7   0   32.60    3.10
   0   7   0   34.00    2.90
  -1  -7   0   57.49    3.90
  -1  -7   0   48.80    3.50
  -1  -7   0   58.29    3.10
  -1  -7   0   56.79    3.30
   1   7   0   54.39    4.20
   1   7   0   50.89    3.60
   1   7   0   54.49    3.30
  -2  -7   0   51.99    3.10
  -2  -7   0   51.69    4.40
  -2  -7   0   47.00    2.90
  -2  -7   0   49.30    4.00
   2   7   0   57.99    3.80
   2   7   0   47.90    4.40
   2   7   0   50.39    4.10
  -3  -7   0   76.39    3.50
  -3  -7   0   81.39    5.20
  -3  -7   0   80.79    5.00
  -3  -7   0   80.69    5.50
   3   7   0   74.19    4.90
   3   7   0   86.59    5.00
   3   7   0   90.29    7.30
   3   7   0   76.99    5.10
  -4  -7   0   47.70    5.30
   4   7   0   44.70    4.80
   4   7   0   46.90    6.80
   4   7   0   53.59    5.40
  -5  -7   0   18.80    4.10
  -5  -7   0    8.80    3.10
  -5  -7   0   11.00    3.20
   5   7   0   15.70    3.80
   5   7   0    6.60    3.20
   5   7   0    8.30    3.60
   5   7   0   18.20    3.60
  -6  -7   0   12.60    4.30
   6   7   0   15.30    4.60
   6   7   0   15.20    4.50
   5  -8   0    9.30    3.60
   5  -8   0    6.80    5.00
  -5   8   0   13.70    3.70
  -5   8   0   14.70    3.50
  -5   8   0   10.90    2.90
   4  -8   0   22.10    3.40
   4  -8   0   18.30    4.50
  -4   8   0   26.00    3.60
  -4   8   0   26.30    2.90
  -4   8   0   27.30    4.50
  -4   8   0   18.20    4.50
  -4   8   0   29.10    3.30
  -4   8   0   16.90    2.30
   3  -8   0   -3.90    2.40
  -3   8   0    1.40    2.10
  -3   8   0    4.70    2.30
  -3   8   0    1.90    1.90
  -3   8   0    1.20    2.30
   2  -8   0    0.60    1.20
   2  -8   0    2.60    2.20
   2  -8   0    3.00    1.20
  -2   8   0    1.70    2.90
  -2   8   0    0.90    1.70
  -2   8   0    1.50    1.80
  -2   8   0    1.60    2.20
  -2   8   0   -0.90    2.30
   1  -8   0   30.00    2.70
   1  -8   0   26.50    2.50
   1  -8   0   28.10    3.80
   1  -8   0   25.60    2.80
  -1   8   0   29.40    3.00
  -1   8   0   28.50    3.90
  -1   8   0   33.30    3.80
  -1   8   0   26.80    3.20
  -1   8   0   28.10    4.00
   0  -8   0   65.09    3.60
   0  -8   0   68.49    4.30
   0  -8   0   65.29    3.40
   0  -8   0   61.69    3.90
   0   8   0   66.79    4.00
   0   8   0   64.89    3.80
   0   8   0   72.29    6.40
   0   8   0   71.69    4.60
  -1  -8   0    0.50    1.90
  -1  -8   0    2.80    1.80
  -1  -8   0   -0.70    2.00
  -1  -8   0    2.60    2.10
   1   8   0   -0.60    2.20
   1   8   0    0.70    1.80
   1   8   0    1.70    2.00
  -2  -8   0  196.88    5.40
  -2  -8   0  205.28    6.60
  -2  -8   0  201.48    7.00
  -2  -8   0  211.28    6.40
   2   8   0  193.88    6.30
   2   8   0  207.78    9.10
   2   8   0  191.78    7.00
   2   8   0  205.48    6.60
  -3  -8   0   -0.40    1.90
  -3  -8   0   -0.40    2.50
  -3  -8   0    2.10    2.90
   3   8   0   -2.50    2.60
   3   8   0    0.30    3.00
   3   8   0    2.60    2.50
  -4  -8   0   25.80    3.50
  -4  -8   0   20.30    3.60
  -4  -8   0   24.30    4.90
   4   8   0   19.30    3.30
   4   8   0   26.90    3.70
   4   8   0   17.90    3.30
   4   8   0   15.90    3.70
  -5  -8   0    1.30    3.90
  -5  -8   0    5.20    6.30
   5   8   0   -1.40    4.20
   5   8   0   10.60    4.40
   5   8   0    2.30    3.50
   5   8   0    6.20    3.70
  -6  -8   0    5.70    8.30
  -6  -8   0   -8.50    5.90
   6   8   0   -8.10    4.00
   6   8   0    4.20    4.40
   6   8   0   -5.40    4.70
   5  -9   0   -1.00    3.20
  -5   9   0   -1.00    3.40
  -5   9   0   -0.50    3.00
  -5   9   0   -1.10    3.40
   4  -9   0    8.00    3.20
  -4   9   0   12.20    2.80
  -4   9   0   10.10    3.40
  -4   9   0   15.00    3.20
   3  -9   0   -2.20    2.10
  -3   9   0   -0.30    2.70
  -3   9   0    2.30    2.10
  -3   9   0   -2.80    2.30
  -3   9   0   -2.10    3.10
   2  -9   0  140.79    5.80
  -2   9   0  150.28    6.70
  -2   9   0  155.08    7.40
  -2   9   0  151.68    5.20
  -2   9   0  158.68    5.50
  -2   9   0  149.59    7.60
   1  -9   0    0.30    2.20
   1  -9   0    2.90    1.80
   1  -9   0    1.20    1.60
   1  -9   0    4.20    2.30
  -1   9   0    1.10    2.80
  -1   9   0    2.40    2.00
  -1   9   0    4.50    2.20
  -1   9   0    2.60    2.70
   0  -9   0    7.10    2.00
   0  -9   0    7.40    2.30
   0  -9   0    3.60    2.30
   0  -9   0    6.50    2.10
   0   9   0    5.30    2.40
   0   9   0    4.20    2.20
   0   9   0    6.20    2.90
   0   9   0    8.00    3.00
   0   9   0    7.70    2.40
  -1  -9   0    7.60    2.40
  -1  -9   0    2.70    2.40
  -1  -9   0    7.70    2.40
  -1  -9   0    5.10    2.30
   1   9   0    2.80    3.00
   1   9   0    5.00    2.70
   1   9   0    6.00    2.20
   1   9   0    4.80    2.50
  -2  -9   0   -3.90    2.20
  -2  -9   0    1.00    2.00
  -2  -9   0   -0.60    2.50
   2   9   0    1.20    2.50
   2   9   0    0.20    2.40
   2   9   0    1.60    2.50
  -3  -9   0  426.36    8.90
  -3  -9   0  449.06   10.70
  -3  -9   0  438.26    8.90
   3   9   0  429.86   11.40
   3   9   0  455.25   10.80
  -4  -9   0   24.80    4.10
  -4  -9   0   28.80    3.00
  -4  -9   0   25.70    4.00
  -4  -9   0   34.90    4.90
  -4  -9   0   23.80    3.70
   4   9   0   25.40    3.90
   4   9   0   28.20    3.80
   4   9   0   21.80    4.20
   4   9   0   36.00    4.30
  -5  -9   0   -0.40    4.20
  -5  -9   0   -6.80    6.20
   5   9   0   -1.00    3.60
   5   9   0    4.80    3.60
   4 -10   0   -0.40    3.20
  -4  10   0    0.20    3.60
  -4  10   0    1.40    3.00
  -4  10   0   -3.70    2.70
  -4  10   0    0.00    2.80
   3 -10   0   25.90    3.20
  -3  10   0   38.20    4.70
  -3  10   0   32.30    4.10
  -3  10   0   33.00    4.40
  -3  10   0   36.50    4.90
  -3  10   0   24.30    3.50
   2 -10   0    5.00    2.80
   2 -10   0   10.80    3.20
  -2  10   0    2.00    3.60
  -2  10   0    2.80    2.10
  -2  10   0    2.50    3.00
  -2  10   0    3.80    2.80
  -2  10   0    4.80    2.90
  -2  10   0    5.40    2.60
   1 -10   0  178.38    6.60
   1 -10   0  171.58    4.80
   1 -10   0  180.98    4.80
  -1  10   0  182.58    8.70
  -1  10   0  176.78    6.00
  -1  10   0  184.88    7.30
  -1  10   0  177.08    6.30
  -1  10   0  179.18    9.20
   0 -10   0  311.47    7.30
   0 -10   0  307.77    7.10
   0 -10   0  300.97    7.90
   0  10   0  293.87    9.40
   0  10   0  311.97    8.20
   0  10   0  316.37   11.30
   0  10   0  301.67    9.00
   0  10   0  308.27    8.10
  -1 -10   0    6.20    2.50
  -1 -10   0    7.20    2.50
  -1 -10   0    7.60    2.70
   1  10   0    6.20    2.50
   1  10   0    5.10    2.70
   1  10   0    1.80    3.00
   1  10   0    9.00    3.00
  -2 -10   0   -5.40    3.00
  -2 -10   0    0.90    2.20
  -2 -10   0   -1.00    2.60
   2  10   0    2.30    2.70
   2  10   0    3.30    2.80
   2  10   0    2.00    2.70
  -3 -10   0   16.60    3.80
  -3 -10   0   18.60    2.70
  -3 -10   0   20.30    3.40
  -3 -10   0   15.40    3.30
   3  10   0   12.70    3.90
   3  10   0   15.90    3.30
   3  10   0   14.80    3.60
   3  10   0   13.00    3.40
  -4 -10   0   88.59    6.40
  -4 -10   0   91.89    5.00
  -4 -10   0   99.59    7.10
   4  10   0   97.59    7.30
   4  10   0   74.89    8.70
   4  10   0  101.99    7.30
  -5 -10   0   14.40    4.90
   5  10   0    3.10    4.40
  -4  11   0   99.29   13.10
  -4  11   0  109.29    9.60
  -4  11   0   95.49    6.40
  -4  11   0   76.29    6.20
   3 -11   0  130.49    6.80
  -3  11   0  118.69    8.20
  -3  11   0  129.79    6.20
  -3  11   0  133.09    7.90
  -3  11   0  137.29    6.10
  -3  11   0  131.59    8.00
   2 -11   0   -1.20    2.80
   2 -11   0    3.20    2.60
  -2  11   0    4.20    3.80
  -2  11   0    4.70    2.60
  -2  11   0   -0.10    2.90
  -2  11   0   -2.60    2.80
  -2  11   0    1.80    2.60
  -2  11   0    0.40    2.60
   1 -11   0    7.80    2.10
   1 -11   0    4.30    2.80
   1 -11   0    5.50    2.80
   1 -11   0    7.80    1.90
  -1  11   0    3.80    3.20
  -1  11   0    7.00    3.20
  -1  11   0    9.20    3.00
  -1  11   0    9.90    3.80
  -1  11   0    5.20    2.60
   0 -11   0   43.90    5.30
   0 -11   0   47.40    4.80
   0 -11   0   42.80    4.60
   0 -11   0   55.19    4.20
   0  11   0   39.40    4.30
   0  11   0   34.10    4.50
   0  11   0   38.80    4.80
   0  11   0   47.30    4.90
  -1 -11   0   19.40    3.00
  -1 -11   0   31.50    3.40
  -1 -11   0   20.70    3.50
  -1 -11   0   25.00    3.30
   1  11   0   27.20    3.80
   1  11   0   19.30    4.00
   1  11   0   28.80    3.60
   1  11   0   24.80    3.50
  -2 -11   0  109.19    5.40
  -2 -11   0  107.79    6.30
  -2 -11   0   93.79    6.30
   2  11   0  109.79    7.10
   2  11   0   96.79    8.20
   2  11   0  109.69    6.60
   2  11   0  115.19    6.40
  -3 -11   0   47.90    6.40
  -3 -11   0   28.20    4.00
  -3 -11   0   30.30    3.40
   3  11   0   44.20    4.80
   3  11   0   28.10    4.50
  -4 -11   0    1.60    2.70
  -4 -11   0    9.50    4.30
   4  11   0    0.00    4.00
   4  11   0    0.40    3.90
  -3  12   0   10.00    3.70
  -3  12   0   -2.50    3.30
  -3  12   0    2.70    3.40
  -3  12   0   -0.80    3.50
   2 -12   0    4.50    3.20
  -2  12   0    4.40    3.10
  -2  12   0    2.40    3.20
  -2  12   0   -0.80    3.50
  -2  12   0    6.50    3.70
   1 -12   0    1.30    2.00
   1 -12   0    6.00    1.90
   1 -12   0    4.10    3.10
  -1  12   0   -0.10    3.20
  -1  12   0   -2.50    3.50
  -1  12   0    7.40    2.90
  -1  12   0    1.60    3.10
  -1  12   0   -6.00    3.10
   0 -12   0   14.70    3.30
   0 -12   0   16.80    2.90
   0 -12   0   11.70    4.60
   0 -12   0   14.50    3.00
   0  12   0   15.40    3.90
   0  12   0   19.30    3.90
   0  12   0   21.40    3.70
   0  12   0   18.50    3.50
   0  12   0   12.80    3.80
  -1 -12   0   -4.90    3.50
  -1 -12   0   -7.40    2.40
  -1 -12   0   -4.20    2.80
   1  12   0    0.90    3.00
   1  12   0   -2.40    3.00
   1  12   0    3.90    3.20
  -2 -12   0   51.19    6.30
  -2 -12   0   51.69    5.70
  -2 -12   0   52.09    5.30
   2  12   0   56.09    6.30
   2  12   0   55.69    6.90
  -3 -12   0    4.20    2.90
  -3 -12   0    8.20    4.10
   3  12   0   16.60    4.40
   3  12   0   10.40    4.20
   2 -13   0   43.30    4.90
  -2  13   0   32.20    5.60
  -2  13   0   45.50    4.80
   1 -13   0   -1.70    3.30
  -1  13   0   -1.30    3.50
  -1  13   0   -4.80    3.40
   0 -13   0    3.10    3.20
   0 -13   0    9.40    2.90
   0 -13   0   -5.20    2.90
   0  13   0   -3.70    3.40
   0  13   0    3.20    3.50
  -1 -13   0   22.00    3.80
  -1 -13   0   23.90    3.90
   1  13   0   16.40    4.10
   1  13   0   20.90    4.20
  -2 -13   0    2.00    3.90
  -2 -13   0    2.20    3.40
  -2 -13   0    1.20    3.70
   2  13   0    2.80    3.80
   2  13   0    5.40    3.80
   2  13  -1    4.10    3.80
   2  13  -1    6.10    4.10
  -2 -13   1   13.40    4.30
  -2 -13   1    4.40    3.50
  -2 -13   1   -0.70    4.00
   1  13  -1   29.00    4.70
   1  13  -1   22.70    4.30
  -1 -13   1   31.20    4.20
  -1 -13   1   26.20    4.00
  -1 -13   1   24.50    3.80
   0  13  -1    1.50    3.70
   0  13  -1    2.80    3.50
   0 -13   1    7.20    2.50
   0 -13   1    2.40    3.30
  -1  13  -1   15.20    3.90
  -1  13  -1    0.50    3.90
   3  12  -1    3.90    4.10
   3  12  -1    4.70    4.30
  -3 -12   1    9.00    4.50
  -3 -12   1    3.50    3.00
   2  12  -1   50.39    6.90
   2  12  -1   43.40    5.00
  -2 -12   1   50.69    5.30
  -2 -12   1   38.50    4.70
  -2 -12   1   35.70    4.40
   1  12  -1    2.80    3.20
   1  12  -1    1.30    3.10
   1  12  -1   -0.30    3.30
  -1 -12   1   -5.10    2.90
  -1 -12   1   -3.90    3.00
  -1 -12   1    0.20    2.70
   0  12  -1    1.20    3.10
   0  12  -1    4.40    3.10
   0  12  -1   -3.30    2.80
   0 -12   1   -0.90    2.80
   0 -12   1   -1.40    2.50
   0 -12   1    3.80    2.30
  -1  12  -1   -6.10    3.20
  -1  12  -1    4.80    3.30
  -1  12  -1    0.10    3.40
  -1  12  -1    4.00    3.00
   1 -12   1    0.00    3.00
  -2  12  -1   10.40    3.30
  -2  12  -1   -0.80    3.60
  -2  12  -1    2.90    3.50
  -2  12  -1    5.90    3.20
   2 -12   1    6.60    3.50
  -3  12  -1   47.50    5.70
  -3  12  -1   47.30    6.20
  -3  12  -1   50.09    6.30
  -3  12  -1   53.29    8.50
   3 -12   1   45.40    5.10
   4  11  -1  141.29    8.70
   4  11  -1  143.89    8.60
  -4 -11   1  155.78    9.40
  -4 -11   1  149.19    6.60
   3  11  -1    1.80    3.50
   3  11  -1    0.70    3.80
  -3 -11   1   -2.60    3.70
  -3 -11   1   -1.70    3.30
  -3 -11   1    1.80    2.70
   2  11  -1   89.59    6.10
   2  11  -1   96.79    7.10
   2  11  -1   87.89    9.10
   2  11  -1   88.39    6.40
  -2 -11   1   96.99    6.30
  -2 -11   1   96.09    6.30
  -2 -11   1   84.99    5.40
   1  11  -1   28.70    3.80
   1  11  -1   26.60    3.70
   1  11  -1   17.50    4.10
   1  11  -1   29.30    4.10
  -1 -11   1   25.90    3.30
  -1 -11   1   27.60    3.30
  -1 -11   1   41.20    5.50
  -1 -11   1   24.60    3.40
   0  11  -1  119.29    9.10
   0  11  -1  115.99    5.90
   0  11  -1  109.99    6.00
   0  11  -1  115.39    7.30
   0  11  -1  122.89    7.00
   0 -11   1  121.89    4.80
   0 -11   1  116.39    6.50
   0 -11   1  115.09    4.70
   0 -11   1  120.09    6.10
  -1  11  -1    0.60    2.90
  -1  11  -1    4.00    2.60
  -1  11  -1    2.30    2.80
  -1  11  -1    0.80    3.60
  -1  11  -1    0.80    3.20
   1 -11   1    3.40    2.80
   1 -11   1    4.30    2.80
  -2  11  -1   19.10    3.20
  -2  11  -1   11.90    3.30
  -2  11  -1   13.60    6.60
  -2  11  -1   11.10    3.50
  -2  11  -1    4.50    3.40
   2 -11   1   14.70    3.70
   2 -11   1   11.50    3.30
  -3  11  -1    8.40    4.10
  -3  11  -1   -0.90    2.50
  -3  11  -1    3.00    3.00
  -3  11  -1   -3.40    3.10
  -3  11  -1   -4.80    3.40
   3 -11   1    5.20    3.40
   4  10  -1   69.89    7.10
   4  10  -1   83.59    7.10
  -4 -10   1   80.29    5.30
  -4 -10   1   82.19    6.20
  -4 -10   1   84.19    7.80
   3  10  -1    6.80    3.80
   3  10  -1   15.20    3.60
   3  10  -1    7.00    3.40
   3  10  -1   12.90    3.20
  -3 -10   1   17.70    3.50
  -3 -10   1   11.90    2.80
  -3 -10   1   20.20    3.90
  -3 -10   1    4.90    3.10
   2  10  -1    4.30    3.00
   2  10  -1    7.40    2.80
   2  10  -1    4.00    2.80
  -2 -10   1    6.90    2.90
  -2 -10   1    4.00    3.50
  -2 -10   1    3.60    2.50
  -2 -10   1    3.70    2.70
   1  10  -1   88.19    5.40
   1  10  -1   90.09    6.20
   1  10  -1   98.49    5.70
  -1 -10   1   87.99    4.80
  -1 -10   1   85.09    4.90
  -1 -10   1   86.79    5.00
   0  10  -1    3.50    2.60
   0  10  -1    2.40    3.30
   0  10  -1    9.30    3.40
   0  10  -1    8.80    3.00
   0 -10   1    7.40    2.70
   0 -10   1    7.70    2.10
   0 -10   1    5.90    2.00
  -1  10  -1   61.69    5.60
  -1  10  -1   62.29    7.40
  -1  10  -1   60.69    4.60
  -1  10  -1   55.89    4.30
   1 -10   1   59.09    2.80
   1 -10   1   52.09    4.80
   1 -10   1   54.49    2.70
  -2  10  -1   17.20    3.20
  -2  10  -1   14.50    3.50
  -2  10  -1   19.60    3.10
  -2  10  -1   14.40    4.00
  -2  10  -1   21.70    3.60
  -2  10  -1   17.80    2.70
   2 -10   1   16.70    3.30
   2 -10   1   15.10    2.80
  -3  10  -1    5.60    3.20
  -3  10  -1    7.10    7.00
  -3  10  -1    9.00    4.20
  -3  10  -1   10.40    2.90
  -3  10  -1   15.70    4.40
  -3  10  -1    8.90    3.20
   3 -10   1   17.20    3.50
  -4  10  -1   35.80    4.70
  -4  10  -1   43.20    5.20
  -4  10  -1   30.20    4.60
  -4  10  -1   27.00    3.50
   4 -10   1   30.90    4.40
   5   9  -1    6.60    4.60
   5   9  -1   13.90    4.20
  -5  -9   1    7.30    6.90
  -5  -9   1   -3.00    4.10
   4   9  -1    6.30    3.30
   4   9  -1   -5.30    3.20
   4   9  -1    0.00    3.20
  -4  -9   1    0.80    3.50
  -4  -9   1   -6.80    3.00
  -4  -9   1   -1.30    4.50
  -4  -9   1   -1.30    3.50
   3   9  -1    4.70    5.00
   3   9  -1   18.20    3.60
   3   9  -1   17.90    3.60
  -3  -9   1   11.90    3.30
  -3  -9   1   18.40    2.70
  -3  -9   1   19.50    3.00
  -3  -9   1   18.20    3.50
   2   9  -1    5.00    2.60
   2   9  -1    4.60    2.80
   2   9  -1    4.60    2.80
  -2  -9   1    2.70    2.10
  -2  -9   1    5.10    2.70
  -2  -9   1    5.70    2.90
  -2  -9   1    2.30    2.60
   1   9  -1  147.29    6.00
   1   9  -1  130.29    5.40
  -1  -9   1  138.39    5.30
  -1  -9   1  126.59    5.90
  -1  -9   1  146.49    6.20
  -1  -9   1  135.49    5.40
   0   9  -1    6.30    3.00
   0   9  -1    6.60    2.20
   0   9  -1    8.40    2.40
   0  -9   1    6.80    2.30
   0  -9   1    9.40    2.50
   0  -9   1    7.20    1.90
   0  -9   1    3.30    1.90
  -1   9  -1    9.50    3.20
  -1   9  -1   14.40    2.60
  -1   9  -1   13.80    2.30
  -1   9  -1    8.80    3.20
   1  -9   1   10.50    2.60
   1  -9   1    8.40    2.60
   1  -9   1   12.00    1.60
   1  -9   1   12.30    1.60
  -2   9  -1   27.80    3.20
  -2   9  -1   24.00    2.90
  -2   9  -1   24.80    3.30
  -2   9  -1   26.90    3.90
  -2   9  -1   18.50    3.20
   2  -9   1   24.70    3.30
  -3   9  -1   15.30    4.30
  -3   9  -1   12.40    2.90
  -3   9  -1   12.60    2.40
  -3   9  -1   14.60    3.90
  -3   9  -1   10.20    3.00
  -3   9  -1   14.70    2.60
   3  -9   1   12.30    2.80
  -4   9  -1   26.90    3.30
  -4   9  -1   23.40    3.00
  -4   9  -1   24.20    3.90
  -4   9  -1   17.80    2.80
   4  -9   1   17.60    3.30
  -5   9  -1    1.10    2.90
  -5   9  -1    1.20    3.40
   5  -9   1    2.80    3.50
   5   8  -1    2.40    3.30
   5   8  -1    3.90    3.80
   5   8  -1    0.80    3.90
  -5  -8   1    0.80    3.80
   4   8  -1    7.80    3.10
   4   8  -1   10.10    4.00
   4   8  -1   12.10    3.00
  -4  -8   1    9.10    3.30
  -4  -8   1    4.50    3.20
  -4  -8   1   10.20    3.60
   3   8  -1    9.60    3.00
   3   8  -1    5.20    2.90
  -3  -8   1    9.70    2.90
  -3  -8   1    7.90    3.70
  -3  -8   1    3.90    2.90
  -3  -8   1    6.50    2.20
   2   8  -1    9.80    2.70
   2   8  -1   12.50    3.00
   2   8  -1   12.60    2.70
  -2  -8   1   12.70    2.80
  -2  -8   1   12.50    2.30
  -2  -8   1   10.20    2.60
  -2  -8   1   16.20    2.90
   1   8  -1   55.29    4.30
   1   8  -1   56.19    5.00
   1   8  -1   51.39    3.90
  -1  -8   1   62.79    3.90
  -1  -8   1   51.89    4.50
  -1  -8   1   50.09    4.00
  -1  -8   1   57.59    3.80
   0   8  -1   84.29    4.10
   0   8  -1   83.89    4.30
   0   8  -1   76.69    4.90
   0  -8   1   81.69    3.40
   0  -8   1   81.79    3.70
   0  -8   1   82.59    4.70
   0  -8   1   76.69    4.20
  -1   8  -1   13.30    2.30
  -1   8  -1   13.80    2.10
  -1   8  -1   10.30    2.80
  -1   8  -1    9.90    2.40
   1  -8   1   13.80    2.50
   1  -8   1   12.50    1.60
   1  -8   1   14.00    1.50
   1  -8   1   10.20    2.30
  -2   8  -1  752.92   14.80
  -2   8  -1  749.03   14.10
  -2   8  -1  773.32   13.00
  -2   8  -1  743.93   12.70
  -2   8  -1  721.83   17.90
  -2   8  -1  768.02   15.80
   2  -8   1  730.63   13.50
   2  -8   1  783.02   14.50
  -3   8  -1   -2.30    2.30
  -3   8  -1    2.90    2.30
  -3   8  -1    0.00    1.90
  -3   8  -1   -0.10    1.70
   3  -8   1   -1.90    2.50
  -4   8  -1   39.80    5.80
  -4   8  -1   31.70    4.40
  -4   8  -1   41.50    4.20
  -4   8  -1   35.10    4.40
  -4   8  -1   38.00    3.70
  -4   8  -1   33.90    4.00
   4  -8   1   35.20    3.70
  -5   8  -1   18.10    4.00
  -5   8  -1   26.40    3.70
  -5   8  -1   25.50    3.30
   5  -8   1   27.70    5.70
   5  -8   1   23.00    3.70
   6   7  -1   -0.40    4.50
   6   7  -1    0.90    4.10
   6   7  -1   -7.30    4.10
  -6  -7   1    1.70    4.10
   5   7  -1    0.50    3.10
   5   7  -1   -1.20    3.50
   5   7  -1   -2.10    3.00
   5   7  -1   -2.30    3.90
  -5  -7   1    3.40    3.40
   4   7  -1   19.50    3.70
   4   7  -1   33.80    3.60
  -4  -7   1   30.50    4.00
   3   7  -1    2.00    4.40
   3   7  -1    2.10    2.40
  -3  -7   1    0.60    1.90
  -3  -7   1    0.60    2.60
  -3  -7   1    1.70    2.60
  -3  -7   1    2.70    2.60
   2   7  -1  246.08    6.80
   2   7  -1  237.78    7.00
   2   7  -1  235.18    7.30
  -2  -7   1  234.68    5.70
  -2  -7   1  237.48    6.80
  -2  -7   1  251.47    7.30
  -2  -7   1  244.38    6.60
   1   7  -1    0.80    2.10
   1   7  -1    0.60    2.00
   1   7  -1    1.30    1.70
  -1  -7   1    3.10    1.70
  -1  -7   1    2.30    1.80
  -1  -7   1    3.20    1.80
   0   7  -1  235.18    6.60
   0   7  -1  238.68    5.80
   0   7  -1  247.88    6.00
   0  -7   1  226.98    5.80
   0  -7   1  237.98    5.10
   0  -7   1  235.88    5.30
   0  -7   1  236.68    6.40
  -1   7  -1   22.00    2.50
  -1   7  -1   18.40    2.40
  -1   7  -1   19.40    2.10
  -1   7  -1   16.70    2.30
  -1   7  -1   18.60    2.90
   1  -7   1   18.00    2.40
   1  -7   1   20.60    1.90
   1  -7   1   19.30    2.00
  -2   7  -1  231.18    7.90
  -2   7  -1  226.88    6.90
  -2   7  -1  231.68    5.40
  -2   7  -1  227.88    5.50
   2  -7   1  223.98    6.20
  -3   7  -1   84.29    3.80
  -3   7  -1   85.49    3.70
  -3   7  -1   82.89    5.30
   3  -7   1   75.69    4.60
  -4   7  -1    0.40    1.50
  -4   7  -1    1.80    1.90
  -4   7  -1    1.00    2.60
   4  -7   1    2.20    3.60
   4  -7   1    3.20    2.60
  -5   7  -1   13.10    2.70
  -5   7  -1   12.30    3.30
  -5   7  -1   16.30    3.10
   5  -7   1   21.10    5.10
   5  -7   1   18.20    3.50
  -6   7  -1    6.90    3.90
  -6   7  -1   12.30    3.30
   6  -7   1    5.20    3.70
   6   6  -1   10.30    4.00
   6   6  -1    1.60    4.10
   6   6  -1   -7.30    3.60
  -6  -6   1   -1.00    4.10
   5   6  -1    2.80    3.10
   5   6  -1    6.90    3.40
   5   6  -1    1.80    3.10
   5   6  -1    5.20    5.30
  -5  -6   1    8.90    3.50
  -5  -6   1    1.50    3.00
  -5  -6   1    8.70    3.70
   4   6  -1   32.50    4.50
   4   6  -1   32.80    3.90
   4   6  -1   37.30    4.90
  -4  -6   1   35.10    4.00
  -4  -6   1   21.60    5.00
   3   6  -1   67.69    4.40
   3   6  -1   59.29    4.60
   3   6  -1   68.29    4.60
  -3  -6   1   65.19    4.50
  -3  -6   1   71.19    5.40
  -3  -6   1   64.59    4.80
  -3  -6   1   62.69    3.50
   2   6  -1    0.20    2.00
   2   6  -1    2.70    1.70
  -2  -6   1    1.70    1.60
  -2  -6   1    3.90    2.10
  -2  -6   1    0.90    1.80
  -2  -6   1    2.40    2.50
   1   6  -1  844.22   14.50
   1   6  -1  840.02   13.90
   1   6  -1  872.41   14.10
  -1  -6   1  840.22   13.70
  -1  -6   1  852.31   13.70
  -1  -6   1  840.92   13.40
  -1  -6   1  860.41   14.40
   0   6  -1  329.47    6.70
   0   6  -1  327.37    7.30
   0   6  -1  323.77    6.60
   0  -6   1  331.37    6.70
   0  -6   1  327.27    6.10
   0  -6   1  328.77    6.30
   0  -6   1  331.77    7.20
  -1   6  -1   -0.20    1.90
  -1   6  -1    0.80    1.20
  -1   6  -1    0.70    1.40
  -1   6  -1    0.40    1.50
  -1   6  -1    1.10    1.60
   1  -6   1    1.30    1.00
   1  -6   1    0.40    1.60
   1  -6   1    2.50    1.00
   1  -6   1    1.90    1.50
  -2   6  -1  314.07    6.10
  -2   6  -1  328.67    6.30
  -2   6  -1  306.87    9.90
  -2   6  -1  319.57    7.50
   2  -6   1  300.67    6.80
  -3   6  -1 2192.08   31.60
  -3   6  -1 2255.27   33.60
  -3   6  -1 2193.88   32.70
  -3   6  -1 2210.48   35.00
  -3   6  -1 2199.38   31.40
   3  -6   1 2169.18   32.30
   3  -6   1 2251.77   34.90
  -4   6  -1  330.37    7.20
  -4   6  -1  337.27    9.10
  -4   6  -1  331.97    7.40
  -4   6  -1  330.77    6.80
   4  -6   1  329.77    8.10
   4  -6   1  342.67   10.60
  -5   6  -1   67.69    4.40
  -5   6  -1   77.49    4.90
  -5   6  -1   54.39    6.70
  -5   6  -1   67.89    6.10
  -5   6  -1   69.59    6.00
   5  -6   1   62.49    5.20
   5  -6   1   86.19    7.70
  -6   6  -1    4.20    3.10
  -6   6  -1    6.00    3.30
  -6   6  -1   10.30    3.70
   6  -6   1    7.60    5.40
   6  -6   1    6.60    3.40
   6   5  -1    2.40    3.70
   6   5  -1    3.80    3.60
   6   5  -1    2.80    3.40
  -6  -5   1   -8.00    3.60
   5   5  -1   81.69    7.10
   5   5  -1   80.79    5.70
   5   5  -1   80.99    6.00
  -5  -5   1   97.29    9.70
  -5  -5   1   80.09    6.20
   4   5  -1  252.57    7.50
   4   5  -1  247.58    7.50
   4   5  -1  230.88    7.10
  -4  -5   1  237.18    8.40
  -4  -5   1  214.38   12.00
   3   5  -1    6.60    2.10
   3   5  -1    1.90    2.20
   3   5  -1    5.90    1.90
  -3  -5   1    6.80    2.10
  -3  -5   1    4.70    2.40
  -3  -5   1    4.90    2.30
   2   5  -1   26.90    3.60
   2   5  -1   24.70    3.40
   2   5  -1   29.50    3.00
  -2  -5   1   29.80    3.70
  -2  -5   1   34.00    2.40
  -2  -5   1   24.70    3.20
  -2  -5   1   25.40    3.00
   1   5  -1  172.28    4.60
   1   5  -1  167.68    4.80
   1   5  -1  165.88    5.10
  -1  -5   1  164.58    5.00
  -1  -5   1  166.98    4.60
  -1  -5   1  167.48    4.10
  -1  -5   1  174.28    4.50
   0   5  -1 1195.28   17.80
   0   5  -1 1184.38   18.50
   0   5  -1 1218.48   17.90
   0  -5   1 1223.78   18.40
   0  -5   1 1207.28   17.80
   0  -5   1 1204.48   17.50
   0  -5   1 1190.68   17.30
  -1   5  -1  215.48    6.00
  -1   5  -1  215.28    4.50
  -1   5  -1  226.48    5.60
  -1   5  -1  215.18    4.60
  -1   5  -1  213.88    5.20
   1  -5   1  219.78    3.80
   1  -5   1  219.38    3.90
   1  -5   1  215.48    5.40
   1  -5   1  220.18    5.10
  -2   5  -1   20.80    2.80
  -2   5  -1   20.60    2.90
  -2   5  -1   19.80    2.00
  -2   5  -1   16.40    1.90
   2  -5   1   16.80    2.00
  -3   5  -1    1.90    2.30
  -3   5  -1    1.30    1.40
  -3   5  -1    2.70    1.40
  -3   5  -1    0.40    1.30
  -3   5  -1    1.90    1.90
  -3   5  -1    1.50    2.30
   3  -5   1    1.80    1.90
   3  -5   1    2.90    2.60
  -4   5  -1   79.59    3.80
  -4   5  -1   78.79    3.90
   4  -5   1   78.29    4.40
   4  -5   1   77.29    7.60
  -5   5  -1    7.00    2.20
  -5   5  -1    5.30    2.70
  -5   5  -1    4.10    2.60
   5  -5   1    6.80    3.80
  -6   5  -1   10.80    2.90
  -6   5  -1   11.00    3.60
  -6   5  -1    8.50    3.50
   6  -5   1   10.80    4.90
   6  -5   1    6.00    3.10
   6   4  -1   -3.90    2.70
   6   4  -1   -2.30    3.30
   6   4  -1    5.40    3.60
   6   4  -1    4.20    3.60
  -6  -4   1   -3.10    3.40
   5   4  -1    4.60    2.80
   5   4  -1    0.90    2.50
   5   4  -1   -2.50    2.60
   5   4  -1   -0.90    2.70
  -5  -4   1    1.50    2.90
  -5  -4   1    3.00    3.00
   4   4  -1   60.79    4.50
   4   4  -1   68.29    4.90
   4   4  -1   70.39    4.90
  -4  -4   1   66.69    5.70
  -4  -4   1   79.09    5.30
  -4  -4   1   70.39    4.90
   3   4  -1  123.09    4.60
   3   4  -1  127.09    4.90
  -3  -4   1  130.99    4.90
  -3  -4   1  120.69    5.60
  -3  -4   1  122.09    5.60
   2   4  -1    2.40    1.60
   2   4  -1    2.80    1.80
   2   4  -1    2.10    1.90
  -2  -4   1    2.20    1.70
  -2  -4   1    1.50    1.80
  -2  -4   1    4.70    1.40
  -2  -4   1    4.30    1.90
   1   4  -1   87.29    3.30
   1   4  -1   95.49    3.90
   1   4  -1   90.59    3.50
  -1  -4   1   94.39    3.00
  -1  -4   1   92.99    3.60
  -1  -4   1   91.59    3.20
  -1  -4   1   89.09    3.40
   0   4  -1  471.75    7.80
   0   4  -1  478.65    7.90
   0  -4   1  471.15    7.60
   0  -4   1  474.25    8.30
   0  -4   1  482.35    7.60
   0  -4   1  491.45    7.90
  -1   4  -1  425.16    6.90
  -1   4  -1  417.46    6.80
  -1   4  -1  428.76    7.80
  -1   4  -1  420.76    8.40
   1  -4   1  436.96    7.40
   1  -4   1  425.16    6.10
   1  -4   1  430.96    7.90
   1  -4   1  408.26    7.00
  -2   4  -1  289.07    5.20
  -2   4  -1  300.07    7.40
  -2   4  -1  294.17    6.50
  -2   4  -1  292.27    5.20
   2  -4   1  297.47    7.30
   2  -4   1  266.37    6.40
  -3   4  -1   15.90    3.70
  -3   4  -1   14.10    2.00
  -3   4  -1   19.90    4.70
  -3   4  -1   18.00    2.10
  -3   4  -1   18.60    2.50
  -3   4  -1   16.50    2.10
   3  -4   1   17.70    2.90
   3  -4   1   16.40    2.10
  -4   4  -1  171.28    7.60
  -4   4  -1  165.38    4.90
  -4   4  -1  171.88    7.00
  -4   4  -1  156.28    6.10
  -4   4  -1  157.58    4.70
   4  -4   1  173.18    7.30
   4  -4   1  169.98    5.20
  -5   4  -1   16.60    2.80
  -5   4  -1   18.60    2.60
   5  -4   1   19.90    4.30
   5  -4   1   18.60    2.90
  -6   4  -1   -0.80    2.60
  -6   4  -1    4.30    3.10
   6  -4   1    1.70    2.80
   6  -4   1    5.50    4.60
   6   3  -1    8.00    4.00
   6   3  -1   -3.30    3.30
   6   3  -1   -0.40    2.30
   6   3  -1   -2.00    3.10
  -6  -3   1    1.30    3.40
  -6  -3   1   -1.40    3.80
   5   3  -1    4.80    2.80
   5   3  -1    6.40    2.90
   5   3  -1    4.20    2.70
  -5  -3   1    3.10    2.90
  -5  -3   1    0.60    2.90
   4   3  -1    1.50    2.20
   4   3  -1   -1.70    2.10
   4   3  -1    1.90    2.00
  -4  -3   1   -0.10    2.50
  -4  -3   1    1.10    2.40
  -4  -3   1    0.40    2.30
   3   3  -1    0.80    1.50
   3   3  -1   -2.00    1.80
   3   3  -1   -0.60    1.60
  -3  -3   1    0.20    1.80
  -3  -3   1   -1.90    1.70
  -3  -3   1    0.30    2.00
   2   3  -1    2.00    1.70
   2   3  -1    3.70    1.40
   2   3  -1    2.00    1.60
  -2  -3   1    3.50    1.80
  -2  -3   1    2.40    1.70
  -2  -3   1    3.90    1.60
  -2  -3   1    4.20    1.30
   1   3  -1   15.50    1.60
   1   3  -1   16.50    2.30
   1   3  -1   17.90    1.90
  -1  -3   1   15.30    1.90
  -1  -3   1   20.00    2.30
  -1  -3   1   14.70    1.60
  -1  -3   1   13.70    1.50
   0   3  -1 2247.48   32.10
   0   3  -1 2316.97   31.70
   0   3  -1 2298.87   31.70
   0  -3   1 2312.87   32.10
   0  -3   1 2440.16   31.80
   0  -3   1 2286.87   31.50
   0  -3   1 2319.47   31.30
   0  -3   1 2317.17   31.50
  -1   3  -1  117.89    2.50
  -1   3  -1  119.89    2.50
  -1   3  -1  122.19    3.30
  -1   3  -1  119.89    3.80
   1  -3   1  120.99    3.30
   1  -3   1  126.49    3.00
  -2   3  -1    8.50    1.60
  -2   3  -1    8.50    1.20
  -2   3  -1   10.70    2.20
  -2   3  -1    8.50    1.10
   2  -3   1    9.30    2.20
   2  -3   1    8.80    1.60
  -3   3  -1   45.60    2.30
  -3   3  -1   43.30    2.40
  -3   3  -1   41.20    4.40
  -3   3  -1   43.10    3.80
   3  -3   1   45.50    4.10
   3  -3   1   43.40    4.20
  -4   3  -1   49.20    3.20
  -4   3  -1   47.30    4.80
  -4   3  -1   46.40    3.20
  -4   3  -1   43.20    5.40
   4  -3   1   45.00    5.10
   4  -3   1   44.50    3.30
  -5   3  -1  104.69    4.60
  -5   3  -1  102.79    5.20
   5  -3   1  112.49    7.30
   5  -3   1  116.39    4.80
  -6   3  -1    4.30    3.20
  -6   3  -1    1.20    2.70
  -6   3  -1    4.60    3.90
   6  -3   1   -1.50    4.30
   6  -3   1    3.00    2.80
   7  -3   1   10.20    6.60
   7   2  -1   -0.40    4.10
   7   2  -1   -4.30    3.60
   7   2  -1    1.50    5.90
   7   2  -1   11.30    4.10
  -7  -2   1   -2.50    3.90
   6   2  -1    7.20    3.70
   6   2  -1    4.80    3.20
   6   2  -1    3.80    4.60
  -6  -2   1    3.80    3.30
  -6  -2   1    2.90    3.20
   5   2  -1    5.70    2.80
   5   2  -1    8.20    2.00
   5   2  -1    7.50    2.70
   5   2  -1    7.70    2.80
  -5  -2   1    6.80    2.90
  -5  -2   1    4.90    3.10
  -5  -2   1    8.40    3.20
   4   2  -1   63.39    4.10
   4   2  -1   61.39    4.30
  -4  -2   1   72.39    4.70
  -4  -2   1   67.89    4.40
  -4  -2   1   57.99    4.40
   3   2  -1   -0.20    1.50
   3   2  -1    0.50    1.70
   3   2  -1    2.90    1.60
  -3  -2   1    2.30    1.70
  -3  -2   1    0.20    1.60
  -3  -2   1    1.30    1.70
   2   2  -1    2.50    1.60
   2   2  -1    3.00    1.50
   2   2  -1    3.90    1.40
  -2  -2   1    3.70    1.60
  -2  -2   1    1.70    1.70
  -2  -2   1    3.70    1.60
   1   2  -1 1175.08   17.20
   1   2  -1 1227.88   17.50
   1   2  -1 1192.28   17.30
  -1  -2   1 1216.88   16.80
  -1  -2   1 1224.28   17.50
  -1  -2   1 1193.98   17.20
  -1  -2   1 1197.68   17.30
   0   2  -1  275.27    4.80
   0   2  -1  275.77    4.50
   0   2  -1  275.17    4.50
   0  -2   1  284.27    4.60
   0  -2   1  272.07    4.40
   0  -2   1  279.77    4.80
   0  -2   1  276.87    4.30
   0  -2   1  269.77    4.50
  -1   2  -1 1008.60   14.80
  -1   2  -1 1041.10   15.40
  -1   2  -1 1036.50   13.80
  -1   2  -1  893.11   13.90
   1  -2   1 1037.10   15.40
   1  -2   1 1096.59   14.50
  -2   2  -1  359.76    7.70
  -2   2  -1  369.86    5.90
  -2   2  -1  379.56    5.90
  -2   2  -1  377.36    7.50
   2  -2   1  360.06    7.60
   2  -2   1  383.26    6.30
  -3   2  -1    3.30    2.20
  -3   2  -1    2.70    1.20
  -3   2  -1    0.70    1.70
  -3   2  -1    1.50    1.30
   3  -2   1    4.20    2.10
   3  -2   1    4.20    1.40
  -4   2  -1   35.60    3.00
  -4   2  -1   31.20    3.00
  -4   2  -1   41.10    4.60
   4  -2   1   28.80    3.50
   4  -2   1   36.10    2.80
  -5   2  -1   39.80    5.40
  -5   2  -1   34.10    3.90
  -5   2  -1   36.00    3.80
   5  -2   1   39.80    4.90
   5  -2   1   39.90    3.40
  -6   2  -1    1.90    2.70
  -6   2  -1   -0.80    3.50
  -6   2  -1    4.20    3.20
   6  -2   1    2.80    2.60
   6  -2   1   -0.40    4.10
  -7   2  -1    7.40    5.90
  -7   2  -1    5.50    3.60
   7  -2   1    5.80    3.50
   7  -2   1    6.30    5.50
   7   1  -1    3.80    3.80
   7   1  -1   -8.50    3.40
   7   1  -1   16.30    6.00
  -7  -1   1   -3.70    3.80
   6   1  -1    7.10    3.40
   6   1  -1   13.70    3.40
   6   1  -1   10.90    4.70
  -6  -1   1   11.20    4.80
  -6  -1   1    8.10    3.50
  -6  -1   1   12.80    3.40
   5   1  -1  238.78    5.30
   5   1  -1  250.87    7.10
   5   1  -1  240.78    5.60
   5   1  -1  250.67    7.00
   5   1  -1  253.77    8.10
   5   1  -1  242.98    9.40
  -5  -1   1  228.58    8.50
  -5  -1   1  246.48    7.70
  -5  -1   1  237.68    8.20
   4   1  -1  100.79    4.40
   4   1  -1   98.59    4.60
   4   1  -1   97.29    4.90
  -4  -1   1  101.89    4.70
  -4  -1   1   96.09    4.80
  -4  -1   1  100.09    5.10
   3   1  -1   22.20    2.90
   3   1  -1   27.10    3.00
   3   1  -1   22.80    2.70
  -3  -1   1   23.50    3.10
  -3  -1   1   26.10    3.10
  -3  -1   1   23.30    3.00
   2   1  -1  411.46    7.30
   2   1  -1  420.66    7.40
   2   1  -1  400.16    7.20
  -2  -1   1  414.76    7.30
  -2  -1   1  404.66    7.30
  -2  -1   1  411.46    7.30
  -1   1  -1 2421.56   33.90
  -1   1  -1 2419.06   33.80
   1  -1   1 2449.75   33.90
   1  -1   1 2554.84   33.20
  -2   1  -1   41.80    2.70
  -2   1  -1   37.70    1.60
  -2   1  -1   38.20    1.70
  -2   1  -1   38.60    3.00
   2  -1   1   39.40    2.70
   2  -1   1   38.40    1.80
   2  -1   1   36.30    2.80
  -3   1  -1   10.30    1.50
  -3   1  -1    9.40    1.50
  -3   1  -1    9.40    2.10
   3  -1   1   11.40    1.20
   3  -1   1    9.40    1.40
   3  -1   1    9.00    2.30
   3  -1   1   10.80    1.10
  -4   1  -1    0.90    1.70
  -4   1  -1   -2.60    2.20
  -4   1  -1    0.60    1.60
   4  -1   1    1.30    1.20
   4  -1   1   -1.20    2.40
   4  -1   1    0.60    1.00
   4  -1   1   -0.10    1.60
  -5   1  -1  132.59    5.30
  -5   1  -1  134.09    6.80
  -5   1  -1  143.59    5.50
   5  -1   1  135.99    4.60
   5  -1   1  135.69    3.80
   5  -1   1  131.79    3.50
  -6   1  -1  215.58    7.40
  -6   1  -1  196.88    8.70
  -6   1  -1  188.18    6.90
   6  -1   1  210.08    6.00
   6  -1   1  222.58   10.20
   6  -1   1  203.88    4.50
   6  -1   1  197.88    4.30
  -7   1  -1   61.59    6.50
   7  -1   1   73.69    5.80
   7  -1   1   72.09   10.30
   7   0  -1   29.80    6.40
   7   0  -1   21.90    4.00
  -7   0   1   20.70    4.30
   6   0  -1   17.60    4.90
   6   0  -1   21.00    3.20
   6   0  -1   23.10    3.50
   6   0  -1   20.40    3.20
  -6   0   1   21.80    4.20
  -6   0   1   21.40    3.80
  -6   0   1   14.30    3.40
   5   0  -1    8.10    2.60
   5   0  -1    6.80    2.40
   5   0  -1    9.50    3.70
  -5   0   1    8.00    2.80
  -5   0   1    7.20    3.10
  -5   0   1   11.20    5.20
   4   0  -1   93.29    4.10
   4   0  -1   93.19    4.30
   4   0  -1   99.59    6.00
  -4   0   1   94.09    4.60
  -4   0   1  103.79    5.20
   3   0  -1    9.70    1.70
   3   0  -1   11.50    2.00
   3   0  -1   10.10    1.80
   3   0  -1   10.20    1.80
  -3   0   1   10.60    1.90
  -3   0   1    9.70    1.90
  -3   0   1   10.30    2.00
   2   0  -1  820.82   12.50
   2   0  -1  838.12   12.60
   2   0  -1  824.22   12.80
  -2   0   1  827.02   12.60
  -2   0   1  809.82   12.60
  -2   0   1  820.52   12.70
   1   0  -1 4226.18   56.79
  -1   0  -1  634.24    8.80
  -1   0  -1  657.13    9.60
  -1   0  -1  632.84    8.80
  -1   0  -1  612.94    9.20
  -1   0  -1  656.73    9.60
   1   0   1  636.04    9.60
   1   0   1  661.23    8.80
   1   0   1  610.94    9.50
   1   0   1  631.94    9.10
  -2   0  -1    3.80    1.00
  -2   0  -1    3.10    1.30
  -2   0  -1    4.20    0.80
  -2   0  -1    2.90    1.00
   2   0   1    4.20    0.80
   2   0   1    2.60    1.30
   2   0   1    2.50    0.50
   2   0   1    3.50    1.50
   2   0   1    3.40    0.80
   2   0   1    2.60    0.80
  -3   0  -1  415.86    8.70
  -3   0  -1  424.46    7.50
  -3   0  -1  423.06    7.50
   3   0   1  421.06    9.00
   3   0   1  415.16    7.00
   3   0   1  425.86    6.80
   3   0   1  416.16    7.00
   3   0   1  412.66    8.60
  -4   0  -1  423.46   13.50
  -4   0  -1  448.06    8.70
  -4   0  -1  433.96    8.50
   4   0   1  439.36    7.70
   4   0   1  446.06   10.50
   4   0   1  454.75    7.50
   4   0   1  443.96    7.80
   4   0   1  448.06    9.90
  -5   0  -1    4.50    2.40
  -5   0  -1   11.00    3.20
  -5   0  -1    6.50    2.60
   5   0   1    8.90    3.00
   5   0   1    9.00    1.80
   5   0   1    8.20    1.90
   5   0   1   13.70    3.80
  -6   0  -1    0.80    3.00
  -6   0  -1    4.30    3.60
  -6   0  -1    0.70    2.70
   6   0   1    4.00    1.80
   6   0   1    0.20    2.40
   6   0   1    0.60    4.10
   6   0   1    1.50    2.10
  -7   0  -1    5.90    3.80
   7   0   1    6.80    3.10
   7   0   1    4.70    5.60
   7  -1  -1   52.19    7.80
   7  -1  -1   43.00    6.10
   7  -1  -1   52.19    4.80
  -7   1   1   39.80    5.00
   6  -1  -1   10.70    2.70
   6  -1  -1   11.80    3.10
   6  -1  -1   12.20    2.90
   6  -1  -1   15.20    4.80
  -6   1   1   18.30    4.20
  -6   1   1   14.40    3.40
  -6   1   1   12.60    3.60
   5  -1  -1    1.90    3.60
   5  -1  -1   -0.30    1.90
   5  -1  -1    1.60    2.20
   5  -1  -1    0.00    2.20
  -5   1   1   -2.00    2.50
  -5   1   1    1.90    2.80
  -5   1   1   -0.20    2.40
   4  -1  -1   17.10    3.40
   4  -1  -1   17.20    2.10
   4  -1  -1   19.60    2.30
  -4   1   1   17.10    2.40
  -4   1   1   18.60    3.10
  -4   1   1   16.60    2.50
   3  -1  -1    8.90    1.60
   3  -1  -1   10.90    2.50
   3  -1  -1    8.60    1.80
  -3   1   1    6.50    1.80
  -3   1   1    8.70    1.90
  -3   1   1    8.20    1.80
   2  -1  -1   18.20    2.10
   2  -1  -1   18.50    1.90
   2  -1  -1   22.20    2.90
  -2   1   1   18.80    2.10
  -2   1   1   18.60    2.00
  -2   1   1   20.10    2.40
   1  -1  -1    4.20    1.00
   1  -1  -1    7.00    1.30
   1  -1  -1    4.70    0.90
  -1   1   1    4.80    1.00
  -1   1   1    4.40    0.60
  -1   1   1    4.70    0.90
  -1  -1  -1  866.31   12.50
  -1  -1  -1  861.71   12.10
  -1  -1  -1  867.11   12.50
  -1  -1  -1  871.61   12.10
   1   1   1  848.22   12.50
   1   1   1  839.02   12.00
   1   1   1  873.31   12.10
   1   1   1  861.11   12.50
  -2  -1  -1   87.39    2.60
  -2  -1  -1   84.69    2.70
  -2  -1  -1   90.49    3.30
   2   1   1   88.19    2.50
   2   1   1   89.99    2.50
   2   1   1   85.49    3.10
   2   1   1   91.99    2.60
  -3  -1  -1   73.89    3.30
  -3  -1  -1   78.19    3.30
  -3  -1  -1   79.79    4.10
   3   1   1   85.29    4.30
   3   1   1   81.59    4.00
   3   1   1   76.19    2.90
   3   1   1   77.99    3.10
   3   1   1   80.69    2.80
  -4  -1  -1  279.07    8.00
  -4  -1  -1  276.37    6.60
  -4  -1  -1  288.07    6.60
   4   1   1  282.77    6.00
   4   1   1  281.07    5.30
   4   1   1  274.97    6.00
   4   1   1  267.77    7.50
   4   1   1  283.97    8.00
  -5  -1  -1   31.80    3.40
  -5  -1  -1   38.60    4.10
  -5  -1  -1   33.10    4.20
   5   1   1   27.10    3.50
   5   1   1   28.50    3.20
   5   1   1   31.00    4.30
   5   1   1   35.20    3.00
   5   1   1   34.00    3.40
  -6  -1  -1    5.80    2.90
  -6  -1  -1    1.60    3.40
  -6  -1  -1    6.10    2.90
   6   1   1   -0.80    3.40
   6   1   1    6.50    4.20
   6   1   1    8.20    2.20
   6   1   1    6.90    2.40
   6   1   1    1.90    2.50
  -7  -1  -1   14.50    4.00
   7   1   1   10.50    2.60
   7   1   1   14.90    3.80
   7   1   1   16.10    5.90
   6  -2  -1    3.20    2.80
   6  -2  -1    4.10    4.50
   6  -2  -1   -4.00    2.20
   6  -2  -1    1.10    2.70
  -6   2   1    1.30    3.70
  -6   2   1    4.90    3.50
  -6   2   1   -1.70    2.80
   5  -2  -1    1.80    3.50
   5  -2  -1    2.10    1.90
   5  -2  -1    2.10    2.20
   5  -2  -1    2.70    2.30
  -5   2   1    0.60    3.00
  -5   2   1    2.00    2.60
  -5   2   1   -1.90    2.30
   4  -2  -1   89.49    3.60
   4  -2  -1   95.29    6.10
   4  -2  -1   91.79    3.90
   4  -2  -1   95.19    4.10
  -4   2   1  100.79    4.50
  -4   2   1   96.79    5.30
  -4   2   1   92.29    4.40
   3  -2  -1   94.89    3.40
   3  -2  -1   91.19    4.90
   3  -2  -1   93.19    3.20
  -3   2   1   95.59    3.70
  -3   2   1   95.99    3.60
  -3   2   1   98.19    4.30
   2  -2  -1  196.78    4.20
   2  -2  -1  199.18    4.20
   2  -2  -1  194.98    4.20
   2  -2  -1  191.78    5.50
  -2   2   1  195.28    4.40
  -2   2   1  203.48    4.40
  -2   2   1  197.58    5.00
  -2   2   1  197.98    3.50
   1  -2  -1 1343.27   19.10
   1  -2  -1 1369.86   19.80
   1  -2  -1 1371.96   19.30
   1  -2  -1 1353.06   19.00
  -1   2   1 1365.06   19.10
  -1   2   1 1372.56   19.20
  -1   2   1 1409.86   19.90
  -1   2   1 1359.66   19.20
   0  -2  -1  109.49    2.40
   0  -2  -1  107.29    2.40
   0  -2  -1  110.89    3.10
   0  -2  -1  116.19    2.30
   0   2   1  111.79    2.40
   0   2   1  115.49    2.50
   0   2   1  112.19    3.10
   0   2   1  111.49    2.50
   0   2   1  111.19    2.40
  -1  -2  -1  799.82   12.30
  -1  -2  -1  790.02   11.60
  -1  -2  -1  802.82   11.80
  -1  -2  -1  809.72   10.90
  -1  -2  -1  795.52   12.40
  -1  -2  -1  784.82   11.60
   1   2   1  797.92   11.60
   1   2   1  802.02   12.40
   1   2   1  793.02   11.80
  -2  -2  -1    9.40    1.40
  -2  -2  -1   10.00    1.40
   2   2   1    9.20    1.30
   2   2   1    9.20    1.30
   2   2   1    8.40    1.40
   2   2   1    8.40    1.20
  -3  -2  -1    5.90    1.70
  -3  -2  -1    4.90    1.90
  -3  -2  -1    7.40    1.70
   3   2   1    6.10    1.90
   3   2   1    7.00    1.60
   3   2   1    4.90    1.60
   3   2   1    5.80    1.40
  -4  -2  -1   14.10    2.20
  -4  -2  -1   15.10    2.80
  -4  -2  -1   17.50    2.40
   4   2   1   16.50    2.20
   4   2   1   15.60    2.00
   4   2   1   15.80    2.60
   4   2   1   20.80    2.80
   4   2   1   21.40    3.30
  -5  -2  -1    7.50    2.60
  -5  -2  -1   10.70    2.80
  -5  -2  -1   11.40    3.30
   5   2   1    9.20    2.20
   5   2   1    8.10    2.80
   5   2   1   11.30    2.40
   5   2   1    7.20    1.50
   5   2   1   13.40    3.60
  -6  -2  -1   13.90    3.90
  -6  -2  -1   17.20    3.40
  -6  -2  -1   17.80    3.40
   6   2   1   18.00    3.90
   6   2   1   20.40    4.90
   6   2   1   18.40    2.80
   6   2   1   18.50    3.20
  -7  -2  -1    7.30    4.10
   7   2   1   14.30    3.90
   7   2   1   16.80    5.90
   7   2   1    8.20    3.20
   6  -3  -1   27.20    3.00
   6  -3  -1   28.10    3.70
   6  -3  -1   30.50    5.70
   6  -3  -1   33.00    3.30
  -6   3   1   26.30    3.70
  -6   3   1   29.50    4.10
  -6   3   1   28.30    4.50
   5  -3  -1   40.70    5.20
   5  -3  -1   34.60    3.60
   5  -3  -1   37.10    3.00
   5  -3  -1   38.20    4.30
  -5   3   1   31.80    4.00
  -5   3   1   31.20    3.30
  -5   3   1   35.10    4.70
   4  -3  -1    1.60    1.70
   4  -3  -1    4.20    2.10
   4  -3  -1    1.90    1.50
   4  -3  -1   -3.70    2.80
  -4   3   1    0.80    2.00
  -4   3   1    1.60    2.50
  -4   3   1    1.00    2.10
   3  -3  -1    0.40    1.40
   3  -3  -1   -1.10    2.10
   3  -3  -1    2.30    1.70
   3  -3  -1    1.90    1.20
  -3   3   1   -0.50    1.40
  -3   3   1    2.20    1.90
  -3   3   1    1.10    1.50
   2  -3  -1    2.90    2.00
   2  -3  -1    0.40    1.30
   2  -3  -1    1.80    1.20
   2  -3  -1    1.50    1.50
  -2   3   1    1.80    1.30
  -2   3   1    1.40    1.30
  -2   3   1    1.80    0.90
  -2   3   1    1.10    1.90
   1  -3  -1  111.59    3.50
   1  -3  -1  110.19    2.70
   1  -3  -1  110.29    2.70
   1  -3  -1  113.19    2.90
  -1   3   1  112.49    2.80
  -1   3   1  117.89    3.40
  -1   3   1  111.39    3.10
  -1   3   1  108.29    2.80
  -1   3   1  109.29    3.50
   0  -3  -1   31.50    1.70
   0  -3  -1   34.60    1.80
   0  -3  -1   29.90    1.80
   0  -3  -1   35.20    1.90
   0   3   1   33.70    1.80
   0   3   1   32.70    1.90
   0   3   1   31.20    1.80
   0   3   1   36.30    2.00
  -1  -3  -1   61.09    2.40
  -1  -3  -1   59.69    2.40
  -1  -3  -1   59.59    1.70
  -1  -3  -1   58.89    2.30
  -1  -3  -1   62.59    2.60
   1   3   1   60.39    2.30
   1   3   1   57.89    2.20
   1   3   1   63.19    3.30
  -2  -3  -1    1.40    1.40
  -2  -3  -1    0.90    0.80
  -2  -3  -1    0.30    1.40
  -2  -3  -1   -1.30    1.40
   2   3   1    1.40    1.40
   2   3   1    1.30    1.30
   2   3   1    0.20    1.40
   2   3   1    1.60    1.30
  -3  -3  -1   39.30    3.00
  -3  -3  -1   36.60    3.30
  -3  -3  -1   36.20    3.80
   3   3   1   37.60    3.00
   3   3   1   41.50    3.70
   3   3   1   28.70    3.30
  -4  -3  -1    8.40    3.60
  -4  -3  -1   16.30    2.50
  -4  -3  -1   13.30    2.70
   4   3   1   12.40    2.00
   4   3   1   16.60    2.40
   4   3   1   16.90    2.30
   4   3   1   16.40    2.70
  -5  -3  -1    4.90    3.10
  -5  -3  -1    1.60    2.90
  -5  -3  -1    0.50    2.60
   5   3   1    3.20    2.40
   5   3   1    1.00    3.30
   5   3   1    4.20    2.80
   5   3   1    5.10    2.30
   5   3   1    2.50    1.80
  -6  -3  -1  109.09    6.50
  -6  -3  -1   91.09    6.50
  -6  -3  -1  117.69    7.10
   6   3   1  107.09    8.10
   6   3   1  103.39    5.70
   6   3   1   95.99    4.70
   6   3   1  112.79    5.80
   6   3   1  102.09    4.50
   6   3   1  104.19    7.30
  -7  -3  -1  123.19    8.10
   7   3   1   95.19    9.60
   7   3   1  107.89    6.80
   7   3   1  111.59   10.80
   7   3   1  117.89    6.80
   6  -4  -1    4.20    3.00
   6  -4  -1    8.30    5.10
  -6   4   1   -5.40    3.40
  -6   4   1   -0.30    3.00
   5  -4  -1   22.40    2.70
   5  -4  -1   21.30    3.10
   5  -4  -1   26.80    4.90
   5  -4  -1   23.70    2.30
  -5   4   1   24.20    3.40
  -5   4   1   25.80    4.10
   4  -4  -1   45.80    3.90
   4  -4  -1   52.79    2.80
   4  -4  -1   44.50    5.90
   4  -4  -1   51.29    3.20
  -4   4   1   52.09    3.90
  -4   4   1   55.69    5.30
   3  -4  -1   66.89    4.80
   3  -4  -1   73.69    3.00
   3  -4  -1   71.39    3.70
   3  -4  -1   70.69    2.80
  -3   4   1   70.59    3.90
  -3   4   1   74.59    4.50
  -3   4   1   70.99    2.40
  -3   4   1   73.19    3.40
  -3   4   1   74.39    3.40
  -3   4   1   75.59    5.40
   2  -4  -1  266.97    6.60
   2  -4  -1  279.57    5.30
   2  -4  -1  282.77    7.10
   2  -4  -1  290.37    5.40
  -2   4   1  278.17    7.20
  -2   4   1  285.37    5.80
  -2   4   1  292.47    5.90
  -2   4   1  281.97    6.40
  -2   4   1  287.27    5.70
   1  -4  -1  342.37    6.60
   1  -4  -1  333.57    6.90
   1  -4  -1  331.57    5.90
   1  -4  -1  340.47    5.90
   1  -4  -1  340.47    6.20
  -1   4   1  335.97    7.00
  -1   4   1  332.77    6.10
  -1   4   1  323.37    6.00
  -1   4   1  339.67    7.10
  -1   4   1  342.47    6.60
   0  -4  -1   49.90    2.10
   0  -4  -1   47.80    2.40
   0  -4  -1   52.39    2.10
   0  -4  -1   47.70    2.20
   0   4   1   51.59    2.30
   0   4   1   51.59    3.40
   0   4   1   48.90    2.10
  -1  -4  -1   18.80    2.30
  -1  -4  -1   20.80    1.60
  -1  -4  -1   15.60    1.80
  -1  -4  -1   17.00    2.10
  -1  -4  -1   18.70    2.20
   1   4   1   21.70    3.30
   1   4   1   15.70    1.70
   1   4   1   13.00    1.50
   1   4   1   18.40    2.00
  -2  -4  -1  317.87    6.90
  -2  -4  -1  304.47    6.60
  -2  -4  -1  308.37    5.10
  -2  -4  -1  314.37    6.40
   2   4   1  308.27    7.70
   2   4   1  303.37    6.90
   2   4   1  306.67    6.30
  -3  -4  -1 1625.64   24.20
  -3  -4  -1 1576.24   24.20
  -3  -4  -1 1634.94   24.80
   3   4   1 1582.14   24.00
   3   4   1 1613.84   24.70
   3   4   1 1617.04   24.10
   3   4   1 1632.44   25.30
  -4  -4  -1    6.80    2.40
  -4  -4  -1    4.80    2.30
  -4  -4  -1    4.60    2.80
   4   4   1    7.50    2.30
   4   4   1    7.30    2.40
   4   4   1    3.70    2.10
  -5  -4  -1   15.00    3.20
  -5  -4  -1   16.30    3.10
   5   4   1   15.10    2.90
   5   4   1   18.50    3.00
   5   4   1   11.80    2.40
   5   4   1   16.70    3.30
  -6  -4  -1   28.70    4.00
  -6  -4  -1   35.70    4.20
  -6  -4  -1   38.20    4.50
   6   4   1   26.60    4.10
   6   4   1   42.10    5.30
   6   4   1   28.40    5.20
   6   4   1   22.80    3.70
   6   4   1   19.90    2.90
  -7  -4  -1   68.39    7.50
   7   4   1   50.99    6.20
   7   4   1   72.49   10.40
   7   4   1   53.99    6.60
   7   4   1   81.09    7.20
   6  -5  -1   16.60    5.50
   6  -5  -1   20.20    3.80
  -6   5   1   18.90    3.70
  -6   5   1   19.60    3.70
  -6   5   1   14.80    3.80
   5  -5  -1  259.87    5.20
   5  -5  -1  259.57    5.10
   5  -5  -1  259.47    7.70
   5  -5  -1  264.07   10.50
  -5   5   1  261.47    8.00
  -5   5   1  265.17    8.70
  -5   5   1  267.87    9.50
  -5   5   1  225.38    8.50
   4  -5  -1  745.83   11.80
   4  -5  -1  765.82   21.70
   4  -5  -1  738.43   13.50
   4  -5  -1  762.72   11.90
  -4   5   1  772.72   13.40
  -4   5   1  751.42   13.60
  -4   5   1  796.32   15.60
  -4   5   1  757.12   15.30
   3  -5  -1   11.80    1.70
   3  -5  -1   10.20    1.50
   3  -5  -1   14.70    2.90
   3  -5  -1   11.20    2.30
  -3   5   1    8.60    2.80
  -3   5   1   13.70    2.30
  -3   5   1   13.40    2.00
  -3   5   1   14.00    2.00
  -3   5   1   12.20    2.20
   2  -5  -1  116.39    3.30
   2  -5  -1  115.99    4.00
   2  -5  -1  110.09    4.90
   2  -5  -1  112.29    3.20
  -2   5   1  114.39    5.00
  -2   5   1  114.09    3.60
  -2   5   1  114.69    4.30
  -2   5   1  110.89    3.60
  -2   5   1  117.79    4.20
   1  -5  -1 2694.23   36.50
   1  -5  -1 2605.54   37.00
   1  -5  -1 2499.65   35.90
   1  -5  -1 2571.64   36.10
  -1   5   1 2625.54   37.70
  -1   5   1 2516.95   36.20
  -1   5   1 2694.93   37.60
  -1   5   1 2597.34   36.90
  -1   5   1 2663.33   36.50
   0  -5  -1 2901.71   39.80
   0  -5  -1 2997.20   39.70
   0  -5  -1 2848.52   40.20
   0  -5  -1 2866.71   39.60
   0   5   1 2832.62   40.30
   0   5   1 2832.92   39.90
   0   5   1 2823.22   39.80
   0   5   1 2916.61   41.60
  -1  -5  -1  210.48    4.30
  -1  -5  -1  213.48    5.00
  -1  -5  -1  217.98    5.40
  -1  -5  -1  228.38    4.50
  -1  -5  -1  216.78    5.20
   1   5   1  216.78    5.20
   1   5   1  221.58    5.10
   1   5   1  212.48    5.60
   1   5   1  223.18    6.80
  -2  -5  -1   25.30    3.20
  -2  -5  -1   21.10    2.00
  -2  -5  -1   20.10    3.10
  -2  -5  -1   24.60    3.00
  -2  -5  -1   24.00    3.40
   2   5   1   15.20    2.00
   2   5   1   21.60    2.70
   2   5   1   25.00    4.30
   2   5   1   23.90    3.00
  -3  -5  -1    4.50    2.30
  -3  -5  -1    8.90    2.30
  -3  -5  -1    7.80    1.40
  -3  -5  -1    7.60    2.00
   3   5   1    9.00    2.20
   3   5   1    6.40    2.10
   3   5   1    9.20    2.00
   3   5   1    7.40    2.30
  -4  -5  -1  162.18    7.10
  -4  -5  -1  158.58    6.00
  -4  -5  -1  161.98    6.20
   4   5   1  157.68    6.40
   4   5   1  160.88    5.80
   4   5   1  160.78    7.10
  -5  -5  -1   13.30    3.30
  -5  -5  -1   14.80    3.30
   5   5   1   14.80    2.90
   5   5   1   10.40    3.00
   5   5   1    9.90    5.10
   5   5   1    6.60    2.60
  -6  -5  -1   16.70    3.90
  -6  -5  -1   19.80    4.30
   6   5   1   16.60    4.00
   6   5   1   17.30    3.70
   7   5   1   40.90    4.90
   7   5   1   69.49   10.30
   7   5   1   53.29    5.40
   7   5   1   44.20    6.10
   6  -6  -1   -5.20    5.00
   6  -6  -1   -4.10    3.20
  -6   6   1   -1.10    3.30
  -6   6   1   -2.30    3.50
  -6   6   1    1.50    3.30
   5  -6  -1    5.20    4.40
   5  -6  -1    2.50    2.80
  -5   6   1    5.80    3.00
  -5   6   1    2.40    2.50
  -5   6   1    5.70    3.80
  -5   6   1    0.70    2.80
   4  -6  -1  540.65    8.70
   4  -6  -1  546.75    8.80
   4  -6  -1  532.05   11.00
   4  -6  -1  546.35   13.50
  -4   6   1  550.14   10.70
  -4   6   1  565.24   12.20
  -4   6   1  563.74   14.80
  -4   6   1  546.65   10.90
   3  -6  -1  416.66    8.90
   3  -6  -1  424.86    7.40
   3  -6  -1  429.06    7.40
   3  -6  -1  435.36   10.90
  -3   6   1  433.76    9.70
  -3   6   1  418.76    8.60
  -3   6   1  440.46    8.60
  -3   6   1  427.16   11.00
  -3   6   1  433.46    8.50
   2  -6  -1   27.00    3.80
   2  -6  -1   23.70    2.40
   2  -6  -1   19.50    2.30
   2  -6  -1   22.20    2.20
  -2   6   1   27.40    3.90
  -2   6   1   24.20    2.60
  -2   6   1   27.50    3.60
  -2   6   1   23.60    2.60
  -2   6   1   25.00    3.30
   1  -6  -1  160.88    4.10
   1  -6  -1  163.78    5.00
   1  -6  -1  161.98    4.60
   1  -6  -1  161.08    4.00
  -1   6   1  159.48    4.30
  -1   6   1  167.58    5.40
  -1   6   1  161.38    5.00
  -1   6   1  166.68    5.90
  -1   6   1  166.68    4.50
   0  -6  -1  246.58    5.50
   0  -6  -1  242.38    5.90
   0  -6  -1  222.88    6.10
   0  -6  -1  245.58    5.30
   0   6   1  241.18    6.00
   0   6   1  239.88    6.00
   0   6   1  244.48    5.60
   0   6   1  236.68    5.40
   0   6   1  248.68    7.40
  -1  -6  -1  503.95    8.40
  -1  -6  -1  492.45    8.90
  -1  -6  -1  470.95    9.00
  -1  -6  -1  498.55    9.40
   1   6   1  479.65    9.50
   1   6   1  496.95   11.10
   1   6   1  494.75    9.10
   1   6   1  487.95    9.00
  -2  -6  -1   71.89    3.50
  -2  -6  -1   72.29    2.80
  -2  -6  -1   75.19    4.30
  -2  -6  -1   78.49    3.90
  -2  -6  -1   72.49    3.90
   2   6   1   72.39    5.40
   2   6   1   73.59    4.20
   2   6   1   76.09    3.90
   2   6   1   71.59    3.60
  -3  -6  -1  202.28    6.90
  -3  -6  -1  211.28    6.80
  -3  -6  -1  194.88    6.40
  -3  -6  -1  204.18    4.40
  -3  -6  -1  209.98    6.10
   3   6   1  204.08    6.10
   3   6   1  199.88    6.40
   3   6   1  206.68    6.10
   3   6   1  214.48    8.00
  -4  -6  -1    1.50    4.00
  -4  -6  -1    2.00    2.60
  -4  -6  -1    5.10    2.80
   4   6   1    7.80    2.40
   4   6   1    3.70    2.70
   4   6   1    5.20    2.70
   4   6   1    8.90    2.70
  -5  -6  -1   38.60    4.10
  -5  -6  -1   36.40    4.20
   5   6   1   33.30    4.20
   5   6   1   45.00    5.40
  -6  -6  -1    0.80    3.80
   6   6   1   -1.40    3.30
   6   6   1   -2.80    3.10
   6   6   1    1.20    3.50
   6   6   1   -0.90    3.60
   6  -7  -1   14.80    4.20
  -6   7   1   13.40    3.90
   5  -7  -1    7.00    4.60
   5  -7  -1    0.60    3.00
  -5   7   1    4.20    3.10
  -5   7   1    5.40    2.80
  -5   7   1   10.20    3.30
   4  -7  -1   11.50    3.90
   4  -7  -1   13.00    3.00
  -4   7   1    5.70    4.00
  -4   7   1    9.00    4.60
  -4   7   1    9.50    2.90
  -4   7   1    8.50    2.30
  -4   7   1    8.20    1.50
  -4   7   1    9.80    2.70
   3  -7  -1  388.36    6.80
   3  -7  -1  377.66    8.60
   3  -7  -1  384.76    6.80
   3  -7  -1  395.66   10.80
  -3   7   1  406.36   11.00
  -3   7   1  345.57   13.80
  -3   7   1  383.76    8.20
  -3   7   1  396.76    8.80
   2  -7  -1   -2.10    1.90
   2  -7  -1   -0.20    1.40
   2  -7  -1    0.00    1.30
  -2   7   1   -1.80    1.40
  -2   7   1    1.30    1.80
  -2   7   1    4.00    2.50
  -2   7   1    0.80    1.80
  -2   7   1    1.50    1.70
   1  -7  -1  115.59    4.70
   1  -7  -1  121.29    4.30
   1  -7  -1  118.89    3.70
   1  -7  -1  122.19    3.80
  -1   7   1  123.29    4.20
  -1   7   1  129.09    6.00
  -1   7   1  120.49    5.20
  -1   7   1  125.09    4.00
  -1   7   1  120.69    4.80
   0  -7  -1   23.30    3.10
   0  -7  -1   19.80    2.50
   0  -7  -1   18.50    2.10
   0  -7  -1   23.60    2.70
   0   7   1   19.30    2.70
   0   7   1   24.70    3.20
   0   7   1   25.50    2.90
   0   7   1   21.30    3.20
   0   7   1   17.60    2.60
  -1  -7  -1  194.38    5.20
  -1  -7  -1  193.08    5.70
  -1  -7  -1  189.18    4.70
  -1  -7  -1  191.88    5.30
   1   7   1  189.68    5.30
   1   7   1  189.08    5.50
   1   7   1  198.68    6.00
   1   7   1  197.58    7.40
  -2  -7  -1    5.90    3.80
  -2  -7  -1   16.20    2.50
  -2  -7  -1   12.40    2.50
  -2  -7  -1   13.60    2.20
   2   7   1   10.00    2.20
   2   7   1   11.70    2.50
   2   7   1   11.80    2.50
  -3  -7  -1    4.30    2.60
  -3  -7  -1    2.70    1.90
  -3  -7  -1    7.10    3.00
  -3  -7  -1    8.30    2.60
  -3  -7  -1    3.50    2.50
   3   7   1    9.70    2.70
   3   7   1    6.50    2.30
   3   7   1    7.40    2.80
   3   7   1    3.40    2.60
  -4  -7  -1   13.40    4.50
  -4  -7  -1   11.40    3.10
   4   7   1    6.90    2.80
   4   7   1   12.00    2.90
   4   7   1    8.90    3.00
   4   7   1   10.70    2.90
  -5  -7  -1   17.90    3.80
  -5  -7  -1   12.20    3.40
  -5  -7  -1   20.90    6.20
  -5  -7  -1   12.40    3.30
   5   7   1   11.30    3.50
   5   7   1   16.70    3.50
   5   7   1   21.60    3.70
   5   7   1   17.10    3.50
  -6  -7  -1    3.10    7.10
  -6  -7  -1    1.50    4.30
   6   7   1   -3.70    3.50
   6   7   1    0.60    4.00
   6   7   1    4.00    4.00
   6   7   1    5.10    4.00
   5  -8  -1   23.00    4.10
   5  -8  -1   17.60    5.40
  -5   8   1   22.70    3.40
  -5   8   1   15.10    3.90
  -5   8   1   30.70    4.00
   4  -8  -1   27.50    4.80
   4  -8  -1   18.70    3.20
  -4   8   1   31.50    3.90
  -4   8   1   20.80    3.80
  -4   8   1   35.80    4.80
  -4   8   1   28.10    3.60
  -4   8   1   30.70    3.60
   3  -8  -1  232.08    7.10
   3  -8  -1  245.58    9.10
   3  -8  -1  239.28    4.80
   3  -8  -1  230.08    4.70
  -3   8   1  233.08    7.30
  -3   8   1  230.08    8.90
  -3   8   1  232.38    6.80
  -3   8   1  237.28    6.40
  -3   8   1  231.88    7.80
   2  -8  -1   66.59    4.60
   2  -8  -1   65.59    3.20
   2  -8  -1   63.49    3.10
  -2   8   1   67.39    4.80
  -2   8   1   64.29    5.60
  -2   8   1   64.59    6.20
  -2   8   1   66.99    3.80
  -2   8   1   64.89    5.50
   1  -8  -1   20.40    2.60
   1  -8  -1   20.30    2.10
   1  -8  -1   21.40    2.70
   1  -8  -1   21.20    2.70
  -1   8   1   19.90    2.40
  -1   8   1   16.90    3.00
  -1   8   1   15.30    2.40
  -1   8   1   17.70    2.80
  -1   8   1   22.40    2.40
   0  -8  -1  240.18    6.60
   0  -8  -1  232.28    5.90
   0  -8  -1  223.58    5.80
   0  -8  -1  230.28    5.60
   0   8   1  230.68    6.00
   0   8   1  229.78    6.90
   0   8   1  226.68    6.70
   0   8   1  224.18    6.10
  -1  -8  -1    0.60    2.00
  -1  -8  -1    0.70    1.70
  -1  -8  -1    1.30    1.90
  -1  -8  -1    1.80    2.00
   1   8   1    0.50    2.30
   1   8   1   -1.60    1.90
   1   8   1    1.50    1.80
   1   8   1    0.80    2.10
  -2  -8  -1   27.10    3.00
  -2  -8  -1   24.20    2.30
  -2  -8  -1   24.80    2.80
  -2  -8  -1   22.10    3.00
   2   8   1   24.60    3.20
   2   8   1   23.00    2.90
   2   8   1   15.80    3.10
   2   8   1   25.40    2.90
  -3  -8  -1   28.80    4.10
  -3  -8  -1   25.90    2.40
  -3  -8  -1   25.30    3.30
  -3  -8  -1   24.50    4.20
   3   8   1   24.40    3.60
  -4  -8  -1   28.40    3.80
  -4  -8  -1   30.20    5.00
   4   8   1   23.50    3.50
   4   8   1   25.60    3.80
  -5  -8  -1   15.10    6.40
  -5  -8  -1   20.60    4.10
  -5  -8  -1   15.10    4.30
  -5  -8  -1   25.80    5.10
   5   8   1   15.30    3.60
   5   8   1   19.40    3.70
  -6  -8  -1   24.90    5.00
  -6  -8  -1   36.40    8.80
   6   8   1   20.60    4.90
   6   8   1   14.30    4.20
   6   8   1   23.20    4.80
   5  -9  -1    1.60    5.00
   5  -9  -1   -1.60    3.60
  -5   9   1   -4.80    3.20
  -5   9   1    7.90    3.70
  -5   9   1   -4.10    3.30
   4  -9  -1    3.20    3.10
  -4   9   1    1.50    3.00
  -4   9   1   -0.90    2.40
  -4   9   1    0.70    2.00
  -4   9   1    3.30    2.80
   3  -9  -1    0.80    2.60
  -3   9   1   -1.40    2.10
  -3   9   1    0.00    2.60
  -3   9   1   -1.20    2.10
  -3   9   1   -1.40    2.50
  -3   9   1    0.90    3.60
   2  -9  -1   10.40    2.90
   2  -9  -1   10.30    1.90
   2  -9  -1    8.20    1.70
  -2   9   1    7.90    2.60
  -2   9   1   10.80    2.30
  -2   9   1    6.10    3.40
  -2   9   1    5.10    2.60
  -2   9   1   11.20    2.50
   1  -9  -1  137.69    5.40
   1  -9  -1  136.59    8.00
   1  -9  -1  149.69    4.60
   1  -9  -1  152.88    4.70
  -1   9   1  141.39    6.30
  -1   9   1  151.88    7.60
  -1   9   1  147.59    5.40
  -1   9   1  143.79    5.10
  -1   9   1  154.18    6.70
   0  -9  -1    0.60    2.10
   0  -9  -1    0.60    1.90
   0  -9  -1    1.80    2.10
   0  -9  -1   -1.30    2.00
   0   9   1   -2.10    1.90
   0   9   1    2.70    2.10
   0   9   1    1.50    2.70
   0   9   1    2.40    2.20
   0   9   1   -1.20    2.50
  -1  -9  -1    8.90    2.50
  -1  -9  -1   14.70    2.40
  -1  -9  -1   12.40    2.60
  -1  -9  -1   15.40    2.60
   1   9   1   12.50    2.70
   1   9   1    8.60    3.10
   1   9   1    8.80    2.70
   1   9   1   10.20    2.50
  -2  -9  -1    4.00    2.10
  -2  -9  -1    5.80    2.60
  -2  -9  -1    7.00    2.80
   2   9   1    4.00    2.50
   2   9   1    8.70    4.60
   2   9   1   -0.60    3.10
  -3  -9  -1    3.20    2.00
  -3  -9  -1    4.10    3.10
  -3  -9  -1    4.00    3.00
  -3  -9  -1    7.50    2.80
   3   9   1    3.00    3.30
   3   9   1    8.40    2.80
   3   9   1    8.60    3.10
  -4  -9  -1   19.70    3.50
  -4  -9  -1   27.60    4.00
  -4  -9  -1   28.10    4.90
  -4  -9  -1   26.40    2.60
   4   9   1   26.40    3.90
   4   9   1   27.30    3.80
   4   9   1   25.30    3.80
  -5  -9  -1    4.50    3.80
  -5  -9  -1    5.90    6.10
   5   9   1   -2.20    3.60
   4 -10  -1   35.20    3.90
  -4  10   1   45.90    5.50
  -4  10   1   47.10    5.20
  -4  10   1   46.90    5.60
  -4  10   1   45.50    4.70
   3 -10  -1   24.00    3.10
  -3  10   1   25.10    3.80
  -3  10   1   35.50    5.00
  -3  10   1   29.30    3.60
  -3  10   1   24.20    3.10
  -3  10   1   19.50    3.20
   2 -10  -1   15.30    1.90
   2 -10  -1   12.20    2.90
   2 -10  -1   17.30    2.10
  -2  10   1    9.00    2.90
  -2  10   1   10.30    2.80
  -2  10   1   14.50    3.20
  -2  10   1   11.90    3.10
   1 -10  -1  143.29    4.90
   1 -10  -1  146.79    4.80
  -1  10   1  152.18    6.70
  -1  10   1  148.79    5.90
  -1  10   1  148.39    5.70
  -1  10   1  141.59    7.20
  -1  10   1  139.49    8.20
   0 -10  -1   17.60    2.70
   0 -10  -1   15.40    4.00
   0 -10  -1   17.50    2.80
   0  10   1   11.30    2.80
   0  10   1   11.90    2.90
   0  10   1   15.90    2.80
   0  10   1   14.80    3.40
  -1 -10  -1    0.10    2.40
  -1 -10  -1    2.40    2.40
  -1 -10  -1   -1.00    2.20
   1  10   1    1.00    2.60
   1  10   1    0.60    3.00
   1  10   1   -0.50    2.40
   1  10   1   -1.00    2.60
  -2 -10  -1    4.50    2.70
  -2 -10  -1    5.10    2.30
  -2 -10  -1   -1.00    3.20
   2  10   1   -1.30    2.60
   2  10   1    2.60    2.60
   2  10   1    2.30    2.80
  -3 -10  -1  558.64   13.00
  -3 -10  -1  546.85   10.50
  -3 -10  -1  567.84   12.70
   3  10   1  569.44   15.70
   3  10   1  547.25   13.30
   3  10   1  543.25   12.40
  -4 -10  -1  155.88    7.30
  -4 -10  -1  147.49    5.40
  -4 -10  -1  162.88    8.10
  -4 -10  -1  156.48    7.30
   4  10   1  167.98    8.00
   4  10   1  204.08   11.60
   4  10   1  159.28    7.70
   4  10   1  146.69    9.80
  -5 -10  -1    0.30    4.20
  -5 -10  -1    9.20    6.30
   5  10   1   13.60    4.60
   4 -11  -1   24.00    5.20
  -4  11   1   40.50    5.60
  -4  11   1   39.60    4.20
  -4  11   1   35.60    5.10
   3 -11  -1   -0.70    3.10
  -3  11   1   -0.90    2.70
  -3  11   1   -2.50    2.70
  -3  11   1   -2.20    3.20
  -3  11   1    0.40    2.90
   2 -11  -1    3.90    2.90
   2 -11  -1    6.10    1.80
   2 -11  -1    6.30    1.90
  -2  11   1   11.30    3.10
  -2  11   1    2.20    2.40
  -2  11   1    2.30    2.80
  -2  11   1    0.50    3.00
  -2  11   1    7.60    3.90
   1 -11  -1    0.00    2.10
   1 -11  -1    2.70    2.60
   1 -11  -1    1.80    2.00
  -1  11   1    0.50    2.70
  -1  11   1   -0.60    2.80
  -1  11   1    2.20    2.50
  -1  11   1    1.60    2.90
   0 -11  -1    4.90    2.50
   0 -11  -1    4.50    2.70
   0 -11  -1    7.60    2.50
   0  11   1    2.60    3.10
   0  11   1    7.60    3.20
   0  11   1    2.80    2.90
   0  11   1    8.60    2.80
   0  11   1   10.50    2.80
  -1 -11  -1  264.77    7.50
  -1 -11  -1  273.17    8.00
  -1 -11  -1  263.37    7.40
   1  11   1  261.57   11.10
   1  11   1  266.97    8.20
   1  11   1  265.07    9.20
   1  11   1  262.77    8.00
  -2 -11  -1   14.80    2.90
  -2 -11  -1   16.50    3.40
   2  11   1   15.50    3.50
   2  11   1   12.60    3.20
   2  11   1   13.00    3.50
  -3 -11  -1    9.40    3.60
  -3 -11  -1    8.00    2.50
  -3 -11  -1   10.40    3.30
  -3 -11  -1    5.30    3.20
   3  11   1    7.30    3.30
   3  11   1   12.50    3.50
   3  11   1    5.40    3.30
   3  11   1    9.40    3.30
  -4 -11  -1  188.48    6.30
  -4 -11  -1  212.68    8.10
  -4 -11  -1  193.28    9.20
   4  11   1  203.78    9.40
   4  11   1  217.48    9.20
   3 -12  -1    0.40    3.50
  -3  12   1    9.60    3.50
  -3  12   1   10.90    3.50
  -3  12   1   -4.20    3.70
  -3  12   1   -1.50    3.30
   2 -12  -1    9.80    3.40
   2 -12  -1    8.80    1.70
  -2  12   1   10.10    2.90
  -2  12   1   13.70    3.40
  -2  12   1   10.10    3.10
  -2  12   1    4.30    3.40
  -2  12   1    3.60    3.50
   1 -12  -1    4.40    2.30
   1 -12  -1   -2.00    2.70
   1 -12  -1    1.20    2.90
  -1  12   1    1.00    2.70
  -1  12   1    1.00    3.70
  -1  12   1    0.80    3.10
  -1  12   1   -0.30    3.00
  -1  12   1   -2.90    3.10
   0 -12  -1   10.10    2.80
   0 -12  -1    9.90    2.90
   0 -12  -1   11.10    3.00
   0 -12  -1    9.00    3.10
   0  12   1   13.90    3.80
   0  12   1   15.70    3.40
   0  12   1   10.70    3.50
   0  12   1    7.90    3.00
   0  12   1    8.20    3.60
  -1 -12  -1   -1.30    2.60
  -1 -12  -1    4.60    2.80
  -1 -12  -1    5.30    3.10
  -1 -12  -1    0.80    2.90
   1  12   1    2.70    2.90
   1  12   1    3.20    3.20
   1  12   1    9.00    3.40
   1  12   1    0.30    3.10
   1  12   1   -1.10    3.40
  -2 -12  -1    2.90    2.60
  -2 -12  -1    9.10    3.30
  -2 -12  -1   10.50    3.60
   2  12   1    1.30    3.20
   2  12   1    6.40    3.40
  -3 -12  -1   65.09    4.90
  -3 -12  -1   78.19    7.10
   3  12   1   60.39    7.40
   3  12   1   70.69    6.90
  -4 -12  -1   14.60    3.00
  -4 -12  -1   16.50    4.90
   4  12   1   25.90    4.80
   4  12   1    8.80    4.60
  -2  13   1    2.30    3.90
  -2  13   1   12.10    3.80
   1 -13  -1   12.10    2.70
   1 -13  -1   11.30    3.60
  -1  13   1   12.40    3.90
  -1  13   1   12.30    3.60
   0 -13  -1   -2.80    3.00
   0 -13  -1   -0.30    3.00
   0 -13  -1    1.90    3.00
   0  13   1   -1.50    3.30
   0  13   1   -2.40    3.20
   0  13   1   -0.50    4.30
  -1 -13  -1   -2.50    3.30
  -1 -13  -1    2.60    3.00
   1  13   1   -3.80    3.70
   1  13   1    5.60    3.50
   1  13   1    1.00    3.40
  -2 -13  -1   21.70    3.50
  -2 -13  -1   21.80    3.90
  -2 -13  -1   31.80    4.60
   2  13   1   20.70    4.40
   2  13   1   34.40    4.90
  -3 -13  -1    0.60    2.80
  -3 -13  -1   -4.90    4.60
   3  13   1   11.90    4.40
   3  13   1   -0.20    4.00
   0 -14  -1   12.50    5.60
   0 -14  -1    5.50    3.50
   0  14   1    4.70    4.10
  -1 -14  -1    3.00    3.30
  -1 -14  -1    2.40    3.80
  -1 -14  -1   12.90    4.20
   1  14   1   -4.10    3.60
   1  13  -2    1.40    4.10
   1  13  -2    3.60    3.90
  -1 -13   2    7.90    4.10
  -1 -13   2    7.50    3.70
   0  13  -2   -3.80    3.80
   0  13  -2   -5.60    3.80
   3  12  -2    2.70    4.60
   2  12  -2   16.10    4.00
   2  12  -2   13.10    4.30
  -2 -12   2    7.10    3.20
  -2 -12   2   15.20    3.80
  -2 -12   2    8.30    3.90
   1  12  -2    1.50    3.60
   1  12  -2    0.00    3.50
  -1 -12   2   10.90    3.10
  -1 -12   2    3.20    3.30
  -1 -12   2    0.70    3.00
   0  12  -2    6.50    3.10
   0  12  -2    9.50    3.30
   0  12  -2    4.00    3.60
   0 -12   2    3.40    2.00
   0 -12   2    4.00    2.20
   0 -12   2    8.50    3.30
  -1  12  -2   -1.70    3.40
  -1  12  -2    1.70    3.20
  -1  12  -2    2.80    3.30
   1 -12   2   -1.00    3.20
  -2  12  -2   70.19    7.60
  -2  12  -2   86.99    6.10
  -2  12  -2   84.19    6.10
   2 -12   2   83.99    7.00
   3  11  -2   19.70    4.40
   3  11  -2   20.30    4.50
  -3 -11   2   19.90    3.60
  -3 -11   2   23.60    3.80
  -3 -11   2   21.30    4.30
   2  11  -2   57.39    6.80
   2  11  -2   45.80    6.30
  -2 -11   2   63.09    5.90
  -2 -11   2   40.60    4.90
   1  11  -2  242.98    9.30
   1  11  -2  252.97    8.40
   1  11  -2  230.58    8.20
  -1 -11   2  254.17    7.90
  -1 -11   2  253.27    8.60
  -1 -11   2  256.67    7.30
  -1 -11   2  248.18    7.20
   0  11  -2    6.40    2.80
   0  11  -2    6.10    3.40
   0  11  -2    5.90    3.10
   0  11  -2    7.40    2.90
   0 -11   2    7.10    3.00
   0 -11   2    9.90    2.10
   0 -11   2    3.60    2.70
   0 -11   2    4.10    2.10
  -1  11  -2   -0.70    2.80
  -1  11  -2   -3.70    2.60
  -1  11  -2   -4.00    3.20
  -1  11  -2    0.00    2.80
  -1  11  -2    3.10    3.50
   1 -11   2    4.80    3.00
   1 -11   2    0.30    2.60
  -2  11  -2    5.70    3.40
  -2  11  -2    0.40    2.70
  -2  11  -2    3.30    2.90
  -2  11  -2   -1.10    3.30
   2 -11   2    3.00    3.20
  -3  11  -2   65.29    7.00
  -3  11  -2   58.39    5.30
  -3  11  -2   53.39    5.20
  -3  11  -2   49.30    8.00
   3 -11   2   53.79    6.30
   4  10  -2   86.29    7.20
   4  10  -2   66.79    7.10
  -4 -10   2   71.99    7.60
   3  10  -2    2.20    3.70
   3  10  -2    1.60    3.50
  -3 -10   2   -7.80    4.20
  -3 -10   2    0.00    2.60
  -3 -10   2   -3.70    3.10
  -3 -10   2    8.80    3.50
   2  10  -2   47.70    6.10
   2  10  -2   52.59    5.60
   2  10  -2   51.39    5.60
  -2 -10   2   44.70    5.50
  -2 -10   2   42.00    5.00
  -2 -10   2   51.49    5.70
  -2 -10   2   46.50    4.60
   1  10  -2   -1.40    2.50
   1  10  -2   -2.10    2.80
   1  10  -2    4.70    2.90
  -1 -10   2   -2.00    2.40
  -1 -10   2   -0.70    2.90
  -1 -10   2   -3.40    2.30
  -1 -10   2    0.10    2.40
   0  10  -2   40.60    4.80
   0  10  -2   34.40    3.80
   0  10  -2   37.30    4.50
   0 -10   2   32.90    3.50
   0 -10   2   32.90    3.10
   0 -10   2   39.60    3.20
  -1  10  -2   47.60    4.30
  -1  10  -2   42.50    5.30
  -1  10  -2   38.80    5.50
  -1  10  -2   42.70    4.60
   1 -10   2   44.70    4.80
   1 -10   2   45.30    5.10
  -2  10  -2   16.40    4.00
  -2  10  -2   18.60    2.80
  -2  10  -2   17.50    3.30
  -2  10  -2   18.90    3.10
  -2  10  -2   10.70    3.50
  -2  10  -2   26.80    3.30
   2 -10   2   22.50    3.30
   2 -10   2   13.10    3.20
  -3  10  -2   16.50    3.50
  -3  10  -2   20.90    3.10
  -3  10  -2   17.70    2.70
  -3  10  -2   23.40    4.60
  -3  10  -2   11.10    3.50
   3 -10   2   17.90    3.70
  -4  10  -2   11.70    3.20
  -4  10  -2    4.00    2.90
  -4  10  -2    9.20    2.90
  -4  10  -2    3.90    3.80
  -4  10  -2    7.10    5.50
   4 -10   2    7.60    3.40
   5   9  -2   -0.90    3.90
   5   9  -2    5.70    4.80
  -5  -9   2    3.20    4.30
   4   9  -2   66.59    6.40
  -4  -9   2   59.19    6.70
  -4  -9   2   56.69    6.30
   3   9  -2   16.20    3.40
   3   9  -2   17.10    3.50
  -3  -9   2    9.70    3.40
  -3  -9   2   13.30    3.50
  -3  -9   2   15.30    2.80
   2   9  -2    3.00    2.80
   2   9  -2    1.50    2.70
   2   9  -2    1.70    2.90
  -2  -9   2    6.40    2.60
  -2  -9   2    7.40    2.90
  -2  -9   2    5.20    2.50
   1   9  -2   31.60    3.60
   1   9  -2   29.50    4.40
   1   9  -2   31.80    3.60
  -1  -9   2   32.70    3.90
  -1  -9   2   24.60    3.10
  -1  -9   2   27.30    3.20
   0   9  -2    6.70    3.20
   0   9  -2    7.70    2.30
   0   9  -2    7.70    2.50
   0  -9   2    8.50    2.60
   0  -9   2    9.80    1.90
   0  -9   2    5.80    1.80
   0  -9   2    5.20    2.60
  -1   9  -2  136.29    5.10
  -1   9  -2  137.59    8.10
  -1   9  -2  133.39    5.30
  -1   9  -2  146.39    6.50
   1  -9   2  144.89    6.20
   1  -9   2  141.39    5.80
  -2   9  -2    7.70    2.70
  -2   9  -2    8.70    2.20
  -2   9  -2   11.00    3.00
  -2   9  -2   16.40    3.00
   2  -9   2    9.00    2.80
  -3   9  -2   42.40    5.90
  -3   9  -2   37.10    3.90
  -3   9  -2   36.60    4.00
  -3   9  -2   36.50    6.20
  -3   9  -2   40.00    6.10
  -3   9  -2   33.50    3.60
   3  -9   2   34.10    3.70
  -4   9  -2   13.20    3.00
  -4   9  -2    8.10    3.40
  -4   9  -2   10.40    2.50
  -4   9  -2   16.90    5.50
  -4   9  -2   18.90    3.70
   4  -9   2   13.00    3.50
  -5   9  -2    8.00    3.80
  -5   9  -2   10.20    3.10
  -5   9  -2   16.70    6.70
   5  -9   2    9.10    3.80
   5   8  -2   -2.40    3.40
   5   8  -2   -5.70    3.70
   5   8  -2   -6.90    4.30
  -5  -8   2   -1.80    4.00
   4   8  -2   20.10    3.50
   4   8  -2   27.60    3.60
  -4  -8   2   15.50    3.80
  -4  -8   2   12.00    3.60
  -4  -8   2   17.50    3.60
   3   8  -2   41.00    4.70
   3   8  -2   52.29    5.30
   3   8  -2   41.30    5.20
  -3  -8   2   45.40    5.20
  -3  -8   2   46.80    5.50
  -3  -8   2   52.39    4.20
   2   8  -2   42.00    5.00
  -2  -8   2   33.90    3.60
  -2  -8   2   34.10    3.80
  -2  -8   2   36.40    4.30
  -2  -8   2   40.50    4.60
   1   8  -2   -2.90    2.30
   1   8  -2    0.60    2.50
   1   8  -2   -0.50    2.10
  -1  -8   2    0.30    2.10
  -1  -8   2    1.60    2.10
  -1  -8   2    1.20    2.20
  -1  -8   2   -0.80    2.00
   0   8  -2    0.40    1.90
   0   8  -2   -0.90    2.30
   0  -8   2    1.30    1.60
   0  -8   2   -0.10    2.00
   0  -8   2   -0.60    1.50
   0  -8   2    1.20    2.10
  -1   8  -2   15.10    2.30
  -1   8  -2    8.00    2.90
  -1   8  -2   13.80    2.10
  -1   8  -2   10.50    2.60
   1  -8   2   14.20    2.70
   1  -8   2   13.50    2.60
  -2   8  -2   17.10    2.10
  -2   8  -2   17.30    2.40
  -2   8  -2   20.80    3.40
   2  -8   2   15.00    2.70
   2  -8   2   14.60    2.80
  -3   8  -2   31.00    5.30
  -3   8  -2   19.90    2.40
  -3   8  -2   27.10    3.40
  -3   8  -2   18.20    3.70
  -3   8  -2   26.90    3.00
   3  -8   2   22.80    3.30
  -4   8  -2   -0.80    1.90
  -4   8  -2   -1.60    2.10
  -4   8  -2    3.10    2.40
  -4   8  -2    3.40    4.90
  -4   8  -2   -1.10    3.30
  -4   8  -2   -2.70    3.10
  -4   8  -2    0.40    2.80
   4  -8   2    0.90    2.70
  -5   8  -2   -3.00    2.90
  -5   8  -2    1.40    6.00
  -5   8  -2    1.20    2.80
  -5   8  -2    0.80    3.60
   5  -8   2    3.30    3.30
   5   7  -2    9.20    3.90
   5   7  -2    3.00    4.50
   5   7  -2   11.50    4.20
  -5  -7   2   -0.30    3.80
   4   7  -2   22.20    3.30
  -4  -7   2   25.30    3.60
  -4  -7   2   24.50    3.90
  -4  -7   2   20.80    3.80
   3   7  -2   79.39    5.40
   3   7  -2   66.09    4.60
  -3  -7   2   61.19    7.20
  -3  -7   2   69.89    5.10
  -3  -7   2   69.09    5.70
  -3  -7   2   69.59    4.20
   2   7  -2  123.29    5.60
   2   7  -2  113.09    6.00
   2   7  -2  124.79    5.30
  -2  -7   2  123.09    5.80
  -2  -7   2  118.09    4.50
  -2  -7   2  115.29    5.30
  -2  -7   2  115.99    5.10
   1   7  -2  273.27    6.80
   1   7  -2  274.77    7.60
  -1  -7   2  289.27    7.40
  -1  -7   2  274.07    6.50
  -1  -7   2  273.17    6.30
  -1  -7   2  280.97    6.60
   0   7  -2   35.80    4.00
   0   7  -2   35.90    3.40
   0   7  -2   34.10    3.00
   0  -7   2   36.20    2.70
   0  -7   2   36.50    3.50
   0  -7   2   38.20    2.50
  -1   7  -2  153.58    6.30
  -1   7  -2  148.89    4.20
  -1   7  -2  154.98    5.60
  -1   7  -2  154.38    4.30
  -1   7  -2  151.08    4.50
   1  -7   2  153.38    5.40
   1  -7   2  156.98    5.10
  -2   7  -2  636.24   10.70
  -2   7  -2  631.24   12.60
  -2   7  -2  646.34   12.60
  -2   7  -2  637.54   13.90
  -2   7  -2  631.44   10.80
   2  -7   2  646.24   12.40
  -3   7  -2  109.79    8.70
  -3   7  -2  129.39    4.20
  -3   7  -2  131.89    6.90
  -3   7  -2  130.89    4.10
   3  -7   2  130.39    5.30
  -4   7  -2    3.00    2.00
  -4   7  -2    3.30    2.70
  -4   7  -2    0.60    1.80
  -4   7  -2   -1.20    3.00
  -4   7  -2    3.50    1.80
   4  -7   2    0.70    2.30
  -5   7  -2    2.40    2.70
  -5   7  -2    0.40    3.00
  -5   7  -2   -1.50    2.10
   5  -7   2    0.60    4.30
   5  -7   2    4.50    2.80
   6   6  -2   44.80    5.80
   6   6  -2   32.50    4.80
  -6  -6   2   37.30    5.10
   5   6  -2  173.08    7.30
   5   6  -2  156.98    9.60
   5   6  -2  175.38    8.20
   5   6  -2  157.58    7.00
  -5  -6   2  165.58    7.90
  -5  -6   2  146.59    7.60
  -5  -6   2  172.78    8.30
   4   6  -2    5.90    2.40
   4   6  -2    2.80    2.80
  -4  -6   2   -4.60    2.70
   3   6  -2    1.90    2.50
   3   6  -2    4.10    2.40
   3   6  -2    0.90    2.00
  -3  -6   2    6.00    2.10
  -3  -6   2    4.80    2.50
  -3  -6   2    2.80    2.60
  -3  -6   2    4.70    2.70
   2   6  -2  163.68    5.70
   2   6  -2  159.28    5.50
   2   6  -2  154.78    6.10
  -2  -6   2  159.18    4.70
  -2  -6   2  166.98    5.60
  -2  -6   2  161.58    6.00
  -2  -6   2  163.48    5.50
   1   6  -2  318.57    7.00
   1   6  -2  327.27    7.30
   1   6  -2  321.17    7.60
  -1  -6   2  311.37    6.80
  -1  -6   2  318.17    7.40
  -1  -6   2  314.77    6.60
  -1  -6   2  314.77    6.70
   0   6  -2    2.40    1.60
   0   6  -2    1.60    1.40
   0   6  -2   -2.30    1.50
   0  -6   2    0.90    1.30
   0  -6   2    2.40    1.20
   0  -6   2    2.00    1.60
   0  -6   2    1.40    1.60
  -1   6  -2    3.00    1.30
  -1   6  -2    2.80    1.40
  -1   6  -2    2.70    1.60
  -1   6  -2    5.00    1.80
  -1   6  -2    0.90    2.10
   1  -6   2    4.00    1.70
   1  -6   2    3.50    1.60
  -2   6  -2  228.08    7.40
  -2   6  -2  232.98    6.90
  -2   6  -2  234.18    6.50
  -2   6  -2  226.48    4.90
  -2   6  -2  234.08    5.00
   2  -6   2  231.48    5.90
  -3   6  -2  395.66   10.10
  -3   6  -2  396.96   10.70
  -3   6  -2  387.96    7.30
  -3   6  -2  376.56    7.10
  -3   6  -2  411.26    9.40
   3  -6   2  382.16    8.40
  -4   6  -2    0.30    1.50
  -4   6  -2    0.30    1.50
  -4   6  -2    0.70    1.20
  -4   6  -2    2.40    5.30
  -4   6  -2    3.40    3.10
  -4   6  -2    2.50    1.80
  -4   6  -2   -1.10    2.20
   4  -6   2    1.10    2.20
   4  -6   2   -1.50    3.20
  -5   6  -2    4.50    3.90
  -5   6  -2    1.50    2.80
  -5   6  -2    4.40    2.10
  -5   6  -2    0.80    2.40
  -5   6  -2    6.40    3.00
   5  -6   2    2.40    2.50
   5  -6   2    6.20    4.00
  -6   6  -2    4.80    3.50
  -6   6  -2   11.30    3.60
  -6   6  -2    7.00    3.10
   6  -6   2   16.40    5.30
   6  -6   2   13.60    3.50
   6   5  -2    7.30    3.80
   6   5  -2   19.00    4.70
   6   5  -2   11.40    4.20
  -6  -5   2   16.50    4.30
   5   5  -2    7.50    3.50
   5   5  -2   12.20    3.40
   5   5  -2    2.70    2.90
  -5  -5   2    4.60    3.20
  -5  -5   2    9.20    3.80
  -5  -5   2    6.00    3.60
   4   5  -2  173.88    6.80
   4   5  -2  171.08    6.80
   4   5  -2  174.58    6.20
  -4  -5   2  181.08    7.10
  -4  -5   2  171.68    7.70
   3   5  -2    4.80    2.20
   3   5  -2   -0.10    2.30
   3   5  -2   -1.30    1.80
  -3  -5   2    1.80    2.40
  -3  -5   2   -2.30    2.10
  -3  -5   2    3.00    2.50
   2   5  -2   26.30    2.80
   2   5  -2   29.60    2.90
   2   5  -2   30.20    3.20
  -2  -5   2   30.00    2.70
  -2  -5   2   30.90    3.70
  -2  -5   2   32.00    3.40
  -2  -5   2   30.70    3.10
   1   5  -2  205.98    5.10
   1   5  -2  205.18    5.70
   1   5  -2  201.28    5.30
  -1  -5   2  202.98    4.90
  -1  -5   2  203.58    5.00
  -1  -5   2  206.88    5.50
  -1  -5   2  205.78    4.90
   0   5  -2    0.80    1.30
   0   5  -2    2.40    1.50
   0   5  -2   -1.00    1.40
   0  -5   2    1.40    1.10
   0  -5   2    0.10    1.40
   0  -5   2    1.00    1.40
   0  -5   2    0.90    1.20
  -1   5  -2   -2.10    1.70
  -1   5  -2   -0.50    1.70
  -1   5  -2    0.70    1.20
  -1   5  -2    1.40    1.40
  -1   5  -2    0.30    1.00
   1  -5   2    0.30    1.50
   1  -5   2    1.10    1.40
  -2   5  -2  262.87    4.90
  -2   5  -2  274.77    6.50
  -2   5  -2  269.17    5.10
  -2   5  -2  270.67    7.30
  -2   5  -2  269.87    7.50
   2  -5   2  276.77    6.10
  -3   5  -2  282.27    5.50
  -3   5  -2  289.07    5.60
  -3   5  -2  291.57    7.40
  -3   5  -2  290.57    8.10
  -3   5  -2  293.97    8.70
   3  -5   2  283.27    6.60
   3  -5   2  276.47    8.40
  -4   5  -2   48.50    6.20
  -4   5  -2   43.90    3.10
  -4   5  -2   39.50    2.60
  -4   5  -2   41.50    3.00
  -4   5  -2   41.10    6.30
  -4   5  -2   46.70    3.10
   4  -5   2   46.90    5.80
   4  -5   2   41.90    3.80
  -5   5  -2   20.30    3.20
  -5   5  -2   17.40    4.40
  -5   5  -2   19.00    4.30
  -5   5  -2   18.20    2.40
   5  -5   2   13.40    2.70
   5  -5   2   24.80    4.50
  -6   5  -2    0.30    3.10
  -6   5  -2    2.70    3.10
  -6   5  -2   -2.70    2.50
   6  -5   2   -1.60    4.90
   6  -5   2    3.90    2.90
   6   4  -2   -7.00    3.40
   6   4  -2    5.40    3.90
   6   4  -2   -2.60    3.30
   6   4  -2    7.60    3.50
  -6  -4   2   -3.60    3.70
   5   4  -2   22.00    3.60
   5   4  -2   16.60    3.20
  -5  -4   2   23.40    3.80
  -5  -4   2   18.10    3.60
   4   4  -2   26.60    3.40
   4   4  -2   22.50    2.90
   4   4  -2   24.70    3.30
  -4  -4   2   27.60    3.70
   3   4  -2  174.58    5.20
   3   4  -2  180.08    5.90
   3   4  -2  186.58    5.90
  -3  -4   2  185.88    5.90
  -3  -4   2  159.28    7.30
  -3  -4   2  176.98    5.70
   2   4  -2   50.19    3.70
   2   4  -2   59.09    3.00
   2   4  -2   59.79    3.40
  -2  -4   2   57.09    3.80
  -2  -4   2   49.90    3.40
  -2  -4   2   55.89    3.40
  -2  -4   2   51.49    3.50
   1   4  -2   64.79    3.40
   1   4  -2   58.89    3.10
   1   4  -2   60.49    3.60
  -1  -4   2   63.89    3.40
  -1  -4   2   62.89    3.00
  -1  -4   2   65.59    2.80
  -1  -4   2   59.69    3.10
   0   4  -2  267.87    5.30
   0   4  -2  266.37    5.20
   0   4  -2  267.97    5.80
   0  -4   2  261.87    5.00
   0  -4   2  275.07    5.70
   0  -4   2  262.47    4.90
   0  -4   2  261.57    5.40
   0  -4   2  269.87    4.80
  -1   4  -2  447.86    8.40
  -1   4  -2  447.66    7.10
  -1   4  -2  435.46    8.90
  -1   4  -2  437.46    7.00
  -1   4  -2  439.16    8.10
   1  -4   2  446.46    7.80
   1  -4   2  433.86    8.10
  -2   4  -2   16.50    1.50
  -2   4  -2   17.70    1.50
  -2   4  -2   17.30    2.00
  -2   4  -2   18.00    2.60
  -2   4  -2   22.00    3.10
   2  -4   2   16.50    1.90
  -3   4  -2  182.08    5.50
  -3   4  -2  176.88    3.90
  -3   4  -2  180.58    3.90
   3  -4   2  178.28    4.80
   3  -4   2  184.98    6.50
  -4   4  -2   26.50    2.80
  -4   4  -2   23.40    2.60
  -4   4  -2   26.40    3.40
  -4   4  -2   20.30    2.80
  -4   4  -2   28.50    4.20
   4  -4   2   25.90    2.70
   4  -4   2   21.40    3.60
  -5   4  -2  128.09    6.20
  -5   4  -2  122.79    4.90
  -5   4  -2  123.29    4.60
  -5   4  -2  119.29    7.80
   5  -4   2  138.39    8.00
   5  -4   2  126.99    5.10
  -6   4  -2    4.40    2.90
  -6   4  -2    7.20    3.10
   6  -4   2   -0.20    2.70
   6  -4   2    2.10    4.60
   6   3  -2   -1.40    3.50
   6   3  -2   15.20    3.50
   6   3  -2    1.20    2.00
   6   3  -2    2.80    3.60
   6   3  -2   -1.20    2.70
  -6  -3   2    4.90    3.60
   5   3  -2   48.00    5.40
   5   3  -2   57.99    6.70
   5   3  -2   42.80    5.10
  -5  -3   2   40.10    5.40
  -5  -3   2   47.30    5.80
  -5  -3   2   35.30    3.90
   4   3  -2   10.00    2.80
   4   3  -2   11.80    2.40
   4   3  -2    9.50    2.70
  -4  -3   2    6.70    2.90
  -4  -3   2   12.10    2.90
  -4  -3   2   11.20    2.70
   3   3  -2   79.09    3.70
   3   3  -2   86.29    4.40
   3   3  -2   85.19    4.20
  -3  -3   2   79.59    4.40
  -3  -3   2   75.29    5.00
  -3  -3   2   86.29    4.80
   2   3  -2 2112.59   30.80
   2   3  -2 2124.09   30.20
   2   3  -2 2187.48   31.00
  -2  -3   2 2160.98   31.10
  -2  -3   2 2139.89   30.80
  -2  -3   2 2147.69   30.80
   1   3  -2  849.41   13.30
   1   3  -2  837.42   13.20
   1   3  -2  840.12   13.40
  -1  -3   2  865.41   13.40
  -1  -3   2  864.91   13.00
  -1  -3   2  858.01   13.10
  -1  -3   2  879.81   12.80
   0   3  -2  129.39    3.00
   0   3  -2  130.69    3.20
   0   3  -2  132.09    3.50
   0  -3   2  127.69    3.30
   0  -3   2  136.59    3.40
   0  -3   2  132.69    2.90
   0  -3   2  131.39    3.20
   0  -3   2  134.09    2.80
  -1   3  -2   87.29    3.60
  -1   3  -2   87.49    3.50
  -1   3  -2   83.49    2.00
  -1   3  -2   82.09    2.90
  -1   3  -2   87.49    1.90
   1  -3   2   87.49    3.00
  -2   3  -2  440.66    9.10
  -2   3  -2  430.26    8.10
  -2   3  -2  435.26    6.50
  -2   3  -2  431.56    6.40
  -2   3  -2  438.76    8.70
   2  -3   2  443.56    7.60
   2  -3   2  431.46    9.00
  -3   3  -2  550.24   11.00
  -3   3  -2  537.85   11.40
  -3   3  -2  551.84    8.60
  -3   3  -2  540.15   10.20
  -3   3  -2  530.25    8.50
  -3   3  -2  542.15    9.00
   3  -3   2  558.04   11.30
  -4   3  -2   31.40    2.70
  -4   3  -2   34.20    4.60
  -4   3  -2   34.50    2.70
  -4   3  -2   31.30    3.90
   4  -3   2   39.30    5.00
   4  -3   2   37.10    3.00
  -5   3  -2   11.70    2.30
  -5   3  -2   11.80    2.50
   5  -3   2   14.30    3.80
   5  -3   2    8.80    2.30
  -6   3  -2    4.40    4.00
  -6   3  -2    1.70    2.90
   6  -3   2    2.10    2.60
   6  -3   2   -0.40    4.10
   7  -3   2    6.20    5.70
   6   2  -2   -1.40    2.10
   6   2  -2    3.90    1.60
   6   2  -2   -3.10    3.20
   6   2  -2    5.30    5.00
   6   2  -2   10.00    3.50
  -6  -2   2    8.20    3.60
   5   2  -2   78.49    5.70
   5   2  -2   75.99    5.50
   5   2  -2   75.29    4.50
  -5  -2   2   73.49    6.20
  -5  -2   2   79.39    5.70
  -5  -2   2   79.59    5.70
   4   2  -2    8.20    2.30
   4   2  -2   12.20    2.80
   4   2  -2    9.00    2.40
  -4  -2   2    5.00    2.60
  -4  -2   2    8.10    2.30
  -4  -2   2    6.00    2.50
   3   2  -2  119.89    4.10
   3   2  -2  119.09    4.60
   3   2  -2  118.19    4.50
  -3  -2   2  120.69    4.60
  -3  -2   2  122.89    4.50
   2   2  -2   95.59    3.90
   2   2  -2   94.39    3.20
   2   2  -2   95.99    3.90
  -2  -2   2   96.49    4.20
  -2  -2   2  100.49    3.80
  -2  -2   2  101.09    3.90
   1   2  -2  224.58    4.80
   1   2  -2  225.58    4.60
   1   2  -2  222.18    4.80
  -1  -2   2  219.48    4.60
  -1  -2   2  225.38    4.60
  -1  -2   2  230.18    4.80
  -1  -2   2  229.48    4.30
   0   2  -2   90.49    2.60
   0   2  -2   88.89    2.20
   0   2  -2   87.59    2.30
   0  -2   2   84.09    2.80
   0  -2   2   93.69    2.40
   0  -2   2   88.09    2.00
   0  -2   2   87.99    2.10
   0  -2   2   90.99    2.40
  -1   2  -2   78.79    3.00
  -1   2  -2   80.59    2.50
  -1   2  -2   77.99    3.20
   1  -2   2   76.79    2.40
   1  -2   2   82.99    2.30
  -2   2  -2  626.24   10.90
  -2   2  -2  622.44   10.10
  -2   2  -2  621.64   11.20
   2  -2   2  651.83    9.80
   2  -2   2  633.54   11.20
  -3   2  -2  592.84    9.00
  -3   2  -2  570.34    9.00
  -3   2  -2  605.74   11.80
  -3   2  -2  581.54   11.20
  -3   2  -2  593.54    9.10
   3  -2   2  576.54   11.40
   3  -2   2  583.54    9.40
  -4   2  -2   15.50    3.20
  -4   2  -2   11.70    2.70
  -4   2  -2   14.00    1.90
  -4   2  -2   16.30    1.90
   4  -2   2   15.90    3.00
  -5   2  -2   28.90    3.40
  -5   2  -2   27.40    2.80
   5  -2   2   28.30    4.40
   5  -2   2   27.90    2.60
  -6   2  -2  324.67   12.50
  -6   2  -2  339.97   10.80
  -6   2  -2  318.37    8.70
   6  -2   2  327.17    7.60
   6  -2   2  320.87   11.50
  -7   2  -2    3.00    3.90
  -7   2  -2    0.40    3.20
   7  -2   2  -12.00    5.10
   7  -2   2    6.50    3.10
   6   1  -2    6.40    3.40
   6   1  -2   13.50    5.00
  -6  -1   2   11.40    3.70
  -6  -1   2    9.70    3.60
   5   1  -2   42.90    4.20
   5   1  -2   45.50    3.30
   5   1  -2   50.29    4.80
   5   1  -2   39.50    4.90
   5   1  -2   55.79    7.10
  -5  -1   2   38.60    5.00
  -5  -1   2   55.39    5.70
  -5  -1   2   51.09    5.30
   4   1  -2   84.69    4.60
   4   1  -2   70.39    3.70
   4   1  -2   72.79    4.40
   4   1  -2   72.89    4.50
  -4  -1   2   70.29    4.70
  -4  -1   2   69.39    4.70
  -4  -1   2   71.19    4.60
   3   1  -2    9.10    1.70
   3   1  -2   10.30    1.90
   3   1  -2   10.20    2.10
  -3  -1   2    7.30    1.90
  -3  -1   2    7.80    2.00
  -3  -1   2   12.10    2.10
   2   1  -2 1631.94   23.20
   2   1  -2 1613.34   23.70
   2   1  -2 1624.54   23.70
  -2  -1   2 1617.04   23.10
  -2  -1   2 1636.04   23.70
  -2  -1   2 1660.73   23.70
   0   1  -2  455.65    6.80
   0   1  -2  455.05    6.80
   0   1  -2  457.25    6.80
   0  -1   2  467.25    6.90
   0  -1   2  457.85    6.60
   0  -1   2  451.95    6.60
   0  -1   2  457.25    7.80
   0  -1   2  453.95    6.80
  -1   1  -2  679.43   11.40
  -1   1  -2  694.13   10.80
  -1   1  -2  690.03   10.50
  -1   1  -2  682.23   10.70
  -1   1  -2  681.93   10.10
   1  -1   2  705.93    9.90
   1  -1   2  686.43   11.40
  -2   1  -2 1530.45   20.60
  -2   1  -2 1392.66   20.90
  -2   1  -2 1548.84   22.60
  -2   1  -2 1516.45   21.50
  -2   1  -2 1540.55   22.60
   2  -1   2 1554.74   22.60
   2  -1   2 1523.95   22.50
   2  -1   2 1579.74   21.10
  -3   1  -2 1583.04   24.40
  -3   1  -2 1589.74   22.40
  -3   1  -2 1541.05   22.30
  -3   1  -2 1598.94   24.60
   3  -1   2 1569.94   24.30
   3  -1   2 1607.44   24.60
   3  -1   2 1638.14   22.30
  -4   1  -2   93.39    3.60
  -4   1  -2   91.89    5.20
  -4   1  -2   93.69    3.60
   4  -1   2   95.09    5.40
   4  -1   2   94.49    3.20
  -5   1  -2   27.50    2.80
  -5   1  -2   33.50    4.10
  -5   1  -2   28.00    3.70
   5  -1   2   28.50    3.10
   5  -1   2   30.10    4.80
  -6   1  -2    5.60    3.50
  -6   1  -2    4.10    2.90
   6  -1   2    6.60    2.40
   6  -1   2    3.70    3.90
  -7   1  -2    1.60    3.70
  -7   1  -2   -3.60    3.20
   7  -1   2    7.90    3.20
   7  -1   2    9.10    5.40
   6   0  -2   41.20    5.50
   6   0  -2   39.10    4.10
   6   0  -2   57.99    8.20
  -6   0   2   51.99    5.70
  -6   0   2   42.30    5.70
  -6   0   2   37.90    4.30
   5   0  -2   62.29    4.80
   5   0  -2   63.19    4.90
   5   0  -2   62.09    7.10
  -5   0   2   67.19    5.90
  -5   0   2   65.69    5.30
  -5   0   2   72.79    5.50
   4   0  -2   96.09    3.40
   4   0  -2  101.89    4.50
   4   0  -2  103.49    6.50
   4   0  -2   97.99    5.40
  -4   0   2   99.99    5.10
  -4   0   2   98.79    5.10
  -4   0   2   97.69    5.00
   3   0  -2  175.28    4.40
   3   0  -2  172.58    4.90
   3   0  -2  176.58    5.00
  -3   0   2  176.48    5.00
  -3   0   2  180.68    5.20
  -3   0   2  174.08    5.10
   2   0  -2  833.92   13.10
   2   0  -2  843.52   13.10
   2   0  -2  838.72   13.00
  -2   0   2  841.12   12.90
  -2   0   2  849.61   13.20
  -2   0   2  819.02   13.10
  -1   0  -2   14.30    1.80
  -1   0  -2   16.60    1.70
  -1   0  -2   14.40    1.60
  -1   0  -2   12.40    1.70
   1   0   2   14.80    1.80
   1   0   2   15.70    1.60
   1   0   2   16.30    1.70
   1   0   2   17.30    1.00
   1   0   2   13.00    2.40
  -2   0  -2  430.86    7.90
  -2   0  -2  440.26    6.60
  -2   0  -2  440.76    6.60
  -2   0  -2  443.86    7.10
  -2   0  -2  436.56    8.00
   2   0   2  453.55    6.50
   2   0   2  432.76    7.80
   2   0   2  429.56    8.00
   2   0   2  433.26    7.10
  -3   0  -2   45.70    2.40
  -3   0  -2   46.60    2.30
  -3   0  -2   44.80    3.60
  -3   0  -2   40.00    2.50
   3   0   2   42.90    3.60
   3   0   2   42.80    3.60
   3   0   2   44.30    2.00
   3   0   2   44.40    1.90
   3   0   2   43.00    1.60
   3   0   2   44.90    1.60
  -4   0  -2   76.69    5.10
  -4   0  -2   75.29    3.50
   4   0   2   75.09    5.00
   4   0   2   72.49    2.30
   4   0   2   78.79    2.70
   4   0   2   78.19    2.40
   4   0   2   77.69    4.80
  -5   0  -2    7.80    2.30
  -5   0  -2    2.30    2.80
   5   0   2    4.40    3.10
   5   0   2    4.40    1.20
   5   0   2    5.20    1.30
   5   0   2    6.60    1.80
  -6   0  -2    1.40    2.70
  -6   0  -2    0.70    3.40
  -6   0  -2    0.00    2.90
   6   0   2   -3.80    3.80
   6   0   2   -0.80    2.20
  -7   0  -2    2.30    3.70
  -7   0  -2    4.30    3.60
   7   0   2    8.80    5.40
   6  -1  -2    0.20    3.00
   6  -1  -2    1.20    2.90
   6  -1  -2   -8.10    4.30
   6  -1  -2   -1.00    2.80
  -6   1   2   -1.90    3.10
  -6   1   2    6.80    3.30
  -6   1   2   -5.20    3.60
   5  -1  -2  174.48    6.20
   5  -1  -2  181.38    6.00
   5  -1  -2  175.48    8.80
  -5   1   2  170.98    7.50
  -5   1   2  180.18    6.60
  -5   1   2  173.68    7.00
   4  -1  -2  289.07    9.00
   4  -1  -2  290.77    7.10
   4  -1  -2  291.27    7.00
  -4   1   2  292.17    7.50
  -4   1   2  284.37    7.30
  -4   1   2  296.87    7.90
   3  -1  -2    3.80    1.60
   3  -1  -2    3.60    1.80
   3  -1  -2    5.30    0.90
   3  -1  -2    7.00    2.40
  -3   1   2    9.60    1.90
  -3   1   2    4.50    1.80
  -3   1   2    6.70    1.80
   2  -1  -2  102.09    3.10
   2  -1  -2   96.49    3.30
   2  -1  -2  103.29    3.50
  -2   1   2  106.09    3.50
  -2   1   2  105.69    3.40
  -2   1   2  100.99    3.50
   1  -1  -2   31.50    2.10
   1  -1  -2   25.20    1.80
   1  -1  -2   26.60    1.90
  -1   1   2   27.10    1.80
  -1   1   2   28.60    1.90
   0  -1  -2   25.10    1.40
   0  -1  -2   22.10    1.80
   0   1   2   25.80    0.90
   0   1   2   26.60    1.40
  -1  -1  -2  934.81   13.70
  -1  -1  -2  914.71   12.90
  -1  -1  -2  947.31   13.60
  -1  -1  -2  931.61   14.50
  -1  -1  -2  905.41   12.90
  -1  -1  -2  938.51   12.90
   1   1   2  921.21   12.80
   1   1   2  923.31   12.80
   1   1   2  926.41   13.70
   1   1   2  915.21   13.50
   1   1   2  913.71   14.40
  -2  -1  -2    1.80    1.30
  -2  -1  -2    4.80    1.00
  -2  -1  -2    3.90    0.90
  -2  -1  -2    4.50    1.00
   2   1   2    4.40    1.40
   2   1   2    5.30    0.90
   2   1   2    4.30    0.80
   2   1   2    2.00    1.20
   2   1   2    3.60    0.90
  -3  -1  -2  474.75    9.40
  -3  -1  -2  464.35    8.00
  -3  -1  -2  467.75    8.10
  -3  -1  -2  450.15    8.00
   3   1   2  456.35    9.20
   3   1   2  464.85    6.80
   3   1   2  452.55    9.20
   3   1   2  461.55    7.50
   3   1   2  465.75    7.90
   3   1   2  456.15    7.40
  -4  -1  -2   67.69    3.50
  -4  -1  -2   63.39    8.10
  -4  -1  -2   68.19    3.60
   4   1   2   65.29    2.70
   4   1   2   69.79    2.60
   4   1   2   70.89    4.60
   4   1   2   72.39    2.40
   4   1   2   68.89    4.80
   4   1   2   66.29    2.80
  -5  -1  -2   55.99    4.30
  -5  -1  -2   62.59    5.80
  -5  -1  -2   59.79    4.40
   5   1   2   67.79    6.00
   5   1   2   60.29    3.20
   5   1   2   62.99    6.50
   5   1   2   56.79    3.00
   5   1   2   60.89    2.90
  -6  -1  -2    0.50    2.90
  -6  -1  -2   -3.20    3.40
  -6  -1  -2    2.10    2.70
   6   1   2   -0.70    3.30
   6   1   2    0.50    1.60
   6   1   2    5.00    2.10
   6   1   2    1.00    1.90
   6   1   2    2.60    3.90
  -7  -1  -2    4.50    3.70
  -7  -1  -2    4.30    4.30
   7   1   2    0.80    5.20
   6  -2  -2    0.00    2.70
   6  -2  -2   -2.10    3.10
   6  -2  -2    6.50    3.10
   6  -2  -2    1.50    4.70
  -6   2   2    5.00    4.10
  -6   2   2    1.10    3.50
  -6   2   2   -0.70    3.20
   5  -2  -2  163.78    5.90
   5  -2  -2  161.68    5.80
   5  -2  -2  166.78    5.80
   5  -2  -2  169.58    8.80
  -5   2   2  187.98    7.70
  -5   2   2  159.58    6.40
  -5   2   2  165.58    6.70
   4  -2  -2   -0.80    1.80
   4  -2  -2    3.30    3.20
   4  -2  -2   -3.10    2.00
  -4   2   2    2.70    2.20
  -4   2   2    0.70    2.10
  -4   2   2    1.60    2.80
   3  -2  -2    6.20    1.80
   3  -2  -2    6.40    1.70
   3  -2  -2    5.60    0.90
   3  -2  -2    6.30    2.50
  -3   2   2    6.30    1.90
  -3   2   2    5.30    1.80
  -3   2   2    4.00    1.80
   2  -2  -2   17.70    1.90
   2  -2  -2   21.90    2.20
   2  -2  -2   19.60    2.60
   2  -2  -2   20.30    2.40
  -2   2   2   20.10    2.00
  -2   2   2   20.30    2.50
  -2   2   2   15.70    1.80
   1  -2  -2 1483.95   21.00
   1  -2  -2 1447.66   20.70
   1  -2  -2 1480.05   21.30
   1  -2  -2 1454.25   20.70
  -1   2   2 1471.75   20.70
  -1   2   2 1462.65   20.80
  -1   2   2 1459.55   20.90
  -1  -2  -2 1835.32   23.70
  -1  -2  -2 1769.92   24.50
  -1  -2  -2 1778.12   24.40
  -1  -2  -2 1740.93   25.30
  -1  -2  -2 1756.82   25.60
  -1  -2  -2 1741.13   24.50
   1   2   2 1790.52   24.50
   1   2   2 1777.62   25.30
   1   2   2 1751.52   24.40
   1   2   2 1801.02   25.60
   1   2   2 1751.22   24.40
  -2  -2  -2   70.49    2.50
  -2  -2  -2   73.89    4.00
  -2  -2  -2   73.89    3.20
  -2  -2  -2   70.19    2.60
  -2  -2  -2   72.19    3.30
   2   2   2   67.69    3.20
   2   2   2   69.39    2.40
   2   2   2   70.59    3.00
   2   2   2   69.89    2.30
  -3  -2  -2  234.58    6.30
  -3  -2  -2  227.08    5.30
  -3  -2  -2  237.28    5.30
   3   2   2  235.08    5.00
   3   2   2  236.88    6.10
   3   2   2  230.88    6.20
   3   2   2  232.48    4.90
   3   2   2  236.98    5.50
  -4  -2  -2   16.20    2.30
  -4  -2  -2   15.40    4.30
  -4  -2  -2   20.40    2.40
   4   2   2   19.80    2.80
   4   2   2   22.90    1.70
   4   2   2   19.00    2.50
   4   2   2   21.90    2.60
   4   2   2   18.50    2.00
   4   2   2   21.10    3.00
  -5  -2  -2    2.10    3.00
  -5  -2  -2   -1.80    2.30
  -5  -2  -2   -0.50    2.20
   5   2   2    0.40    1.50
   5   2   2    1.10    1.20
   5   2   2    4.50    1.80
   5   2   2   -0.70    3.00
   5   2   2   -0.80    1.80
   5   2   2    0.30    2.70
  -6  -2  -2   -0.60    2.90
  -6  -2  -2   -2.10    3.30
  -6  -2  -2    3.70    2.90
   6   2   2   -1.20    3.40
   6   2   2    0.80    4.00
   6   2   2    1.60    1.90
   6   2   2   -0.30    2.00
   6   2   2    1.80    2.40
  -7  -2  -2   15.00    4.10
   7   2   2   19.70    5.70
   7   2   2   17.70    2.50
   7   2   2   13.70    4.90
   6  -3  -2   32.70    3.90
   6  -3  -2   37.60    4.40
   6  -3  -2   38.60    5.10
   6  -3  -2   32.90    6.10
  -6   3   2   30.10    4.10
  -6   3   2   28.90    4.10
  -6   3   2   32.60    4.70
   5  -3  -2   17.80    2.60
   5  -3  -2   17.80    4.50
   5  -3  -2   21.80    3.70
   5  -3  -2   20.40    3.10
  -5   3   2   28.20    4.00
  -5   3   2   17.50    3.00
  -5   3   2   20.10    3.30
   4  -3  -2    3.50    1.90
   4  -3  -2    5.10    2.20
   4  -3  -2    5.10    2.10
   4  -3  -2    4.60    3.20
  -4   3   2    2.90    2.60
  -4   3   2    3.70    2.20
  -4   3   2    5.00    2.30
   3  -3  -2  218.28    7.00
   3  -3  -2  217.88    5.20
   3  -3  -2  227.28    4.60
   3  -3  -2  224.28    5.40
  -3   3   2  224.78    5.70
  -3   3   2  224.68    5.60
  -3   3   2  226.08    6.40
   2  -3  -2  579.04    9.60
   2  -3  -2  577.44    9.70
   2  -3  -2  569.64   10.90
   2  -3  -2  585.04    9.70
  -2   3   2  599.14    9.50
  -2   3   2  589.04    9.90
  -2   3   2  582.24    9.80
   1  -3  -2   68.69    2.50
   1  -3  -2   68.99    2.50
   1  -3  -2   68.59    3.00
   1  -3  -2   72.69    3.10
  -1   3   2   68.79    2.80
  -1   3   2   68.89    2.50
  -1   3   2   69.99    2.50
  -1   3   2   69.79    2.50
  -1   3   2   66.99    3.00
   0  -3  -2   79.59    2.40
   0  -3  -2   85.19    2.40
   0  -3  -2   76.49    2.50
   0  -3  -2   78.69    2.50
   0  -3  -2   86.39    3.50
   0  -3  -2   81.39    2.30
   0   3   2   82.09    2.50
   0   3   2   82.79    2.40
   0   3   2   75.99    2.40
   0   3   2   83.99    3.30
   0   3   2   80.89    2.50
  -1  -3  -2 2954.10   41.00
  -1  -3  -2 2941.41   42.10
  -1  -3  -2 3031.70   41.00
  -1  -3  -2 3044.60   41.00
  -1  -3  -2 3001.80   41.80
  -1  -3  -2 3116.89   40.20
   1   3   2 2993.70   42.10
   1   3   2 2962.80   41.00
   1   3   2 2956.40   41.00
   1   3   2 2959.50   41.70
   1   3   2 3037.10   41.00
  -2  -3  -2  885.41   13.60
  -2  -3  -2  898.01   13.70
  -2  -3  -2  898.21   14.00
  -2  -3  -2  885.21   14.70
  -2  -3  -2  889.21   15.20
   2   3   2  887.11   13.50
   2   3   2  874.31   14.20
   2   3   2  883.81   13.50
   2   3   2  906.11   14.60
  -3  -3  -2  148.69    5.20
  -3  -3  -2  147.19    4.50
  -3  -3  -2  154.78    4.40
   3   3   2  150.48    4.90
   3   3   2  143.49    5.00
   3   3   2  146.29    4.20
  -4  -3  -2   17.80    2.50
  -4  -3  -2   16.00    2.30
   4   3   2   12.70    2.50
   4   3   2   19.80    2.20
   4   3   2   20.30    3.30
   4   3   2   22.00    2.90
  -5  -3  -2   14.30    2.90
  -5  -3  -2    9.90    2.80
   5   3   2   10.20    2.30
   5   3   2    8.30    1.90
   5   3   2   12.20    3.50
   5   3   2   14.30    2.50
   5   3   2   12.00    3.40
  -6  -3  -2  241.98    8.00
  -6  -3  -2  253.47    9.50
  -6  -3  -2  245.78    8.20
   6   3   2  244.58    6.90
   6   3   2  246.28    7.00
   6   3   2  235.18    6.30
   6   3   2  231.98    9.90
   6   3   2  242.58    9.30
  -7  -3  -2    6.70    4.00
   7   3   2   10.60    4.60
   7   3   2    1.40    5.20
   7   3   2    7.60    4.70
   7   3   2    3.20    3.00
   6  -4  -2   12.20    3.60
   6  -4  -2   19.10    3.70
   6  -4  -2   16.50    2.60
   6  -4  -2   14.20    5.60
  -6   4   2    8.80    3.30
  -6   4   2    7.00    3.50
   5  -4  -2  240.48    6.60
   5  -4  -2  250.27    6.30
   5  -4  -2  246.78   10.30
   5  -4  -2  251.77    7.50
  -5   4   2  241.78    7.50
  -5   4   2  251.37    7.90
   4  -4  -2    1.80    1.70
   4  -4  -2    5.50    2.10
   4  -4  -2    2.20    3.40
   4  -4  -2   -0.90    2.30
  -4   4   2    2.40    2.20
  -4   4   2    4.00    2.20
  -4   4   2    1.50    2.60
   3  -4  -2    5.80    1.80
   3  -4  -2    5.40    2.00
   3  -4  -2    2.80    2.50
   3  -4  -2    2.50    1.40
  -3   4   2    3.30    1.70
  -3   4   2    5.00    1.90
  -3   4   2    2.80    0.90
   2  -4  -2  130.69    5.10
   2  -4  -2  133.99    4.30
   2  -4  -2  125.19    4.20
   2  -4  -2  129.89    3.90
   2  -4  -2  125.29    3.70
  -2   4   2  126.79    4.00
  -2   4   2  125.39    4.30
  -2   4   2  131.79    4.00
  -2   4   2  137.69    5.10
  -2   4   2  130.39    3.90
   1  -4  -2 3475.85   48.70
   1  -4  -2 3500.05   48.30
   1  -4  -2 3529.65   49.30
   1  -4  -2 3560.04   48.30
   1  -4  -2 3636.54   49.20
   1  -4  -2 3515.85   48.30
  -1   4   2 3475.35   49.10
  -1   4   2 3576.94   48.70
  -1   4   2 3581.14   49.20
  -1   4   2 3509.75   48.50
  -1   4   2 3494.15   48.40
   0  -4  -2    9.70    1.20
   0  -4  -2    7.10    1.50
   0  -4  -2    5.20    1.10
   0  -4  -2    9.00    1.20
   0  -4  -2    9.70    1.20
   0   4   2    5.30    1.40
   0   4   2    9.40    1.40
   0   4   2    9.20    1.40
   0   4   2    9.40    1.30
   0   4   2    8.50    1.20
  -1  -4  -2  281.67    5.60
  -1  -4  -2  275.47    5.70
  -1  -4  -2  278.97    6.90
  -1  -4  -2  285.97    5.60
  -1  -4  -2  290.17    4.70
   1   4   2  276.87    5.50
   1   4   2  281.07    6.70
   1   4   2  271.77    5.40
   1   4   2  271.67    5.70
   1   4   2  280.67    5.70
  -2  -4  -2 2437.06   34.00
  -2  -4  -2 2371.06   33.70
  -2  -4  -2 2380.16   34.80
  -2  -4  -2 2385.36   32.10
  -2  -4  -2 2390.86   33.60
   2   4   2 2349.86   34.00
   2   4   2 2364.76   33.50
   2   4   2 2370.76   33.60
   2   4   2 2377.46   35.00
  -3  -4  -2   47.10    3.20
  -3  -4  -2   45.20    4.60
  -3  -4  -2   38.90    3.30
  -3  -4  -2   48.80    4.10
   3   4   2   42.30    2.90
   3   4   2   39.10    3.60
   3   4   2   47.30    4.10
   3   4   2   46.50    3.10
  -4  -4  -2  200.28    6.10
  -4  -4  -2  201.48    6.30
  -4  -4  -2  199.78    7.00
   4   4   2  205.38    5.80
   4   4   2  208.88    5.80
   4   4   2  202.88    6.70
   4   4   2  214.68    6.70
  -5  -4  -2    1.20    2.70
  -5  -4  -2    3.50    2.90
   5   4   2   -1.40    1.80
   5   4   2   -4.00    3.10
   5   4   2   -1.10    2.20
   5   4   2   -0.70    2.10
  -6  -4  -2  332.07    9.50
  -6  -4  -2  328.87   10.40
  -6  -4  -2  321.37    9.60
   6   4   2  326.97   10.60
   6   4   2  330.97    8.60
   6   4   2  342.47   11.40
   6   4   2  322.07    8.70
   6   4   2  337.47    8.60
  -7  -4  -2  101.49    7.80
   7   4   2  100.59   10.30
   7   4   2   99.59    9.20
   7   4   2  101.89    6.80
   6  -5  -2    4.40    5.40
   6  -5  -2    0.00    2.00
   6  -5  -2   -0.90    3.30
  -6   5   2   -1.20    3.20
  -6   5   2    2.00    3.30
  -6   5   2   -3.90    4.50
   5  -5  -2  175.68    6.90
   5  -5  -2  165.18    5.40
   5  -5  -2  175.78    9.40
   5  -5  -2  169.68    5.10
  -5   5   2  184.48    7.50
  -5   5   2  172.38    7.10
  -5   5   2  164.48    6.60
  -5   5   2  182.18    8.40
   4  -5  -2  180.98    5.20
   4  -5  -2  176.88    8.60
   4  -5  -2  175.68    6.20
   4  -5  -2  177.28    5.00
  -4   5   2  181.58    6.80
  -4   5   2  186.58    7.50
  -4   5   2  172.18    5.90
  -4   5   2  184.08    6.20
   3  -5  -2    2.40    1.50
   3  -5  -2    3.70    1.80
   3  -5  -2    2.90    2.70
   3  -5  -2    4.10    2.10
  -3   5   2    5.60    2.00
  -3   5   2    1.80    1.80
  -3   5   2    4.90    2.70
  -3   5   2    2.40    1.10
  -3   5   2    4.50    1.80
   2  -5  -2   94.69    3.90
   2  -5  -2   97.79    3.50
   2  -5  -2   93.29    3.30
   2  -5  -2   93.59    4.70
  -2   5   2  100.19    4.90
  -2   5   2   97.99    3.60
  -2   5   2   95.99    4.00
  -2   5   2   98.09    3.70
  -2   5   2   98.09    3.90
   1  -5  -2 1441.06   21.80
   1  -5  -2 1416.06   20.80
   1  -5  -2 1420.16   20.70
   1  -5  -2 1401.46   21.00
   1  -5  -2 1451.75   21.40
  -1   5   2 1435.46   21.40
  -1   5   2 1429.86   21.80
  -1   5   2 1435.36   22.10
  -1   5   2 1392.66   20.90
  -1   5   2 1432.16   21.00
   0  -5  -2  723.63   11.00
   0  -5  -2  695.63   11.10
   0  -5  -2  697.83   11.30
   0  -5  -2  697.43   11.50
   0   5   2  690.93   11.50
   0   5   2  708.43   12.80
   0   5   2  696.93   11.50
   0   5   2  691.63   11.20
   0   5   2  715.13   11.40
  -1  -5  -2   13.30    2.40
  -1  -5  -2   12.80    1.50
  -1  -5  -2   12.60    1.80
  -1  -5  -2   14.70    1.90
  -1  -5  -2   11.30    1.70
   1   5   2   12.20    1.80
   1   5   2   12.50    2.30
   1   5   2   14.10    1.90
   1   5   2   13.00    1.90
   1   5   2   11.80    2.10
  -2  -5  -2    3.70    1.70
  -2  -5  -2    6.00    1.90
  -2  -5  -2    5.00    1.70
  -2  -5  -2    8.10    2.30
  -2  -5  -2    2.50    1.10
   2   5   2    4.20    1.90
   2   5   2    5.90    1.80
   2   5   2    6.60    1.80
   2   5   2    2.80    1.70
  -3  -5  -2  617.34   11.80
  -3  -5  -2  619.84   11.40
  -3  -5  -2  617.14    9.20
  -3  -5  -2  618.94   11.20
  -3  -5  -2  615.44   12.80
   3   5   2  608.54   11.00
   3   5   2  609.94   11.80
   3   5   2  632.34   11.20
   3   5   2  643.74   12.80
  -4  -5  -2  302.17    7.70
  -4  -5  -2  295.67    7.90
  -4  -5  -2  304.17    8.70
   4   5   2  291.17    7.40
   4   5   2  297.97    8.70
   4   5   2  290.27    8.30
  -5  -5  -2   35.50    3.80
  -5  -5  -2   31.10    3.90
  -5  -5  -2   32.00    3.70
   5   5   2   32.20    4.30
   5   5   2   33.80    4.10
   5   5   2   36.10    4.60
   5   5   2   32.10    5.00
  -6  -5  -2    4.50    3.40
  -6  -5  -2    7.80    4.10
  -6  -5  -2    3.80    3.30
   6   5   2   -1.70    2.50
   6   5   2    2.10    3.00
   6   5   2   -3.30    4.20
   6   5   2    5.90    3.10
   6   5   2    3.50    3.50
  -7  -5  -2  147.99    8.50
   7   5   2  138.09   11.20
   7   5   2  127.59    8.00
   7   5   2  138.49    7.60
   7   5   2  133.69   10.00
   6  -6  -2    5.20    5.30
   6  -6  -2   -0.50    3.50
  -6   6   2    0.30    3.40
  -6   6   2   -3.00    3.20
   5  -6  -2   16.40    2.40
   5  -6  -2    4.90    4.40
   5  -6  -2   13.30    2.00
   5  -6  -2    5.90    3.10
  -5   6   2   10.80    3.80
  -5   6   2   10.60    2.80
  -5   6   2   10.60    3.30
  -5   6   2    8.60    2.90
   4  -6  -2  109.39    7.40
   4  -6  -2  109.69    5.70
   4  -6  -2  109.19    4.30
   4  -6  -2  104.19    4.00
  -4   6   2  109.09    5.10
  -4   6   2  107.69    6.70
  -4   6   2  107.19    5.40
  -4   6   2  110.79    6.00
   3  -6  -2   19.80    2.70
   3  -6  -2   27.30    3.80
   3  -6  -2   22.90    3.10
   3  -6  -2   24.20    2.70
  -3   6   2   23.80    3.70
  -3   6   2   24.30    3.40
  -3   6   2   22.20    2.60
  -3   6   2   23.70    3.10
   2  -6  -2  198.98    4.90
   2  -6  -2  212.58    6.70
   2  -6  -2  209.38    5.00
   2  -6  -2  199.98    5.60
  -2   6   2  205.28    6.70
  -2   6   2  212.08    6.00
  -2   6   2  213.48    5.50
  -2   6   2  215.28    6.00
  -2   6   2  209.68    5.30
   1  -6  -2   33.30    2.70
   1  -6  -2   33.90    3.00
   1  -6  -2   36.20    2.70
   1  -6  -2   32.50    3.10
  -1   6   2   30.60    3.00
  -1   6   2   33.60    3.90
  -1   6   2   30.60    2.70
  -1   6   2   32.20    2.80
  -1   6   2   31.90    3.40
   0  -6  -2  288.57    6.20
   0  -6  -2  288.47    6.50
   0  -6  -2  292.87    6.10
   0  -6  -2  282.27    5.90
   0   6   2  286.77    6.10
   0   6   2  280.07    6.40
   0   6   2  296.27    6.30
   0   6   2  289.47    6.00
   0   6   2  293.87    6.50
   0   6   2  295.47    7.90
  -1  -6  -2  736.93   12.50
  -1  -6  -2  755.12   11.60
  -1  -6  -2  769.02   12.40
  -1  -6  -2  737.83   12.60
   1   6   2  753.12   12.50
   1   6   2  743.43   12.80
   1   6   2  759.12   14.40
   1   6   2  726.33   11.90
   1   6   2  746.63   12.50
  -2  -6  -2  537.95    8.50
  -2  -6  -2  556.94   10.30
  -2  -6  -2  523.05   10.00
  -2  -6  -2  539.15    9.90
  -2  -6  -2  530.05   10.00
   2   6   2  530.05    9.90
   2   6   2  543.65   10.00
   2   6   2  542.05   11.80
  -3  -6  -2   -0.80    1.90
  -3  -6  -2   -0.30    1.20
  -3  -6  -2    0.30    2.70
  -3  -6  -2   -0.40    2.00
  -3  -6  -2    0.80    2.20
   3   6   2    2.10    2.20
   3   6   2    1.60    1.80
   3   6   2    1.70    2.20
  -4  -6  -2   -4.20    2.60
  -4  -6  -2    2.30    2.50
  -4  -6  -2    2.40    2.70
  -4  -6  -2    2.90    4.00
   4   6   2    2.50    2.20
   4   6   2    2.90    2.50
   4   6   2    2.90    2.30
  -5  -6  -2   45.90    7.90
  -5  -6  -2   45.10    5.50
  -5  -6  -2   47.00    5.10
  -5  -6  -2   44.80    4.60
   5   6   2   44.90    4.60
   5   6   2   44.10    6.20
   5   6   2   37.30    6.40
   5   6   2   42.10    4.70
  -6  -6  -2   63.39    9.70
  -6  -6  -2   51.09    6.70
   6   6   2   43.50    5.10
   6   6   2   47.50    6.00
   6   6   2   38.90    6.60
   6   6   2   61.29    6.90
   5  -7  -2    8.70    1.70
   5  -7  -2    8.20    1.90
   5  -7  -2    3.80    4.70
   5  -7  -2    5.20    3.10
  -5   7   2    9.10    2.90
  -5   7   2    0.90    3.20
  -5   7   2    9.20    3.30
   4  -7  -2    2.30    1.70
   4  -7  -2    0.00    2.70
   4  -7  -2    1.50    3.70
   4  -7  -2    3.80    2.00
  -4   7   2   -1.60    4.80
  -4   7   2    1.80    1.30
  -4   7   2    5.50    2.70
  -4   7   2    1.70    2.60
  -4   7   2    1.00    4.20
   3  -7  -2    7.80    2.50
   3  -7  -2    7.30    1.80
   3  -7  -2    5.90    2.00
   3  -7  -2    4.90    3.20
  -3   7   2    8.00    3.40
  -3   7   2    7.10    2.20
  -3   7   2    4.40    4.30
  -3   7   2    6.70    2.30
  -3   7   2    5.80    1.80
   2  -7  -2   17.60    2.60
   2  -7  -2   23.60    3.30
   2  -7  -2   25.70    2.70
   2  -7  -2   22.20    2.20
  -2   7   2   22.50    2.40
  -2   7   2   23.80    2.50
  -2   7   2   20.10    2.50
  -2   7   2   21.60    3.30
  -2   7   2   24.20    3.90
   1  -7  -2   24.60    2.70
   1  -7  -2   22.00    2.30
   1  -7  -2   22.90    3.20
   1  -7  -2   21.20    2.60
  -1   7   2   23.60    2.90
  -1   7   2   26.80    3.30
  -1   7   2   28.40    2.80
  -1   7   2   29.30    4.20
  -1   7   2   22.30    2.80
   0  -7  -2    3.10    1.60
   0  -7  -2    0.30    1.60
   0  -7  -2   -0.90    1.50
   0  -7  -2    3.80    1.70
   0   7   2    1.80    1.80
   0   7   2   -0.50    1.50
   0   7   2    1.20    1.60
   0   7   2    1.20    2.00
   0   7   2   -0.10    1.60
   0   7   2    1.00    1.40
  -1  -7  -2   11.50    2.10
  -1  -7  -2   12.30    2.10
  -1  -7  -2   12.20    2.00
   1   7   2   11.10    2.00
   1   7   2   10.90    2.40
   1   7   2   10.40    2.00
   1   7   2   12.70    1.90
  -2  -7  -2   45.40    2.60
  -2  -7  -2   42.90    3.70
  -2  -7  -2   44.40    4.90
  -2  -7  -2   40.00    3.20
   2   7   2   44.40    4.10
   2   7   2   45.20    5.40
   2   7   2   45.90    3.50
  -3  -7  -2    9.90    1.70
  -3  -7  -2    7.30    2.50
  -3  -7  -2    6.60    2.30
  -3  -7  -2    9.30    3.00
  -3  -7  -2   10.50    2.80
   3   7   2    7.80    2.50
   3   7   2    8.10    2.40
   3   7   2   11.70    2.50
   3   7   2    8.70    2.70
  -4  -7  -2  113.09    6.60
  -4  -7  -2  113.79    6.10
  -4  -7  -2   92.39    7.50
  -4  -7  -2  106.89    7.10
   4   7   2  105.99    5.40
   4   7   2  109.19    5.60
   4   7   2  110.89    7.30
   4   7   2  112.19    6.10
  -5  -7  -2    2.90    5.30
  -5  -7  -2    4.80    3.20
  -5  -7  -2   -2.30    3.00
  -5  -7  -2    1.60    3.20
   5   7   2    2.30    3.20
   5   7   2    0.10    2.80
   5   7   2   -0.10    3.00
  -6  -7  -2   99.39    7.50
  -6  -7  -2  107.69   11.20
   6   7   2   88.69    7.20
   6   7   2  104.59    6.70
   6   7   2   82.39    7.70
   5  -8  -2   -1.20    3.20
   5  -8  -2   13.00    5.30
  -5   8   2    5.60    3.50
  -5   8   2   -2.00    3.20
  -5   8   2    3.80    3.00
   4  -8  -2   -1.80    2.70
   4  -8  -2   -2.70    3.80
   4  -8  -2    1.70    1.60
   4  -8  -2    2.90    1.80
  -4   8   2    1.30    1.50
  -4   8   2    1.80    2.40
  -4   8   2   -6.20    3.80
  -4   8   2    0.30    2.80
  -4   8   2   -1.50    2.70
   3  -8  -2   16.80    2.10
   3  -8  -2   19.20    2.40
   3  -8  -2   20.40    4.00
   3  -8  -2   13.80    3.00
  -3   8   2   16.70    3.90
  -3   8   2   12.40    2.80
  -3   8   2   13.60    2.30
  -3   8   2   17.00    2.80
  -3   8   2   18.70    2.70
   2  -8  -2    6.40    1.90
   2  -8  -2    3.30    2.40
   2  -8  -2    6.50    1.90
  -2   8   2    8.70    2.50
  -2   8   2    9.30    2.20
  -2   8   2    5.70    2.20
  -2   8   2    4.90    2.20
  -2   8   2    6.90    3.00
   1  -8  -2   24.90    2.80
   1  -8  -2   22.60    3.00
   1  -8  -2   26.90    3.60
   1  -8  -2   25.60    3.00
  -1   8   2   24.00    3.10
  -1   8   2   23.70    3.30
  -1   8   2   30.70    3.90
  -1   8   2   19.30    2.80
  -1   8   2   29.80    3.90
   0  -8  -2   50.29    3.50
   0  -8  -2   48.50    3.50
   0  -8  -2   54.69    3.90
   0  -8  -2   50.09    3.40
   0   8   2   46.40    2.60
   0   8   2   46.30    3.50
   0   8   2   48.20    4.10
   0   8   2   46.70    4.40
   0   8   2   50.29    6.80
   0   8   2   49.10    3.90
  -1  -8  -2  242.58    5.70
  -1  -8  -2  234.88    6.40
  -1  -8  -2  240.68    6.40
  -1  -8  -2  240.98    6.80
   1   8   2  240.88    6.60
   1   8   2  236.48    8.50
   1   8   2  234.88    6.90
   1   8   2  225.28    6.20
  -2  -8  -2  366.16    8.60
  -2  -8  -2  373.06    7.20
  -2  -8  -2  379.86    8.50
  -2  -8  -2  371.16    7.60
  -2  -8  -2  382.26    9.10
   2   8   2  376.16    8.50
   2   8   2  367.86    9.20
   2   8   2  396.66   11.10
   2   8   2  382.96    8.80
  -3  -8  -2    6.80    2.80
  -3  -8  -2    2.20    2.70
  -3  -8  -2    3.00    2.90
  -3  -8  -2    1.70    2.80
   3   8   2    4.50    2.40
   3   8   2    0.40    2.60
   3   8   2    1.50    2.50
   3   8   2    5.30    2.50
  -4  -8  -2   10.70    2.00
  -4  -8  -2    9.30    3.10
  -4  -8  -2   15.70    4.60
  -4  -8  -2   13.90    3.20
   4   8   2   12.20    3.00
   4   8   2   14.90    3.40
   4   8   2    8.50    3.10
  -5  -8  -2   23.30    3.60
  -5  -8  -2   38.20    6.30
  -5  -8  -2   32.10    4.30
  -5  -8  -2   16.70    3.50
   5   8   2   24.70    3.70
   5   8   2   20.30    4.10
   5   8   2   31.40    4.30
  -6  -8  -2   24.50    7.90
  -6  -8  -2   16.70    4.50
   6   8   2   18.00    4.50
   6   8   2   20.50    4.60
   6   8   2    9.60    4.20
   5  -9  -2   14.70    5.50
   5  -9  -2   28.00    4.70
  -5   9   2   26.40    6.60
  -5   9   2   21.50    4.00
  -5   9   2   18.00    4.20
   4  -9  -2   20.60    4.80
   4  -9  -2   12.90    3.50
  -4   9   2    9.80    3.40
  -4   9   2    3.80    4.20
  -4   9   2    7.40    3.20
  -4   9   2    7.90    2.20
  -4   9   2   10.40    2.90
   3  -9  -2   50.69    5.10
   3  -9  -2   54.59    3.20
   3  -9  -2   57.79    3.70
  -3   9   2   56.69    5.30
  -3   9   2   54.09    5.60
  -3   9   2   61.19    4.90
  -3   9   2   65.19    5.40
   2  -9  -2  149.99    4.70
   2  -9  -2  144.99    5.90
   2  -9  -2  149.59    4.70
  -2   9   2  147.59    6.50
  -2   9   2  146.99    5.70
  -2   9   2  153.18    5.50
  -2   9   2  149.99    7.20
  -2   9   2  145.19    8.00
   1  -9  -2   61.29    4.40
   1  -9  -2   56.29    3.70
   1  -9  -2   63.99    4.50
   1  -9  -2   56.19    3.70
  -1   9   2   55.69    6.10
  -1   9   2   61.49    4.00
  -1   9   2   65.29    4.30
  -1   9   2   57.79    5.30
  -1   9   2   61.79    4.80
   0  -9  -2  108.69    5.30
   0  -9  -2  112.59    4.80
   0  -9  -2  113.39    4.70
   0  -9  -2  114.19    5.40
   0   9   2  128.79    5.20
   0   9   2  119.59    5.70
   0   9   2  121.59    5.00
   0   9   2  122.39    7.40
  -1  -9  -2   -1.10    2.20
  -1  -9  -2    0.30    2.10
  -1  -9  -2    3.40    2.30
  -1  -9  -2    3.00    2.30
   1   9   2    0.60    2.30
   1   9   2    4.20    2.30
   1   9   2    1.70    2.60
   1   9   2    3.20    2.30
  -2  -9  -2  942.11   16.40
  -2  -9  -2  931.51   15.10
  -2  -9  -2  935.11   17.10
  -2  -9  -2  959.10   16.90
   2   9   2  973.30   17.00
   2   9   2  944.51   16.80
   2   9   2  958.30   17.60
   2   9   2  952.50   19.80
  -3  -9  -2  378.66    9.70
  -3  -9  -2  357.86    9.90
  -3  -9  -2  356.76    8.60
  -3  -9  -2  371.66    7.40
  -3  -9  -2  370.06    9.40
   3   9   2  379.86    9.40
   3   9   2  370.76   12.10
   3   9   2  379.86   10.30
  -4  -9  -2    9.10    2.10
  -4  -9  -2   13.30    4.50
  -4  -9  -2   10.30    3.40
  -4  -9  -2   15.00    3.50
   4   9   2    9.40    3.40
   4   9   2   18.80    3.50
   4   9   2   11.80    3.30
  -5  -9  -2   30.50    6.50
  -5  -9  -2   27.40    4.50
   5   9   2    7.00    3.60
   5   9   2   29.20    4.50
   5   9   2   14.50    3.50
   5   9   2    5.70    3.30
  -6  -9  -2   15.30    8.10
   6   9   2    1.80    4.60
   6   9   2    8.40    4.80
   4 -10  -2   15.80    3.60
  -4  10   2   12.10    3.80
  -4  10   2   16.60    3.60
  -4  10   2   16.20    3.40
  -4  10   2   12.80    2.60
   3 -10  -2    6.20    1.90
   3 -10  -2    1.80    2.70
   3 -10  -2    0.10    2.00
  -3  10   2    0.70    3.00
  -3  10   2   -1.80    2.40
  -3  10   2    4.50    3.70
  -3  10   2    0.30    2.80
  -3  10   2    1.40    2.50
   2 -10  -2   24.30    2.60
   2 -10  -2   14.50    3.00
   2 -10  -2   22.60    2.50
  -2  10   2   28.60    3.90
  -2  10   2   14.30    3.10
  -2  10   2   21.60    3.20
  -2  10   2   21.40    3.40
   1 -10  -2  257.17    6.70
   1 -10  -2  249.28    7.20
   1 -10  -2  263.07    7.00
  -1  10   2  249.97    8.60
  -1  10   2  253.77    7.70
  -1  10   2  255.57    7.40
  -1  10   2  264.57    9.90
  -1  10   2  265.07    8.20
   0 -10  -2   72.09    4.30
   0 -10  -2   67.19    4.50
   0 -10  -2   66.59    4.50
   0 -10  -2   68.39    6.10
   0  10   2   67.39    4.90
   0  10   2   78.09    7.30
   0  10   2   67.69    5.40
   0  10   2   67.19    5.30
   0  10   2   71.49    4.90
  -1 -10  -2  118.69    5.10
  -1 -10  -2  130.29    5.40
  -1 -10  -2  117.19    6.20
  -1 -10  -2  122.99    5.60
   1  10   2  121.79    8.10
   1  10   2  123.99    5.70
   1  10   2  126.49    6.40
   1  10   2  119.89    6.60
  -2 -10  -2  111.09    4.60
  -2 -10  -2  107.19    6.10
  -2 -10  -2  113.39    5.90
   2  10   2  115.19    5.70
   2  10   2  111.19    6.60
  -3 -10  -2   27.40    2.70
  -3 -10  -2   25.90    4.00
  -3 -10  -2   31.90    4.00
  -3 -10  -2   24.40    3.80
   3  10   2   19.40    4.80
   3  10   2   24.30    3.90
   3  10   2   22.20    3.40
  -4 -10  -2   28.10    4.70
  -4 -10  -2   27.60    3.70
  -4 -10  -2   19.60    3.50
  -4 -10  -2   22.70    3.90
  -4 -10  -2   21.30    2.60
   4  10   2   24.20    3.80
   4  10   2   13.70    3.80
   4  10   2   21.00    3.90
   4  10   2   22.70    4.00
  -5 -10  -2   14.00    4.40
  -5 -10  -2    9.80    6.30
   5  10   2   -1.70    3.70
   5  10   2    8.90    4.30
   4 -11  -2   82.69    9.00
  -4  11   2   68.69    6.40
  -4  11   2   79.49    8.40
   3 -11  -2   15.20    2.20
   3 -11  -2   15.40    3.80
   3 -11  -2   13.90    1.90
  -3  11   2   12.50    3.40
  -3  11   2   11.00    3.20
  -3  11   2   13.80    3.10
  -3  11   2   13.90    3.60
   2 -11  -2   10.60    2.20
   2 -11  -2    6.80    3.00
   2 -11  -2    8.80    2.40
  -2  11   2   11.50    2.90
  -2  11   2    8.10    3.10
  -2  11   2   12.40    2.80
  -2  11   2   12.40    4.00
  -2  11   2    4.00    3.00
   1 -11  -2    7.80    2.40
   1 -11  -2    9.20    2.50
   1 -11  -2    3.90    2.60
  -1  11   2   11.40    2.80
  -1  11   2   11.80    3.10
  -1  11   2    6.40    3.10
  -1  11   2    8.10    2.80
   0 -11  -2    6.00    2.70
   0 -11  -2    7.10    2.50
   0 -11  -2    6.30    2.60
   0  11   2    7.50    2.80
   0  11   2    3.70    2.80
   0  11   2   11.70    3.50
   0  11   2    5.30    2.70
   0  11   2    5.30    3.10
  -1 -11  -2    2.10    2.40
  -1 -11  -2    4.20    2.70
   1  11   2    0.50    2.60
   1  11   2    3.60    3.10
   1  11   2    2.40    2.90
   1  11   2    0.80    2.90
   1  11   2   -4.10    2.60
  -2 -11  -2   25.50    3.80
  -2 -11  -2   22.80    2.90
   2  11   2   21.10    3.60
   2  11   2   27.20    3.90
   2  11   2   18.50    3.30
  -3 -11  -2   -0.50    2.30
  -3 -11  -2    0.30    3.50
  -3 -11  -2    1.30    2.80
  -3 -11  -2    0.00    3.00
   3  11   2   -0.30    2.90
   3  11   2    1.20    2.80
   3  11   2    5.40    3.20
   3  11   2    0.00    3.20
  -4 -11  -2   14.20    3.90
  -4 -11  -2   10.20    2.70
  -4 -11  -2   13.00    4.30
   4  11   2   13.90    4.10
   4  11   2    2.10    3.80
  -5 -11  -2    1.40    4.80
   5  11   2   -2.10    4.00
   5  11   2    8.30    4.80
   3 -12  -2    5.40    3.40
  -3  12   2    2.00    3.20
  -3  12   2    4.80    3.70
  -3  12   2    4.30    3.30
   2 -12  -2    2.90    3.10
   2 -12  -2    1.20    2.20
   2 -12  -2   -0.50    2.40
  -2  12   2    3.50    3.80
  -2  12   2   -2.00    3.10
  -2  12   2   -0.60    2.80
  -2  12   2   -1.90    3.30
  -2  12   2    3.10    3.20
   1 -12  -2    4.40    2.70
   1 -12  -2    6.20    2.80
   1 -12  -2    5.80    3.00
   1 -12  -2    8.40    3.00
  -1  12   2    3.70    3.20
  -1  12   2    5.90    3.30
  -1  12   2    5.10    2.90
  -1  12   2   11.60    3.20
  -1  12   2    9.40    3.90
   0 -12  -2   60.59    5.20
   0 -12  -2   59.09    5.20
   0 -12  -2   46.90    4.80
   0 -12  -2   49.90    5.20
   0  12   2   59.79    5.40
   0  12   2   51.79    6.20
   0  12   2   41.20    4.80
   0  12   2   52.19    5.10
  -1 -12  -2    6.90    2.70
  -1 -12  -2   15.10    3.50
  -1 -12  -2    4.80    2.80
   1  12   2    5.20    3.50
   1  12   2    9.20    3.40
   1  12   2    6.60    3.20
   1  12   2    8.90    3.10
  -2 -12  -2    2.80    3.00
  -2 -12  -2   -2.40    3.20
  -2 -12  -2    1.90    3.40
  -2 -12  -2    5.20    2.60
   2  12   2   -0.20    3.20
   2  12   2    3.60    3.30
   2  12   2    3.20    3.00
   2  12   2   -4.10    3.30
  -3 -12  -2    3.50    3.60
  -3 -12  -2    6.70    2.60
   3  12   2    3.70    3.70
   3  12   2    0.10    3.40
  -4 -12  -2   -2.60    4.20
  -4 -12  -2   -0.60    2.60
   4  12   2    3.20    4.10
   2 -13  -2    7.70    3.80
  -2  13   2   -5.20    3.30
  -2  13   2    8.20    3.80
  -2  13   2    0.20    3.60
   1 -13  -2    7.50    3.00
   1 -13  -2    3.30    2.90
   1 -13  -2    7.00    3.50
  -1  13   2    7.30    3.60
  -1  13   2    2.50    5.50
  -1  13   2    3.20    3.20
  -1  13   2   -2.60    3.50
   0 -13  -2    2.50    3.20
   0 -13  -2    3.00    3.10
   0 -13  -2   -4.20    2.90
   0  13   2    3.30    3.10
   0  13   2   -1.70    3.30
   0  13   2    1.70    4.00
  -1 -13  -2   -0.20    3.00
  -1 -13  -2   -2.20    2.70
  -1 -13  -2   -2.50    3.30
   1  13   2   -4.10    3.20
   1  13   2    2.50    4.00
   1  13   2   -6.70    3.20
  -2 -13  -2   32.10    4.00
  -2 -13  -2   40.70    4.90
  -2 -13  -2   30.60    3.80
   2  13   2   31.10    4.70
   2  13   2   39.60    4.80
  -3 -13  -2   15.30    4.70
  -3 -13  -2    6.10    2.90
   3  13   2   16.00    4.30
   3  13   2   15.20    4.10
   1 -14  -2   39.70    5.80
   1 -14  -2   28.10    5.30
  -1  14   2   41.70    4.90
   0 -14  -2    8.50    3.70
   0 -14  -2    4.40    3.50
   0  14   2    2.60    3.70
   0  14   2    7.90    3.90
  -1 -14  -2   -0.20    3.10
  -1 -14  -2    0.90    3.80
  -1 -14  -2    2.90    4.00
   1  14   2   -8.60    3.60
   1  14   2    2.60    3.80
  -2 -14  -2    2.30    3.50
  -2 -14  -2    8.20    4.60
   2  14   2   -1.50    4.90
   2  12  -3   23.90    4.60
   2  12  -3   23.80    4.80
  -2 -12   3   13.10    3.80
  -2 -12   3   12.00    4.10
  -2 -12   3   21.00    4.20
   1  12  -3   10.30    4.20
   1  12  -3    5.70    3.90
  -1 -12   3   10.30    3.00
  -1 -12   3    9.40    3.40
   0  12  -3    7.60    4.10
   0  12  -3   13.50    3.60
   0  12  -3   12.70    3.90
   0 -12   3   12.40    3.60
  -1  12  -3    1.10    3.20
  -1  12  -3    4.50    3.90
  -1  12  -3   -0.90    3.20
   1 -12   3    4.80    3.60
  -2  12  -3    9.20    3.90
  -2  12  -3    4.40    3.60
  -2  12  -3   12.70    3.80
   2 -12   3    9.50    3.90
   3  11  -3   -1.20    4.10
   3  11  -3    1.70    4.00
  -3 -11   3    6.00    4.10
  -3 -11   3   -0.50    3.90
  -3 -11   3    0.50    3.20
   2  11  -3   12.50    4.00
   2  11  -3    7.40    3.90
  -2 -11   3    9.00    3.40
  -2 -11   3    8.90    3.50
   1  11  -3   62.49    5.90
   1  11  -3   50.69    7.10
   1  11  -3   58.99    5.90
  -1 -11   3   48.70    5.40
  -1 -11   3   49.80    4.60
  -1 -11   3   51.09    4.80
  -1 -11   3   44.90    6.80
   0  11  -3   39.40    4.20
   0  11  -3   44.50    5.30
   0  11  -3   42.20    4.60
   0 -11   3   42.50    2.70
   0 -11   3   40.90    4.30
   0 -11   3   39.40    4.10
   0 -11   3   45.80    2.90
  -1  11  -3   36.20    3.80
  -1  11  -3   31.30    4.20
  -1  11  -3   32.20    3.70
   1 -11   3   21.90    3.70
   1 -11   3   28.70    3.80
  -2  11  -3    0.00    3.50
  -2  11  -3    0.40    2.80
  -2  11  -3   -0.70    3.50
  -2  11  -3    2.70    2.90
   2 -11   3    4.40    3.40
  -3  11  -3   32.70    3.80
  -3  11  -3   20.90    4.40
  -3  11  -3   34.40    3.60
  -3  11  -3   17.20    4.20
   3 -11   3   25.70    4.90
   4  10  -3   15.30    4.10
  -4 -10   3    5.50    4.60
   3  10  -3   -4.80    3.50
   3  10  -3   -2.50    3.70
  -3 -10   3    3.30    3.70
  -3 -10   3    1.30    2.80
  -3 -10   3    4.60    3.60
   2  10  -3   -5.40    3.10
   2  10  -3    2.10    3.10
   2  10  -3   -0.40    3.10
  -2 -10   3    3.60    3.00
  -2 -10   3   -6.70    2.80
  -2 -10   3    0.20    2.70
  -2 -10   3    1.30    3.00
   1  10  -3   29.30    3.70
   1  10  -3   28.50    3.60
   1  10  -3   25.60    3.90
  -1 -10   3   32.00    4.10
  -1 -10   3   32.30    4.20
  -1 -10   3   25.00    3.60
  -1 -10   3   28.60    3.60
   0  10  -3    7.20    2.70
   0  10  -3    1.90    2.90
   0  10  -3    0.20    2.70
   0 -10   3    0.90    1.60
   0 -10   3   -2.00    2.50
   0 -10   3    0.80    1.50
   0 -10   3    2.80    2.70
  -1  10  -3   -1.50    3.40
  -1  10  -3    0.80    2.60
  -1  10  -3   -0.20    2.50
  -1  10  -3   -2.10    2.70
   1 -10   3    0.60    2.60
   1 -10   3   -2.30    2.60
  -2  10  -3    3.70    3.00
  -2  10  -3    8.40    4.20
  -2  10  -3    9.60    2.70
  -2  10  -3   11.20    2.70
  -2  10  -3    7.50    2.60
   2 -10   3   11.60    3.20
   2 -10   3    6.50    2.80
  -3  10  -3   -0.20    2.60
  -3  10  -3   -4.20    2.50
  -3  10  -3    3.10    3.30
  -3  10  -3   -2.80    3.10
  -3  10  -3    4.20    4.00
   3 -10   3   -2.70    3.00
  -4  10  -3   18.70    5.00
  -4  10  -3   19.20    7.40
  -4  10  -3   -1.80    3.60
  -4  10  -3    2.60    3.60
  -4  10  -3    2.10    4.20
   4 -10   3    2.70    3.50
   4   9  -3    4.20    3.40
  -4  -9   3    6.50    4.00
   3   9  -3    2.40    2.80
   3   9  -3   -4.90    2.80
   3   9  -3   -0.40    3.20
  -3  -9   3   -4.70    3.10
  -3  -9   3   -4.30    2.40
  -3  -9   3   -4.40    2.80
  -3  -9   3   -0.20    3.30
   2   9  -3   91.39    6.70
   2   9  -3   85.99    6.20
   2   9  -3   92.29    6.30
  -2  -9   3   98.49    5.50
  -2  -9   3   84.69    5.40
  -2  -9   3   71.69    7.00
  -2  -9   3   85.89    5.10
   1   9  -3    1.30    2.80
   1   9  -3   -0.60    2.40
   1   9  -3    0.20    2.80
  -1  -9   3    1.90    2.20
  -1  -9   3    2.20    2.60
  -1  -9   3    2.70    2.50
  -1  -9   3    2.30    3.10
   0   9  -3   46.50    4.10
   0   9  -3   39.70    4.50
   0   9  -3   42.80    5.20
   0  -9   3   44.00    2.80
   0  -9   3   42.90    4.60
   0  -9   3   38.60    4.80
   0  -9   3   40.80    2.80
  -1   9  -3  249.38    6.70
  -1   9  -3  255.37    8.10
  -1   9  -3  251.97    7.00
   1  -9   3  250.97    7.60
   1  -9   3  263.37    8.10
  -2   9  -3   14.80    2.40
  -2   9  -3   20.80    3.60
  -2   9  -3   13.00    3.00
   2  -9   3   14.20    3.00
  -3   9  -3   87.69    6.70
  -3   9  -3   86.29    6.40
  -3   9  -3   80.69    5.20
  -3   9  -3   81.99    4.00
  -3   9  -3   88.59    9.40
   3  -9   3   85.29    5.70
  -4   9  -3    8.30    2.40
  -4   9  -3    3.50    3.50
  -4   9  -3    3.80    2.60
  -4   9  -3   11.30    5.20
  -4   9  -3    1.80    3.00
   4  -9   3    1.80    3.10
   5   8  -3    1.90    3.70
   5   8  -3    6.50    4.60
  -5  -8   3    6.60    4.40
   4   8  -3    0.90    3.60
   4   8  -3    2.40    2.90
  -4  -8   3   -3.30    3.20
  -4  -8   3   -0.60    3.50
  -4  -8   3   -1.90    3.40
   3   8  -3    4.30    2.60
   3   8  -3    5.10    2.90
   3   8  -3    6.70    3.20
  -3  -8   3    4.70    3.00
  -3  -8   3    3.90    2.50
  -3  -8   3    2.50    3.00
   2   8  -3    6.50    3.00
   2   8  -3    8.20    3.10
   2   8  -3    7.90    2.80
  -2  -8   3    5.20    2.40
  -2  -8   3    5.30    2.60
  -2  -8   3    5.50    2.70
  -2  -8   3    7.90    2.60
   1   8  -3  162.88    6.30
   1   8  -3  162.18    6.80
   1   8  -3  168.48    5.90
  -1  -8   3  160.68    5.10
  -1  -8   3  156.68    5.70
  -1  -8   3  158.48    5.20
  -1  -8   3  159.38    6.30
   0   8  -3    5.80    2.50
   0   8  -3    1.90    1.90
   0   8  -3   -0.90    2.40
   0  -8   3    2.50    1.50
   0  -8   3    3.60    2.30
   0  -8   3    1.10    2.10
   0  -8   3    2.00    1.50
  -1   8  -3  237.98    6.00
  -1   8  -3  241.98    7.50
  -1   8  -3  241.78    6.30
   1  -8   3  237.28    7.20
   1  -8   3  238.88    6.90
  -2   8  -3   22.90    2.50
  -2   8  -3   21.60    2.30
  -2   8  -3   22.00    3.80
  -2   8  -3   21.40    3.60
   2  -8   3   25.70    3.10
   2  -8   3   17.50    2.90
  -3   8  -3    1.60    1.90
  -3   8  -3   -0.80    1.60
  -3   8  -3   -1.00    2.60
  -3   8  -3   -2.80    3.00
  -3   8  -3    3.50    3.80
   3  -8   3    3.50    2.60
  -4   8  -3   50.89    3.90
  -4   8  -3   52.79    5.90
  -4   8  -3   46.00    6.20
  -4   8  -3   56.09    7.50
  -4   8  -3   52.49    5.90
  -4   8  -3   51.69    3.50
   4  -8   3   49.00    5.20
  -5   8  -3   10.90    4.00
  -5   8  -3   14.40    2.70
  -5   8  -3   19.70    3.10
  -5   8  -3   21.20    6.80
   5  -8   3   14.60    3.80
   5   7  -3    8.00    4.40
   5   7  -3   -0.30    3.40
  -5  -7   3    8.80    4.40
   4   7  -3    9.10    2.60
   4   7  -3   11.60    3.20
   4   7  -3   13.20    3.60
  -4  -7   3   16.00    3.50
  -4  -7   3   10.00    3.50
  -4  -7   3    5.10    3.20
   3   7  -3  131.69    5.40
   3   7  -3  119.49    6.10
   3   7  -3  118.79    6.30
  -3  -7   3  117.89    6.70
  -3  -7   3  127.29    6.10
  -3  -7   3  125.79    5.20
  -3  -7   3  137.59    6.10
   2   7  -3  144.89    6.00
   2   7  -3  136.29    6.50
   2   7  -3  140.29    6.10
  -2  -7   3  138.79    5.10
  -2  -7   3  149.79    6.30
  -2  -7   3  135.69    5.50
  -2  -7   3  139.09    5.60
   1   7  -3    3.80    2.40
   1   7  -3    6.10    2.50
   1   7  -3    3.50    2.10
  -1  -7   3    2.50    2.20
  -1  -7   3    0.70    1.90
  -1  -7   3    4.70    2.00
  -1  -7   3    5.30    2.20
   0   7  -3   38.60    3.20
   0   7  -3   41.50    4.20
   0   7  -3   39.50    3.70
   0  -7   3   38.70    2.60
   0  -7   3   42.50    3.80
   0  -7   3   44.70    2.50
   0  -7   3   38.40    3.80
  -1   7  -3  419.66    9.40
  -1   7  -3  417.76    8.20
  -1   7  -3  424.46   10.50
  -1   7  -3  419.16    8.00
  -1   7  -3  413.56    8.20
   1  -7   3  408.86    8.80
   1  -7   3  432.56    9.30
  -2   7  -3  914.71   16.40
  -2   7  -3  898.11   14.30
  -2   7  -3  947.11   20.30
  -2   7  -3  933.31   16.60
  -2   7  -3  917.71   14.50
   2  -7   3  929.91   16.30
   2  -7   3  908.01   15.70
  -3   7  -3   37.90    2.90
  -3   7  -3   45.30    5.60
  -3   7  -3   37.80    2.70
  -3   7  -3   37.80    3.90
  -3   7  -3   40.30    5.60
   3  -7   3   31.80    3.20
  -4   7  -3   19.70    3.30
  -4   7  -3   22.30    2.20
  -4   7  -3   22.50    5.60
  -4   7  -3   20.30    2.40
  -4   7  -3   20.40    3.80
  -4   7  -3   14.30    2.60
  -4   7  -3   21.80    3.50
  -4   7  -3   17.30    3.80
   4  -7   3   17.70    3.00
  -5   7  -3   28.10    6.70
  -5   7  -3   19.10    2.90
  -5   7  -3   16.80    3.70
  -5   7  -3   23.40    2.60
   5  -7   3   21.60    3.40
   5   6  -3    2.70    2.90
   5   6  -3    9.80    4.10
  -5  -6   3    2.60    3.60
   4   6  -3    2.20    2.30
   4   6  -3    3.80    3.10
  -4  -6   3    3.80    5.40
  -4  -6   3    5.30    3.00
  -4  -6   3    6.00    3.20
   3   6  -3   51.09    4.60
   3   6  -3   50.49    4.00
   3   6  -3   54.59    5.00
  -3  -6   3   46.00    5.30
  -3  -6   3   45.00    4.90
  -3  -6   3   50.49    4.60
   2   6  -3   31.70    4.00
   2   6  -3   22.70    3.00
   2   6  -3   24.70    3.10
  -2  -6   3   24.60    3.40
  -2  -6   3   28.10    2.60
  -2  -6   3   30.80    3.10
  -2  -6   3   26.30    2.90
   1   6  -3  358.86    7.80
   1   6  -3  373.76    8.00
   1   6  -3  366.86    8.50
  -1  -6   3  346.47    6.90
  -1  -6   3  352.26    7.50
  -1  -6   3  363.16    8.10
  -1  -6   3  370.36    7.40
  -1  -6   3  363.76    7.30
   0   6  -3   13.90    1.80
   0   6  -3   10.80    2.00
   0   6  -3   12.40    2.10
   0  -6   3   13.80    1.40
   0  -6   3   12.90    2.10
   0  -6   3   13.50    2.00
   0  -6   3   13.20    1.50
  -1   6  -3   19.20    3.00
  -1   6  -3   15.70    1.70
  -1   6  -3   17.80    1.90
  -1   6  -3   19.20    2.50
  -1   6  -3   14.80    2.20
   1  -6   3   16.60    2.10
   1  -6   3   17.30    2.30
  -2   6  -3  686.53   10.90
  -2   6  -3  712.23   12.90
  -2   6  -3  699.73   11.00
  -2   6  -3  697.03   14.30
  -2   6  -3  700.53   13.60
   2  -6   3  672.93   12.20
  -3   6  -3  894.91   13.90
  -3   6  -3  929.61   14.10
  -3   6  -3  951.40   18.40
  -3   6  -3  906.31   18.20
  -3   6  -3  938.81   16.50
  -3   6  -3  937.61   17.40
   3  -6   3  919.81   15.50
  -4   6  -3   39.00    6.80
  -4   6  -3   41.40    2.80
  -4   6  -3   49.60    6.00
  -4   6  -3   43.60    3.50
  -4   6  -3   41.10    4.80
  -4   6  -3   45.50    2.90
  -4   6  -3   42.30    5.70
   4  -6   3   47.20    4.20
  -5   6  -3    1.60    5.40
  -5   6  -3    0.40    1.80
  -5   6  -3    2.10    2.80
  -5   6  -3   -1.00    2.20
  -5   6  -3    9.50    4.90
   5  -6   3    3.20    2.60
   5  -6   3    1.50    3.90
  -6   6  -3    2.70    3.60
  -6   6  -3    5.90    3.80
   6  -6   3   -0.80    3.20
   6  -6   3    0.70    5.20
   6   5  -3    5.10    4.50
   6   5  -3    1.10    4.10
   6   5  -3   -7.00    4.00
  -6  -5   3    8.80    4.20
   5   5  -3   64.99    6.70
   5   5  -3   60.29    5.40
   5   5  -3   73.39    6.00
  -5  -5   3   58.69    6.40
  -5  -5   3   60.49    6.70
  -5  -5   3   59.99    6.40
   4   5  -3   27.40    3.70
   4   5  -3   30.40    4.00
  -4  -5   3   31.20    3.70
   3   5  -3    5.40    2.60
   3   5  -3    5.10    2.70
   3   5  -3    5.80    2.00
  -3  -5   3    6.60    2.80
  -3  -5   3    7.90    2.70
  -3  -5   3    4.00    2.70
   2   5  -3  147.69    5.80
   2   5  -3  145.59    5.70
   2   5  -3  151.18    5.20
  -2  -5   3  150.08    4.90
  -2  -5   3  156.18    5.60
  -2  -5   3  151.18    4.70
  -2  -5   3  153.18    5.30
   1   5  -3  477.65    9.40
   1   5  -3  462.85    8.90
   1   5  -3  479.95    9.10
  -1  -5   3  468.65    8.60
  -1  -5   3  467.55    8.50
  -1  -5   3  475.15    9.20
  -1  -5   3  475.15    8.60
  -1  -5   3  458.25    8.60
   0   5  -3  377.76    7.80
   0   5  -3  386.96    7.30
   0   5  -3  375.36    7.10
   0  -5   3  381.66    6.40
   0  -5   3  370.76    7.10
   0  -5   3  385.56    6.50
   0  -5   3  379.56    7.60
   0  -5   3  379.86    7.40
  -1   5  -3   45.70    3.20
  -1   5  -3   52.39    3.20
  -1   5  -3   47.30    2.20
  -1   5  -3   48.80    2.50
   1  -5   3   45.00    3.10
   1  -5   3   42.80    3.00
  -2   5  -3  102.99    2.70
  -2   5  -3  100.09    5.00
  -2   5  -3  104.29    2.90
  -2   5  -3  104.99    4.30
   2  -5   3  105.29    3.90
  -3   5  -3  204.68    4.20
  -3   5  -3  215.78    7.30
  -3   5  -3  210.68    6.40
  -3   5  -3  206.58    7.70
  -3   5  -3  202.98    4.30
  -3   5  -3  200.78    7.90
   3  -5   3  202.18    5.60
  -4   5  -3   14.90    2.70
  -4   5  -3   14.00    3.20
  -4   5  -3   16.10    4.80
  -4   5  -3   16.70    3.80
  -4   5  -3   16.60    1.80
  -4   5  -3   16.20    1.90
   4  -5   3   12.70    2.50
   4  -5   3   15.70    3.60
  -5   5  -3    8.90    4.10
  -5   5  -3    9.30    2.00
  -5   5  -3    6.80    2.20
  -5   5  -3    6.30    2.70
  -5   5  -3    8.70    5.40
  -5   5  -3   11.80    3.60
   5  -5   3    9.00    2.60
   5  -5   3   10.50    4.00
  -6   5  -3    4.80    3.40
  -6   5  -3    8.30    3.10
  -6   5  -3   -2.10    2.30
   6  -5   3   14.00    5.00
   6  -5   3    0.20    3.00
   6   4  -3   -1.20    3.60
   6   4  -3    2.50    4.30
   6   4  -3   -1.50    2.90
  -6  -4   3    5.30    4.10
   5   4  -3    0.60    3.10
   5   4  -3    0.00    3.30
   5   4  -3   -0.60    2.60
  -5  -4   3    1.90    3.30
  -5  -4   3    3.90    3.20
  -5  -4   3   -1.40    3.10
   4   4  -3    9.20    3.00
   4   4  -3    7.00    2.20
   4   4  -3    6.10    2.90
  -4  -4   3    7.20    3.20
  -4  -4   3   11.10    3.10
   3   4  -3   -3.50    2.10
   3   4  -3   -4.00    2.10
   3   4  -3   -0.70    1.60
  -3  -4   3    1.60    2.20
  -3  -4   3   -0.60    2.50
  -3  -4   3   -2.10    2.30
   2   4  -3   28.30    2.50
   2   4  -3   30.20    3.10
   2   4  -3   30.10    2.80
  -2  -4   3   26.00    3.30
  -2  -4   3   26.60    2.90
  -2  -4   3   23.90    3.20
  -2  -4   3   30.00    3.70
   1   4  -3  305.97    6.60
   1   4  -3  305.97    6.80
   1   4  -3  311.57    6.50
  -1  -4   3  310.67    6.70
  -1  -4   3  298.07    6.10
  -1  -4   3  306.67    6.20
  -1  -4   3  309.87    6.20
   0   4  -3    2.60    1.30
   0   4  -3    1.20    1.40
   0   4  -3    1.40    1.40
   0  -4   3    3.60    1.40
   0  -4   3    3.10    1.00
   0  -4   3    3.10    1.10
   0  -4   3    3.00    1.70
   0  -4   3    3.00    1.70
  -1   4  -3  532.75   10.00
  -1   4  -3  536.35    8.30
  -1   4  -3  539.65    9.40
  -1   4  -3  532.65    8.20
   1  -4   3  552.84    9.30
   1  -4   3  531.25    9.30
  -2   4  -3   36.30    3.50
  -2   4  -3   30.40    1.50
  -2   4  -3   32.50    1.60
  -2   4  -3   31.30    3.70
  -2   4  -3   32.60    2.90
  -2   4  -3   31.70    3.70
   2  -4   3   31.00    2.60
  -3   4  -3  149.09    3.20
  -3   4  -3  146.19    4.70
  -3   4  -3  149.19    5.10
  -3   4  -3  147.19    6.90
  -3   4  -3  153.68    5.90
  -3   4  -3  154.88    6.40
  -3   4  -3  150.88    3.20
   3  -4   3  147.99    4.40
   3  -4   3  155.48    6.20
  -4   4  -3  392.16   12.20
  -4   4  -3  388.86    7.10
  -4   4  -3  404.16   10.40
  -4   4  -3  420.06   11.20
  -4   4  -3  382.96    7.40
  -4   4  -3  401.56    7.20
  -4   4  -3  402.86    9.40
   4  -4   3  392.16    8.10
   4  -4   3  403.16   10.70
  -5   4  -3    3.00    3.80
  -5   4  -3    9.20    2.20
  -5   4  -3    6.50    2.70
  -5   4  -3    6.10    1.90
   5  -4   3    4.70    2.30
   5  -4   3    9.80    3.80
  -6   4  -3   -6.50    2.70
  -6   4  -3    6.40    2.40
  -6   4  -3    2.30    3.00
   6  -4   3    2.30    2.80
   6  -4   3    0.10    4.40
   6   3  -3    2.40    4.10
   6   3  -3   -2.40    2.50
  -6  -3   3    1.80    3.70
   5   3  -3   14.50    3.50
   5   3  -3   15.90    3.60
   5   3  -3    9.60    3.00
  -5  -3   3   14.30    3.50
  -5  -3   3    8.50    3.40
   4   3  -3    2.60    2.00
   4   3  -3    2.60    2.80
   4   3  -3    1.50    2.80
  -4  -3   3    0.60    3.10
  -4  -3   3    4.10    2.90
   3   3  -3   15.50    2.70
   3   3  -3   13.20    1.90
   3   3  -3   16.80    2.60
  -3  -3   3   16.50    2.70
  -3  -3   3   11.00    2.60
   2   3  -3  440.26    8.80
   2   3  -3  435.76    8.70
   2   3  -3  428.26    7.50
  -2  -3   3  432.66    8.50
  -2  -3   3  440.86    8.50
  -2  -3   3  448.76    8.80
   1   3  -3  828.02   13.50
   1   3  -3  854.01   13.40
   1   3  -3  853.61   13.40
  -1  -3   3  841.12   13.00
  -1  -3   3  847.42   13.10
  -1  -3   3  860.81   13.20
  -1  -3   3  850.11   13.40
   0   3  -3  184.28    4.30
   0   3  -3  178.68    3.90
   0   3  -3  183.48    4.10
   0  -3   3  186.28    4.30
   0  -3   3  183.88    4.30
   0  -3   3  185.28    3.60
   0  -3   3  179.98    4.70
   0  -3   3  188.08    3.60
  -1   3  -3  398.86    8.20
  -1   3  -3  399.76    6.00
  -1   3  -3  404.56    7.20
  -1   3  -3  396.66    6.10
   1  -3   3  389.66    8.20
   1  -3   3  402.26    7.20
   1  -3   3  405.66    7.10
  -2   3  -3   13.50    2.40
  -2   3  -3    8.40    1.50
  -2   3  -3   10.30    2.80
  -2   3  -3    8.00    1.90
   2  -3   3   10.00    1.50
  -3   3  -3   13.90    1.40
  -3   3  -3   14.00    2.60
  -3   3  -3   10.30    2.80
  -3   3  -3   14.40    3.50
  -3   3  -3   12.00    1.90
  -3   3  -3   12.90    1.50
   3  -3   3   12.00    1.80
   3  -3   3   12.20    2.70
  -4   3  -3   -1.00    2.60
  -4   3  -3   -1.10    1.30
  -4   3  -3    0.40    0.90
  -4   3  -3   -0.20    1.40
  -4   3  -3   -2.20    2.90
  -4   3  -3   -4.20    1.70
   4  -3   3   -1.70    2.60
   4  -3   3   -0.20    1.80
  -5   3  -3   45.10    6.60
  -5   3  -3   52.39    3.70
  -5   3  -3   56.89    3.40
   5  -3   3   59.49    3.90
   5  -3   3   57.39    6.40
  -6   3  -3    1.20    2.70
  -6   3  -3    5.50    2.50
   6  -3   3    2.30    2.60
   6  -3   3    5.50    4.20
   6   2  -3   65.59    6.00
   6   2  -3   53.39    6.10
   6   2  -3   57.69    7.20
   6   2  -3   76.79    4.90
   6   2  -3   64.89    7.10
  -6  -2   3   65.49    7.00
   5   2  -3   -1.40    2.80
   5   2  -3    0.90    1.80
  -5  -2   3   -1.10    3.50
  -5  -2   3   -2.40    2.80
  -5  -2   3   -0.10    2.70
   4   2  -3    0.10    2.50
   4   2  -3    0.20    2.00
   4   2  -3    0.80    2.60
  -4  -2   3   -2.50    2.50
  -4  -2   3    2.30    2.80
  -4  -2   3   -0.10    2.40
   3   2  -3   97.49    4.60
   3   2  -3   97.69    3.70
  -3  -2   3   99.59    4.70
  -3  -2   3   96.59    5.00
   2   2  -3 1405.66   21.50
   2   2  -3 1374.96   20.20
   2   2  -3 1432.96   21.50
  -2  -2   3 1434.36   21.40
  -2  -2   3 1447.46   21.50
  -2  -2   3 1424.76   21.30
   1   2  -3  393.26    6.00
   1   2  -3  392.56    7.20
  -1  -2   3  385.46    7.00
  -1  -2   3  382.16    7.00
  -1  -2   3  393.16    7.10
  -1  -2   3  400.06    6.90
   0   2  -3   25.50    1.70
   0   2  -3   26.20    2.00
   0   2  -3   25.90    1.80
   0  -2   3   27.90    1.70
   0  -2   3   24.80    2.40
   0  -2   3   26.10    1.50
   0  -2   3   27.40    1.40
   0  -2   3   26.90    2.00
  -1   2  -3  546.65    9.10
  -1   2  -3  545.85    8.60
  -1   2  -3  550.24   10.10
   1  -2   3  546.65    8.70
   1  -2   3  561.64    8.70
   1  -2   3  544.15   10.10
  -2   2  -3  319.37    6.30
  -2   2  -3  318.87    7.00
  -2   2  -3  319.57    7.20
  -2   2  -3  308.47    8.00
  -2   2  -3  314.47    6.60
   2  -2   3  307.47    7.00
   2  -2   3  321.97    5.70
  -3   2  -3  159.48    5.50
  -3   2  -3  158.88    3.10
  -3   2  -3  152.88    3.10
  -3   2  -3  150.68    6.60
  -3   2  -3  154.48    4.00
  -3   2  -3  158.18    5.60
   3  -2   3  160.58    5.60
   3  -2   3  159.38    3.90
  -4   2  -3  252.87    7.70
  -4   2  -3  247.78    8.00
  -4   2  -3  245.98    5.20
  -4   2  -3  256.07    5.30
   4  -2   3  248.08    7.80
  -5   2  -3  131.59    4.80
  -5   2  -3  133.99    4.50
   5  -2   3  139.69    7.40
   5  -2   3  136.19    4.40
  -6   2  -3    7.40    2.50
  -6   2  -3    7.30    3.40
   6  -2   3    5.70    4.10
   6  -2   3    4.90    2.50
  -7   2  -3   14.60    3.90
  -7   2  -3    4.00    3.40
   7  -2   3   10.00    3.30
   7  -2   3   13.50    5.50
   6   1  -3    8.70    5.50
   6   1  -3    6.70    1.60
   6   1  -3    5.90    3.40
   6   1  -3    5.10    3.70
  -6  -1   3    5.70    3.70
   5   1  -3  123.19    6.30
   5   1  -3  113.49    4.80
   5   1  -3  120.79    6.20
  -5  -1   3  116.19    6.40
  -5  -1   3  120.29    6.50
  -5  -1   3  109.79    6.20
   4   1  -3   18.30    2.90
   4   1  -3   20.60    3.40
   4   1  -3   20.00    3.00
  -4  -1   3   18.60    3.10
  -4  -1   3   22.90    3.10
  -4  -1   3   15.90    2.70
   3   1  -3   61.19    3.30
   3   1  -3   59.89    3.70
   3   1  -3   52.69    3.90
  -3  -1   3   61.39    3.90
  -3  -1   3   55.29    3.30
  -3  -1   3   58.19    3.80
   2   1  -3   78.79    3.80
   2   1  -3   76.39    2.80
   2   1  -3   71.89    3.80
  -2  -1   3   76.59    3.70
  -2  -1   3   82.49    2.80
  -2  -1   3   80.59    3.70
   1   1  -3 4254.37   59.19
   1   1  -3 4376.36   59.29
  -1  -1   3 4320.27   58.99
  -1  -1   3 4382.86   59.09
  -1  -1   3 4438.76   58.99
   0   1  -3 2074.69   28.40
   0   1  -3 2076.79   28.10
   0   1  -3 2074.59   28.50
   0   1  -3 2073.79   28.50
   0  -1   3 2067.59   30.00
   0  -1   3 2183.78   28.70
   0  -1   3 2074.69   28.40
   0  -1   3 2076.99   28.30
   0  -1   3 2094.19   28.30
  -1   1  -3 1052.09   16.00
  -1   1  -3 1095.29   17.10
  -1   1  -3 1078.59   15.20
  -1   1  -3 1079.39   15.80
  -1   1  -3 1047.20   16.50
   1  -1   3 1055.39   17.00
   1  -1   3 1124.69   15.30
  -2   1  -3  217.08    5.50
  -2   1  -3  221.38    6.60
  -2   1  -3  223.58    5.50
  -2   1  -3  222.08    5.10
   2  -1   3  229.48    4.20
   2  -1   3  217.58    5.40
   2  -1   3  218.58    5.50
  -3   1  -3  117.29    2.80
  -3   1  -3  115.59    5.00
  -3   1  -3  122.69    6.10
  -3   1  -3  121.59    3.50
  -3   1  -3  121.09    2.80
  -3   1  -3  123.69    4.90
   3  -1   3  120.49    4.70
   3  -1   3  120.59    4.80
   3  -1   3  121.99    3.10
  -4   1  -3  101.59    5.40
  -4   1  -3   89.19    3.30
  -4   1  -3   93.69    7.70
  -4   1  -3   94.09    3.40
   4  -1   3   96.89    5.20
   4  -1   3  102.59    3.20
  -5   1  -3  111.69    4.40
   5  -1   3   96.19    4.80
   5  -1   3  115.79    6.60
  -6   1  -3   85.99    5.00
  -6   1  -3   81.09    5.40
  -6   1  -3   83.09    6.70
   6  -1   3   80.99    4.20
   6  -1   3  102.39    7.70
  -7   1  -3   46.10    6.20
  -7   1  -3   42.50    5.60
   7  -1   3   38.50    4.50
   7  -1   3   38.60    6.20
   6   0  -3   12.80    3.70
   6   0  -3   13.40    3.80
   6   0  -3    9.20    5.10
  -6   0   3    8.20    3.60
   5   0  -3   42.00    4.90
   5   0  -3   43.00    5.60
   5   0  -3   32.30    3.10
  -5   0   3   40.90    5.60
  -5   0   3   40.30    5.40
  -5   0   3   36.50    3.80
   4   0  -3    7.80    2.60
   4   0  -3    5.70    1.40
   4   0  -3    7.90    2.40
  -4   0   3    6.80    2.60
  -4   0   3    9.20    2.50
   3   0  -3   22.40    2.70
   3   0  -3   22.30    2.30
   3   0  -3   25.10    2.60
  -3   0   3   24.80    2.90
  -3   0   3   24.20    3.30
  -3   0   3   20.30    2.40
   2   0  -3  413.66    8.20
   2   0  -3  424.16    8.10
   2   0  -3  419.56    8.00
  -2   0   3  425.06    8.00
  -2   0   3  423.06    8.10
  -2   0   3  425.46    7.30
   1   0  -3  576.14    9.30
   1   0  -3  575.84   10.00
   1   0  -3  565.34    9.30
  -1   0   3  576.04    8.20
  -1   0   3  577.34    9.20
  -1   0   3  587.34    9.30
   0   0  -3 1003.90   14.10
   0   0  -3  995.60   14.10
   0   0  -3  989.70   15.30
   0   0   3 1007.70   15.40
   0   0   3  982.60   13.90
   0   0   3  968.30   13.50
   0   0   3  967.60   13.50
   0   0   3  999.50   15.60
   0   0   3 1001.70   14.00
  -1   0  -3 1338.57   18.80
  -1   0  -3 1401.56   18.80
  -1   0  -3 1415.26   19.90
  -1   0  -3 1381.66   21.30
  -1   0  -3 1434.96   20.60
  -1   0  -3 1389.06   19.80
   1   0   3 1417.76   20.60
   1   0   3 1380.16   19.90
   1   0   3 1465.35   19.30
   1   0   3 1362.66   21.30
  -2   0  -3   94.29    4.60
  -2   0  -3   92.99    3.20
  -2   0  -3   93.79    3.50
  -2   0  -3   89.89    1.90
  -2   0  -3   93.59    3.60
   2   0   3   92.09    3.30
   2   0   3   93.19    2.20
   2   0   3   93.69    3.60
   2   0   3   94.59    3.30
  -3   0  -3 1589.44   23.10
  -3   0  -3 1580.64   22.50
  -3   0  -3 1625.24   24.70
  -3   0  -3 1623.84   26.80
  -3   0  -3 1585.74   24.40
   3   0   3 1599.04   24.40
   3   0   3 1624.14   22.20
   3   0   3 1589.34   24.60
   3   0   3 1634.74   23.10
  -4   0  -3  176.58    4.10
  -4   0  -3  175.68    4.50
  -4   0  -3  169.98    4.40
  -4   0  -3  174.88    6.40
   4   0   3  174.78    3.70
   4   0   3  162.28    6.10
   4   0   3  169.88    6.30
  -5   0  -3    1.10    2.10
  -5   0  -3    5.50    2.00
   5   0   3    2.00    2.90
   5   0   3    4.80    1.70
   5   0   3    3.90    3.00
  -6   0  -3  131.59    5.80
  -6   0  -3  126.89    7.60
  -6   0  -3  132.59    6.10
   6   0   3  132.99    8.30
   6   0   3  130.89    4.30
  -7   0  -3    7.80    3.80
  -7   0  -3    9.10    3.60
   7   0   3    8.10    5.30
   6  -1  -3    4.10    3.30
   6  -1  -3    9.50    5.20
  -6   1   3    8.30    4.10
  -6   1   3    3.20    3.50
   5  -1  -3   10.30    4.40
   5  -1  -3    3.20    2.80
   5  -1  -3    3.20    2.70
  -5   1   3    3.40    3.10
  -5   1   3    5.60    2.80
  -5   1   3    5.30    3.00
   4  -1  -3   71.29    4.50
   4  -1  -3   78.89    6.50
   4  -1  -3   69.69    4.70
   4  -1  -3   70.39    3.20
  -4   1   3   75.29    5.00
  -4   1   3   72.89    4.80
  -4   1   3   78.69    5.10
   3  -1  -3   10.70    2.20
   3  -1  -3    6.20    1.20
   3  -1  -3    7.90    1.80
  -3   1   3    9.10    2.00
  -3   1   3    8.60    2.10
  -3   1   3    9.50    2.00
   2  -1  -3  164.08    4.60
   2  -1  -3  157.78    4.50
   2  -1  -3  159.78    4.50
  -2   1   3  166.08    4.70
  -2   1   3  162.38    4.60
  -2   1   3  161.98    4.20
   1  -1  -3  356.96    6.40
   1  -1  -3  356.96    6.80
   1  -1  -3  349.47    6.40
  -1   1   3  359.26    6.30
  -1   1   3  362.16    6.90
   0  -1  -3  526.85    8.00
   0  -1  -3  515.95    9.00
   0  -1  -3  523.15    8.10
   0   1   3  517.95    8.90
   0   1   3  517.45    7.30
   0   1   3  521.25    8.00
   0   1   3  530.95    7.90
  -1  -1  -3    4.40    0.80
  -1  -1  -3    3.00    1.00
  -1  -1  -3    3.90    0.80
  -1  -1  -3    4.00    0.80
  -1  -1  -3    2.10    1.70
   1   1   3    4.70    0.60
   1   1   3    3.80    1.70
   1   1   3    4.10    1.10
   1   1   3    4.80    0.70
   1   1   3    4.00    1.00
  -2  -1  -3    1.10    1.30
  -2  -1  -3    0.50    1.00
  -2  -1  -3   -0.10    0.80
  -2  -1  -3    1.80    1.40
  -2  -1  -3   -1.50    2.10
  -2  -1  -3    1.00    0.90
   2   1   3    1.00    1.00
   2   1   3   -0.20    1.30
   2   1   3    0.90    0.60
   2   1   3    1.00    1.20
  -3  -1  -3   17.50    2.10
  -3  -1  -3   17.60    2.10
  -3  -1  -3   20.40    2.70
  -3  -1  -3   18.60    2.50
  -3  -1  -3   19.60    3.40
   3   1   3   15.60    2.20
   3   1   3   18.50    2.20
   3   1   3   16.90    1.30
   3   1   3   19.50    2.30
   3   1   3   17.50    1.30
   3   1   3   17.90    1.20
  -4  -1  -3   90.79    5.20
  -4  -1  -3   94.79    3.60
  -4  -1  -3   93.79    3.80
   4   1   3   94.19    2.40
   4   1   3   95.39    2.40
   4   1   3   98.49    3.40
   4   1   3   99.29    5.00
   4   1   3  103.59    5.20
   4   1   3   93.99    2.40
  -5  -1  -3   43.40    4.00
  -5  -1  -3   42.80    5.80
  -5  -1  -3   36.80    4.00
   5   1   3   29.90    5.80
   5   1   3   47.90    5.40
   5   1   3   42.90    2.40
  -6  -1  -3   -0.30    3.40
  -6  -1  -3   -2.10    3.50
  -6  -1  -3   -1.80    2.80
   6   1   3   -0.30    1.80
   6   1   3    5.40    3.90
  -7  -1  -3   -0.90    3.60
  -7  -1  -3    2.80    3.40
   7   1   3   -1.10    4.90
   6  -2  -3    1.30    3.40
   6  -2  -3    2.70    5.20
   6  -2  -3   -3.00    3.10
   6  -2  -3    3.70    3.40
  -6   2   3   -4.70    3.20
  -6   2   3   10.30    4.10
   5  -2  -3   43.70    4.70
   5  -2  -3   44.20    3.80
   5  -2  -3   34.20    5.10
  -5   2   3   41.80    6.00
  -5   2   3   45.60    5.40
  -5   2   3   48.30    5.10
   4  -2  -3    3.70    2.50
   4  -2  -3    3.50    1.10
   4  -2  -3    5.10    3.50
   4  -2  -3    2.90    2.20
  -4   2   3    4.10    2.40
  -4   2   3    5.70    4.30
  -4   2   3    2.30    2.40
   3  -2  -3  140.59    4.50
   3  -2  -3  133.59    3.90
   3  -2  -3  135.99    4.70
   3  -2  -3  130.09    5.80
  -3   2   3  138.79    4.80
  -3   2   3  138.29    4.80
  -3   2   3  136.19    4.80
   2  -2  -3   16.20    2.00
   2  -2  -3   14.50    2.50
   2  -2  -3   19.20    2.60
   2  -2  -3   14.20    1.80
  -2   2   3   16.40    2.00
  -2   2   3   15.50    2.00
  -2   2   3   14.70    2.50
   1  -2  -3  125.69    3.40
   1  -2  -3  126.59    3.80
   1  -2  -3  125.89    3.40
   1  -2  -3  125.39    3.80
  -1   2   3  128.39    3.40
  -1   2   3  122.69    3.70
  -1   2   3  126.89    3.40
   0  -2  -3  413.56    6.90
   0  -2  -3  418.06    7.70
   0  -2  -3  421.86    6.30
   0  -2  -3  416.46    6.80
   0   2   3  421.66    6.80
   0   2   3  419.06    7.70
   0   2   3  420.66    6.80
   0   2   3  432.56    6.30
  -1  -2  -3   33.70    2.70
  -1  -2  -3   27.60    2.90
  -1  -2  -3   31.50    1.70
  -1  -2  -3   30.00    1.70
  -1  -2  -3   33.30    1.70
   1   2   3   28.50    1.70
   1   2   3   26.50    2.70
   1   2   3   32.90    1.60
   1   2   3   32.30    2.40
   1   2   3   33.60    1.60
  -2  -2  -3   21.80    1.90
  -2  -2  -3   18.10    3.20
  -2  -2  -3   20.00    1.90
  -2  -2  -3   22.00    2.70
   2   2   3   21.20    1.70
   2   2   3   15.60    1.80
   2   2   3   18.30    2.20
   2   2   3   20.50    1.70
   2   2   3   20.90    2.50
  -3  -2  -3  253.77    8.00
  -3  -2  -3  245.48    6.00
  -3  -2  -3  250.97    6.50
  -3  -2  -3  250.17    5.20
  -3  -2  -3  244.38    5.30
   3   2   3  246.38    4.70
   3   2   3  250.77    4.80
   3   2   3  246.68    6.50
   3   2   3  241.28    6.00
   3   2   3  245.98    5.70
  -4  -2  -3  140.79    5.90
  -4  -2  -3  135.89    4.50
  -4  -2  -3  144.69    4.50
   4   2   3  143.69    5.70
   4   2   3  145.69    4.40
   4   2   3  150.78    5.90
   4   2   3  138.69    3.70
   4   2   3  140.79    3.70
  -5  -2  -3   67.19    6.00
  -5  -2  -3   65.59    4.40
  -5  -2  -3   73.59    4.50
   5   2   3   70.09    3.20
   5   2   3   65.99    5.70
   5   2   3   52.59    6.90
   5   2   3   64.79    3.00
   5   2   3   67.29    3.50
  -6  -2  -3  126.49    7.90
  -6  -2  -3  146.69    6.40
  -6  -2  -3  148.89    6.30
   6   2   3  136.99    4.20
   6   2   3  136.09    3.90
   6   2   3  126.49    7.90
   6   2   3  134.89    7.90
  -7  -2  -3   17.80    4.00
  -7  -2  -3   24.90    3.80
   7   2   3   22.20    5.00
   7   2   3   22.60    5.60
   6  -3  -3   40.80    4.20
   6  -3  -3   32.90    4.30
   6  -3  -3   33.60    6.10
  -6   3   3   36.60    5.00
  -6   3   3   29.60    4.20
   5  -3  -3   18.10    4.50
   5  -3  -3   10.50    2.90
   5  -3  -3   16.90    3.00
   5  -3  -3   15.70    2.90
  -5   3   3   17.40    3.20
  -5   3   3   12.90    3.70
  -5   3   3   17.50    3.50
   4  -3  -3   -1.70    3.10
   4  -3  -3   -4.70    1.90
  -4   3   3    1.00    2.40
  -4   3   3   -3.50    2.40
  -4   3   3    0.90    2.20
   3  -3  -3  238.68    7.60
   3  -3  -3  237.88    5.90
   3  -3  -3  236.38    5.40
   3  -3  -3  244.18    6.10
  -3   3   3  244.28    6.20
  -3   3   3  244.78    6.60
  -3   3   3  246.58    6.30
   2  -3  -3   71.79    4.40
   2  -3  -3   72.59    3.40
   2  -3  -3   73.69    3.40
   2  -3  -3   67.29    3.30
  -2   3   3   66.19    3.40
  -2   3   3   74.59    3.50
  -2   3   3   69.79    3.10
   1  -3  -3   17.80    2.20
   1  -3  -3   16.90    2.30
   1  -3  -3   18.80    2.60
   1  -3  -3   14.90    1.90
  -1   3   3   15.50    2.00
  -1   3   3   19.30    2.50
  -1   3   3   17.70    2.10
  -1   3   3   19.10    2.10
   0  -3  -3   15.80    1.50
   0  -3  -3   14.10    1.70
   0  -3  -3   13.00    1.40
   0  -3  -3   17.10    2.60
   0  -3  -3   15.70    1.80
   0   3   3   15.50    1.50
   0   3   3   13.40    1.70
   0   3   3   17.10    1.50
   0   3   3   15.90    2.30
   0   3   3   17.50    1.80
  -1  -3  -3  397.86    8.00
  -1  -3  -3  406.46    8.10
  -1  -3  -3  416.06    6.70
  -1  -3  -3  407.86    6.80
  -1  -3  -3  403.96    6.90
   1   3   3  405.06    6.80
   1   3   3  395.26    8.00
   1   3   3  412.86    6.80
   1   3   3  416.66    8.00
   1   3   3  402.66    6.80
  -2  -3  -3 1755.12   25.20
  -2  -3  -3 1765.92   27.10
  -2  -3  -3 1755.62   26.40
  -2  -3  -3 1818.42   25.00
  -2  -3  -3 1760.12   25.10
   2   3   3 1745.33   24.80
   2   3   3 1746.73   24.80
   2   3   3 1750.82   26.20
   2   3   3 1737.73   25.80
  -3  -3  -3    7.20    1.70
  -3  -3  -3    7.00    1.60
  -3  -3  -3    7.20    1.70
  -3  -3  -3    5.60    2.00
  -3  -3  -3   10.80    3.20
   3   3   3    7.50    1.40
   3   3   3    7.70    1.60
   3   3   3    9.60    1.50
   3   3   3    9.50    1.90
   3   3   3    5.90    1.80
  -4  -3  -3   26.70    3.40
  -4  -3  -3   26.70    5.70
  -4  -3  -3   25.70    3.40
   4   3   3   26.50    2.70
   4   3   3   31.70    3.90
   4   3   3   32.00    3.40
   4   3   3   22.50    3.00
   4   3   3   24.00    2.70
  -5  -3  -3  476.85   11.80
  -5  -3  -3  475.45   10.20
  -5  -3  -3  484.45   10.10
  -5  -3  -3  480.05   14.40
   5   3   3  483.35   11.60
   5   3   3  473.25    9.70
   5   3   3  465.05    8.90
   5   3   3  456.15   14.30
   5   3   3  480.15    9.00
  -6  -3  -3  503.65   16.30
  -6  -3  -3  516.85   11.70
  -6  -3  -3  511.95   11.50
   6   3   3  514.25    9.90
   6   3   3  542.45    9.90
   6   3   3  528.85   13.50
   6   3   3  509.05    9.90
   6   3   3  557.54   13.90
  -7  -3  -3    7.30    3.70
   7   3   3   16.30    5.40
   7   3   3    7.20    2.60
   7   3   3   13.10    4.70
   6  -4  -3   50.29    5.40
   6  -4  -3   45.90    6.70
   6  -4  -3   42.40    4.60
   6  -4  -3   44.50    5.90
  -6   4   3   41.80    4.60
   5  -4  -3   23.60    3.40
   5  -4  -3   30.80    5.20
   5  -4  -3   27.40    3.10
   5  -4  -3   25.60    3.60
  -5   4   3   27.00    3.60
  -5   4   3   28.00    3.80
   4  -4  -3    8.90    2.20
   4  -4  -3    8.80    3.10
   4  -4  -3    4.50    5.90
   4  -4  -3    6.60    2.60
  -4   4   3   12.60    2.90
  -4   4   3    6.40    2.50
  -4   4   3    9.10    3.00
   3  -4  -3   -0.60    1.80
   3  -4  -3   -2.20    2.50
   3  -4  -3    1.20    1.60
   3  -4  -3   -0.30    1.30
  -3   4   3    1.30    1.90
  -3   4   3   -0.50    1.80
  -3   4   3   -0.20    1.00
   2  -4  -3 1542.15   24.30
   2  -4  -3 1544.85   23.10
   2  -4  -3 1573.34   23.20
   2  -4  -3 1586.94   23.60
  -2   4   3 1585.64   23.50
  -2   4   3 1600.14   23.70
  -2   4   3 1569.94   23.30
  -2   4   3 1606.54   23.50
   1  -4  -3  682.63   11.00
   1  -4  -3  682.33   11.50
   1  -4  -3  685.53   12.00
   1  -4  -3  668.63   11.10
  -1   4   3  683.63   11.80
  -1   4   3  684.03   11.20
  -1   4   3  675.03   11.00
  -1   4   3  684.73   11.10
  -1   4   3  667.83   11.40
   0  -4  -3  210.58    5.80
   0  -4  -3  209.38    4.20
   0  -4  -3  208.78    4.30
   0  -4  -3  207.78    4.40
   0  -4  -3  204.28    4.50
   0   4   3  203.28    4.30
   0   4   3  205.48    4.60
   0   4   3  205.48    4.40
   0   4   3  205.18    4.50
   0   4   3  213.68    5.60
  -1  -4  -3   -0.30    1.20
  -1  -4  -3    0.60    1.80
  -1  -4  -3    0.60    1.10
  -1  -4  -3    0.00    1.00
  -1  -4  -3    0.40    1.50
  -1  -4  -3   -0.10    1.10
   1   4   3   -0.10    1.20
   1   4   3    1.20    1.30
   1   4   3    0.30    1.70
   1   4   3   -0.90    1.20
   1   4   3   -0.30    1.20
  -2  -4  -3 2807.12   36.60
  -2  -4  -3 2743.03   38.40
  -2  -4  -3 2733.33   39.80
  -2  -4  -3 2780.12   38.30
  -2  -4  -3 2665.73   38.30
  -2  -4  -3 2745.03   40.00
   2   4   3 2695.43   39.60
   2   4   3 2735.23   38.50
   2   4   3 2717.13   38.10
   2   4   3 2722.83   38.10
  -3  -4  -3  403.96    8.50
  -3  -4  -3  390.26    7.90
  -3  -4  -3  404.56    7.80
  -3  -4  -3  388.06    9.90
   3   4   3  396.56    7.60
   3   4   3  397.46    8.80
   3   4   3  395.56    7.50
   3   4   3  395.66    8.80
  -4  -4  -3    5.70    6.80
  -4  -4  -3    6.10    2.60
  -4  -4  -3    7.60    2.20
   4   4   3    6.70    1.90
   4   4   3    6.10    1.80
   4   4   3    7.20    1.90
   4   4   3    4.90    2.50
  -5  -4  -3   15.80    3.50
  -5  -4  -3   21.70    5.50
  -5  -4  -3   18.60    3.10
  -5  -4  -3   17.80    3.10
   5   4   3   17.40    2.60
   5   4   3   12.00    3.30
   5   4   3   16.90    2.50
   5   4   3   14.30    3.60
   5   4   3   11.20    2.20
  -6  -4  -3    1.80    3.10
  -6  -4  -3    9.00    3.30
  -6  -4  -3    5.80    3.50
  -6  -4  -3    8.20    6.00
   6   4   3    6.10    2.80
   6   4   3    9.20    3.70
   6   4   3    8.00    4.10
   6   4   3    2.30    2.20
   6   4   3    6.40    2.50
  -7  -4  -3   16.00    4.30
   7   4   3   11.10    5.40
   7   4   3   19.70    5.00
   7   4   3    9.00    3.00
   6  -5  -3   17.30    4.10
   6  -5  -3   15.50    5.90
   6  -5  -3   21.90    4.50
   6  -5  -3   19.10    3.20
  -6   5   3   22.30    4.20
  -6   5   3   18.90    3.70
   5  -5  -3  485.55   10.20
   5  -5  -3  498.15   10.00
   5  -5  -3  508.25   14.40
   5  -5  -3  472.75   11.00
  -5   5   3  484.85   12.70
  -5   5   3  492.05   12.00
  -5   5   3  484.45   11.30
  -5   5   3  482.45   11.60
   4  -5  -3  195.98    5.80
   4  -5  -3  210.18    8.90
   4  -5  -3  186.28    6.50
   4  -5  -3  208.08    6.30
  -4   5   3  200.28    7.20
  -4   5   3  209.48    7.00
  -4   5   3  204.18    6.60
  -4   5   3  199.78    7.80
   3  -5  -3   65.69    4.10
   3  -5  -3   62.19    3.90
   3  -5  -3   65.29    5.50
   3  -5  -3   55.79    4.20
   3  -5  -3   62.79    3.50
  -3   5   3   60.99    3.20
  -3   5   3   60.59    4.10
  -3   5   3   64.99    4.30
  -3   5   3   61.39    4.00
   2  -5  -3    6.30    2.30
   2  -5  -3    7.90    1.70
   2  -5  -3    6.00    2.00
   2  -5  -3    6.80    1.70
   2  -5  -3    9.20    1.80
  -2   5   3    7.90    1.70
  -2   5   3    7.40    1.70
  -2   5   3    7.00    1.80
  -2   5   3    8.10    2.30
  -2   5   3    5.20    1.40
   1  -5  -3 2201.08   31.60
   1  -5  -3 2132.69   31.20
   1  -5  -3 2157.48   31.00
   1  -5  -3 2164.38   30.90
   1  -5  -3 2152.68   32.20
  -1   5   3 2204.18   31.20
  -1   5   3 2167.88   31.70
  -1   5   3 2195.28   32.10
  -1   5   3 2128.79   31.00
  -1   5   3 2247.68   31.20
   0  -5  -3  401.86    9.10
   0  -5  -3  412.06    7.20
   0  -5  -3  402.06    7.40
   0  -5  -3  397.46    7.60
   0  -5  -3  407.96    7.60
   0   5   3  407.36    8.90
   0   5   3  399.26    7.50
   0   5   3  411.06    7.60
   0   5   3  400.56    7.40
   0   5   3  407.86    7.70
  -1  -5  -3  260.47    5.80
  -1  -5  -3  260.87    5.80
  -1  -5  -3  269.67    4.90
  -1  -5  -3  263.77    7.50
  -1  -5  -3  252.97    5.70
  -1  -5  -3  270.77    6.30
   1   5   3  256.07    6.20
   1   5   3  262.87    7.20
   1   5   3  264.47    5.80
   1   5   3  261.37    5.80
   1   5   3  263.87    5.80
  -2  -5  -3  712.53   12.10
  -2  -5  -3  730.93   12.30
  -2  -5  -3  723.43   10.40
  -2  -5  -3  699.53   13.00
  -2  -5  -3  712.73   12.00
  -2  -5  -3  731.53   14.00
   2   5   3  722.83   12.00
   2   5   3  729.73   13.70
   2   5   3  728.33   12.00
   2   5   3  707.73   12.30
  -3  -5  -3    9.20    2.30
  -3  -5  -3   12.10    2.10
  -3  -5  -3    9.90    2.10
  -3  -5  -3   14.90    3.30
   3   5   3   10.40    2.00
   3   5   3   13.20    1.90
   3   5   3   11.10    2.10
   3   5   3   12.40    2.10
  -4  -5  -3    5.50    2.90
  -4  -5  -3    2.80    2.30
  -4  -5  -3    3.80    2.30
   4   5   3    2.80    2.00
   4   5   3   -0.20    1.90
   4   5   3    2.50    2.50
   4   5   3   -1.50    1.70
  -5  -5  -3    0.70    2.60
  -5  -5  -3    3.50    3.10
  -5  -5  -3    1.30    2.70
  -5  -5  -3   -0.50    5.00
   5   5   3   -2.00    2.10
   5   5   3   -2.60    2.70
   5   5   3    2.40    2.30
   5   5   3    3.50    2.40
  -6  -5  -3  100.89    6.50
  -6  -5  -3  110.69    7.20
  -6  -5  -3  104.19    6.60
  -6  -5  -3   96.89    9.80
   6   5   3   97.89    6.60
   6   5   3  107.99    7.90
   6   5   3   96.99    5.70
   6   5   3  104.89    7.60
   6   5   3  102.99    6.00
  -7  -5  -3   10.60    4.30
   7   5   3    7.20    5.70
   7   5   3    2.40    5.30
   7   5   3   18.10    4.90
   6  -6  -3    0.20    5.90
   6  -6  -3    1.00    3.80
  -6   6   3   -6.30    3.60
  -6   6   3    2.60    3.80
   5  -6  -3   56.39    6.00
   5  -6  -3   70.19    4.40
   5  -6  -3   70.79    6.00
   5  -6  -3   63.89    8.30
  -5   6   3   63.19    5.90
  -5   6   3   79.09    6.20
  -5   6   3   64.19    5.40
  -5   6   3   80.89    7.10
   4  -6  -3  229.88    7.30
   4  -6  -3  239.78    6.50
   4  -6  -3  227.98    6.10
   4  -6  -3  234.88    9.40
  -4   6   3  216.38    8.20
  -4   6   3  237.98    7.50
  -4   6   3  226.38    5.20
  -4   6   3  234.38    7.80
  -4   6   3  238.28    8.60
   3  -6  -3    3.00    2.10
   3  -6  -3    3.50    2.40
   3  -6  -3    3.20    3.00
   3  -6  -3    1.20    1.80
  -3   6   3    3.20    2.30
  -3   6   3    1.80    2.00
  -3   6   3    3.30    1.50
  -3   6   3    3.80    2.10
  -3   6   3    2.30    3.10
   2  -6  -3   40.20    3.00
   2  -6  -3   43.10    4.40
   2  -6  -3   41.80    4.10
   2  -6  -3   38.30    3.10
   2  -6  -3   36.70    3.60
  -2   6   3   41.80    3.40
  -2   6   3   40.90    4.40
  -2   6   3   41.50    3.60
  -2   6   3   43.00    3.30
  -2   6   3   41.80    3.50
   1  -6  -3    1.00    1.70
   1  -6  -3   -1.60    1.40
   1  -6  -3    0.70    1.80
   1  -6  -3   -1.30    1.70
   1  -6  -3   -0.40    1.50
   1  -6  -3    1.00    1.50
  -1   6   3   -0.20    1.40
  -1   6   3    1.70    1.60
  -1   6   3    1.50    1.50
  -1   6   3   -0.20    1.80
   0  -6  -3   91.09    3.40
   0  -6  -3   86.59    3.60
   0  -6  -3   88.19    3.70
   0  -6  -3   91.99    5.40
   0  -6  -3   86.89    3.60
   0   6   3   89.79    3.70
   0   6   3   92.19    3.80
   0   6   3   88.09    3.50
   0   6   3   86.99    3.90
   0   6   3   90.49    3.60
   0   6   3   93.49    5.00
  -1  -6  -3  121.99    4.10
  -1  -6  -3  122.79    4.30
  -1  -6  -3  121.19    6.00
  -1  -6  -3  116.59    4.20
  -1  -6  -3  117.19    3.40
   1   6   3  121.19    4.20
   1   6   3  125.39    5.70
   1   6   3  112.09    4.10
   1   6   3  113.89    4.10
   1   6   3  121.19    4.30
  -2  -6  -3  243.38    4.60
  -2  -6  -3  240.88    6.00
  -2  -6  -3  239.48    6.20
  -2  -6  -3  235.38    6.50
  -2  -6  -3  236.18    6.00
   2   6   3  249.97    6.00
   2   6   3  247.18    7.70
   2   6   3  242.18    5.80
   2   6   3  237.38    6.20
  -3  -6  -3  186.18    6.00
  -3  -6  -3  186.88    3.60
  -3  -6  -3  182.68    6.80
  -3  -6  -3  184.38    7.70
  -3  -6  -3  183.38    5.80
   3   6   3  188.18    5.40
   3   6   3  191.38    7.20
   3   6   3  186.48    6.40
   3   6   3  191.38    5.60
  -4  -6  -3    2.90    2.50
  -4  -6  -3   -4.70    2.60
  -4  -6  -3    2.60    2.40
  -4  -6  -3    5.30    6.40
   4   6   3    2.80    2.20
   4   6   3    0.70    2.50
   4   6   3    1.10    2.10
  -5  -6  -3   48.00    5.40
  -5  -6  -3   39.30    4.50
  -5  -6  -3   39.80    5.00
  -5  -6  -3   50.29    6.60
   5   6   3   46.50    5.60
   5   6   3   40.80    4.60
   5   6   3   41.90    5.60
   5   6   3   39.40    4.70
  -6  -6  -3   42.00    7.40
  -6  -6  -3   41.30    5.40
  -6  -6  -3   39.50    4.60
   6   6   3   36.70    5.00
   6   6   3   48.70    5.70
   6   6   3   34.90    5.20
   6   6   3   26.40    3.60
   6   6   3   36.70    4.10
   5  -7  -3   11.40    2.50
   5  -7  -3    4.40    3.30
   5  -7  -3   17.60    5.00
   5  -7  -3    9.80    2.90
  -5   7   3    5.10    3.10
  -5   7   3    6.10    3.20
  -5   7   3   12.70    3.80
   4  -7  -3  187.28    5.90
   4  -7  -3  194.48    5.70
   4  -7  -3  174.88    8.70
   4  -7  -3  192.08    7.10
  -4   7   3  175.38    6.40
  -4   7   3  180.08    5.10
  -4   7   3  174.28   11.90
  -4   7   3  188.38    7.00
  -4   7   3  190.38    7.50
   3  -7  -3   30.80    4.10
   3  -7  -3   30.30    3.40
   3  -7  -3   32.00    3.70
   3  -7  -3   28.70    3.30
  -3   7   3   37.90    5.60
  -3   7   3   29.70    3.70
  -3   7   3   32.40    3.80
  -3   7   3   30.40    4.00
   2  -7  -3   20.10    2.80
   2  -7  -3   25.50    3.30
   2  -7  -3   27.50    3.00
   2  -7  -3   24.70    2.50
  -2   7   3   22.30    3.90
  -2   7   3   32.00    3.40
  -2   7   3   24.00    3.10
  -2   7   3   27.20    3.80
   1  -7  -3  152.28    4.60
   1  -7  -3  145.49    4.80
   1  -7  -3  145.99    4.60
   1  -7  -3  147.89    5.00
  -1   7   3  142.79    5.30
  -1   7   3  152.88    6.00
  -1   7   3  145.89    4.70
  -1   7   3  145.89    4.80
  -1   7   3  148.79    5.10
   0  -7  -3  270.77    6.30
   0  -7  -3  271.57    6.50
   0  -7  -3  276.27    6.20
   0  -7  -3  254.87    5.90
   0   7   3  272.27    8.10
   0   7   3  263.77    6.50
   0   7   3  266.87    6.20
   0   7   3  270.87    6.50
   0   7   3  260.97    6.40
   0   7   3  253.77    6.30
  -1  -7  -3  107.89    4.20
  -1  -7  -3  112.69    4.30
  -1  -7  -3  105.79    3.60
  -1  -7  -3  116.79    4.50
   1   7   3  106.09    4.10
   1   7   3  101.09    3.90
   1   7   3  110.19    5.90
   1   7   3  109.09    4.50
   1   7   3  111.19    4.30
  -2  -7  -3   30.10    3.60
  -2  -7  -3   25.80    4.10
  -2  -7  -3   29.00    3.80
  -2  -7  -3   23.00    3.40
  -2  -7  -3   30.40    2.40
   2   7   3   28.80    3.10
   2   7   3   31.30    3.70
   2   7   3   36.30    5.10
   2   7   3   32.40    3.20
  -3  -7  -3   -0.60    2.10
  -3  -7  -3   -0.10    2.10
  -3  -7  -3    2.70    2.40
  -3  -7  -3    0.80    3.10
  -3  -7  -3    2.10    1.30
   3   7   3   -0.80    2.20
   3   7   3    0.50    2.30
   3   7   3   -1.80    2.00
   3   7   3    1.50    2.00
  -4  -7  -3   39.90    5.20
  -4  -7  -3   38.30    6.10
  -4  -7  -3   41.50    4.60
  -4  -7  -3   40.20    5.50
   4   7   3   35.00    4.30
   4   7   3   44.50    6.00
   4   7   3   38.50    5.50
   4   7   3   42.00    4.50
  -5  -7  -3   25.60    3.80
  -5  -7  -3   25.00    3.80
  -5  -7  -3   22.10    3.40
  -5  -7  -3   31.20    6.10
   5   7   3   39.20    4.80
   5   7   3   28.80    4.20
   5   7   3   17.20    3.40
  -6  -7  -3   75.39    7.30
   6   7   3   57.09    6.50
   6   7   3   46.00    7.50
   6   7   3   70.59    6.20
   6   7   3   43.80    5.10
   5  -8  -3   12.10    2.30
   5  -8  -3    8.80    3.60
   5  -8  -3   10.60    5.50
  -5   8   3    8.60    4.00
  -5   8   3    9.10    3.60
  -5   8   3   14.10    3.40
   4  -8  -3   19.00    2.90
   4  -8  -3   23.70    2.60
   4  -8  -3   17.10    4.50
   4  -8  -3   16.70    3.30
  -4   8   3   18.00    3.30
  -4   8   3   16.80    3.00
  -4   8   3   20.50    3.40
  -4   8   3   21.90    3.60
   3  -8  -3    1.10    2.20
   3  -8  -3    2.70    3.30
   3  -8  -3    5.10    2.80
   3  -8  -3    6.30    2.00
  -3   8   3    1.10    1.80
  -3   8   3    3.90    3.40
  -3   8   3    4.30    2.70
  -3   8   3    2.10    2.50
  -3   8   3   -1.70    2.50
   2  -8  -3  202.08    5.70
   2  -8  -3  200.58    7.30
   2  -8  -3  195.58    6.40
   2  -8  -3  199.48    5.70
  -2   8   3  210.28    6.80
  -2   8   3  206.08    6.30
  -2   8   3  206.28    7.20
  -2   8   3  199.18    6.10
  -2   8   3  202.68    7.60
   1  -8  -3   58.99    3.70
   1  -8  -3   52.69    3.90
   1  -8  -3   54.29    4.20
   1  -8  -3   58.29    3.70
  -1   8   3   53.49    4.50
  -1   8   3   60.49    3.90
  -1   8   3   56.79    5.20
  -1   8   3   54.19    3.70
  -1   8   3   60.59    4.40
   0  -8  -3   58.19    3.70
   0  -8  -3   48.30    3.50
   0  -8  -3   53.09    3.60
   0   8   3   54.29    4.50
   0   8   3   53.19    6.70
   0   8   3   53.79    3.50
   0   8   3   57.19    4.10
   0   8   3   55.09    3.90
   0   8   3   53.59    3.40
  -1  -8  -3   14.60    2.10
  -1  -8  -3   18.80    2.50
  -1  -8  -3   13.10    4.00
   1   8   3   12.60    2.40
   1   8   3   18.10    2.60
   1   8   3   14.80    2.60
   1   8   3   13.50    2.80
   1   8   3   14.90    2.30
  -2  -8  -3   99.79    4.70
  -2  -8  -3  101.39    5.30
  -2  -8  -3  104.79    4.80
  -2  -8  -3   97.79    4.90
   2   8   3   95.99    5.30
   2   8   3  105.49    6.90
   2   8   3   98.29    4.60
   2   8   3   98.49    4.80
  -3  -8  -3  118.29    5.60
  -3  -8  -3  118.99    6.20
  -3  -8  -3  123.99    6.00
  -3  -8  -3  113.89    5.80
  -3  -8  -3  116.79    3.70
   3   8   3  126.29    7.50
   3   8   3  112.89    5.20
   3   8   3  120.99    5.50
   3   8   3  123.89    6.20
  -4  -8  -3    4.40    4.00
  -4  -8  -3    0.90    1.50
  -4  -8  -3    1.10    2.90
  -4  -8  -3    1.20    2.90
   4   8   3    2.90    2.70
   4   8   3    1.80    2.80
   4   8   3    5.30    2.70
   4   8   3    4.50    2.70
  -5  -8  -3   12.70    3.40
  -5  -8  -3   24.70    6.10
  -5  -8  -3   13.00    3.50
  -5  -8  -3   17.00    3.60
   5   8   3   16.80    3.90
   5   8   3    9.60    3.30
   5   8   3   12.80    3.10
   5   8   3   18.60    3.50
  -6  -8  -3   76.49    7.90
  -6  -8  -3   80.59   13.30
   6   8   3   70.19    8.00
   6   8   3   61.09    7.30
   6   8   3   66.49    6.50
   5  -9  -3   15.50    5.70
   5  -9  -3   10.30    3.90
  -5   9   3    4.30    3.80
  -5   9   3   12.20    3.90
   4  -9  -3   16.70    3.60
   4  -9  -3   12.10    4.60
   4  -9  -3   18.40    2.90
   4  -9  -3   20.50    2.50
  -4   9   3   19.80    3.30
  -4   9   3   22.40    4.90
  -4   9   3   18.40    3.80
  -4   9   3   24.70    3.70
  -4   9   3   13.40    2.30
   3  -9  -3   25.70    3.50
   3  -9  -3   31.60    4.10
   3  -9  -3   45.10    6.20
   3  -9  -3   25.70    3.50
  -3   9   3   27.40    3.20
  -3   9   3   38.60    5.20
  -3   9   3   32.00    3.60
  -3   9   3   23.30    2.90
   2  -9  -3    4.40    2.20
   2  -9  -3    4.30    2.60
   2  -9  -3    6.10    2.10
  -2   9   3    3.70    2.50
  -2   9   3    3.20    2.40
  -2   9   3    1.00    2.10
  -2   9   3    1.10    2.20
  -2   9   3    0.80    3.00
   1  -9  -3   35.20    3.70
   1  -9  -3   38.20    4.30
   1  -9  -3   37.20    4.20
  -1   9   3   42.30    4.20
  -1   9   3   45.20    4.00
  -1   9   3   39.30    4.40
  -1   9   3   38.20    4.80
  -1   9   3   37.80    5.50
   0  -9  -3    6.10    2.30
   0  -9  -3    5.20    2.20
   0  -9  -3    7.80    2.20
   0  -9  -3    2.00    2.10
   0   9   3    4.60    2.50
   0   9   3    2.80    1.90
   0   9   3    3.00    2.50
   0   9   3    5.00    2.20
   0   9   3    4.60    2.40
   0   9   3    6.00    2.30
  -1  -9  -3   62.39    3.90
  -1  -9  -3   58.19    4.70
  -1  -9  -3   64.09    4.40
  -1  -9  -3   70.19    4.70
   1   9   3   62.59    4.50
   1   9   3   65.99    4.30
   1   9   3   62.49    4.50
   1   9   3   61.09    6.70
   1   9   3   61.09    4.90
  -2  -9  -3  474.85   10.20
  -2  -9  -3  466.65   10.60
  -2  -9  -3  467.15   10.40
  -2  -9  -3  457.25    8.70
   2   9   3  455.45   10.20
   2   9   3  477.55   10.90
   2   9   3  467.15   13.00
   2   9   3  461.55   10.90
  -3  -9  -3   53.19    5.20
  -3  -9  -3   53.29    5.70
  -3  -9  -3   53.29    3.30
  -3  -9  -3   58.09    4.90
   3   9   3   48.60    5.50
   3   9   3   60.59    7.10
   3   9   3   63.79    4.80
   3   9   3   59.79    5.00
  -4  -9  -3    6.30    3.10
  -4  -9  -3    6.10    4.40
  -4  -9  -3    3.20    3.00
  -4  -9  -3    3.70    1.90
   4   9   3    3.00    2.80
   4   9   3   -2.80    2.80
  -5  -9  -3   -0.30    3.70
  -5  -9  -3   10.30    5.90
   5   9   3    5.90    3.30
   5   9   3    0.60    3.00
   5   9   3   13.70    4.00
  -6  -9  -3   77.59   11.60
  -6  -9  -3   78.69    8.50
   6   9   3   91.69    8.80
   6   9   3   81.09    8.30
   4 -10  -3    1.30    4.80
   4 -10  -3   -1.80    3.40
   4 -10  -3    1.50    2.00
   4 -10  -3    4.30    2.70
  -4  10   3    2.60    3.20
  -4  10   3   -0.50    2.30
  -4  10   3   -0.80    2.90
  -4  10   3   -3.60    3.40
   3 -10  -3    8.00    2.80
   3 -10  -3    6.50    3.20
   3 -10  -3   11.30    2.40
  -3  10   3    7.70    4.00
  -3  10   3   11.90    2.90
  -3  10   3    3.70    2.60
  -3  10   3    9.10    3.20
  -3  10   3    9.10    3.00
   2 -10  -3   13.40    3.10
   2 -10  -3   14.50    2.80
   2 -10  -3   18.40    2.70
  -2  10   3   15.00    3.00
  -2  10   3   10.90    2.90
  -2  10   3   12.00    3.00
  -2  10   3   15.00    2.80
  -2  10   3   18.40    3.80
   1 -10  -3    5.80    2.30
   1 -10  -3    1.40    2.40
   1 -10  -3    5.30    2.40
   1 -10  -3    3.90    2.60
  -1  10   3    6.40    2.60
  -1  10   3    5.50    2.70
  -1  10   3    4.40    2.70
  -1  10   3    6.20    2.70
  -1  10   3    7.50    3.20
   0 -10  -3  152.48    5.60
   0 -10  -3  156.48    5.90
   0 -10  -3  154.38    5.60
   0 -10  -3  160.98    6.40
   0  10   3  145.59    4.40
   0  10   3  145.29    7.70
   0  10   3  153.28    6.50
   0  10   3  153.78    6.20
  -1 -10  -3   85.79    5.40
  -1 -10  -3   82.09    4.50
  -1 -10  -3   84.29    4.90
  -1 -10  -3   84.89    5.10
   1  10   3   67.49    6.80
   1  10   3   88.59    7.40
   1  10   3   89.39    5.30
   1  10   3   84.99    5.50
  -2 -10  -3  374.36    8.00
  -2 -10  -3  384.46   10.00
  -2 -10  -3  387.66    9.60
  -2 -10  -3  389.56    9.50
   2  10   3  388.36    9.60
   2  10   3  392.56   10.40
  -3 -10  -3  611.34   10.80
  -3 -10  -3  607.74   17.00
  -3 -10  -3  623.44   13.30
  -3 -10  -3  616.74   13.70
  -3 -10  -3  607.04   12.10
   3  10   3  620.14   13.90
   3  10   3  625.04   13.00
  -4 -10  -3   58.19    6.40
  -4 -10  -3   43.00    3.50
  -4 -10  -3   49.20    5.20
  -4 -10  -3   46.80    6.20
  -4 -10  -3   37.60    4.20
   4  10   3   41.00    4.90
   4  10   3   53.69    5.60
   4  10   3   47.70    5.80
   4  10   3   36.60    4.70
  -5 -10  -3    8.80    4.20
  -5 -10  -3   17.80    6.40
   5  10   3    9.00    4.20
   5  10   3   11.40    3.80
  -4  11   3    5.10    4.00
  -4  11   3   10.10    3.80
   3 -11  -3    1.60    2.90
   3 -11  -3   10.10    2.50
   3 -11  -3    2.00    3.30
  -3  11   3    3.20    2.90
  -3  11   3   -0.90    3.20
  -3  11   3    1.50    3.10
  -3  11   3    4.20    3.00
  -3  11   3    6.70    4.50
   2 -11  -3   -0.40    2.30
   2 -11  -3   -2.50    2.50
   2 -11  -3    0.10    2.60
  -2  11   3   -4.50    2.60
  -2  11   3    4.40    2.80
  -2  11   3    4.30    3.80
  -2  11   3   -3.80    2.50
  -2  11   3    0.10    2.80
   1 -11  -3    3.40    2.80
   1 -11  -3   -0.90    2.30
   1 -11  -3   -5.30    2.30
   1 -11  -3   -1.60    2.30
  -1  11   3    3.40    3.00
  -1  11   3   -0.70    2.50
  -1  11   3    1.70    2.50
  -1  11   3   -2.50    2.30
  -1  11   3   -2.20    2.70
  -1  11   3    1.10    3.30
   0 -11  -3   62.79    4.80
   0 -11  -3   63.79    5.30
   0 -11  -3   61.09    4.70
   0 -11  -3   67.79    4.90
   0  11   3   66.79    4.90
   0  11   3   62.69    5.20
   0  11   3   72.49    5.80
   0  11   3   63.99    7.40
   0  11   3   56.09    5.60
  -1 -11  -3    8.70    2.70
  -1 -11  -3    0.50    2.40
  -1 -11  -3    1.20    2.60
  -1 -11  -3    8.90    3.00
   1  11   3    2.40    3.10
   1  11   3    5.50    3.20
   1  11   3    3.20    2.90
   1  11   3    7.00    2.80
   1  11   3    5.40    2.70
  -2 -11  -3   84.69    6.10
  -2 -11  -3   83.99    5.90
  -2 -11  -3   83.59    4.40
   2  11   3   83.19    5.70
   2  11   3   88.39    6.60
  -3 -11  -3   31.80    3.80
  -3 -11  -3   45.10    6.00
  -3 -11  -3   38.90    4.20
  -3 -11  -3   39.40    4.10
   3  11   3   49.10    5.20
   3  11   3   40.30    5.20
   3  11   3   35.40    4.10
   3  11   3   27.90    4.40
  -4 -11  -3   29.30    4.40
  -4 -11  -3   28.60    4.70
  -4 -11  -3   24.60    2.80
   4  11   3   12.60    4.10
   4  11   3   17.70    5.80
   4  11   3   24.30    4.30
  -5 -11  -3   15.70    4.60
   5  11   3   20.60    4.40
   5  11   3    9.40    4.60
   3 -12  -3    1.20    3.50
   3 -12  -3    5.90    2.60
  -3  12   3   -1.10    3.20
  -3  12   3   -1.00    3.10
  -3  12   3   -3.40    3.50
   2 -12  -3   19.50    3.60
   2 -12  -3   26.10    3.30
   2 -12  -3   17.70    3.20
  -2  12   3   14.10    3.50
  -2  12   3   16.10    3.70
  -2  12   3   17.20    3.30
  -2  12   3   18.20    4.40
  -2  12   3   24.00    3.50
   1 -12  -3    3.30    2.70
   1 -12  -3    9.20    3.00
   1 -12  -3    3.20    2.50
   1 -12  -3   10.00    2.70
  -1  12   3    2.10    2.90
  -1  12   3   -0.40    3.00
  -1  12   3   10.60    3.10
  -1  12   3    4.30    4.50
  -1  12   3    7.10    3.00
   0 -12  -3    4.00    2.80
   0 -12  -3    3.70    2.90
   0 -12  -3    7.10    2.70
   0 -12  -3    5.40    3.10
   0  12   3    2.70    3.20
   0  12   3    6.30    3.10
   0  12   3    0.50    3.10
   0  12   3    6.00    3.60
   0  12   3    0.20    2.80
  -1 -12  -3    7.40    3.10
  -1 -12  -3    7.40    2.90
  -1 -12  -3    2.20    2.80
   1  12   3    2.70    2.90
   1  12   3    8.70    3.50
   1  12   3    2.40    3.10
   1  12   3    1.20    3.10
   1  12   3    0.20    3.30
  -2 -12  -3   53.89    6.00
  -2 -12  -3   58.99    4.60
  -2 -12  -3   58.19    5.70
  -2 -12  -3   54.09    5.40
   2  12   3   68.49    6.70
   2  12   3   52.99    5.30
   2  12   3   59.99    5.70
   2  12   3   46.20    7.30
  -3 -12  -3   10.60    3.90
  -3 -12  -3   16.20    2.80
   3  12   3   13.60    3.80
   3  12   3   17.00    3.70
  -4 -12  -3   44.40    5.20
  -4 -12  -3   40.50    4.30
   4  12   3   26.60    5.00
   4  12   3   40.20    5.20
   2 -13  -3    2.90    2.90
   2 -13  -3   -1.10    3.20
  -2  13   3    1.90    3.50
  -2  13   3   -5.40    3.30
  -2  13   3   -8.00    4.00
  -2  13   3    5.00    3.70
   1 -13  -3    1.10    3.10
   1 -13  -3    3.70    2.90
  -1  13   3    7.80    4.30
  -1  13   3    1.90    3.50
  -1  13   3    6.70    3.30
  -1  13   3   -4.90    3.10
   0 -13  -3   -0.20    3.00
   0 -13  -3   13.80    3.40
   0  13   3    5.90    3.60
   0  13   3    4.80    3.90
   0  13   3    3.90    3.30
  -1 -13  -3   15.10    3.70
  -1 -13  -3   10.20    3.50
  -1 -13  -3   11.80    3.10
   1  13   3   24.90    6.90
   1  13   3   19.50    4.10
   1  13   3   13.00    3.60
  -2 -13  -3    2.30    2.70
  -2 -13  -3   13.00    4.00
  -2 -13  -3    2.60    3.30
   2  13   3    2.80    3.40
   2  13   3   -4.40    4.40
   2  13   3    3.90    3.80
  -3 -13  -3    2.80    2.70
  -3 -13  -3   -0.50    4.20
   3  13   3    0.00    3.80
   3  13   3    0.60    3.60
   1 -14  -3    2.60    3.70
  -1  14   3   -1.00    3.70
  -1  14   3   -4.40    4.60
   0 -14  -3    5.30    3.60
   0 -14  -3    1.80    3.40
   0 -14  -3    8.40    4.00
   0  14   3    0.10    3.60
   0  14   3    7.90    5.40
   0  14   3    2.10    3.70
  -1 -14  -3   15.70    3.70
  -1 -14  -3   25.30    4.40
  -1 -14  -3   13.30    3.50
   1  14   3   21.10    4.10
   1  14   3   13.80    4.70
   1  14   3   16.80    4.30
  -2 -14  -3    8.70    3.30
  -2 -14  -3   -0.50    4.50
   2  14   3    4.90    3.90
   2  14   3    2.90    4.00
   2  14   3   -6.60    4.60
   0  12  -4   11.00    4.10
   0  12  -4    1.40    4.00
   0 -12   4    2.50    4.20
  -1  12  -4   11.00    4.20
  -1  12  -4    5.10    3.40
  -1  12  -4    5.90    3.90
   1 -12   4    1.90    3.60
   2  11  -4   60.09    8.00
   2  11  -4   67.69    7.40
  -2 -11   4   62.89    6.20
  -2 -11   4   57.39    6.10
   1  11  -4   19.90    4.00
   1  11  -4   24.80    4.20
  -1 -11   4   21.90    3.80
  -1 -11   4   24.70    2.80
   0  11  -4   14.10    3.60
   0  11  -4   15.50    3.60
   0  11  -4   16.30    3.90
   0 -11   4   10.10    3.60
  -1  11  -4    5.80    3.50
  -1  11  -4   12.30    3.20
  -1  11  -4    3.50    3.00
   1 -11   4    7.30    3.20
  -2  11  -4    0.00    3.10
  -2  11  -4    9.30    3.20
  -2  11  -4   -2.60    3.40
   2 -11   4   -2.60    3.20
   3  10  -4   -1.30    3.20
   3  10  -4    2.20    3.90
  -3 -10   4    0.50    3.20
  -3 -10   4    0.70    3.70
  -3 -10   4    0.60    4.00
   2  10  -4   13.20    3.80
   2  10  -4    5.50    3.40
  -2 -10   4    4.00    3.10
  -2 -10   4    2.20    3.20
  -2 -10   4    1.40    3.10
  -2 -10   4    3.00    3.20
   1  10  -4    2.70    3.10
   1  10  -4    3.10    3.10
   1  10  -4    5.50    3.20
  -1 -10   4    0.40    2.20
  -1 -10   4    1.10    2.80
  -1 -10   4   -2.60    2.80
  -1 -10   4    0.60    2.90
   0  10  -4   97.79    5.80
   0  10  -4  108.99    7.00
   0  10  -4   93.69    5.80
   0 -10   4  108.89    6.40
   0 -10   4  104.39    6.10
  -1  10  -4    5.40    2.80
  -1  10  -4    4.20    3.10
   1 -10   4    4.30    3.00
   1 -10   4    2.70    2.80
  -2  10  -4   29.80    4.20
  -2  10  -4   34.80    3.50
  -2  10  -4   31.30    3.30
   2 -10   4   25.70    3.80
   2 -10   4   49.00    5.20
  -3  10  -4   -4.50    3.30
  -3  10  -4    2.80    2.80
  -3  10  -4    2.00    2.70
   3 -10   4    4.10    3.40
   4   9  -4   23.30    3.70
   4   9  -4   17.60    4.60
  -4  -9   4   22.10    4.70
   3   9  -4    2.10    2.70
   3   9  -4    2.50    3.60
  -3  -9   4   -6.40    3.20
  -3  -9   4    2.00    2.80
  -3  -9   4    0.50    3.40
  -3  -9   4   -0.30    2.70
  -3  -9   4    5.00    3.50
   2   9  -4   15.00    3.60
   2   9  -4   26.80    4.00
   2   9  -4   19.00    3.50
  -2  -9   4   15.60    3.10
  -2  -9   4   14.00    3.40
  -2  -9   4   16.00    3.30
  -2  -9   4   23.30    3.30
   1   9  -4   36.30    4.00
   1   9  -4   20.40    3.40
   1   9  -4   25.40    3.60
  -1  -9   4   25.90    2.80
  -1  -9   4   23.30    3.30
  -1  -9   4   23.40    2.60
   0   9  -4   30.80    3.70
   0   9  -4   38.40    5.00
   0   9  -4   34.40    3.50
   0  -9   4   35.30    3.80
  -1   9  -4   28.20    3.80
  -1   9  -4   25.00    3.10
  -1   9  -4   31.50    3.70
   1  -9   4   24.90    3.30
  -2   9  -4   48.50    5.40
  -2   9  -4   44.20    4.30
  -2   9  -4   36.00    3.80
  -2   9  -4   41.50    6.00
  -2   9  -4   34.60    4.50
   2  -9   4   38.40    3.90
   2  -9   4   45.70    5.70
  -3   9  -4   -1.00    2.80
  -3   9  -4    8.10    4.20
  -3   9  -4   -5.20    3.50
  -3   9  -4    1.80    2.00
   3  -9   4   -0.10    2.80
  -4   9  -4   26.20    6.20
  -4   9  -4    2.30    3.70
  -4   9  -4   15.40    2.50
  -4   9  -4   11.70    3.40
  -4   9  -4   15.40    2.70
   4  -9   4    8.10    3.50
   4   8  -4    3.20    2.80
  -4  -8   4   -1.30    3.60
   3   8  -4   88.39    5.00
   3   8  -4   92.99    6.20
   3   8  -4   82.39    6.20
  -3  -8   4   77.99    6.50
  -3  -8   4   81.69    5.40
  -3  -8   4   92.29    6.40
   2   8  -4   28.60    3.70
   2   8  -4   26.60    3.60
   2   8  -4   29.00    3.90
  -2  -8   4   35.70    3.10
  -2  -8   4   25.10    3.20
  -2  -8   4   22.60    3.10
  -2  -8   4   26.90    3.30
   1   8  -4    6.20    2.90
   1   8  -4   -1.20    2.50
   1   8  -4   -1.90    4.50
  -1  -8   4    0.10    1.90
  -1  -8   4   -1.80    2.30
  -1  -8   4    3.70    2.20
  -1  -8   4    2.70    2.50
   0   8  -4  226.78    6.50
   0   8  -4  227.68    6.80
   0   8  -4  220.78    7.50
   0  -8   4  222.68    4.50
   0  -8   4  212.98    4.40
   0  -8   4  231.18    7.20
   0  -8   4  226.08    7.00
  -1   8  -4  359.06    8.10
  -1   8  -4  363.56    7.80
  -1   8  -4  370.96    9.40
   1  -8   4  367.96    9.10
   1  -8   4  371.46    8.90
  -2   8  -4   14.30    2.90
  -2   8  -4   12.20    2.20
  -2   8  -4   12.40    2.10
  -2   8  -4   16.70    3.20
   2  -8   4   11.60    2.90
   2  -8   4    9.50    2.60
  -3   8  -4   -2.50    1.80
  -3   8  -4   -0.30    4.50
  -3   8  -4   -2.60    2.60
  -3   8  -4    1.00    1.60
  -3   8  -4    5.10    3.70
  -3   8  -4    0.10    3.20
   3  -8   4   -1.90    2.50
  -4   8  -4   25.40    5.80
  -4   8  -4   15.50    2.60
  -4   8  -4   21.80    2.60
  -4   8  -4   19.10    2.20
  -4   8  -4   22.80    3.70
   4  -8   4   19.00    3.30
  -5   8  -4   27.10    4.30
  -5   8  -4   39.40    7.40
  -5   8  -4   27.50    3.70
   5  -8   4   25.70    4.10
   5   7  -4    4.20    4.50
   5   7  -4    1.90    3.20
  -5  -7   4   10.20    4.40
   4   7  -4    6.60    2.60
   4   7  -4   11.10    3.90
  -4  -7   4    1.90    3.40
  -4  -7   4    2.80    3.20
  -4  -7   4    9.60    3.50
   3   7  -4   19.00    2.50
   3   7  -4   18.60    3.50
  -3  -7   4   13.80    3.40
   2   7  -4  172.48    6.50
   2   7  -4  166.58    6.80
   2   7  -4  160.48    6.90
  -2  -7   4  169.58    6.60
  -2  -7   4  156.48    5.60
  -2  -7   4  162.48    6.00
  -2  -7   4  172.48    6.00
  -2  -7   4  154.18    5.70
   1   7  -4    7.00    2.30
   1   7  -4    3.00    2.50
   1   7  -4    9.20    2.70
  -1  -7   4    3.80    2.00
  -1  -7   4    9.50    2.50
  -1  -7   4   10.30    2.40
  -1  -7   4    6.90    2.00
  -1  -7   4    6.10    2.00
   0   7  -4    4.00    2.20
   0   7  -4    6.30    2.00
   0   7  -4    2.70    2.30
   0  -7   4    3.60    1.20
   0  -7   4   -1.40    1.90
   0  -7   4    0.10    2.30
   0  -7   4    0.70    1.20
  -1   7  -4    7.40    2.80
  -1   7  -4   11.20    2.50
  -1   7  -4   11.50    2.30
  -1   7  -4   13.00    2.00
   1  -7   4   14.50    2.70
   1  -7   4   13.60    2.50
  -2   7  -4   41.60    3.00
  -2   7  -4   45.30    4.50
  -2   7  -4   41.90    4.50
  -2   7  -4   45.80    5.50
  -2   7  -4   46.00    2.90
   2  -7   4   42.20    4.30
   2  -7   4   47.40    4.40
  -3   7  -4    8.20    2.70
  -3   7  -4   12.20    1.80
  -3   7  -4   10.00    1.60
  -3   7  -4   10.80    4.90
  -3   7  -4   10.70    3.40
  -3   7  -4   10.90    3.70
   3  -7   4   11.10    2.70
  -4   7  -4   30.70    2.70
  -4   7  -4   31.40    3.70
  -4   7  -4   34.90    4.50
  -4   7  -4   31.70    4.20
  -4   7  -4   32.70    4.80
  -4   7  -4   42.40    6.40
  -4   7  -4   29.70    3.00
   4  -7   4   28.30    3.50
  -5   7  -4   13.30    2.60
  -5   7  -4   10.00    6.00
  -5   7  -4   12.40    3.60
  -5   7  -4    6.80    2.00
  -5   7  -4    8.80    1.80
  -5   7  -4    7.30    2.30
   5  -7   4    7.50    3.10
   5   6  -4   53.99    5.70
   5   6  -4   59.29    5.60
  -5  -6   4   54.09    5.40
   4   6  -4    8.90    3.10
   4   6  -4    1.40    2.10
   4   6  -4   -1.10    3.30
  -4  -6   4   -4.50    2.90
  -4  -6   4   -7.10    2.90
  -4  -6   4   -1.40    3.00
   3   6  -4   78.49    5.70
   3   6  -4   68.59    3.90
   3   6  -4   70.19    5.80
  -3  -6   4   59.99    6.50
  -3  -6   4   64.19    5.00
  -3  -6   4   63.39    5.60
   2   6  -4   25.40    3.10
   2   6  -4   27.00    3.30
   2   6  -4   28.70    3.50
  -2  -6   4   27.30    2.90
  -2  -6   4   23.70    2.90
  -2  -6   4   28.70    3.00
  -2  -6   4   24.70    3.00
   1   6  -4   -0.30    2.10
   1   6  -4    0.00    3.80
   1   6  -4   -1.00    1.90
  -1  -6   4   -1.60    1.90
  -1  -6   4    2.10    1.80
  -1  -6   4    1.30    1.80
  -1  -6   4    2.80    2.10
   0   6  -4   -2.60    1.50
   0   6  -4    4.80    2.00
   0   6  -4    0.10    1.90
   0  -6   4    1.10    1.10
   0  -6   4   -0.30    1.80
   0  -6   4   -1.50    1.90
   0  -6   4    0.20    1.70
   0  -6   4    0.00    1.10
  -1   6  -4   10.20    1.90
  -1   6  -4   16.60    2.80
  -1   6  -4    9.70    2.10
  -1   6  -4   11.60    1.70
   1  -6   4   12.80    2.10
   1  -6   4    8.40    2.20
  -2   6  -4  766.22   13.80
  -2   6  -4  738.93   11.60
  -2   6  -4  772.32   15.50
  -2   6  -4  737.73   11.70
  -2   6  -4  741.83   14.50
   2  -6   4  746.03   13.20
  -3   6  -4   50.09    5.40
  -3   6  -4   54.99    2.60
  -3   6  -4   57.99    5.90
  -3   6  -4   52.19    6.00
  -3   6  -4   56.99    4.50
  -3   6  -4   51.49    2.40
   3  -6   4   49.60    4.20
  -4   6  -4    6.90    1.60
  -4   6  -4    5.80    3.50
  -4   6  -4    8.50    4.90
  -4   6  -4    4.40    1.60
  -4   6  -4    3.50    2.40
  -4   6  -4    2.70    3.30
  -4   6  -4    5.10    1.50
   4  -6   4    3.50    2.40
  -5   6  -4    1.00    2.90
  -5   6  -4    1.00    1.20
  -5   6  -4   -3.30    2.00
  -5   6  -4    1.60    1.70
  -5   6  -4   -2.60    1.60
  -5   6  -4   -3.90    5.20
   5  -6   4    2.10    2.60
  -6   6  -4   87.49    7.50
  -6   6  -4   79.39    4.70
   6  -6   4   91.29    6.50
   5   5  -4   -5.70    3.80
   5   5  -4   -0.30    2.80
  -5  -5   4    6.00    3.70
   4   5  -4   -4.50    3.00
   4   5  -4   -0.70    2.00
  -4  -5   4    0.60    2.90
  -4  -5   4    6.90    3.30
   3   5  -4   12.70    3.20
   3   5  -4   13.80    2.00
   3   5  -4   15.40    3.20
  -3  -5   4   12.10    3.00
  -3  -5   4   11.00    2.90
  -3  -5   4   12.70    3.00
   2   5  -4   82.59    4.50
   2   5  -4   83.49    3.40
   2   5  -4   90.29    5.30
  -2  -5   4   84.39    4.70
  -2  -5   4   87.09    4.30
  -2  -5   4   79.79    8.30
   1   5  -4   16.90    2.40
   1   5  -4   15.70    2.20
   1   5  -4   16.70    2.50
  -1  -5   4   14.20    2.10
  -1  -5   4   19.60    2.80
  -1  -5   4   12.90    2.20
  -1  -5   4   17.60    2.10
  -1  -5   4   17.20    2.10
   0   5  -4  130.79    4.70
   0   5  -4  133.59    3.90
   0   5  -4  137.59    4.30
   0  -5   4  137.79    4.40
   0  -5   4  135.19    3.20
   0  -5   4  131.39    4.40
   0  -5   4  130.49    3.10
   0  -5   4  137.09    4.50
  -1   5  -4   96.59    3.20
  -1   5  -4   94.99    4.10
  -1   5  -4   96.79    3.00
  -1   5  -4   99.19    4.50
   1  -5   4  101.29    3.90
   1  -5   4   96.79    4.00
  -2   5  -4   35.60    4.30
  -2   5  -4   37.10    4.50
  -2   5  -4   35.30    2.20
  -2   5  -4   40.20    4.10
  -2   5  -4   32.60    1.80
  -2   5  -4   38.90    3.50
   2  -5   4   37.20    3.40
  -3   5  -4    2.60    1.10
  -3   5  -4    0.80    1.00
  -3   5  -4    0.80    1.90
  -3   5  -4    0.90    3.30
  -3   5  -4    1.30    2.50
  -3   5  -4    0.80    3.00
   3  -5   4   -0.80    2.00
  -4   5  -4  175.78    4.10
  -4   5  -4  166.98    3.90
  -4   5  -4  174.18    7.90
  -4   5  -4  171.68    7.40
  -4   5  -4  173.68    5.60
  -4   5  -4  165.58    8.70
  -4   5  -4  146.99    9.60
   4  -5   4  170.88    5.60
  -5   5  -4   -1.10    2.60
  -5   5  -4   -1.60    3.20
  -5   5  -4    5.00    3.90
  -5   5  -4    3.50    5.00
  -5   5  -4   -1.40    1.90
  -5   5  -4    2.10    1.60
   5  -5   4   -1.80    2.50
  -6   5  -4    0.90    2.30
  -6   5  -4    0.00    2.90
  -6   5  -4    9.90    3.60
   6  -5   4    4.90    4.90
   6  -5   4    7.50    3.20
   6   4  -4   22.70    4.40
   6   4  -4   22.10    5.10
  -6  -4   4   20.50    5.60
   5   4  -4   11.80    3.50
   5   4  -4    5.70    3.40
   5   4  -4   -1.80    2.70
  -5  -4   4    6.90    3.60
  -5  -4   4   10.00    3.70
   4   4  -4    0.30    2.70
   4   4  -4    0.80    2.00
  -4  -4   4   -1.90    2.80
  -4  -4   4   -3.70    2.80
   3   4  -4  108.89    5.80
   3   4  -4  107.99    5.80
   3   4  -4  107.09    4.00
  -3  -4   4  116.79    5.70
  -3  -4   4  118.89    6.00
  -3  -4   4  109.59    5.40
   2   4  -4   58.79    4.40
   2   4  -4   54.99    2.70
  -2  -4   4   58.49    4.30
  -2  -4   4   59.09    3.60
  -2  -4   4   55.69    4.00
  -2  -4   4   57.69    3.80
   1   4  -4   37.40    3.30
   1   4  -4   40.80    3.00
   1   4  -4   43.60    3.50
  -1  -4   4   41.60    3.00
  -1  -4   4   42.60    3.10
  -1  -4   4   37.50    2.70
  -1  -4   4   41.30    3.20
   0   4  -4  109.59    4.00
   0   4  -4  107.99    3.40
   0   4  -4  109.09    3.70
   0  -4   4  108.09    2.70
   0  -4   4  107.29    3.80
   0  -4   4  100.49    4.10
   0  -4   4  111.09    3.70
   0  -4   4  107.39    2.70
  -1   4  -4  243.68    6.50
  -1   4  -4  250.17    4.70
  -1   4  -4  241.58    5.60
  -1   4  -4  242.88    4.60
   1  -4   4  249.88    5.60
   1  -4   4  251.77    5.50
   1  -4   4  240.78    6.50
  -2   4  -4  279.77    6.30
  -2   4  -4  287.17    7.10
  -2   4  -4  283.17    8.00
  -2   4  -4  279.07    7.70
   2  -4   4  279.97    6.10
  -3   4  -4  161.98    7.40
  -3   4  -4  168.48    5.40
  -3   4  -4  169.88    6.40
  -3   4  -4  164.78    6.80
  -3   4  -4  164.18    5.40
   3  -4   4  163.18    4.90
  -4   4  -4   64.69    5.60
  -4   4  -4   56.09    2.40
  -4   4  -4   64.89    4.60
  -4   4  -4   55.89    6.70
  -4   4  -4   59.89    6.00
  -4   4  -4   61.29    3.60
  -4   4  -4   61.19    2.50
   4  -4   4   60.49    3.80
  -5   4  -4   11.10    1.80
  -5   4  -4    7.60    3.50
  -5   4  -4   13.20    2.10
  -5   4  -4   12.10    5.50
  -5   4  -4   14.70    4.30
  -5   4  -4    9.90    2.70
   5  -4   4   13.30    4.00
   5  -4   4   10.80    2.50
  -6   4  -4    0.10    2.20
  -6   4  -4    2.10    2.60
  -6   4  -4    2.70    3.00
   6  -4   4    3.20    4.50
   6  -4   4   -2.50    2.80
   6   3  -4   12.60    4.80
  -6  -3   4   13.00    4.30
   5   3  -4    3.40    3.20
   5   3  -4   -0.40    2.30
   5   3  -4    1.10    3.40
  -5  -3   4   -2.60    3.30
  -5  -3   4    4.30    3.10
  -5  -3   4   -1.20    3.40
   4   3  -4   20.10    4.40
   4   3  -4    9.30    2.20
   4   3  -4   12.70    2.90
  -4  -3   4   21.20    3.50
  -4  -3   4   14.00    3.30
   3   3  -4  239.18    5.60
   3   3  -4  244.78    7.40
   3   3  -4  247.88    7.20
  -3  -3   4  257.07    7.10
  -3  -3   4  250.47    7.50
  -3  -3   4  242.58    7.10
   2   3  -4  132.29    3.40
   2   3  -4  133.49    4.90
   2   3  -4  130.49    5.10
  -2  -3   4  132.19    4.80
  -2  -3   4  148.99    5.00
  -2  -3   4  139.99    4.70
   1   3  -4   -1.50    1.60
   1   3  -4   -2.90    1.40
   1   3  -4   -0.20    1.50
  -1  -3   4    1.70    1.40
  -1  -3   4    2.40    1.70
  -1  -3   4    1.30    1.40
  -1  -3   4    0.00    1.40
   0   3  -4    6.30    1.40
   0   3  -4    3.60    1.50
   0   3  -4    6.50    1.50
   0  -3   4    8.40    1.10
   0  -3   4    5.60    1.70
   0  -3   4    9.70    2.30
   0  -3   4    8.80    1.10
   0  -3   4    7.40    1.40
  -1   3  -4  240.68    4.20
  -1   3  -4  236.38    6.40
  -1   3  -4  241.38    5.40
  -1   3  -4  235.18    5.10
  -1   3  -4  238.48    4.10
   1  -3   4  233.78    6.40
   1  -3   4  235.48    5.10
  -2   3  -4   13.40    1.60
  -2   3  -4   14.00    2.40
  -2   3  -4   14.10    3.00
  -2   3  -4   13.30    2.20
   2  -3   4   14.30    1.80
  -3   3  -4   27.00    2.90
  -3   3  -4   21.60    3.40
  -3   3  -4   26.70    4.70
  -3   3  -4   28.70    3.00
  -3   3  -4   28.60    3.40
   3  -3   4   24.30    2.70
  -4   3  -4   57.59    2.50
  -4   3  -4   54.49    2.50
  -4   3  -4   53.39    4.20
  -4   3  -4   54.69    5.80
  -4   3  -4   59.09    6.70
  -4   3  -4   56.49    3.20
  -4   3  -4   61.39    5.50
   4  -3   4   57.19    5.40
   4  -3   4   54.49    3.40
  -5   3  -4  145.39    4.30
  -5   3  -4  143.59    8.00
  -5   3  -4  142.99    4.50
  -5   3  -4  152.38    6.30
  -5   3  -4  132.89    9.30
   5  -3   4  145.49    4.90
   5  -3   4  153.48    7.70
  -6   3  -4    8.30    2.80
  -6   3  -4    9.40    2.90
  -6   3  -4    8.90    2.40
   6  -3   4   10.00    4.40
   6  -3   4    6.10    2.60
   6   2  -4   -3.60    4.10
   6   2  -4   -1.30    2.30
  -6  -2   4   -2.30    3.80
   5   2  -4    3.70    3.20
   5   2  -4   -1.60    2.00
   5   2  -4    3.40    3.20
  -5  -2   4    3.60    3.30
  -5  -2   4   -0.40    3.00
  -5  -2   4    2.50    3.20
   4   2  -4   -0.90    1.70
   4   2  -4    0.80    2.70
   4   2  -4    0.60    2.60
  -4  -2   4   -0.30    2.60
  -4  -2   4   -2.10    2.60
   3   2  -4  182.68    6.10
   3   2  -4  180.08    6.20
   3   2  -4  174.88    4.60
  -3  -2   4  177.08    5.80
  -3  -2   4  184.38    6.10
  -3  -2   4  181.18    7.80
   2   2  -4  641.84    9.80
   2   2  -4  653.53   11.60
   2   2  -4  629.94   11.60
  -2  -2   4  656.63   11.50
  -2  -2   4  660.73   11.40
  -2  -2   4  644.84   11.40
   1   2  -4   79.19    3.50
   1   2  -4   79.39    3.50
  -1  -2   4   82.19    3.20
  -1  -2   4   81.49    3.30
  -1  -2   4   82.89    3.30
   0   2  -4  161.18    3.80
   0   2  -4  162.28    3.30
   0   2  -4  158.98    3.80
   0   2  -4  157.28    3.70
   0  -2   4  164.98    4.00
   0  -2   4  163.18    3.30
   0  -2   4  153.88    5.10
   0  -2   4  161.38    3.60
   0  -2   4  160.28    3.30
  -1   2  -4 1672.03   22.70
  -1   2  -4 1647.34   23.50
  -1   2  -4 1689.83   24.00
  -1   2  -4 1674.53   25.70
  -1   2  -4 1655.43   22.70
   1  -2   4 1672.53   25.80
   1  -2   4 1718.03   23.80
   1  -2   4 1660.13   23.50
  -2   2  -4 1734.53   25.70
  -2   2  -4 1718.13   26.00
  -2   2  -4 1710.73   27.50
  -2   2  -4 1716.23   24.80
  -2   2  -4 1745.13   26.10
   2  -2   4 1750.52   24.50
  -3   2  -4   32.80    2.90
  -3   2  -4   37.10    3.90
  -3   2  -4   37.60    2.80
  -3   2  -4   33.20    4.00
  -3   2  -4   35.70    4.70
   3  -2   4   36.50    2.50
   3  -2   4   35.30    3.60
  -4   2  -4   57.69    5.30
  -4   2  -4   55.59    5.40
  -4   2  -4   61.29    6.60
  -4   2  -4   56.49    3.00
  -4   2  -4   58.59    2.50
  -4   2  -4   50.79    2.50
   4  -2   4   55.09    3.10
   4  -2   4   57.29    5.00
  -5   2  -4  254.77    5.80
  -5   2  -4  257.87   11.20
  -5   2  -4  260.97    6.00
  -5   2  -4  264.47    9.60
   5  -2   4  260.67    9.40
   5  -2   4  254.57    5.90
  -6   2  -4   43.00    4.00
  -6   2  -4   49.70    8.50
   6  -2   4   36.10    4.10
   6  -2   4   40.10    5.40
  -7   2  -4    4.20    3.20
  -7   2  -4    9.20    3.60
   7  -2   4    4.00    3.00
   7  -2   4    8.60    5.40
   6   1  -4    5.40    4.10
   6   1  -4    6.60    2.00
   6   1  -4    3.90    5.70
  -6  -1   4   11.70    4.20
   5   1  -4   36.40    4.40
   5   1  -4   31.60    4.10
   5   1  -4   27.40    4.60
  -5  -1   4   25.70    3.80
  -5  -1   4   28.10    3.90
  -5  -1   4   24.00    3.40
   4   1  -4    6.80    2.80
   4   1  -4    4.20    2.70
   4   1  -4    3.20    1.70
  -4  -1   4    4.60    2.40
  -4  -1   4    5.20    2.80
   3   1  -4   10.10    2.40
   3   1  -4    7.20    1.70
   3   1  -4   11.10    2.50
  -3  -1   4   14.70    2.50
  -3  -1   4   10.90    1.80
  -3  -1   4   13.80    2.60
   2   1  -4 9906.31  133.79
   2   1  -4 9999.00  135.09
   2   1  -4 9904.41  133.89
  -2  -1   4 9996.60  133.69
  -2  -1   4 9979.30  133.69
  -2  -1   4 9789.42  133.59
   1   1  -4 1005.60   15.70
   1   1  -4 1035.00   17.20
   1   1  -4 1015.80   15.70
  -1  -1   4 1028.10   15.50
  -1  -1   4 1027.30   15.50
  -1  -1   4 1038.60   15.30
   0   1  -4  311.07    5.30
   0   1  -4  313.67    4.80
   0   1  -4  315.97    5.60
   0   1  -4  321.37    7.30
   0   1  -4  310.37    5.60
   0  -1   4  322.77    5.20
   0  -1   4  312.47    7.30
   0  -1   4  317.77    5.30
   0  -1   4  317.27    5.80
   0  -1   4  316.37    5.20
  -1   1  -4   39.30    1.40
  -1   1  -4   40.30    1.80
  -1   1  -4   40.30    1.30
  -1   1  -4   38.80    3.20
  -1   1  -4   39.10    2.40
  -1   1  -4   37.20    3.40
   1  -1   4   36.50    3.40
   1  -1   4   42.20    2.20
  -2   1  -4 1039.40   18.30
  -2   1  -4 1037.60   16.70
  -2   1  -4 1049.20   16.60
  -2   1  -4 1052.79   16.60
  -2   1  -4 1041.70   15.50
   2  -1   4 1045.60   16.50
   2  -1   4 1062.79   15.20
  -3   1  -4   10.10    2.30
  -3   1  -4   12.40    2.40
  -3   1  -4   14.70    3.40
  -3   1  -4    9.20    1.20
  -3   1  -4    8.40    1.30
   3  -1   4    7.90    2.10
   3  -1   4   10.10    2.10
   3  -1   4   13.60    1.50
  -4   1  -4   21.70    2.50
  -4   1  -4   17.50    1.70
  -4   1  -4   19.30    4.60
  -4   1  -4   13.20    2.70
  -4   1  -4   18.70    2.20
   4  -1   4   18.80    1.80
   4  -1   4   16.70    3.00
   4  -1   4   19.30    3.00
  -5   1  -4   24.40    5.70
  -5   1  -4   19.40    2.30
   5  -1   4   19.80    2.20
   5  -1   4   27.80    3.90
  -6   1  -4   64.89    6.20
  -6   1  -4   66.49    8.40
  -6   1  -4   59.89    4.40
  -6   1  -4   54.99    4.80
   6  -1   4   61.69    3.90
   6  -1   4   69.29    7.00
  -7   1  -4    7.80    3.40
  -7   1  -4   14.30    3.70
   7  -1   4    5.90    5.10
   6   0  -4   58.19    7.00
   6   0  -4   39.40    6.40
   6   0  -4   51.39    6.30
  -6   0   4   48.20    5.30
   5   0  -4   33.80    4.00
   5   0  -4   27.00    5.20
   5   0  -4   26.70    3.70
  -5   0   4   31.40    3.90
  -5   0   4   25.30    3.80
  -5   0   4   29.80    3.80
   4   0  -4    8.10    2.80
   4   0  -4   12.90    2.90
   4   0  -4    8.20    1.70
  -4   0   4   13.10    2.60
   3   0  -4   86.29    4.30
   3   0  -4   82.59    5.60
   3   0  -4   87.89    4.40
  -3   0   4   85.39    4.50
  -3   0   4   93.79    4.60
  -3   0   4   87.49    3.80
   2   0  -4  357.56    7.40
   2   0  -4  343.67    7.90
   2   0  -4  344.67    7.30
  -2   0   4  351.76    7.30
  -2   0   4  343.87    7.20
  -2   0   4  336.27    6.10
   1   0  -4   33.00    3.30
   1   0  -4   35.00    2.80
   1   0  -4   34.10    2.90
  -1   0   4   35.20    2.70
  -1   0   4   31.00    2.60
   0   0  -4   64.29    2.40
   0   0  -4   63.09    3.30
   0   0  -4   62.89    2.40
   0   0   4   62.79    3.60
   0   0   4   63.79    2.10
   0   0   4   64.79    1.60
  -1   0  -4  537.65    7.70
  -1   0  -4  527.85    7.70
  -1   0  -4  529.05   10.40
  -1   0  -4  525.55    9.70
  -1   0  -4  527.15    7.60
  -1   0  -4  529.15    8.60
   1   0   4  522.25   10.40
   1   0   4  538.65    9.80
   1   0   4  524.85    8.60
   1   0   4  528.35    8.10
  -2   0  -4  367.46    7.40
  -2   0  -4  364.26    7.10
  -2   0  -4  361.66    9.00
  -2   0  -4  362.06    7.50
  -2   0  -4  366.66    5.40
   2   0   4  366.16    7.60
   2   0   4  360.06    6.90
   2   0   4  360.06    9.00
   2   0   4  362.86    7.40
   2   0   4  371.56    5.90
  -3   0  -4  185.98    3.60
  -3   0  -4  181.08    4.90
  -3   0  -4  183.58    3.60
  -3   0  -4  177.08    5.50
  -3   0  -4  183.48    7.20
  -3   0  -4  187.08    5.80
   3   0   4  190.88    5.00
   3   0   4  189.98    5.70
   3   0   4  187.48    3.60
   3   0   4  179.28    5.30
  -4   0  -4    7.00    1.50
  -4   0  -4    6.10    2.60
  -4   0  -4    6.60    1.50
  -4   0  -4    4.30    3.70
  -4   0  -4    6.00    1.30
   4   0   4    7.40    2.40
   4   0   4    6.00    2.30
   4   0   4    6.70    1.40
  -5   0  -4   -0.30    2.00
  -5   0  -4   -0.30    1.70
   5   0   4    0.50    2.80
   5   0   4    1.90    1.60
   5   0   4    1.10    2.70
  -6   0  -4    4.70    3.30
  -6   0  -4    0.70    2.70
  -6   0  -4    2.20    5.10
  -6   0  -4   -3.80    2.30
   6   0   4   -0.60    3.40
   6   0   4    4.00    1.90
  -7   0  -4    2.30    3.40
  -7   0  -4   -0.10    3.30
   7   0   4    6.00    5.10
   6  -1  -4    3.10    3.60
   6  -1  -4    1.20    3.80
   6  -1  -4    9.50    5.60
  -6   1   4    5.70    4.60
  -6   1   4   -6.10    3.50
   5  -1  -4   70.49    5.60
   5  -1  -4   60.99    3.50
   5  -1  -4   51.79    7.60
  -5   1   4   64.19    5.80
  -5   1   4   69.99    6.30
   4  -1  -4   13.00    1.80
   4  -1  -4   21.40    5.00
   4  -1  -4   21.10    3.00
   4  -1  -4   17.80    3.00
  -4   1   4   19.70    3.80
  -4   1   4   15.60    2.80
  -4   1   4   15.50    3.00
   3  -1  -4  106.49    4.30
   3  -1  -4  106.39    4.50
  -3   1   4  105.59    4.80
  -3   1   4  104.59    4.20
  -3   1   4  103.39    4.70
   2  -1  -4  227.18    5.70
   2  -1  -4  215.28    5.60
   2  -1  -4  210.78    5.70
  -2   1   4  219.38    5.50
  -2   1   4  224.18    5.60
  -2   1   4  215.58    4.70
   1  -1  -4 1260.27   18.80
   1  -1  -4 1252.17   18.70
   1  -1  -4 1260.17   19.70
  -1   1   4 1279.27   18.80
  -1   1   4 1284.87   19.80
  -1   1   4 1259.97   18.60
   0  -1  -4  195.28    4.10
   0  -1  -4  206.78    4.20
   0  -1  -4  200.68    5.20
   0   1   4  201.98    5.60
   0   1   4  205.18    5.30
   0   1   4  203.28    4.00
   0   1   4  207.08    4.10
  -1  -1  -4    2.50    0.80
  -1  -1  -4    3.20    0.90
  -1  -1  -4    1.20    0.60
  -1  -1  -4    2.80    1.10
  -1  -1  -4    3.00    0.90
  -1  -1  -4    0.30    2.00
   1   1   4    2.00    1.10
   1   1   4    3.60    0.70
   1   1   4    2.10    0.70
   1   1   4    2.60    2.00
   1   1   4    2.00    1.10
  -2  -1  -4   40.80    2.70
  -2  -1  -4   39.50    3.10
  -2  -1  -4   41.80    1.80
  -2  -1  -4   44.70    3.30
  -2  -1  -4   38.60    4.20
  -2  -1  -4   42.60    1.80
   2   1   4   38.30    3.10
   2   1   4   38.20    2.40
   2   1   4   41.70    4.10
   2   1   4   34.80    3.10
   2   1   4   44.00    1.60
  -3  -1  -4    9.60    3.30
  -3  -1  -4    7.10    1.30
  -3  -1  -4    4.10    1.30
  -3  -1  -4    5.10    2.00
  -3  -1  -4    4.50    1.20
   3   1   4    7.60    0.90
   3   1   4    4.30    1.70
   3   1   4    4.90    1.20
   3   1   4    6.20    1.70
  -4  -1  -4   69.29    3.20
  -4  -1  -4   82.19    5.10
  -4  -1  -4   77.29    3.20
  -4  -1  -4   62.99    6.30
  -4  -1  -4   79.09    3.90
   4   1   4   77.69    2.10
   4   1   4   79.69    3.60
   4   1   4   82.59    5.10
   4   1   4   69.49    4.40
  -5  -1  -4    3.10    2.10
  -5  -1  -4    2.20    2.00
   5   1   4    0.70    2.80
   5   1   4    1.90    2.80
   5   1   4    2.00    1.30
  -6  -1  -4    7.70    3.00
  -6  -1  -4    6.20    5.10
  -6  -1  -4    7.00    2.70
  -6  -1  -4    1.20    3.30
   6   1   4   10.20    3.80
   6   1   4    6.20    3.50
  -7  -1  -4    2.40    3.70
  -7  -1  -4   -2.00    3.20
   7   1   4    9.10    4.90
   6  -2  -4   32.50    4.50
   6  -2  -4   31.60    6.30
   6  -2  -4   37.10    4.90
  -6   2   4   38.90    5.80
  -6   2   4   30.90    4.50
   5  -2  -4    7.70    4.30
   5  -2  -4    6.30    3.00
   5  -2  -4   11.40    3.10
  -5   2   4   10.00    3.40
  -5   2   4    4.70    3.10
  -5   2   4    1.90    3.20
   4  -2  -4    4.30    2.60
   4  -2  -4    8.00    4.90
   4  -2  -4    5.50    1.40
   4  -2  -4    7.20    2.60
  -4   2   4    6.50    2.70
  -4   2   4    6.50    3.60
  -4   2   4    5.70    2.70
   3  -2  -4   83.39    3.70
   3  -2  -4   85.69    4.20
   3  -2  -4   90.29    5.60
   3  -2  -4   87.59    4.50
  -3   2   4   83.29    4.20
  -3   2   4   85.49    4.40
  -3   2   4   88.89    4.60
   2  -2  -4  193.98    5.20
   2  -2  -4  193.48    5.40
   2  -2  -4  208.98    5.40
  -2   2   4  198.98    5.30
  -2   2   4  200.18    5.50
  -2   2   4  197.18    5.30
   1  -2  -4  171.08    4.40
   1  -2  -4  166.08    5.00
  -1   2   4  169.68    4.40
  -1   2   4  164.38    4.30
  -1   2   4  170.78    5.00
   0  -2  -4  329.57    6.00
   0  -2  -4  332.67    5.90
   0   2   4  331.27    5.80
   0   2   4  332.27    5.10
   0   2   4  326.77    7.00
   0   2   4  331.27    5.90
  -1  -2  -4  316.17    4.80
  -1  -2  -4  308.77    5.30
  -1  -2  -4  303.77    5.40
  -1  -2  -4  299.97    7.30
  -1  -2  -4  296.57    6.70
   1   2   4  300.57    5.80
   1   2   4  300.17    5.20
   1   2   4  306.57    5.20
   1   2   4  293.27    7.20
  -2  -2  -4  715.83   13.70
  -2  -2  -4  720.63   10.80
  -2  -2  -4  696.73   11.00
  -2  -2  -4  700.53   10.80
  -2  -2  -4  704.63   12.30
   2   2   4  699.63   12.00
   2   2   4  695.13   12.20
   2   2   4  696.33   10.70
   2   2   4  705.53   13.60
   2   2   4  702.13   10.30
   2   2   4  705.43   10.30
  -3  -2  -4   68.09    4.20
  -3  -2  -4   70.19    2.80
  -3  -2  -4   66.69    5.10
  -3  -2  -4   64.89    3.80
  -3  -2  -4   62.09    2.80
   3   2   4   67.09    2.00
   3   2   4   67.49    2.10
   3   2   4   63.39    3.30
   3   2   4   61.69    3.90
   3   2   4   64.79    3.50
  -4  -2  -4    2.70    2.40
  -4  -2  -4    1.80    3.50
  -4  -2  -4    1.90    1.60
  -4  -2  -4    3.80    1.70
  -4  -2  -4    2.40    1.60
   4   2   4    2.20    1.00
   4   2   4    5.10    2.40
   4   2   4    3.20    1.00
   4   2   4    4.30    2.20
   4   2   4    1.10    1.30
  -5  -2  -4   42.90    7.20
  -5  -2  -4   41.20    4.00
   5   2   4   45.20    3.50
   5   2   4   39.50    5.10
   5   2   4   45.70    5.50
  -6  -2  -4   20.80    4.10
  -6  -2  -4   24.80    3.50
  -6  -2  -4   27.10    6.30
  -6  -2  -4   26.00    4.10
   6   2   4   21.30    4.30
   6   2   4   29.40    4.30
  -7  -2  -4    3.20    3.50
  -7  -2  -4    0.00    3.50
   7   2   4   -8.00    4.20
   7   2   4   10.60    5.20
   6  -3  -4   39.10    6.50
   6  -3  -4   27.80    4.40
   6  -3  -4   31.70    4.50
   6  -3  -4   32.10    4.40
  -6   3   4   30.30    4.50
  -6   3   4   33.30    5.00
   5  -3  -4    2.10    4.10
   5  -3  -4    0.50    3.50
   5  -3  -4    2.60    2.90
  -5   3   4   -0.30    2.90
  -5   3   4    3.50    3.30
  -5   3   4   -3.80    2.90
   4  -3  -4  132.89   12.40
   4  -3  -4  154.18    6.00
   4  -3  -4  149.19    5.70
   4  -3  -4  142.69    4.60
  -4   3   4  153.28    6.40
  -4   3   4  147.19    6.30
   3  -3  -4   55.09    5.30
   3  -3  -4   58.09    4.10
   3  -3  -4   58.49    3.60
   3  -3  -4   53.09    3.70
  -3   3   4   52.79    4.10
  -3   3   4   55.69    4.10
  -3   3   4   53.69    4.10
   2  -3  -4  589.94   10.70
   2  -3  -4  593.84   10.50
   2  -3  -4  584.34   11.40
   2  -3  -4  592.04   10.40
  -2   3   4  591.44   10.70
  -2   3   4  587.44   10.50
  -2   3   4  594.44   10.60
   1  -3  -4    7.40    1.50
   1  -3  -4   11.00    2.00
   1  -3  -4    6.90    1.60
   1  -3  -4   11.30    1.80
  -1   3   4   10.00    1.80
  -1   3   4   11.50    1.80
  -1   3   4    9.70    1.50
  -1   3   4   15.30    2.20
   0  -3  -4  724.23   11.30
   0  -3  -4  707.73   10.60
   0  -3  -4  724.93   12.50
   0  -3  -4  713.93   11.20
   0  -3  -4  714.03   10.60
   0   3   4  727.63   12.40
   0   3   4  702.33   11.20
   0   3   4  695.23   11.10
   0   3   4  710.03   10.60
  -1  -3  -4   25.20    1.70
  -1  -3  -4   21.30    3.10
  -1  -3  -4   23.00    2.10
  -1  -3  -4   22.60    2.00
  -1  -3  -4   23.80    3.40
   1   3   4   23.00    1.90
   1   3   4   24.40    2.90
   1   3   4   22.70    3.20
   1   3   4   22.70    2.00
   1   3   4   23.10    1.90
  -2  -3  -4  165.08    4.10
  -2  -3  -4  164.28    5.50
  -2  -3  -4  161.18    4.30
  -2  -3  -4  160.58    4.10
  -2  -3  -4  163.88    6.00
   2   3   4  160.98    3.80
   2   3   4  160.98    3.50
   2   3   4  165.58    5.30
   2   3   4  164.58    3.80
   2   3   4  160.88    4.90
   2   3   4  162.28    6.00
  -3  -3  -4  210.98    4.90
  -3  -3  -4  212.68    7.50
  -3  -3  -4  211.28    6.30
  -3  -3  -4  217.88    5.70
  -3  -3  -4  206.48    5.00
   3   3   4  201.48    4.40
   3   3   4  216.48    5.90
   3   3   4  206.68    6.10
   3   3   4  207.18    4.40
   3   3   4  201.78    5.10
  -4  -3  -4   26.70    4.10
  -4  -3  -4   21.30    2.40
  -4  -3  -4   26.00    4.60
  -4  -3  -4   22.40    3.00
   4   3   4   19.30    2.30
   4   3   4   23.00    3.40
   4   3   4   23.40    3.60
   4   3   4   19.30    2.30
   4   3   4   19.50    2.80
  -5  -3  -4  733.83   13.40
  -5  -3  -4  739.73   13.50
  -5  -3  -4  724.43   18.20
   5   3   4  734.03   15.40
   5   3   4  733.73   11.80
   5   3   4  732.53   11.80
   5   3   4  755.12   13.40
   5   3   4  740.53   14.70
  -6  -3  -4   75.39    9.20
  -6  -3  -4   75.99    5.70
  -6  -3  -4   75.89    5.40
   6   3   4   64.99    3.30
   6   3   4   64.59    4.40
   6   3   4   67.99    6.90
   6   3   4   68.59    3.20
   6   3   4   72.29    7.00
  -7  -3  -4    1.40    3.70
  -7  -3  -4   -0.40    4.20
   7   3   4   -5.70    4.30
   6  -4  -4  182.78   11.50
   6  -4  -4  172.58    7.70
   6  -4  -4  168.88    8.40
  -6   4   4  189.28   14.20
  -6   4   4  156.38    8.30
   5  -4  -4   76.49    5.80
   5  -4  -4   58.79    7.80
   5  -4  -4   68.59    5.60
   5  -4  -4   94.19    8.40
  -5   4   4   88.29    6.40
  -5   4   4   81.99    6.10
   4  -4  -4   63.19    6.70
   4  -4  -4   60.49    4.70
   4  -4  -4   67.79    4.90
   4  -4  -4   60.69    3.60
  -4   4   4   67.39    5.20
  -4   4   4   60.19    5.40
  -4   4   4   65.39    5.00
   3  -4  -4  110.49    4.70
   3  -4  -4  111.69    5.50
   3  -4  -4  100.29    6.10
   3  -4  -4  109.99    4.50
  -3   4   4  111.19    5.00
  -3   4   4  108.79    4.80
  -3   4   4  106.99    4.20
   2  -4  -4  144.19    5.50
   2  -4  -4  146.49    4.60
   2  -4  -4  142.09    5.00
   2  -4  -4  156.28    4.80
  -2   4   4  150.78    4.80
  -2   4   4  152.48    4.80
  -2   4   4  152.68    4.70
  -2   4   4  142.19    4.50
   1  -4  -4    3.20    1.60
   1  -4  -4    3.80    1.80
   1  -4  -4    4.30    1.70
   1  -4  -4    4.00    1.60
  -1   4   4    4.70    1.30
  -1   4   4    3.50    1.40
  -1   4   4    4.30    1.60
  -1   4   4    2.90    1.60
   0  -4  -4  483.05    8.00
   0  -4  -4  478.15    8.50
   0  -4  -4  493.55    7.90
   0  -4  -4  481.45    8.40
   0  -4  -4  480.25    9.80
   0   4   4  483.35    8.00
   0   4   4  486.85    9.70
   0   4   4  468.15    8.30
   0   4   4  496.35    8.60
  -1  -4  -4 1372.06   20.40
  -1  -4  -4 1353.46   21.90
  -1  -4  -4 1414.86   20.30
  -1  -4  -4 1394.76   21.90
  -1  -4  -4 1382.86   19.90
   1   4   4 1381.06   21.90
   1   4   4 1396.16   20.20
   1   4   4 1401.06   20.00
   1   4   4 1358.76   21.80
   1   4   4 1380.46   20.20
  -2  -4  -4 1891.01   27.10
  -2  -4  -4 1872.61   27.20
  -2  -4  -4 1892.11   27.10
  -2  -4  -4 1924.21   25.50
  -2  -4  -4 1907.11   29.40
  -2  -4  -4 1885.21   28.90
   2   4   4 1883.11   28.70
   2   4   4 1884.71   26.90
   2   4   4 1867.31   26.90
   2   4   4 1874.01   29.40
  -3  -4  -4   40.70    3.00
  -3  -4  -4   42.60    3.00
  -3  -4  -4   40.60    4.60
  -3  -4  -4   42.80    3.70
  -3  -4  -4   47.70    4.40
   3   4   4   40.10    3.80
   3   4   4   44.20    2.90
   3   4   4   46.40    2.70
   3   4   4   44.30    2.70
   3   4   4   43.90    3.90
  -4  -4  -4    2.40    2.00
  -4  -4  -4    2.50    3.60
  -4  -4  -4    1.60    2.90
  -4  -4  -4    2.00    2.00
   4   4   4    0.70    1.60
   4   4   4    0.80    1.60
   4   4   4   -3.20    2.00
   4   4   4    0.90    1.60
   4   4   4    5.70    2.20
  -5  -4  -4  100.49    8.50
  -5  -4  -4  101.19    5.40
  -5  -4  -4   95.89    5.20
  -5  -4  -4  103.09    6.70
   5   4   4   98.99    5.90
   5   4   4  108.09    6.60
   5   4   4   96.39    5.40
   5   4   4   94.49    4.20
   5   4   4   99.69    4.20
  -6  -4  -4  401.46   10.20
  -6  -4  -4  408.26   11.70
  -6  -4  -4  404.46   14.60
  -6  -4  -4  394.56   10.30
   6   4   4  405.86   12.00
   6   4   4  388.46    8.30
   6   4   4  395.66    8.20
   6   4   4  420.96   11.90
   6   4   4  397.66    9.60
  -7  -4  -4    3.40    3.80
   7   4   4   -0.80    4.50
   7   4   4   11.50    5.10
   6  -5  -4    9.30    4.20
   6  -5  -4    8.10    4.80
   6  -5  -4   13.40    3.80
   6  -5  -4    2.20    5.90
  -6   5   4   15.50    3.80
  -6   5   4   11.80    4.10
   5  -5  -4   12.50    3.50
   5  -5  -4   16.00    4.90
   5  -5  -4   10.80    2.90
   5  -5  -4    8.60    3.20
  -5   5   4    9.90    3.30
  -5   5   4    8.00    3.50
  -5   5   4   11.10    3.10
  -5   5   4   10.90    3.80
   4  -5  -4   13.10    2.90
   4  -5  -4    9.60    1.80
   4  -5  -4   11.00    3.00
   4  -5  -4   16.80    2.70
   4  -5  -4   14.00    4.20
  -4   5   4   13.70    2.80
  -4   5   4   12.30    2.80
  -4   5   4   10.10    3.30
  -4   5   4   15.00    3.10
   3  -5  -4   70.39    4.10
   3  -5  -4   69.29    5.80
   3  -5  -4   69.69    4.50
  -3   5   4   71.09    3.80
  -3   5   4   76.99    4.70
  -3   5   4   69.09    4.60
  -3   5   4   72.99    4.50
   2  -5  -4  317.27    7.00
   2  -5  -4  310.27    6.90
   2  -5  -4  309.87    7.70
   2  -5  -4  310.07    7.90
  -2   5   4  297.07    7.00
  -2   5   4  315.77    7.10
  -2   5   4  308.57    7.20
  -2   5   4  313.27    7.30
   1  -5  -4  987.50   15.90
   1  -5  -4 1000.20   15.80
   1  -5  -4 1002.50   17.10
   1  -5  -4  995.90   16.10
  -1   5   4 1010.10   15.80
  -1   5   4 1030.60   16.10
  -1   5   4 1039.00   17.00
  -1   5   4 1001.60   16.10
  -1   5   4  988.00   15.80
   0  -5  -4  222.58    5.40
   0  -5  -4  234.68    5.10
   0  -5  -4  232.08    7.00
   0  -5  -4  224.58    5.40
   0  -5  -4  231.88    4.90
   0  -5  -4  231.98    5.20
   0   5   4  237.88    5.60
   0   5   4  231.48    6.70
   0   5   4  223.78    5.10
   0   5   4  233.68    6.40
   0   5   4  222.98    5.30
   0   5   4  224.38    5.00
  -1  -5  -4  720.23   12.00
  -1  -5  -4  725.63   11.90
  -1  -5  -4  712.43   11.60
  -1  -5  -4  741.73   11.00
  -1  -5  -4  719.23   13.80
   1   5   4  718.23   11.80
   1   5   4  730.43   11.70
   1   5   4  698.53   13.00
   1   5   4  727.73   13.50
   1   5   4  706.93   10.70
   1   5   4  735.43   11.90
  -2  -5  -4    2.00    1.60
  -2  -5  -4    4.00    1.90
  -2  -5  -4    4.60    1.00
  -2  -5  -4    2.90    1.60
  -2  -5  -4    2.30    1.60
  -2  -5  -4   -0.80    2.40
   2   5   4    0.80    1.50
   2   5   4    3.70    1.60
   2   5   4    3.90    2.30
   2   5   4    2.70    1.60
   2   5   4    4.90    1.50
  -3  -5  -4   23.80    3.20
  -3  -5  -4   24.50    3.80
  -3  -5  -4   14.20    2.40
  -3  -5  -4   21.80    2.40
  -3  -5  -4   20.50    2.50
   3   5   4   15.80    2.30
   3   5   4   17.50    2.40
   3   5   4   21.30    2.70
   3   5   4   21.00    2.70
  -4  -5  -4   25.30    3.30
  -4  -5  -4   27.60    3.70
  -4  -5  -4   23.80    2.90
  -4  -5  -4   27.50    4.70
   4   5   4   30.90    4.50
   4   5   4   25.20    3.00
   4   5   4   28.00    3.40
   4   5   4   19.60    3.00
  -5  -5  -4  123.89    5.70
  -5  -5  -4  120.99    6.90
  -5  -5  -4  117.39    8.60
  -5  -5  -4  111.89    7.80
   5   5   4  115.29    6.20
   5   5   4  111.49    4.90
   5   5   4  119.09    6.20
   5   5   4  113.39    6.70
  -6  -5  -4   23.30    4.10
  -6  -5  -4   30.70    6.80
  -6  -5  -4   24.70    3.90
  -6  -5  -4   23.70    4.00
   6   5   4   19.50    4.20
   6   5   4   31.30    4.80
   6   5   4   28.30    3.40
   6   5   4   24.60    3.00
   6   5   4   20.90    3.20
  -7  -5  -4    3.10    4.10
   7   5   4   13.20    5.50
   7   5   4    6.00    3.20
   7   5   4   10.40    4.80
   5  -6  -4   18.30    5.10
   5  -6  -4   22.80    3.60
   5  -6  -4   19.30    3.30
   5  -6  -4   16.40    3.70
  -5   6   4   17.60    4.20
  -5   6   4   18.90    3.60
  -5   6   4   15.80    3.40
  -5   6   4   27.40    3.80
   4  -6  -4    8.30    4.00
   4  -6  -4    2.40    2.30
   4  -6  -4    6.70    2.60
   4  -6  -4    0.60    2.80
  -4   6   4    3.70    2.70
  -4   6   4    0.70    2.40
  -4   6   4    6.60    3.00
  -4   6   4    0.50    1.30
  -4   6   4    1.40    3.10
   3  -6  -4    1.50    3.00
   3  -6  -4   -0.70    2.40
   3  -6  -4    1.80    1.90
   3  -6  -4    2.90    2.00
   3  -6  -4    3.50    2.60
  -3   6   4    2.40    1.50
  -3   6   4    3.40    2.10
  -3   6   4    0.00    2.00
  -3   6   4   -4.40    2.20
   2  -6  -4    0.00    1.70
   2  -6  -4   -1.50    1.90
   2  -6  -4    1.90    2.10
   2  -6  -4   -2.60    2.10
   2  -6  -4    0.80    1.80
  -2   6   4    1.20    1.80
  -2   6   4    0.60    2.40
  -2   6   4    1.10    1.50
  -2   6   4   -0.40    1.90
  -2   6   4    0.00    1.60
   1  -6  -4   74.59    5.00
   1  -6  -4   71.09    3.50
   1  -6  -4   70.49    3.80
   1  -6  -4   69.19    3.70
   1  -6  -4   71.69    3.50
  -1   6   4   70.49    3.90
  -1   6   4   74.09    4.40
  -1   6   4   73.79    3.60
  -1   6   4   71.69    3.70
  -1   6   4   67.29    3.50
   0  -6  -4  747.23   14.40
   0  -6  -4  768.92   12.50
   0  -6  -4  749.62   12.60
   0  -6  -4  743.73   12.40
   0   6   4  760.82   12.70
   0   6   4  736.63   12.40
   0   6   4  753.52   12.60
   0   6   4  769.32   14.20
   0   6   4  731.53   13.50
   0   6   4  731.63   12.10
  -1  -6  -4  240.88    7.70
  -1  -6  -4  237.28    5.90
  -1  -6  -4  240.28    5.00
  -1  -6  -4  251.77    5.80
  -1  -6  -4  240.88    5.70
   1   6   4  238.08    7.20
   1   6   4  242.28    5.80
   1   6   4  235.08    4.90
   1   6   4  240.58    5.70
   1   6   4  222.28    6.30
   1   6   4  235.38    5.80
  -2  -6  -4   51.39    3.50
  -2  -6  -4   54.09    4.20
  -2  -6  -4   58.89    3.70
  -2  -6  -4   62.29    5.40
  -2  -6  -4   59.89    3.50
  -2  -6  -4   60.69    2.30
   2   6   4   56.69    4.00
   2   6   4   60.19    3.40
   2   6   4   53.99    3.60
   2   6   4   54.99    3.20
   2   6   4   60.99    4.70
  -3  -6  -4   81.69    4.80
  -3  -6  -4   70.59    5.00
  -3  -6  -4   77.79    5.50
  -3  -6  -4   78.89    4.30
   3   6   4   90.79    5.50
   3   6   4   87.89    4.90
   3   6   4   71.09    3.80
   3   6   4   81.39    4.10
  -4  -6  -4   46.00    6.30
  -4  -6  -4   50.89    5.40
  -4  -6  -4   55.49    4.60
  -4  -6  -4   48.50    4.50
   4   6   4   55.79    3.90
   4   6   4   39.40    6.00
   4   6   4   56.99    4.20
   4   6   4   53.39    5.30
  -5  -6  -4    0.60    2.80
  -5  -6  -4   -0.50    2.70
  -5  -6  -4    1.90    3.30
  -5  -6  -4    1.10    4.50
   5   6   4    2.50    2.40
   5   6   4    0.10    2.40
   5   6   4   -0.70    2.90
   5   6   4   -0.10    2.40
   5   6   4   -3.80    2.90
  -6  -6  -4   14.30    3.70
  -6  -6  -4   37.00    6.70
  -6  -6  -4   18.80    3.80
  -6  -6  -4   20.90    3.80
   6   6   4   23.50    3.60
   6   6   4   22.70    4.20
   6   6   4   21.10    4.40
   6   6   4   18.40    3.30
   6   6   4   26.00    3.40
  -7  -6  -4   11.30    4.40
   7   6   4   14.50    5.60
   7   6   4    4.40    3.60
   7   6   4   -1.10    4.70
   5  -7  -4    0.30    4.90
   5  -7  -4   -0.90    2.90
   5  -7  -4    0.30    3.40
   5  -7  -4    9.30    3.40
  -5   7   4   -7.20    3.10
  -5   7   4    2.10    3.20
   4  -7  -4    4.30    3.00
   4  -7  -4    4.40    2.40
   4  -7  -4    8.20    4.00
   4  -7  -4    6.60    2.90
  -4   7   4    5.10    1.60
  -4   7   4    8.10    3.00
  -4   7   4    2.90    2.60
  -4   7   4   10.80    3.10
   3  -7  -4    1.30    2.60
   3  -7  -4   -2.80    2.00
   3  -7  -4    0.40    3.10
   3  -7  -4   -1.00    2.30
  -3   7   4   -1.00    1.60
  -3   7   4    0.60    3.70
  -3   7   4    0.90    2.50
  -3   7   4   -0.60    2.50
   2  -7  -4    1.20    2.50
   2  -7  -4    2.70    2.20
   2  -7  -4    1.80    2.10
   2  -7  -4   -0.40    1.90
   2  -7  -4    2.30    2.40
  -2   7   4    0.80    1.90
  -2   7   4    1.40    2.10
  -2   7   4    2.20    1.70
  -2   7   4    3.20    2.00
   1  -7  -4   -1.10    1.80
   1  -7  -4    0.00    1.90
   1  -7  -4    2.40    2.00
   1  -7  -4    0.80    1.70
   1  -7  -4   -0.40    1.70
   1  -7  -4    1.10    2.10
  -1   7   4   -2.70    1.60
  -1   7   4    1.70    1.60
  -1   7   4   -1.10    1.70
  -1   7   4    2.30    2.20
   0  -7  -4  599.04   13.10
   0  -7  -4  616.64   10.60
   0  -7  -4  615.44   10.90
   0  -7  -4  616.64   11.00
   0  -7  -4  607.04   11.10
   0   7   4  603.74   11.00
   0   7   4  622.44   12.90
   0   7   4  591.84   11.70
   0   7   4  611.74   11.10
   0   7   4  599.54   10.80
   0   7   4  630.74   11.20
  -1  -7  -4   29.80    2.50
  -1  -7  -4   27.70    3.10
  -1  -7  -4   28.60    3.20
  -1  -7  -4   32.40    3.20
  -1  -7  -4   31.80    5.30
   1   7   4   29.50    3.30
   1   7   4   23.50    3.10
   1   7   4   28.10    3.00
   1   7   4   30.80    3.20
   1   7   4   29.30    2.60
   1   7   4   32.10    4.40
  -2  -7  -4   12.50    2.90
  -2  -7  -4    6.80    3.20
  -2  -7  -4    9.10    2.60
  -2  -7  -4   10.00    1.60
  -2  -7  -4    6.90    2.10
  -2  -7  -4   10.90    2.20
   2   7   4    9.10    2.00
   2   7   4    5.40    1.90
   2   7   4   13.80    2.60
   2   7   4    4.20    3.60
  -3  -7  -4    3.50    1.20
  -3  -7  -4    3.50    3.30
  -3  -7  -4    3.10    2.10
  -3  -7  -4    2.20    2.30
  -3  -7  -4    1.00    2.40
   3   7   4    0.70    1.80
   3   7   4    1.30    2.10
   3   7   4    0.70    2.10
   3   7   4    2.10    2.20
  -4  -7  -4   43.40    4.60
  -4  -7  -4   39.70    6.40
  -4  -7  -4   35.70    3.80
  -4  -7  -4   43.10    6.20
   4   7   4   35.80    5.60
   4   7   4   44.20    4.20
   4   7   4   45.30    4.30
   4   7   4   44.20    5.60
  -5  -7  -4  294.27   11.60
  -5  -7  -4  291.37    9.50
  -5  -7  -4  290.97    8.90
  -5  -7  -4  287.07    8.80
   5   7   4  279.77    8.00
   5   7   4  287.57    9.70
   5   7   4  288.57   10.00
  -6  -7  -4   12.50    3.80
  -6  -7  -4   15.90    6.70
   6   7   4   18.50    4.50
   6   7   4   20.90    3.80
   6   7   4    8.20    3.50
   6   7   4   17.50    4.60
   5  -8  -4    7.10    5.40
   5  -8  -4    2.30    3.30
   5  -8  -4    0.80    3.00
   5  -8  -4    3.70    3.80
  -5   8   4    0.90    3.30
  -5   8   4    2.20    3.60
   4  -8  -4   12.80    4.50
   4  -8  -4   16.40    3.60
   4  -8  -4   16.90    2.90
   4  -8  -4   16.10    3.20
  -4   8   4   14.50    3.40
  -4   8   4   12.90    3.30
  -4   8   4   13.30    3.00
  -4   8   4   10.60    2.00
   3  -8  -4   79.59    4.80
   3  -8  -4   79.09    4.50
   3  -8  -4   72.09    5.40
   3  -8  -4   70.69    6.40
  -3   8   4   73.09    6.60
  -3   8   4   70.59    5.00
  -3   8   4   74.99    4.90
  -3   8   4   68.89    5.60
  -3   8   4   68.09    5.20
   2  -8  -4    8.00    2.20
   2  -8  -4   12.10    2.80
   2  -8  -4   13.20    3.20
   2  -8  -4   11.40    2.60
  -2   8   4   11.40    3.20
  -2   8   4   15.50    2.70
  -2   8   4   14.50    2.50
  -2   8   4   12.20    2.50
  -2   8   4    7.70    2.30
   1  -8  -4    6.00    2.20
   1  -8  -4    3.30    2.40
   1  -8  -4    8.00    2.30
  -1   8   4    9.20    2.30
  -1   8   4    7.40    2.60
  -1   8   4    6.30    2.20
  -1   8   4    5.50    2.10
  -1   8   4    7.50    2.10
   0  -8  -4    8.50    2.20
   0  -8  -4    9.80    2.20
   0   8   4    8.10    2.00
   0   8   4    9.90    2.20
   0   8   4    9.30    2.20
   0   8   4    6.20    2.20
   0   8   4   10.40    2.70
  -1  -8  -4 1925.11   28.60
  -1  -8  -4 1950.50   28.90
  -1  -8  -4 1935.91   27.50
  -1  -8  -4 1763.82   29.90
   1   8   4 1890.41   28.80
   1   8   4 1987.80   28.90
   1   8   4 1871.51   27.90
   1   8   4 1860.91   28.70
   1   8   4 1934.11   31.20
   1   8   4 1919.61   28.70
  -2  -8  -4  200.38    6.60
  -2  -8  -4  197.78    6.30
  -2  -8  -4  193.78    6.10
  -2  -8  -4  196.18    6.40
  -2  -8  -4  194.48    4.80
   2   8   4  208.58    8.10
   2   8   4  192.38    6.50
   2   8   4  198.68    6.00
   2   8   4  200.38    6.20
  -3  -8  -4    6.80    2.70
  -3  -8  -4    6.90    1.60
  -3  -8  -4    7.20    2.60
  -3  -8  -4    0.70    2.60
  -3  -8  -4    5.30    3.30
   3   8   4    6.00    2.40
   3   8   4    5.60    2.60
   3   8   4    5.50    2.40
   3   8   4   -0.20    2.50
  -4  -8  -4   -3.50    2.50
  -4  -8  -4    3.30    3.00
  -4  -8  -4    2.60    2.90
  -4  -8  -4   -1.20    4.80
   4   8   4    0.80    2.50
   4   8   4   -1.00    2.50
   4   8   4   -1.40    2.60
   4   8   4    5.80    4.60
  -5  -8  -4   -4.40    5.40
  -5  -8  -4    1.60    3.40
  -5  -8  -4    2.30    3.20
  -5  -8  -4    6.90    3.40
   5   8   4    1.50    2.90
   5   8   4   -3.50    3.20
   5   8   4    2.50    2.60
  -6  -8  -4    1.80    6.70
  -6  -8  -4   -0.80    4.00
   6   8   4   -1.20    3.70
   6   8   4    2.10    3.60
   6   8   4    2.10    3.90
   5  -9  -4   -2.70    5.40
   5  -9  -4    6.80    5.80
  -5   9   4   -1.50    3.60
  -5   9   4    9.10    5.10
   4  -9  -4    4.10    3.10
   4  -9  -4    3.50    3.40
   4  -9  -4    9.60    4.40
  -4   9   4    4.30    3.10
  -4   9   4    4.60    3.20
  -4   9   4    1.80    3.20
  -4   9   4    4.60    2.00
   3  -9  -4   50.39    4.60
   3  -9  -4   51.79    4.30
   3  -9  -4   35.30    3.80
   3  -9  -4   44.70    6.30
  -3   9   4   43.40    4.90
  -3   9   4   37.30    6.20
  -3   9   4   38.90    5.30
  -3   9   4   44.50    4.70
   2  -9  -4  210.38    7.10
   2  -9  -4  224.78    6.60
   2  -9  -4  222.98    6.50
  -2   9   4  219.58    7.40
  -2   9   4  223.48    8.20
  -2   9   4  222.78    7.20
  -2   9   4  209.48    7.00
  -2   9   4  220.58    8.40
   1  -9  -4    1.90    2.30
   1  -9  -4    4.20    2.30
   1  -9  -4    2.10    2.20
   1  -9  -4    0.90    2.40
  -1   9   4    0.00    2.20
  -1   9   4    2.20    2.20
  -1   9   4    2.20    2.10
  -1   9   4    3.90    2.40
   0  -9  -4    1.90    2.10
   0  -9  -4    2.50    2.20
   0  -9  -4   -1.40    2.10
   0  -9  -4    0.10    2.10
   0   9   4    1.90    2.30
   0   9   4    0.70    2.30
   0   9   4   -0.90    2.10
   0   9   4    0.30    2.30
   0   9   4    2.70    2.00
   0   9   4    2.30    2.20
  -1  -9  -4   68.09    4.60
  -1  -9  -4   56.49    4.50
  -1  -9  -4   56.39    4.00
  -1  -9  -4   55.59    4.40
   1   9   4   50.79    6.30
   1   9   4   60.09    4.00
   1   9   4   62.09    4.90
   1   9   4   60.19    4.70
   1   9   4   60.59    4.40
   1   9   4   59.99    3.80
  -2  -9  -4  768.72   14.60
  -2  -9  -4  768.62   12.70
  -2  -9  -4  790.92   14.70
  -2  -9  -4  783.32   14.40
   2   9   4  771.42   17.10
   2   9   4  751.72   14.80
   2   9   4  770.92   14.40
   2   9   4  780.42   14.30
  -3  -9  -4  102.39    5.70
  -3  -9  -4   83.09    6.00
  -3  -9  -4   83.99    5.70
   3   9   4   90.09    5.30
   3   9   4   85.49    7.10
   3   9   4   79.89    5.20
   3   9   4   72.99    7.90
  -4  -9  -4    1.10    3.00
  -4  -9  -4   -0.40    3.00
  -4  -9  -4    0.60    1.60
   4   9   4    1.60    2.80
   4   9   4    5.10    2.80
  -5  -9  -4   11.30    3.90
  -5  -9  -4   25.80    6.40
  -5  -9  -4   12.50    3.60
   5   9   4   17.90    4.10
   5   9   4   19.40    3.50
   5   9   4    6.10    3.50
   5   9   4   16.30    3.30
  -6  -9  -4   49.40    5.40
  -6  -9  -4   64.19   11.50
   6   9   4   35.90    5.10
   6   9   4   28.00    4.60
   6   9   4   44.50    5.30
   4 -10  -4   -2.70    3.40
   4 -10  -4   10.20    2.90
   4 -10  -4    3.70    3.20
   4 -10  -4   -1.00    4.80
  -4  10   4   -3.10    3.70
  -4  10   4   -2.30    3.40
  -4  10   4    0.10    3.20
   3 -10  -4    5.10    2.60
   3 -10  -4    4.60    3.10
   3 -10  -4    5.50    2.90
   3 -10  -4    5.10    4.10
  -3  10   4    8.40    3.20
  -3  10   4    4.10    4.00
  -3  10   4    3.00    3.00
  -3  10   4    7.10    2.80
   2 -10  -4   75.19    4.70
   2 -10  -4   58.19    4.60
   2 -10  -4   58.59    5.20
  -2  10   4   69.49    4.90
  -2  10   4   67.29    5.60
  -2  10   4   72.19    6.40
  -2  10   4   64.59    5.50
  -2  10   4   60.09    6.10
   1 -10  -4    2.20    2.40
   1 -10  -4    3.90    2.50
   1 -10  -4    5.70    2.70
   1 -10  -4    4.10    2.50
  -1  10   4    1.90    2.60
  -1  10   4    4.60    2.40
  -1  10   4    7.50    3.10
  -1  10   4    3.50    2.40
  -1  10   4    6.40    2.70
   0 -10  -4  229.98    7.00
   0 -10  -4  227.08    6.70
   0 -10  -4  238.78    6.90
   0 -10  -4  231.98    7.40
   0  10   4  232.28    9.30
   0  10   4  227.18    6.40
   0  10   4  216.88    7.20
   0  10   4  226.78    7.20
  -1 -10  -4  142.19    6.20
  -1 -10  -4  131.19    5.70
  -1 -10  -4  134.59    6.00
  -1 -10  -4  135.19    5.10
   1  10   4  135.99    5.80
   1  10   4  127.89    5.60
   1  10   4  134.39    8.10
   1  10   4  127.79    4.70
   1  10   4  122.09   10.30
  -2 -10  -4   25.50    2.60
  -2 -10  -4   23.10    3.20
  -2 -10  -4   20.90    3.40
  -2 -10  -4   23.10    3.30
   2  10   4   19.00    3.30
   2  10   4   26.40    3.30
  -3 -10  -4   35.10    4.00
  -3 -10  -4   28.70    5.10
  -3 -10  -4   30.70    3.80
  -3 -10  -4   31.70    3.30
   3  10   4   30.60    3.60
   3  10   4   40.90    5.50
  -4 -10  -4   10.70    3.60
  -4 -10  -4   16.20    5.00
  -4 -10  -4    5.00    2.90
  -4 -10  -4    3.70    3.20
   4  10   4    8.40    3.30
   4  10   4    5.20    3.40
   4  10   4    5.90    3.30
   4  10   4    9.20    3.20
  -5 -10  -4   54.89    7.30
  -5 -10  -4   68.19    9.20
   5  10   4   58.89    5.80
   5  10   4   60.59    6.50
   5  10   4   50.59    8.00
   4 -11  -4   -2.80    4.00
  -4  11   4    7.80    4.80
  -4  11   4    0.00    3.60
   3 -11  -4    9.10    3.40
   3 -11  -4    4.70    3.20
   3 -11  -4   16.10    3.10
  -3  11   4   12.80    4.20
  -3  11   4    8.00    3.10
  -3  11   4    9.40    3.20
  -3  11   4    3.00    3.60
  -3  11   4   11.20    3.60
   2 -11  -4    4.20    2.60
   2 -11  -4    3.00    2.70
   2 -11  -4   -2.00    2.80
  -2  11   4    4.80    3.10
  -2  11   4    2.10    2.60
  -2  11   4    1.50    2.90
  -2  11   4   -2.20    2.60
   1 -11  -4   20.60    3.20
   1 -11  -4   18.80    3.00
   1 -11  -4   18.20    3.00
   1 -11  -4   21.20    3.50
  -1  11   4   13.80    3.10
  -1  11   4   19.20    3.40
  -1  11   4   14.60    3.30
  -1  11   4   17.80    3.90
  -1  11   4   21.40    3.30
  -1  11   4   20.90    3.60
   0 -11  -4   17.40    6.00
   0 -11  -4   27.50    3.20
   0 -11  -4   20.60    3.20
   0 -11  -4   23.30    3.40
   0  11   4   15.40    3.30
   0  11   4   23.70    3.60
   0  11   4   23.60    3.50
   0  11   4   28.50    3.50
   0  11   4   27.70    3.30
   0  11   4   25.80    3.80
  -1 -11  -4   17.90    3.60
  -1 -11  -4   20.90    3.20
  -1 -11  -4   19.70    3.40
  -1 -11  -4   22.00    3.00
   1  11   4    9.80    2.90
   1  11   4   17.70    3.30
   1  11   4   14.80    3.50
   1  11   4   21.00    3.30
   1  11   4   18.60    3.20
  -2 -11  -4    1.10    2.20
  -2 -11  -4    1.00    2.70
  -2 -11  -4   -0.20    2.90
   2  11   4    7.00    2.80
   2  11   4    2.80    2.90
  -3 -11  -4   46.90    3.90
  -3 -11  -4   57.19    5.80
  -3 -11  -4   44.60    5.90
  -3 -11  -4   43.20    5.50
   3  11   4   46.20    5.40
   3  11   4   54.19    5.40
   3  11   4   57.29    6.20
   3  11   4   43.10    7.40
  -4 -11  -4    3.40    3.80
  -4 -11  -4   -1.00    2.10
   4  11   4    0.40    3.80
   4  11   4   -5.10    3.00
   4  11   4    1.20    3.30
  -5 -11  -4   27.80    7.20
  -5 -11  -4   19.90    4.70
   5  11   4   19.90    4.70
   5  11   4   14.50    4.40
   3 -12  -4    2.00    3.90
   3 -12  -4    9.00    3.20
  -3  12   4    1.60    3.30
  -3  12   4   -1.30    3.40
  -3  12   4    1.20    3.40
   2 -12  -4    0.40    3.70
   2 -12  -4    0.60    3.10
   2 -12  -4   -6.20    2.90
  -2  12   4   -2.80    3.10
  -2  12   4   -4.50    4.30
  -2  12   4   -1.50    2.80
  -2  12   4    4.40    4.10
   1 -12  -4   15.00    3.20
   1 -12  -4   10.40    3.40
   1 -12  -4   15.10    3.30
   1 -12  -4    8.90    3.00
  -1  12   4    5.20    3.10
  -1  12   4   10.70    3.30
  -1  12   4   16.30    3.10
  -1  12   4    7.80    3.20
  -1  12   4   10.20    3.10
   0 -12  -4   -1.70    2.80
   0 -12  -4   -1.80    2.70
   0 -12  -4    0.70    2.70
   0  12   4   -0.70    2.70
   0  12   4    0.30    3.10
   0  12   4   -3.30    2.90
   0  12   4    6.30    3.70
   0  12   4    5.30    2.90
  -1 -12  -4   49.80    5.80
  -1 -12  -4   51.59    5.90
  -1 -12  -4   44.20    5.60
  -1 -12  -4   43.40    4.70
   1  12   4   51.69    7.70
   1  12   4   60.09    5.40
   1  12   4   48.70    6.00
   1  12   4   49.20    5.40
   1  12   4   50.29    5.80
  -2 -12  -4    0.30    3.10
  -2 -12  -4    3.40    2.30
  -2 -12  -4    3.20    3.00
  -2 -12  -4    3.60    3.10
   2  12   4   -0.20    3.00
   2  12   4    2.60    3.40
   2  12   4   -1.00    3.00
   2  12   4    8.60    3.10
   2  12   4    1.70    2.80
  -3 -12  -4   13.00    4.00
  -3 -12  -4   16.70    2.80
   3  12   4   13.20    3.80
   3  12   4   15.90    3.60
  -4 -12  -4    1.60    4.00
  -4 -12  -4    5.20    2.40
   4  12   4   -5.00    4.10
   4  12   4    1.40    3.90
   2 -13  -4    1.60    3.30
   2 -13  -4    1.80    3.50
   2 -13  -4    7.50    3.50
  -2  13   4   -6.70    3.50
  -2  13   4   -2.40    3.30
  -2  13   4    0.70    3.40
   1 -13  -4   10.50    3.50
   1 -13  -4   20.10    3.70
  -1  13   4   28.10    3.60
  -1  13   4   17.00    4.60
  -1  13   4   18.60    4.00
  -1  13   4   17.60    3.90
   0 -13  -4    4.90    3.40
   0 -13  -4    0.50    2.90
   0 -13  -4   -3.40    2.80
   0  13   4   -6.10    3.10
   0  13   4    2.60    3.30
   0  13   4   -7.30    4.80
  -1 -13  -4   10.10    3.60
  -1 -13  -4   12.70    3.40
  -1 -13  -4    3.40    2.90
   1  13   4    5.40    3.40
   1  13   4    7.00    4.30
   1  13   4   13.60    3.70
  -2 -13  -4   11.60    4.10
  -2 -13  -4   15.30    3.00
   2  13   4   17.30    4.10
   2  13   4   16.10    4.40
   2  13   4   10.20    3.90
  -3 -13  -4    5.50    4.40
  -3 -13  -4    5.40    2.70
   3  13   4   -0.90    3.70
   3  13   4    2.30    3.90
   4  13   4   22.40    5.20
   1 -14  -4   -6.40    3.60
   1 -14  -4    0.90    4.10
   1 -14  -4    1.70    3.80
  -1  14   4    3.20    3.50
  -1  14   4   -3.90    3.70
   0 -14  -4    1.10    3.30
   0 -14  -4    3.70    3.90
   0 -14  -4    7.90    3.70
   0  14   4   -4.00    3.50
   0  14   4    4.00    3.70
   0  14   4    6.00    4.80
  -1 -14  -4    8.10    4.20
  -1 -14  -4   -2.90    3.10
   1  14   4    9.60    4.50
   1  14   4    3.20    4.00
   1  14   4    2.60    3.70
  -2 -14  -4   41.10    5.40
  -2 -14  -4   33.00    3.80
   2  14   4   30.70    4.70
   2  14   4   28.30    5.00
   2  14   4   23.30    4.70
   1  11  -5   11.30    4.50
   1  11  -5   36.60    5.00
  -1 -11   5   23.80    4.90
   0  11  -5    2.80    3.30
   0  11  -5   -0.60    3.70
   0  11  -5    3.00    3.80
   0 -11   5    1.50    3.40
  -1  11  -5   11.90    4.10
  -1  11  -5   13.20    3.60
  -1  11  -5   14.70    3.70
   1 -11   5    9.30    5.70
  -2  11  -5    8.70    3.60
  -2  11  -5    4.80    4.00
  -2  11  -5   10.70    3.50
   2 -11   5    6.10    3.50
   2  10  -5   -0.70    3.80
   2  10  -5    5.20    4.00
  -2 -10   5    2.40    4.00
  -2 -10   5   -1.20    3.20
  -2 -10   5   -4.20    3.50
   1  10  -5    3.60    3.50
   1  10  -5    0.50    3.40
   1  10  -5    3.90    3.60
  -1 -10   5    3.90    2.20
  -1 -10   5    1.40    3.20
  -1 -10   5    2.30    2.90
  -1 -10   5    0.40    2.30
   0  10  -5   -1.80    3.10
   0  10  -5    9.00    3.40
   0  10  -5   -0.10    3.10
   0 -10   5    0.20    2.90
   0 -10   5    3.10    3.20
  -1  10  -5    0.50    2.80
  -1  10  -5    0.80    3.10
  -1  10  -5    2.70    2.90
   1 -10   5   -3.20    2.70
   1 -10   5   -0.70    3.10
  -2  10  -5   12.10    3.10
  -2  10  -5    7.80    3.30
  -2  10  -5    3.70    3.10
   2 -10   5    4.20    3.30
  -3  10  -5   14.30    4.10
  -3  10  -5   10.00    2.80
   3 -10   5    8.70    3.70
   3   9  -5    6.00    2.70
  -3  -9   5    6.20    3.40
  -3  -9   5    0.00    3.60
  -3  -9   5   -1.00    3.70
  -3  -9   5   -1.30    3.10
   2   9  -5    3.90    3.20
   2   9  -5    7.60    3.60
   2   9  -5    2.90    3.40
  -2  -9   5    3.00    3.00
  -2  -9   5    7.60    3.10
  -2  -9   5    3.00    3.20
  -2  -9   5    7.40    3.00
   1   9  -5    0.20    3.00
   1   9  -5    4.80    3.10
   1   9  -5   -0.60    2.90
  -1  -9   5    5.30    2.00
  -1  -9   5    1.60    2.30
  -1  -9   5    3.80    2.80
  -1  -9   5   -2.10    2.70
   0   9  -5  160.18    6.50
   0   9  -5  173.28    7.00
   0   9  -5  164.08    7.40
   0  -9   5  161.98    6.70
  -1   9  -5    9.50    3.30
  -1   9  -5    4.80    3.00
  -1   9  -5    6.30    2.50
  -1   9  -5    6.40    2.60
   1  -9   5    4.40    2.80
  -2   9  -5   47.30    4.90
  -2   9  -5   56.69    4.50
  -2   9  -5   50.29    5.70
  -2   9  -5   49.40    4.00
   2  -9   5   41.20    4.20
  -3   9  -5   -5.00    3.00
  -3   9  -5   -4.80    3.50
  -3   9  -5    9.80    5.30
  -3   9  -5   -1.80    2.20
   3  -9   5   -2.60    2.90
  -4   9  -5   21.30    5.80
  -4   9  -5    3.30    3.10
  -4   9  -5    0.80    3.70
  -4   9  -5   10.10    2.50
   4  -9   5   11.20    3.80
   4   8  -5   55.19    7.50
   4   8  -5   45.80    4.70
  -4  -8   5   40.50    5.20
   3   8  -5    1.70    2.20
  -3  -8   5    1.10    3.20
  -3  -8   5   -2.30    3.20
  -3  -8   5   -3.50    3.20
   2   8  -5   81.29    6.00
   2   8  -5   85.09    6.70
   2   8  -5   87.39    6.00
  -2  -8   5   81.39    5.10
  -2  -8   5   82.49    4.50
  -2  -8   5   78.69    5.30
  -2  -8   5   75.69    5.50
   1   8  -5   -4.00    2.70
   1   8  -5   -2.10    2.70
   1   8  -5    3.40    2.80
  -1  -8   5    1.60    2.50
  -1  -8   5   -0.60    2.00
  -1  -8   5    1.00    2.50
  -1  -8   5    0.30    1.80
   0   8  -5  151.58    6.20
   0   8  -5  140.19    5.70
   0  -8   5  145.39    6.20
   0  -8   5  141.99    6.20
  -1   8  -5  101.49    4.70
   1  -8   5  100.99    5.60
   1  -8   5  100.89    5.60
  -2   8  -5    2.90    3.10
  -2   8  -5    1.70    1.80
  -2   8  -5    4.10    3.70
  -2   8  -5    3.40    2.00
  -2   8  -5    0.70    2.50
  -2   8  -5    1.10    3.20
   2  -8   5    3.00    2.80
  -3   8  -5   63.89    3.60
  -3   8  -5   63.89    5.70
  -3   8  -5   57.99    6.50
  -3   8  -5   66.89    6.50
  -3   8  -5   61.49    6.30
  -3   8  -5   55.49    3.30
   3  -8   5   55.49    5.20
  -4   8  -5   50.49    3.50
  -4   8  -5   49.99    6.20
  -4   8  -5   55.29    6.00
  -4   8  -5   63.49    7.90
  -4   8  -5   54.09    3.30
   4  -8   5   48.70    5.60
   4   7  -5   -1.60    4.10
   4   7  -5   -0.10    2.20
  -4  -7   5   -4.90    3.50
   3   7  -5   28.20    3.40
   3   7  -5   24.70    4.10
   3   7  -5   32.20    4.00
  -3  -7   5   19.70    4.10
  -3  -7   5   23.20    3.70
   2   7  -5   70.19    5.80
   2   7  -5   73.49    5.30
  -2  -7   5   71.89    4.90
  -2  -7   5   70.09    4.90
  -2  -7   5   60.09    5.40
  -2  -7   5   69.59    5.10
  -2  -7   5   68.49    4.80
   1   7  -5   16.70    3.00
   1   7  -5   22.00    3.00
   1   7  -5   19.00    3.20
  -1  -7   5   17.60    2.80
  -1  -7   5   21.40    2.40
  -1  -7   5   17.50    3.20
  -1  -7   5   22.40    3.10
  -1  -7   5   20.40    2.30
   0   7  -5   54.29    4.80
   0   7  -5   68.09    4.50
   0   7  -5   65.69    4.10
   0  -7   5   56.09    4.60
   0  -7   5   55.19    4.50
  -1   7  -5  936.21   15.20
  -1   7  -5  927.41   16.40
  -1   7  -5  916.41   15.00
   1  -7   5  942.41   16.30
   1  -7   5  912.31   16.20
  -2   7  -5  530.95    9.50
  -2   7  -5  551.74   13.40
  -2   7  -5  544.45   11.50
  -2   7  -5  552.24   12.10
  -2   7  -5  545.85    9.50
  -2   7  -5  528.05   11.90
   2  -7   5  549.15   11.20
  -3   7  -5  156.18    7.30
  -3   7  -5  153.48    8.10
  -3   7  -5  149.99    4.10
  -3   7  -5  148.09    6.50
  -3   7  -5  152.58    7.80
  -3   7  -5  144.79    4.00
   3  -7   5  152.88    6.10
  -4   7  -5    0.10    3.50
  -4   7  -5    0.80    1.60
  -4   7  -5    1.00    2.90
  -4   7  -5   -1.40    5.00
  -4   7  -5   -0.30    2.00
  -4   7  -5    2.60    5.30
  -4   7  -5    0.40    1.50
   4  -7   5    0.70    2.70
  -5   7  -5   15.10    2.20
  -5   7  -5   31.10    6.80
  -5   7  -5    8.40    3.60
  -5   7  -5   13.40    2.00
   5  -7   5   17.80    3.60
   5   6  -5   -1.60    2.90
   5   6  -5   -1.50    4.00
  -5  -6   5    1.40    4.20
   4   6  -5   -0.30    3.60
   4   6  -5    4.70    2.10
  -4  -6   5   -1.70    3.30
  -4  -6   5    2.00    3.30
  -4  -6   5   -2.20    3.20
   3   6  -5   10.20    3.40
   3   6  -5    8.40    1.90
   3   6  -5    3.10    3.20
  -3  -6   5    7.00    3.40
  -3  -6   5    1.90    2.90
  -3  -6   5    1.60    2.90
   2   6  -5   49.00    4.70
   2   6  -5   48.90    3.10
   2   6  -5   60.89    5.50
  -2  -6   5   49.40    4.90
  -2  -6   5   53.49    4.50
  -2  -6   5   50.49    4.40
  -2  -6   5   51.89    4.50
   1   6  -5   80.39    5.00
   1   6  -5   82.69    4.70
   1   6  -5   85.89    5.20
  -1  -6   5   78.29    4.60
  -1  -6   5   85.59    3.90
  -1  -6   5   84.09    3.90
  -1  -6   5   84.19    4.70
  -1  -6   5   83.19    4.50
   0   6  -5    9.90    2.40
   0   6  -5   10.90    2.10
   0   6  -5   11.30    2.40
   0  -6   5   16.90    2.70
   0  -6   5   14.70    2.60
   0  -6   5   11.60    2.30
   0  -6   5   11.80    1.20
  -1   6  -5    7.80    2.00
  -1   6  -5    9.10    2.30
  -1   6  -5   11.70    1.80
   1  -6   5   10.20    2.50
   1  -6   5   11.70    2.20
  -2   6  -5   48.10    2.90
  -2   6  -5   48.60    4.90
  -2   6  -5   45.80    2.60
  -2   6  -5   44.00    5.30
  -2   6  -5   48.60    4.20
  -2   6  -5   42.90    4.90
   2  -6   5   47.30    4.40
  -3   6  -5   13.80    1.50
  -3   6  -5   17.30    3.50
  -3   6  -5    7.10    2.20
  -3   6  -5   13.60    1.50
  -3   6  -5   11.50    2.60
  -3   6  -5   16.50    4.60
  -3   6  -5    8.30    3.40
   3  -6   5    9.10    2.60
  -4   6  -5   30.70    4.40
  -4   6  -5   39.60    5.00
  -4   6  -5   35.70    4.80
  -4   6  -5   31.70    4.20
  -4   6  -5   43.10    6.40
  -4   6  -5   30.30    2.20
  -4   6  -5   31.20    2.30
   4  -6   5   32.70    3.40
  -5   6  -5    2.90    3.20
  -5   6  -5   11.00    5.90
  -5   6  -5    4.30    2.00
  -5   6  -5    3.00    1.70
  -5   6  -5    1.80    1.60
   5  -6   5    5.90    2.90
   5   5  -5    8.60    4.20
  -5  -5   5    8.50    4.10
   4   5  -5    3.80    3.20
   4   5  -5   -1.20    1.90
   4   5  -5    0.20    3.50
  -4  -5   5    1.20    3.30
  -4  -5   5   -0.50    3.10
  -4  -5   5   -0.90    3.10
   3   5  -5   19.00    3.50
   3   5  -5   18.60    3.50
   3   5  -5   16.90    1.90
  -3  -5   5   18.00    3.30
  -3  -5   5   13.60    3.20
  -3  -5   5   16.90    3.30
   2   5  -5   60.19    5.10
   2   5  -5   57.69    3.00
  -2  -5   5   64.29    4.90
  -2  -5   5   61.79    4.30
  -2  -5   5   60.99    4.40
  -2  -5   5   54.79    4.50
   1   5  -5    2.30    2.10
   1   5  -5   -0.10    1.90
  -1  -5   5    1.40    2.40
  -1  -5   5    0.00    1.70
  -1  -5   5   -0.10    2.00
  -1  -5   5   -0.20    1.70
  -1  -5   5    2.00    1.90
   0   5  -5  195.08    5.10
   0   5  -5  198.08    5.70
   0   5  -5  198.28    5.40
   0  -5   5  195.88    3.80
   0  -5   5  190.78    6.00
   0  -5   5  197.58    5.60
   0  -5   5  191.88    3.70
   0  -5   5  191.08    5.30
  -1   5  -5    0.40    1.60
  -1   5  -5    3.50    2.70
  -1   5  -5    0.70    1.30
  -1   5  -5    2.60    1.60
   1  -5   5   -0.90    1.90
   1  -5   5    3.00    1.60
  -2   5  -5  227.98    4.60
  -2   5  -5  228.58    7.80
  -2   5  -5  231.28    6.30
  -2   5  -5  227.68    4.50
  -2   5  -5  237.48    6.90
  -2   5  -5  233.38    7.80
   2  -5   5  236.18    6.20
  -3   5  -5   43.40    4.10
  -3   5  -5   41.00    4.40
  -3   5  -5   45.80    5.60
  -3   5  -5   44.60    5.10
   3  -5   5   44.90    3.90
  -4   5  -5    8.20    4.90
  -4   5  -5    8.30    3.30
  -4   5  -5   13.80    3.80
  -4   5  -5    6.10    1.70
  -4   5  -5    9.80    1.30
   4  -5   5   10.40    2.50
  -5   5  -5    7.50    5.30
  -5   5  -5   -0.60    1.50
  -5   5  -5   -0.90    1.70
  -5   5  -5    2.90    4.00
  -5   5  -5    9.10    3.80
  -5   5  -5    0.00    2.70
   5  -5   5   -3.30    2.40
  -6   5  -5   13.70    2.40
  -6   5  -5   20.20    3.90
   6  -5   5   10.20    3.10
   5   4  -5   -5.20    4.00
   5   4  -5    5.90    3.30
  -5  -4   5   -2.20    3.60
   4   4  -5    7.00    2.00
   4   4  -5    3.80    3.00
  -4  -4   5    5.10    3.20
  -4  -4   5    5.30    3.30
   3   4  -5   10.80    3.20
   3   4  -5   12.40    1.70
   3   4  -5    7.80    3.00
  -3  -4   5    8.20    2.90
  -3  -4   5    9.00    3.00
  -3  -4   5    9.70    2.80
   2   4  -5  593.24    9.50
   2   4  -5  632.24   12.30
   2   4  -5  613.94   12.00
  -2  -4   5  624.64   11.60
  -2  -4   5  626.94   11.90
   1   4  -5   17.40    2.30
   1   4  -5   15.50    2.20
   1   4  -5   17.80    2.60
  -1  -4   5   19.80    2.70
  -1  -4   5   21.70    3.30
  -1  -4   5   19.10    2.10
  -1  -4   5   18.80    2.20
  -1  -4   5   18.00    2.30
   0   4  -5    4.30    1.50
   0   4  -5    3.00    1.70
   0   4  -5    1.90    1.70
   0  -4   5    1.70    2.30
   0  -4   5    3.10    1.00
   0  -4   5    3.30    1.70
   0  -4   5    5.10    1.50
   0  -4   5    4.40    1.00
  -1   4  -5   21.60    1.90
  -1   4  -5   22.00    2.30
  -1   4  -5   26.00    3.00
  -1   4  -5   25.60    2.80
  -1   4  -5   25.20    3.40
   1  -4   5   23.50    2.60
   1  -4   5   21.00    3.50
   1  -4   5   19.50    2.20
  -2   4  -5  106.69    4.10
  -2   4  -5  108.39    4.80
  -2   4  -5  111.89    5.90
  -2   4  -5  106.99    6.30
  -2   4  -5  106.39    2.50
   2  -4   5  102.89    4.20
  -3   4  -5  257.57    8.30
  -3   4  -5  255.87    7.40
  -3   4  -5  224.68   13.60
  -3   4  -5  260.07    6.70
  -3   4  -5  258.57    7.80
   3  -4   5  246.68    6.20
  -4   4  -5   33.30    4.60
  -4   4  -5   32.80    5.60
  -4   4  -5   28.50    3.00
  -4   4  -5   29.10    4.00
  -4   4  -5   35.10    3.60
   4  -4   5   31.50    3.60
  -5   4  -5    9.40    3.60
  -5   4  -5    8.30    5.00
  -5   4  -5    7.40    2.70
  -5   4  -5    6.90    1.60
  -5   4  -5   10.00    1.80
  -5   4  -5   12.80    4.20
  -5   4  -5    5.20    1.40
   5  -4   5   10.90    2.50
  -6   4  -5    3.30    3.10
  -6   4  -5    1.50    2.50
  -6   4  -5   -0.80    2.00
   6  -4   5   -0.70    4.60
   6  -4   5   -0.80    2.80
   5   3  -5    2.00    2.90
   5   3  -5    4.00    3.70
  -5  -3   5    4.70    3.40
  -5  -3   5    0.80    3.50
   4   3  -5   54.39    6.20
   4   3  -5   69.99    6.00
  -4  -3   5   47.00    5.20
  -4  -3   5   54.59    5.50
  -4  -3   5   53.09    5.90
   3   3  -5  481.85   10.90
   3   3  -5  476.95   14.50
  -3  -3   5  485.45   10.60
  -3  -3   5  494.25   11.00
  -3  -3   5  489.65   10.60
   2   3  -5    4.50    2.20
   2   3  -5    3.70    2.50
  -2  -3   5    5.60    2.10
  -2  -3   5    5.50    2.20
  -2  -3   5    4.10    2.00
   1   3  -5  398.46    8.10
   1   3  -5  408.46    8.20
  -1  -3   5  401.16    7.80
  -1  -3   5  407.06    7.60
  -1  -3   5  399.36    7.60
  -1  -3   5  401.46    7.90
   0   3  -5  131.19    3.90
   0   3  -5  122.09    3.60
   0   3  -5  126.49    3.20
   0   3  -5  124.79    3.80
   0  -3   5  128.89    2.90
   0  -3   5  126.69    4.00
   0  -3   5  125.09    5.10
   0  -3   5  132.89    3.70
   0  -3   5  125.59    2.90
  -1   3  -5    5.60    1.20
  -1   3  -5    6.50    2.60
  -1   3  -5    5.30    1.60
  -1   3  -5    6.90    1.40
  -1   3  -5    6.60    1.10
   1  -3   5    3.40    1.50
   1  -3   5    5.80    1.30
   1  -3   5    7.20    2.50
  -2   3  -5    5.40    1.60
  -2   3  -5    5.40    1.90
  -2   3  -5    4.40    1.40
  -2   3  -5    4.30    2.90
  -2   3  -5    5.00    2.20
   2  -3   5    3.90    1.70
  -3   3  -5  104.49    6.70
  -3   3  -5  111.39    4.80
  -3   3  -5  107.99    6.60
  -3   3  -5  117.79    4.30
  -3   3  -5  118.89    7.00
   3  -3   5  114.99    4.00
  -4   3  -5   19.90    2.60
  -4   3  -5   23.20    3.10
  -4   3  -5   21.50    3.70
  -4   3  -5   25.20    5.40
  -4   3  -5   25.30    3.60
   4  -3   5   23.70    2.40
  -5   3  -5   21.50    3.90
  -5   3  -5   22.00    2.70
  -5   3  -5   31.00    6.30
  -5   3  -5   18.50    2.00
  -5   3  -5   22.00    3.10
  -5   3  -5   22.20    4.40
  -5   3  -5   22.80    2.50
   5  -3   5   21.70    4.10
   5  -3   5   20.00    2.60
  -6   3  -5    8.50    3.20
  -6   3  -5    9.00    2.10
   6  -3   5   -3.00    4.20
   6  -3   5    7.80    2.70
   6   2  -5   25.80    4.30
   6   2  -5   41.80    5.70
  -6  -2   5   32.30    6.50
   5   2  -5   -4.70    3.30
   5   2  -5    3.40    2.60
   5   2  -5    9.20    3.20
  -5  -2   5    0.80    3.30
  -5  -2   5    0.40    3.20
   4   2  -5    6.60    2.40
   4   2  -5   10.60    3.20
  -4  -2   5    6.50    3.10
  -4  -2   5    6.60    3.10
   3   2  -5  352.26    8.90
   3   2  -5  351.56    9.70
   3   2  -5  348.07    8.80
  -3  -2   5  353.46    9.10
  -3  -2   5  349.17    8.60
  -3  -2   5  337.47    8.60
   2   2  -5  951.50   16.20
  -2  -2   5  974.00   15.90
  -2  -2   5  970.30   15.80
  -2  -2   5  965.60   15.80
   1   2  -5  614.24   10.80
   1   2  -5  604.14   10.60
  -1  -2   5  612.64   10.30
  -1  -2   5  622.54   10.20
  -1  -2   5  605.94   10.20
   0   2  -5  143.69    3.00
   0   2  -5  146.29    3.90
   0   2  -5  141.69    3.70
   0   2  -5  144.39    5.70
   0  -2   5  142.09    5.40
   0  -2   5  141.79    3.20
   0  -2   5  148.89    4.10
   0  -2   5  146.79    3.50
   0  -2   5  145.39    3.20
  -1   2  -5  159.28    4.20
  -1   2  -5  153.58    3.20
  -1   2  -5  156.78    3.30
  -1   2  -5  161.98    5.90
  -1   2  -5  158.08    5.70
  -1   2  -5  159.18    3.70
   1  -2   5  158.28    3.70
   1  -2   5  150.88    5.70
  -2   2  -5  414.46    8.50
  -2   2  -5  420.96   10.30
  -2   2  -5  421.46    7.50
  -2   2  -5  419.46    9.20
  -2   2  -5  421.76    8.90
   2  -2   5  411.76    8.40
  -3   2  -5  307.27    7.40
  -3   2  -5  301.07    9.60
  -3   2  -5  305.67    6.70
  -3   2  -5  316.37    8.20
  -3   2  -5  317.87    8.00
   3  -2   5  292.77    6.70
  -4   2  -5  314.97    5.60
  -4   2  -5  329.97    7.50
  -4   2  -5  324.57    9.40
  -4   2  -5  327.67    7.80
  -4   2  -5  324.27   11.20
  -4   2  -5  335.47    9.40
  -4   2  -5  323.57    5.60
   4  -2   5  336.67    9.10
   4  -2   5  332.07    6.70
  -5   2  -5  197.38    4.80
  -5   2  -5  194.38    5.00
  -5   2  -5  193.98    8.10
  -5   2  -5  193.58   10.20
  -5   2  -5  198.08    8.50
   5  -2   5  197.38    5.30
   5  -2   5  208.38    8.20
  -6   2  -5   -4.40    4.40
  -6   2  -5    1.30    2.10
   6  -2   5    4.50    2.40
   6  -2   5    9.00    4.10
   6   1  -5   16.80    6.60
   6   1  -5   16.00    4.80
  -6  -1   5   23.70    4.70
   5   1  -5   11.50    3.60
   5   1  -5    2.10    2.10
   5   1  -5    5.10    3.50
  -5  -1   5    3.90    3.10
  -5  -1   5   -0.60    3.20
  -5  -1   5    3.40    3.50
   4   1  -5   12.50    3.20
   4   1  -5   16.00    2.50
  -4  -1   5   21.50    3.40
   3   1  -5   35.70    4.50
   3   1  -5   36.80    4.50
   3   1  -5   45.10    4.40
  -3  -1   5   35.00    4.50
  -3  -1   5   32.60    4.20
  -3  -1   5   35.50    4.00
   2   1  -5  355.26    8.90
   2   1  -5  351.66    7.80
  -2  -1   5  354.16    7.60
  -2  -1   5  347.07    7.60
  -2  -1   5  362.36    7.70
   1   1  -5  187.98    5.10
   1   1  -5  181.78    5.00
   1   1  -5  189.18    6.30
  -1  -1   5  180.58    4.70
  -1  -1   5  187.88    4.70
  -1  -1   5  185.58    4.50
   0   1  -5   72.29    2.90
   0   1  -5   69.29    2.90
   0   1  -5   66.69    4.40
   0  -1   5   67.59    3.10
   0  -1   5   70.49    2.20
   0  -1   5   71.09    2.50
   0  -1   5   67.09    2.40
   0  -1   5   67.09    4.40
  -1   1  -5  131.89    3.70
  -1   1  -5  132.49    2.90
  -1   1  -5  126.99    5.10
  -1   1  -5  132.89    5.60
  -1   1  -5  126.19    2.90
  -1   1  -5  134.39    2.90
   1  -1   5  126.39    5.40
   1  -1   5  130.39    3.60
  -2   1  -5 2092.79   30.10
  -2   1  -5 2154.68   31.40
  -2   1  -5 2150.78   32.20
  -2   1  -5 2188.58   31.30
  -2   1  -5 2189.78   33.70
   2  -1   5 2182.18   33.80
   2  -1   5 2186.38   30.10
   2  -1   5 2106.39   31.20
  -3   1  -5    0.90    2.00
  -3   1  -5   -1.50    1.80
  -3   1  -5    0.60    1.20
  -3   1  -5    2.20    3.20
   3  -1   5    1.30    1.90
   3  -1   5    0.80    1.30
  -4   1  -5   25.40    6.20
  -4   1  -5   34.90    5.20
  -4   1  -5   23.80    3.50
  -4   1  -5   23.80    3.00
  -4   1  -5   21.30    1.90
   4  -1   5   26.50    3.30
   4  -1   5   25.30    2.60
   4  -1   5   23.60    3.20
  -5   1  -5   72.99    6.00
  -5   1  -5   73.69    7.80
  -5   1  -5   64.09    3.40
  -5   1  -5   66.49    3.40
  -5   1  -5   71.29    3.30
   5  -1   5   64.29    4.00
   5  -1   5   71.09    5.80
  -6   1  -5    7.50    2.20
  -6   1  -5   10.50    7.50
  -6   1  -5    3.90    2.60
   6  -1   5    2.10    3.80
   6  -1   5    1.40    2.30
  -7   1  -5   38.20    4.10
  -7   1  -5   39.70    4.10
   7  -1   5   41.50    6.30
   6   0  -5   11.60    5.90
   6   0  -5   20.30    4.80
  -6   0   5   10.90    4.10
   5   0  -5    8.10    3.40
   5   0  -5    4.90    2.00
   5   0  -5   12.00    3.60
  -5   0   5    6.90    3.40
  -5   0   5    4.50    3.30
  -5   0   5    5.90    3.10
   4   0  -5    7.00    1.90
   4   0  -5    4.40    3.00
   4   0  -5    9.90    3.00
  -4   0   5    5.10    2.30
  -4   0   5    7.00    3.00
   3   0  -5    3.50    2.40
   3   0  -5    3.90    2.20
   3   0  -5    4.30    1.80
  -3   0   5    3.10    2.30
  -3   0   5    4.40    1.70
   2   0  -5  176.28    6.10
   2   0  -5  187.88    5.50
   2   0  -5  189.58    5.50
  -2   0   5  171.48    3.80
  -2   0   5  180.28    5.30
  -2   0   5  186.08    5.40
   1   0  -5   44.60    3.90
   1   0  -5   41.00    3.00
   1   0  -5   43.60    3.20
  -1   0   5   43.50    2.90
  -1   0   5   39.20    2.60
   0   0  -5  210.68    4.60
   0   0  -5  201.58    6.10
   0   0  -5  202.98    4.60
   0   0   5  202.58    6.50
   0   0   5  214.48    3.50
   0   0   5  211.48    4.30
   0   0   5  207.28    4.20
   0   0   5  197.98    3.80
  -1   0  -5  592.54   12.00
  -1   0  -5  599.14   11.40
  -1   0  -5  595.54    9.00
  -1   0  -5  595.94    9.60
  -1   0  -5  586.94    9.10
   1   0   5  596.04   12.00
   1   0   5  613.44    9.40
   1   0   5  584.64    9.60
   1   0   5  617.54   11.50
  -2   0  -5  100.49    2.20
  -2   0  -5   95.79    2.20
  -2   0  -5   95.99    3.70
  -2   0  -5   96.89    4.30
  -2   0  -5   96.09    4.00
  -2   0  -5   91.79    5.40
   2   0   5   96.29    3.90
   2   0   5   95.19    5.30
   2   0   5   98.29    4.40
   2   0   5   99.39    2.80
  -3   0  -5  866.81   14.70
  -3   0  -5  883.71   15.20
  -3   0  -5  856.61   12.30
  -3   0  -5  837.32   12.30
  -3   0  -5  842.32   14.60
  -3   0  -5  848.82   17.30
   3   0   5  888.21   14.80
   3   0   5  891.71   12.70
   3   0   5  850.51   14.40
   3   0   5  843.52   14.90
  -4   0  -5   98.59    5.40
  -4   0  -5  105.69    5.80
  -4   0  -5   97.89    7.20
  -4   0  -5   91.19    3.10
  -4   0  -5   95.59    3.20
  -4   0  -5   95.59    4.30
   4   0   5   91.19    5.50
   4   0   5  100.29    3.00
   4   0   5   90.39    4.90
  -5   0  -5  142.39    4.60
  -5   0  -5  135.29    4.50
  -5   0  -5  136.89    4.50
   5   0   5  145.19    6.70
   5   0   5  148.79    7.30
   5   0   5  136.59    3.80
  -6   0  -5    3.90    2.20
  -6   0  -5    1.30    2.50
  -6   0  -5    8.30    5.40
  -6   0  -5    6.00    3.20
   6   0   5    3.40    3.60
   6   0   5    4.20    2.90
  -7   0  -5   -5.10    3.40
  -7   0  -5    4.30    3.20
   7   0   5    2.20    4.80
   6  -1  -5   29.80    4.90
   6  -1  -5   33.20    6.50
  -6   1   5   22.10    4.60
   5  -1  -5    1.00    3.20
   5  -1  -5   -2.30    3.00
   5  -1  -5    2.40    4.50
   5  -1  -5    1.60    1.70
  -5   1   5    7.10    3.30
  -5   1   5    7.00    3.40
   4  -1  -5    7.90    1.90
   4  -1  -5    5.20    3.40
   4  -1  -5    9.40    2.90
  -4   1   5   10.70    3.10
  -4   1   5   10.80    2.60
   3  -1  -5   79.59    4.80
   3  -1  -5   80.89    4.60
   3  -1  -5   81.39    4.50
  -3   1   5   72.99    4.70
  -3   1   5   83.29    4.70
  -3   1   5   76.09    3.80
   2  -1  -5    1.50    1.70
   2  -1  -5    0.00    1.80
   2  -1  -5   -1.70    1.30
  -2   1   5   -0.80    1.20
  -2   1   5    1.40    1.70
  -2   1   5    0.70    1.80
   1  -1  -5  362.96    7.20
   1  -1  -5  353.76    7.20
   1  -1  -5  358.16    8.30
  -1   1   5  358.76    7.00
  -1   1   5  362.46    7.10
   0  -1  -5    1.20    1.40
   0  -1  -5    4.00    1.40
   0  -1  -5    2.30    1.40
   0   1   5    2.30    1.30
   0   1   5    2.70    1.20
   0   1   5    1.80    2.50
   0   1   5    2.80    1.00
   0   1   5    1.80    1.50
  -1  -1  -5  268.27    4.90
  -1  -1  -5  268.87    6.90
  -1  -1  -5  264.17    5.00
  -1  -1  -5  271.37    7.60
   1   1   5  272.07    6.90
   1   1   5  263.67    7.50
   1   1   5  262.87    5.40
   1   1   5  276.07    4.40
   1   1   5  268.27    4.40
  -2  -1  -5   21.80    1.70
  -2  -1  -5   20.30    2.50
  -2  -1  -5   24.40    3.10
  -2  -1  -5   22.60    1.80
  -2  -1  -5   21.70    3.20
  -2  -1  -5   24.30    4.10
   2   1   5   26.80    4.10
   2   1   5   20.40    1.70
   2   1   5   20.50    3.20
   2   1   5   20.70    2.80
  -3  -1  -5   92.79    5.80
  -3  -1  -5   92.79    4.60
  -3  -1  -5   85.19    2.60
  -3  -1  -5   90.99    4.20
  -3  -1  -5   92.29    2.70
  -3  -1  -5   90.79    3.90
   3   1   5   88.49    2.30
   3   1   5   94.49    4.20
   3   1   5   85.39    4.30
   3   1   5   90.29    3.70
  -4  -1  -5   60.59    6.20
  -4  -1  -5   71.29    4.10
  -4  -1  -5   67.69    3.00
  -4  -1  -5   67.49    5.20
  -4  -1  -5   66.69    3.00
   4   1   5   67.29    4.20
   4   1   5   63.59    5.00
   4   1   5   67.29    2.10
   4   1   5   67.39    3.90
  -5  -1  -5   66.99    4.00
  -5  -1  -5   71.49    3.70
  -5  -1  -5   67.19    4.00
   5   1   5   68.09    5.30
   5   1   5   68.49    4.10
   5   1   5   73.59    6.10
  -6  -1  -5    0.20    4.80
  -6  -1  -5   -1.40    3.20
  -6  -1  -5    0.50    2.60
  -6  -1  -5    2.10    2.40
   6   1   5   -4.40    3.30
   6   1   5    5.20    3.60
  -7  -1  -5    9.50    3.30
  -7  -1  -5    5.60    3.60
   7   1   5   10.80    4.90
   6  -2  -5    0.10    4.40
   6  -2  -5   14.20    5.90
   6  -2  -5    3.20    4.20
  -6   2   5   11.70    4.70
  -6   2   5   -5.70    3.70
   5  -2  -5    8.50    1.80
   5  -2  -5   12.80    3.50
   5  -2  -5   19.50    5.00
   5  -2  -5   15.60    3.50
  -5   2   5   14.40    3.70
  -5   2   5   20.40    3.70
  -5   2   5   13.00    3.30
   4  -2  -5    6.50    2.80
   4  -2  -5    6.90    3.90
   4  -2  -5    2.60    1.60
   4  -2  -5    6.80    4.80
  -4   2   5    5.80    2.70
  -4   2   5    4.70    2.70
  -4   2   5    6.90    2.80
   3  -2  -5   99.69    4.70
   3  -2  -5  102.69    5.00
   3  -2  -5   99.69    5.00
  -3   2   5  106.49    5.00
  -3   2   5  101.49    5.00
  -3   2   5  102.69    4.40
   2  -2  -5   -1.50    1.60
   2  -2  -5    0.10    1.30
   2  -2  -5   -1.90    1.70
  -2   2   5    0.90    1.60
  -2   2   5   -0.10    1.70
   1  -2  -5   92.09    3.80
   1  -2  -5   89.09    3.70
   1  -2  -5   89.59    4.40
  -1   2   5   90.99    3.70
  -1   2   5   92.39    4.40
  -1   2   5   89.89    3.60
   0  -2  -5   55.89    3.90
   0  -2  -5   60.39    2.80
   0  -2  -5   60.79    2.90
   0   2   5   58.59    2.80
   0   2   5   56.79    3.80
   0   2   5   60.29    1.70
   0   2   5   64.29    4.50
   0   2   5   58.79    2.60
  -1  -2  -5  726.43   11.00
  -1  -2  -5  711.33   11.10
  -1  -2  -5  721.73   13.00
  -1  -2  -5  718.03   13.70
   1   2   5  697.63   11.40
   1   2   5  711.03   10.80
   1   2   5  711.53   13.60
   1   2   5  716.43   10.70
   1   2   5  718.23   12.90
  -2  -2  -5  396.56    9.90
  -2  -2  -5  419.56    8.90
  -2  -2  -5  402.86    6.90
  -2  -2  -5  401.56    6.80
  -2  -2  -5  410.96    7.00
  -2  -2  -5  409.26    6.90
   2   2   5  406.46    6.20
   2   2   5  412.06    8.80
   2   2   5  396.16    8.10
   2   2   5  393.46    9.90
   2   2   5  407.16    6.20
  -3  -2  -5   28.80    3.70
  -3  -2  -5   31.70    4.70
  -3  -2  -5   29.30    2.20
  -3  -2  -5   29.40    2.30
  -3  -2  -5   31.10    3.60
   3   2   5   25.80    2.50
   3   2   5   27.40    3.10
   3   2   5   27.00    3.40
  -4  -2  -5  549.65   11.00
  -4  -2  -5  541.05   14.00
  -4  -2  -5  572.04   12.00
  -4  -2  -5  538.35    9.70
  -4  -2  -5  559.14    9.70
   4   2   5  545.65   10.70
   4   2   5  552.34   11.80
   4   2   5  534.95   10.60
  -5  -2  -5  859.21   14.50
  -5  -2  -5  853.71   14.50
  -5  -2  -5  844.12   14.90
   5   2   5  837.32   14.70
   5   2   5  855.81   17.10
   5   2   5  844.12   16.00
  -6  -2  -5  106.09    6.20
  -6  -2  -5   88.79    6.80
  -6  -2  -5  119.59    9.00
  -6  -2  -5  112.69    6.00
   6   2   5  108.09    7.50
   6   2   5  105.29    7.00
   6   2   5  106.49    4.60
  -7  -2  -5    1.50    3.40
  -7  -2  -5    3.50    3.80
   7   2   5    8.50    4.80
   7   2   5   -1.80    4.20
   6  -3  -5    2.00    4.10
   6  -3  -5    6.80    4.00
   6  -3  -5   -8.40    5.60
  -6   3   5    5.40    5.10
  -6   3   5    2.70    3.90
   5  -3  -5    4.00    4.70
   5  -3  -5    2.00    3.10
   5  -3  -5   -0.60    1.40
  -5   3   5   -3.00    3.10
  -5   3   5    3.60    3.80
  -5   3   5   -1.30    3.10
   4  -3  -5    4.30    1.60
   4  -3  -5    5.70    3.00
   4  -3  -5    3.00    2.90
   4  -3  -5    5.40    3.80
  -4   3   5    8.70    2.90
  -4   3   5    5.00    2.80
  -4   3   5    2.60    2.70
   3  -3  -5   76.89    4.80
   3  -3  -5   70.69    4.30
   3  -3  -5   75.59    4.60
   3  -3  -5   75.49    5.80
  -3   3   5   76.79    4.80
  -3   3   5   73.09    4.70
  -3   3   5   77.09    4.50
   2  -3  -5   -1.60    1.70
   2  -3  -5   -0.70    2.20
   2  -3  -5    0.60    1.40
   2  -3  -5   -0.20    1.80
  -2   3   5   -2.10    1.50
  -2   3   5   -1.90    1.20
  -2   3   5    1.20    1.80
   1  -3  -5   15.80    2.00
   1  -3  -5   21.20    3.50
   1  -3  -5   16.50    2.10
   1  -3  -5   21.80    3.00
  -1   3   5   18.80    2.00
  -1   3   5   20.60    3.20
  -1   3   5   15.00    1.90
  -1   3   5   15.10    2.10
   0  -3  -5   28.30    2.30
   0  -3  -5   28.00    2.70
   0  -3  -5   26.70    3.70
   0  -3  -5   25.70    2.60
   0   3   5   25.00    2.50
   0   3   5   24.60    1.80
   0   3   5   28.50    4.10
   0   3   5   23.90    3.50
   0   3   5   23.80    2.40
  -1  -3  -5 4420.16   61.29
  -1  -3  -5 4576.34   61.29
  -1  -3  -5 4552.24   63.89
  -1  -3  -5 4552.74   60.39
  -1  -3  -5 4590.44   63.39
   1   3   5 4437.86   61.09
   1   3   5 4469.05   63.09
   1   3   5 4454.65   60.49
   1   3   5 4489.75   63.99
   1   3   5 4523.85   61.09
  -2  -3  -5   31.00    3.90
  -2  -3  -5   31.90    2.60
  -2  -3  -5   27.80    4.30
  -2  -3  -5   31.50    2.40
  -2  -3  -5   30.70    2.50
   2   3   5   30.60    4.10
   2   3   5   29.70    3.20
   2   3   5   31.20    3.50
   2   3   5   30.80    2.00
   2   3   5   28.10    2.10
  -3  -3  -5  346.67    7.30
  -3  -3  -5  350.36    8.40
  -3  -3  -5  353.16    6.80
  -3  -3  -5  360.66   10.10
  -3  -3  -5  335.87    6.70
   3   3   5  341.07    5.90
   3   3   5  356.86    8.20
   3   3   5  342.07    6.70
   3   3   5  352.06    8.20
   3   3   5  340.87    6.00
  -4  -3  -5  230.98    6.90
  -4  -3  -5  230.18    5.80
  -4  -3  -5  231.78    5.80
  -4  -3  -5  233.18    7.20
  -4  -3  -5  234.38    9.30
   4   3   5  224.38    4.50
   4   3   5  226.38    6.20
   4   3   5  233.68    7.50
   4   3   5  232.38    6.70
   4   3   5  235.38    4.50
  -5  -3  -5  595.94   11.40
  -5  -3  -5  619.04   11.60
  -5  -3  -5  575.34   16.00
   5   3   5  588.94   12.40
   5   3   5  602.94   13.70
   5   3   5  593.54   11.80
  -6  -3  -5    5.50    3.00
  -6  -3  -5    9.00    5.30
  -6  -3  -5    8.10    3.20
  -6  -3  -5   13.80    3.80
   6   3   5   14.70    3.90
   6   3   5   11.10    4.30
   6   3   5    8.30    2.10
  -7  -3  -5   10.80    3.70
  -7  -3  -5   -4.80    3.60
   7   3   5    2.00    4.70
   7   3   5    2.30    4.30
   6  -4  -5  116.49   11.20
   6  -4  -5  113.49    7.60
   6  -4  -5  115.89    8.30
   6  -4  -5  106.19    8.10
  -6   4   5  110.59    7.60
  -6   4   5  126.49   12.50
   5  -4  -5   34.00    4.10
   5  -4  -5   34.70    5.70
  -5   4   5   32.90    4.20
  -5   4   5   31.70    3.80
   4  -4  -5   14.10    4.20
   4  -4  -5    7.90    1.80
   4  -4  -5   10.60    2.90
   4  -4  -5    5.90    2.80
  -4   4   5    7.80    2.80
  -4   4   5    8.90    3.00
  -4   4   5   12.30    3.20
   3  -4  -5  388.36    8.90
   3  -4  -5  374.56   10.40
   3  -4  -5  378.26    8.80
   3  -4  -5  393.86    8.90
  -3   4   5  390.56    8.90
  -3   4   5  378.86    8.50
  -3   4   5  398.56    9.20
   2  -4  -5 1534.15   23.50
   2  -4  -5 1558.84   24.40
   2  -4  -5 1558.64   23.40
   2  -4  -5 1530.55   24.00
  -2   4   5 1529.95   23.10
  -2   4   5 1522.15   23.30
  -2   4   5 1463.45   24.80
  -2   4   5 1544.25   24.00
   1  -4  -5    4.50    1.70
   1  -4  -5    7.50    1.70
   1  -4  -5    6.40    2.00
   1  -4  -5    7.90    1.90
  -1   4   5    6.90    1.70
  -1   4   5    7.60    1.90
  -1   4   5    5.50    1.50
  -1   4   5    5.60    1.30
   0  -4  -5  222.98    4.60
   0  -4  -5  222.18    5.30
   0  -4  -5  222.38    6.70
   0  -4  -5  211.58    5.30
   0  -4  -5  220.28    4.60
   0   4   5  214.58    5.10
   0   4   5  224.88    5.30
   0   4   5  228.38    6.50
   0   4   5  224.38    6.90
   0   4   5  222.48    4.60
  -1  -4  -5   29.10    4.20
  -1  -4  -5   23.10    2.60
  -1  -4  -5   31.60    4.20
  -1  -4  -5   26.90    2.20
  -1  -4  -5   23.90    2.60
   1   4   5   25.80    2.60
   1   4   5   21.70    2.30
   1   4   5   20.90    3.70
   1   4   5   26.20    2.40
   1   4   5   24.30    3.70
  -2  -4  -5  263.27    7.50
  -2  -4  -5  255.47    7.90
  -2  -4  -5  268.97    5.60
  -2  -4  -5  259.57    5.70
  -2  -4  -5  253.17    5.70
   2   4   5  266.67    6.60
   2   4   5  260.27    7.80
   2   4   5  265.27    7.20
   2   4   5  264.17    5.50
   2   4   5  259.37    5.30
  -3  -4  -5   95.69    3.80
  -3  -4  -5   93.19    3.70
  -3  -4  -5   97.69    4.30
  -3  -4  -5   92.49    5.90
  -3  -4  -5   94.49    5.30
   3   4   5   93.09    3.20
   3   4   5   97.59    4.80
   3   4   5   93.39    3.20
   3   4   5   89.39    3.20
   3   4   5   93.49    4.70
  -4  -4  -5    3.90    3.00
  -4  -4  -5    2.90    2.10
  -4  -4  -5    3.60    2.00
  -4  -4  -5    4.10    3.70
  -4  -4  -5    2.60    2.00
   4   4   5    2.00    1.70
   4   4   5    2.00    1.60
   4   4   5    2.00    1.50
   4   4   5    2.50    2.00
   4   4   5    3.10    2.30
  -5  -4  -5  461.15   10.10
  -5  -4  -5  453.95   14.10
  -5  -4  -5  472.75   10.20
  -5  -4  -5  476.65   11.50
   5   4   5  476.55    8.50
   5   4   5  484.35   10.90
   5   4   5  470.15   10.60
   5   4   5  469.15   11.90
   5   4   5  468.85    8.50
  -6  -4  -5    7.60    3.30
  -6  -4  -5    5.10    3.50
  -6  -4  -5   16.00    5.90
  -6  -4  -5    1.50    3.00
   6   4   5    7.10    3.80
   6   4   5    7.60    1.90
   6   4   5    4.30    1.70
   6   4   5    6.00    2.20
  -7  -4  -5   15.80    3.90
   7   4   5   18.40    4.80
   7   4   5   15.10    5.10
   5  -5  -5  121.09    6.90
   5  -5  -5  139.89    9.70
   5  -5  -5  112.09    6.60
  -5   5   5  113.19    6.90
  -5   5   5  117.89    7.10
  -5   5   5  124.79    7.90
   4  -5  -5    9.10    2.90
   4  -5  -5    9.10    2.80
   4  -5  -5   12.80    4.10
   4  -5  -5    5.40    1.80
  -4   5   5    6.30    2.70
  -4   5   5   11.50    3.20
  -4   5   5    8.70    3.10
  -4   5   5    5.00    2.50
   3  -5  -5   82.19    4.90
   3  -5  -5   76.09    4.90
   3  -5  -5   87.29    4.80
   3  -5  -5   74.49    6.20
  -3   5   5   81.89    4.90
  -3   5   5   88.59    5.10
  -3   5   5   78.69    4.80
  -3   5   5   73.89    4.40
   2  -5  -5   23.90    4.10
   2  -5  -5   22.50    3.10
   2  -5  -5   26.70    4.70
   2  -5  -5   26.50    3.40
  -2   5   5   26.00    3.10
  -2   5   5   26.40    3.50
  -2   5   5   26.00    3.40
  -2   5   5   28.00    3.40
   1  -5  -5  103.29    4.10
   1  -5  -5  101.09    5.00
   1  -5  -5   97.09    4.10
   1  -5  -5   93.99    3.90
  -1   5   5   95.09    3.60
  -1   5   5   98.69    4.70
  -1   5   5  102.59    4.10
  -1   5   5   99.29    3.90
   0  -5  -5   77.79    2.90
   0  -5  -5   73.79    3.50
   0  -5  -5   82.39    3.60
   0  -5  -5   77.59    3.10
   0  -5  -5   80.19    5.00
   0   5   5   73.69    3.00
   0   5   5   75.89    4.80
   0   5   5   73.89    3.50
   0   5   5   76.39    3.40
   0   5   5   77.29    4.60
  -1  -5  -5  986.10   15.80
  -1  -5  -5 1010.30   15.60
  -1  -5  -5  996.30   17.70
  -1  -5  -5 1004.30   15.10
   1   5   5  994.60   15.50
   1   5   5  982.30   15.20
   1   5   5  994.70   15.60
   1   5   5  969.70   17.40
   1   5   5 1011.10   17.50
  -2  -5  -5  120.99    5.90
  -2  -5  -5  118.59    5.60
  -2  -5  -5  126.29    2.90
  -2  -5  -5  126.59    4.10
  -2  -5  -5  122.89    4.00
  -2  -5  -5  114.29    4.10
   2   5   5  111.89    4.00
   2   5   5  113.09    5.40
   2   5   5  113.89    3.90
   2   5   5  118.09    3.70
   2   5   5  131.09    5.50
  -3  -5  -5   34.50    3.70
  -3  -5  -5   28.80    4.80
  -3  -5  -5   29.00    4.80
  -3  -5  -5   30.90    3.30
  -3  -5  -5   33.90    3.10
   3   5   5   28.40    2.40
   3   5   5   30.20    3.80
   3   5   5   32.40    2.70
   3   5   5   30.80    4.20
   3   5   5   26.80    2.80
  -4  -5  -5   14.60    3.00
  -4  -5  -5   14.50    2.80
  -4  -5  -5   12.40    4.50
  -4  -5  -5   13.90    2.70
  -4  -5  -5   18.40    2.70
   4   5   5   16.20    3.20
   4   5   5   16.00    2.10
   4   5   5   17.20    2.30
   4   5   5   16.60    2.50
   4   5   5   11.60    2.40
  -5  -5  -5    6.30    5.00
  -5  -5  -5    9.80    4.90
  -5  -5  -5    2.80    2.70
  -5  -5  -5    4.20    3.30
   5   5   5    4.60    2.70
   5   5   5    5.50    3.20
   5   5   5    7.40    2.10
   5   5   5    5.70    2.20
   5   5   5    6.60    2.70
  -6  -5  -5   34.60    4.30
  -6  -5  -5   44.60    5.40
  -6  -5  -5   40.00    6.90
  -6  -5  -5   31.80    4.50
   6   5   5   36.00    4.70
   6   5   5   31.90    3.70
   6   5   5   36.90    4.30
   6   5   5   29.30    7.80
   6   5   5   26.60    4.30
  -7  -5  -5   13.00    4.30
   7   5   5    3.30    4.90
   7   5   5    8.60    4.50
   5  -6  -5  108.19    7.10
   5  -6  -5  116.09    6.70
   5  -6  -5  105.99   10.00
  -5   6   5  100.59    8.10
  -5   6   5  133.09    7.60
  -5   6   5  112.59    7.00
   4  -6  -5   20.60    4.70
   4  -6  -5   16.50    3.10
   4  -6  -5   15.30    3.50
   4  -6  -5   11.20    2.20
   4  -6  -5   17.30    3.30
  -4   6   5   14.00    3.70
  -4   6   5   17.20    3.10
  -4   6   5   10.20    3.20
  -4   6   5   20.10    3.10
   3  -6  -5    1.90    2.60
   3  -6  -5   -2.00    2.10
   3  -6  -5   -0.40    1.90
   3  -6  -5   -3.80    3.00
   3  -6  -5    1.30    2.50
  -3   6   5   -3.40    2.30
  -3   6   5    0.40    1.50
  -3   6   5    0.20    2.00
   2  -6  -5   75.69    5.20
   2  -6  -5   75.09    4.40
   2  -6  -5   76.99    5.00
   2  -6  -5   71.59    4.10
  -2   6   5   69.69    4.40
  -2   6   5   76.79    4.30
  -2   6   5   73.39    4.60
  -2   6   5   76.49    4.20
   1  -6  -5  187.58    5.40
   1  -6  -5  196.78    7.00
   1  -6  -5  192.98    5.60
   1  -6  -5  190.88    5.50
   1  -6  -5  194.88    5.50
  -1   6   5  194.18    5.30
  -1   6   5  192.48    5.50
  -1   6   5  196.28    6.50
  -1   6   5  192.68    5.70
   0  -6  -5    5.40    1.70
   0  -6  -5    7.80    1.50
   0  -6  -5    5.40    2.10
   0  -6  -5    8.90    1.90
   0  -6  -5    5.50    1.90
   0   6   5    4.30    1.80
   0   6   5    4.90    1.70
   0   6   5    7.40    2.70
   0   6   5    3.70    1.80
   0   6   5    5.30    1.50
   0   6   5    6.40    1.50
  -1  -6  -5   12.10    2.40
  -1  -6  -5   14.80    2.00
  -1  -6  -5   14.20    2.10
  -1  -6  -5   19.80    2.60
  -1  -6  -5   12.30    1.80
   1   6   5   12.70    2.20
   1   6   5   14.50    1.90
   1   6   5   13.60    1.90
   1   6   5   14.10    2.00
   1   6   5   14.50    2.80
   1   6   5   13.80    1.70
  -2  -6  -5  173.28    3.70
  -2  -6  -5  176.38    6.60
  -2  -6  -5  178.28    5.20
  -2  -6  -5  174.98    5.20
  -2  -6  -5  173.58    7.20
  -2  -6  -5  179.38    5.20
   2   6   5  176.28    4.90
   2   6   5  176.88    5.00
   2   6   5  167.08    5.10
   2   6   5  175.48    6.60
   2   6   5  165.08    6.30
  -3  -6  -5   49.70    5.40
  -3  -6  -5   57.39    4.10
  -3  -6  -5   52.69    5.70
  -3  -6  -5   50.69    3.80
  -3  -6  -5   50.79    4.30
   3   6   5   46.80    3.30
   3   6   5   47.10    4.90
   3   6   5   51.79    4.60
   3   6   5   52.89    3.60
  -4  -6  -5  104.09    6.00
  -4  -6  -5  109.59    5.30
  -4  -6  -5  104.49    7.60
  -4  -6  -5  109.89    5.20
   4   6   5  106.79    6.40
   4   6   5  103.99    4.60
   4   6   5   98.89    4.90
   4   6   5  101.99    4.50
   4   6   5  102.19    6.60
  -5  -6  -5  195.28   10.10
  -5  -6  -5  190.08    8.00
  -5  -6  -5  181.88    7.00
  -5  -6  -5  195.48    7.10
   5   6   5  195.38    6.10
   5   6   5  182.98    6.10
   5   6   5  195.78    8.10
   5   6   5  184.48    6.80
   5   6   5  195.08    8.10
  -6  -6  -5   17.10    3.90
  -6  -6  -5   21.20    4.00
  -6  -6  -5   23.80    6.50
  -6  -6  -5   13.60    3.80
   6   6   5   17.20    4.20
   6   6   5   18.40    3.40
   6   6   5   24.00    3.30
   6   6   5   22.50    3.10
   7   6   5   12.00    5.90
   7   6   5    7.30    5.40
   5  -7  -5   11.00    3.60
   5  -7  -5   10.10    5.40
   5  -7  -5    5.10    3.80
  -5   7   5    7.20    3.60
  -5   7   5    4.10    3.40
   4  -7  -5    6.20    3.20
   4  -7  -5    6.00    4.10
   4  -7  -5    3.70    3.10
   4  -7  -5   -2.50    4.40
  -4   7   5    3.60    2.80
  -4   7   5   -1.40    1.70
  -4   7   5   -1.80    2.90
  -4   7   5   -2.70    2.60
  -4   7   5   -0.50    4.10
   3  -7  -5   68.59    4.90
   3  -7  -5   62.49    5.50
   3  -7  -5   67.49    5.40
   3  -7  -5   62.59    6.20
   3  -7  -5   60.79    4.60
  -3   7   5   67.89    5.10
  -3   7   5   68.89    4.80
  -3   7   5   77.19    5.30
  -3   7   5   67.59    4.70
   2  -7  -5   49.70    5.40
   2  -7  -5   50.29    4.10
   2  -7  -5   43.10    4.10
   2  -7  -5   41.20    4.60
   2  -7  -5   43.00    4.80
  -2   7   5   47.10    4.30
  -2   7   5   41.50    4.10
  -2   7   5   44.20    4.10
  -2   7   5   48.20    4.70
   1  -7  -5   11.90    2.30
   1  -7  -5   12.60    2.30
   1  -7  -5    9.50    2.60
   1  -7  -5    8.30    2.40
   1  -7  -5   11.20    2.40
  -1   7   5   10.10    2.30
  -1   7   5   11.70    2.20
  -1   7   5   10.90    2.40
  -1   7   5    8.10    2.10
   0  -7  -5   32.10    5.20
   0  -7  -5   30.30    3.90
   0  -7  -5   27.40    3.30
   0  -7  -5   21.10    2.90
   0  -7  -5   27.30    3.30
   0   7   5   32.60    4.50
   0   7   5   23.50    3.00
   0   7   5   21.40    2.80
   0   7   5   24.90    4.10
   0   7   5   26.30    3.00
  -1  -7  -5  109.69    4.40
  -1  -7  -5  106.99    4.20
  -1  -7  -5  104.09    6.50
  -1  -7  -5  107.39    5.00
   1   7   5   97.29    4.10
   1   7   5   98.59    3.30
   1   7   5   97.29    5.00
   1   7   5  106.79    4.40
   1   7   5  102.79    4.30
   1   7   5  101.59    5.80
  -2  -7  -5  134.39    5.00
  -2  -7  -5  141.59    6.30
  -2  -7  -5  141.09    5.10
  -2  -7  -5  135.59    5.00
  -2  -7  -5  135.69    3.70
  -2  -7  -5  130.59    7.20
   2   7   5  122.69    5.70
   2   7   5  128.89    5.70
   2   7   5  132.89    4.70
   2   7   5  143.49    6.60
   2   7   5  125.19    4.90
  -3  -7  -5   12.60    2.50
  -3  -7  -5   10.00    3.70
  -3  -7  -5   13.00    2.70
  -3  -7  -5    9.80    1.30
  -3  -7  -5    9.70    2.80
  -3  -7  -5    7.40    2.80
   3   7   5   12.10    2.80
   3   7   5   11.00    2.30
   3   7   5   12.10    2.40
   3   7   5    6.90    2.40
  -4  -7  -5   54.69    4.90
  -4  -7  -5   55.49    6.60
  -4  -7  -5   52.09    5.50
   4   7   5   47.40    5.80
   4   7   5   50.39    4.20
   4   7   5   48.80    5.40
   4   7   5   50.59    4.20
  -5  -7  -5    3.80    5.10
  -5  -7  -5    2.50    2.90
  -5  -7  -5    2.30    3.10
  -5  -7  -5   -4.80    2.90
   5   7   5    0.10    3.10
   5   7   5    2.20    2.40
   5   7   5   -1.50    2.70
   5   7   5    0.70    2.50
  -6  -7  -5   -1.40    6.00
  -6  -7  -5    7.70    3.70
   6   7   5    1.20    3.80
   6   7   5   13.90    3.40
   6   7   5    6.20    4.50
   6   7   5    2.90    3.10
   5  -8  -5    2.50    5.30
   5  -8  -5    5.70    3.80
   5  -8  -5    0.30    3.60
  -5   8   5   -5.20    3.50
  -5   8   5    0.70    3.50
   4  -8  -5   36.20    4.00
   4  -8  -5   31.10    4.20
   4  -8  -5   38.40    5.30
  -4   8   5   40.20    4.30
  -4   8   5   35.10    3.90
  -4   8   5   39.20    5.30
  -4   8   5   33.10    4.20
   3  -8  -5   67.69    5.70
   3  -8  -5   71.79    4.90
   3  -8  -5   72.69    6.60
   3  -8  -5   69.89    5.00
  -3   8   5   67.39    5.60
  -3   8   5   73.79    5.40
  -3   8   5   71.89    5.20
  -3   8   5   75.49    5.40
   2  -8  -5    9.10    3.00
   2  -8  -5    6.70    2.40
   2  -8  -5    5.80    2.70
   2  -8  -5    4.10    2.70
   2  -8  -5   10.00    2.70
  -2   8   5    5.60    2.30
  -2   8   5    4.90    3.10
  -2   8   5    7.10    2.40
  -2   8   5    7.10    2.70
   1  -8  -5    2.90    2.10
   1  -8  -5    8.30    2.70
   1  -8  -5    3.20    2.10
   1  -8  -5    4.40    2.40
   1  -8  -5    2.80    2.20
  -1   8   5    7.10    2.30
  -1   8   5    2.70    2.10
  -1   8   5    3.80    2.40
  -1   8   5    5.90    2.10
  -1   8   5    5.80    2.60
   0  -8  -5    0.50    2.60
   0  -8  -5   -0.90    2.00
   0  -8  -5   -0.90    2.10
   0  -8  -5    0.00    1.80
   0  -8  -5   -0.90    2.10
   0   8   5   -1.10    1.70
   0   8   5   -1.50    1.70
   0   8   5    0.50    2.10
   0   8   5   -0.90    2.60
   0   8   5    0.70    2.00
   0   8   5    1.80    2.00
  -1  -8  -5   58.19    4.10
  -1  -8  -5   63.79    6.90
  -1  -8  -5   54.89    3.40
  -1  -8  -5   56.59    4.10
  -1  -8  -5   60.89    4.30
   1   8   5   54.49    4.40
   1   8   5   58.99    4.00
   1   8   5   55.19    5.70
   1   8   5   63.09    4.30
   1   8   5   60.09    3.30
   1   8   5   54.59    4.10
  -2  -8  -5   23.10    2.10
  -2  -8  -5   31.80    3.90
  -2  -8  -5   32.00    4.70
  -2  -8  -5   27.70    3.10
  -2  -8  -5   16.50    3.30
  -2  -8  -5   18.50    3.40
   2   8   5   20.30    2.80
   2   8   5   23.80    2.70
   2   8   5   15.50    2.70
   2   8   5   23.50    2.80
   2   8   5   26.50    3.70
  -3  -8  -5    0.00    2.40
  -3  -8  -5   -1.20    2.40
  -3  -8  -5   -0.90    2.50
  -3  -8  -5    0.90    1.40
  -3  -8  -5    1.00    3.50
   3   8   5    1.30    2.40
   3   8   5   -0.50    2.10
   3   8   5   -4.50    2.20
   3   8   5    3.30    2.20
  -4  -8  -5   -0.20    2.60
  -4  -8  -5    3.20    2.70
  -4  -8  -5    2.50    4.30
  -4  -8  -5    1.60    2.90
   4   8   5   -1.60    2.40
   4   8   5    2.80    2.40
   4   8   5    3.60    2.90
   4   8   5   -0.60    2.40
  -5  -8  -5  220.58    8.20
  -5  -8  -5  217.58    8.60
  -5  -8  -5  217.68   10.80
  -5  -8  -5  210.58    8.00
   5   8   5  203.18    7.00
   5   8   5  191.38    9.00
   5   8   5  210.08    7.40
   5   8   5  202.78    9.40
  -6  -8  -5    8.70    6.70
  -6  -8  -5   10.80    4.10
   6   8   5    7.90    3.90
   6   8   5    3.90    3.40
   6   8   5   -0.30    4.10
   6   8   5    6.30    3.60
   4  -9  -5    0.40    3.50
   4  -9  -5   11.70    3.50
   4  -9  -5   12.90    3.80
   4  -9  -5   14.60    5.00
  -4   9   5   -1.00    3.40
  -4   9   5   10.40    3.40
  -4   9   5   10.20    2.40
   3  -9  -5    7.80    3.80
   3  -9  -5    6.90    3.30
   3  -9  -5    7.40    3.00
   3  -9  -5    5.40    2.70
  -3   9   5    8.70    2.80
  -3   9   5    5.20    2.40
  -3   9   5    6.60    3.00
  -3   9   5   10.00    2.90
   2  -9  -5    3.10    2.50
   2  -9  -5    3.60    3.00
   2  -9  -5    3.50    2.50
   2  -9  -5    1.20    2.70
  -2   9   5    0.10    2.30
  -2   9   5    2.60    2.40
  -2   9   5    0.50    2.30
  -2   9   5    2.20    2.50
  -2   9   5   -2.80    3.00
   1  -9  -5   18.60    2.90
   1  -9  -5   15.30    2.70
   1  -9  -5   14.10    3.30
   1  -9  -5   13.50    2.90
   1  -9  -5   18.50    3.00
  -1   9   5   16.60    2.70
  -1   9   5   16.30    3.00
  -1   9   5   17.20    2.70
  -1   9   5   20.90    3.40
   0  -9  -5    5.90    2.50
   0  -9  -5    3.90    3.00
   0  -9  -5    6.20    2.50
   0  -9  -5   10.50    2.50
   0  -9  -5    5.00    2.20
   0   9   5    6.80    2.40
   0   9   5    5.40    2.60
   0   9   5    9.40    2.50
   0   9   5    5.10    2.40
   0   9   5    9.20    2.50
   0   9   5    6.20    3.00
  -1  -9  -5 1611.44   25.40
  -1  -9  -5 1586.44   23.90
  -1  -9  -5 1593.54   25.00
  -1  -9  -5 1621.34   25.10
   1   9   5 1578.64   25.30
   1   9   5 1623.24   25.40
   1   9   5 1595.44   24.20
   1   9   5 1561.84   25.70
   1   9   5 1598.94   25.20
   1   9   5 1633.74   28.10
  -2  -9  -5  717.23   12.10
  -2  -9  -5  742.33   14.00
  -2  -9  -5  744.03   14.90
   2   9   5  736.33   14.20
   2   9   5  747.33   14.00
   2   9   5  734.53   13.80
   2   9   5  714.23   14.40
   2   9   5  754.42   18.70
  -3  -9  -5    2.50    1.60
  -3  -9  -5    3.10    3.60
  -3  -9  -5    3.00    2.60
  -3  -9  -5   -5.10    2.50
   3   9   5    3.20    2.40
   3   9   5   -0.10    2.60
   3   9   5    0.80    2.70
   3   9   5   -1.50    2.30
  -4  -9  -5   11.10    4.80
  -4  -9  -5    7.10    3.10
  -4  -9  -5    9.10    3.30
  -4  -9  -5    2.00    3.00
   4   9   5    7.60    2.90
   4   9   5    8.50    3.40
  -5  -9  -5  124.39    7.30
  -5  -9  -5  147.69   10.00
  -5  -9  -5  133.59    7.70
   5   9   5  121.69    8.50
   5   9   5  122.29    6.50
   5   9   5  128.79    8.20
   5   9   5  139.39    6.70
  -6  -9  -5   10.90    7.60
  -6  -9  -5    8.80    4.10
   6   9   5    1.20    3.60
   6   9   5    1.60    4.00
   6   9   5   -0.80    4.60
   6   9   5   -3.80    3.80
   6   9   5    4.70    4.10
   4 -10  -5    3.90    3.60
   4 -10  -5    1.70    3.50
   4 -10  -5  -11.30    4.80
   4 -10  -5   -3.10    3.50
  -4  10   5    6.20    3.70
  -4  10   5    2.60    2.90
  -4  10   5    0.00    3.30
   3 -10  -5    3.20    3.20
   3 -10  -5    0.70    4.00
   3 -10  -5    3.20    3.10
   3 -10  -5   10.30    5.30
  -3  10   5    8.00    3.30
  -3  10   5    4.90    2.90
  -3  10   5    3.30    2.60
  -3  10   5    0.60    2.90
   2 -10  -5    3.00    2.90
   2 -10  -5    8.90    2.80
   2 -10  -5    3.90    3.00
  -2  10   5    6.10    3.00
  -2  10   5    5.60    2.80
  -2  10   5   12.20    3.00
  -2  10   5    7.90    3.60
  -2  10   5    7.50    2.80
   1 -10  -5   86.19    5.40
   1 -10  -5   82.69    5.20
   1 -10  -5   83.69    5.00
   1 -10  -5   83.19    5.50
  -1  10   5   81.99    5.10
  -1  10   5   85.59    6.70
  -1  10   5   88.69    5.90
  -1  10   5   80.99    5.40
  -1  10   5   90.79    5.50
   0 -10  -5   55.39    4.40
   0 -10  -5   60.19    4.80
   0 -10  -5   60.99    5.50
   0 -10  -5   53.59    4.90
   0  10   5   57.09    6.60
   0  10   5   49.20    4.70
   0  10   5   61.19    4.80
   0  10   5   60.09    4.70
   0  10   5   57.69    4.60
   0  10   5   58.39    5.70
  -1 -10  -5   32.10    4.30
  -1 -10  -5   30.40    3.40
  -1 -10  -5   33.00    4.70
  -1 -10  -5   30.90    3.00
   1  10   5   33.40    4.60
   1  10   5   32.10    3.90
   1  10   5   33.10    3.60
   1  10   5   29.10    3.90
   1  10   5   22.70    3.50
  -2 -10  -5  130.49    6.30
  -2 -10  -5  139.69    4.90
  -2 -10  -5  144.79    6.50
   2  10   5  143.49    5.40
   2  10   5  147.39    6.20
  -3 -10  -5   50.59    3.40
  -3 -10  -5   51.99    5.70
  -3 -10  -5   45.20    6.00
  -3 -10  -5   56.09    5.50
   3  10   5   56.79    5.60
   3  10   5   48.60    4.90
  -4 -10  -5    2.60    3.20
  -4 -10  -5    6.20    4.70
  -4 -10  -5    1.00    2.60
  -4 -10  -5   -2.50    1.70
  -4 -10  -5   -0.90    3.10
   4  10   5    1.10    2.90
   4  10   5    1.50    2.90
   4  10   5    3.20    3.00
   4  10   5   -0.20    3.30
  -5 -10  -5    3.60    6.00
  -5 -10  -5    4.90    3.80
   5  10   5    5.90    3.90
   5  10   5    0.00    3.20
   5  10   5   -1.60    3.20
   5  10   5   -2.40    3.30
   3 -11  -5    6.30    3.40
   3 -11  -5    4.50    3.40
   3 -11  -5    0.40    3.30
  -3  11   5    0.80    4.20
  -3  11   5    6.70    3.30
  -3  11   5    3.30    3.00
  -3  11   5    1.00    3.30
   2 -11  -5    5.30    3.00
   2 -11  -5   12.20    3.20
   2 -11  -5    9.60    3.20
  -2  11   5   12.20    3.10
  -2  11   5    6.90    3.00
  -2  11   5   14.70    3.20
  -2  11   5    6.70    3.20
   1 -11  -5   41.00    4.70
   1 -11  -5   40.90    5.20
   1 -11  -5   30.50    3.50
   1 -11  -5   38.10    3.90
  -1  11   5   38.70    5.30
  -1  11   5   46.90    5.10
  -1  11   5   34.60    4.50
  -1  11   5   30.00    5.10
  -1  11   5   32.20    4.10
  -1  11   5   33.90    4.20
   0 -11  -5    5.80    2.60
   0 -11  -5    5.60    2.80
   0 -11  -5    1.70    2.90
   0 -11  -5    5.60    2.80
   0  11   5   11.10    2.90
   0  11   5    6.80    2.70
   0  11   5    7.70    3.20
   0  11   5    2.20    2.90
   0  11   5    1.60    2.60
   0  11   5    3.60    2.70
  -1 -11  -5   89.39    5.60
  -1 -11  -5   75.69    4.60
  -1 -11  -5   79.59    5.80
   1  11   5   85.09    5.40
   1  11   5   82.69    7.40
   1  11   5   80.19    4.50
   1  11   5   88.89    5.90
   1  11   5   82.99    5.50
  -2 -11  -5   28.90    3.70
  -2 -11  -5   29.70    3.80
  -2 -11  -5   38.20    4.10
  -2 -11  -5   47.50    5.10
   2  11   5   39.40    4.00
   2  11   5   38.30    5.40
   2  11   5   33.60    4.70
  -3 -11  -5   55.79    5.90
  -3 -11  -5   49.50    3.70
  -3 -11  -5   50.29    5.40
  -3 -11  -5   52.09    6.00
   3  11   5   50.39    7.30
   3  11   5   48.80    5.90
   3  11   5   43.60    5.40
   3  11   5   57.79    5.50
  -4 -11  -5   15.50    5.50
  -4 -11  -5   18.70    4.10
  -4 -11  -5   13.00    2.30
  -4 -11  -5    4.70    3.90
   4  11   5   10.50    4.30
   4  11   5   17.80    3.60
   4  11   5   14.10    3.40
   4  11   5    5.30    3.30
  -5 -11  -5   15.90    6.70
  -5 -11  -5   12.30    4.20
   5  11   5    7.60    4.30
   5  11   5    7.40    4.40
   3 -12  -5   13.60    3.60
  -3  12   5    6.60    3.70
  -3  12   5    0.90    3.60
  -3  12   5    3.00    3.40
   2 -12  -5    4.00    3.40
   2 -12  -5    7.50    3.30
  -2  12   5    5.40    4.30
  -2  12   5    3.70    3.20
  -2  12   5   -2.00    3.00
  -2  12   5    1.60    3.20
   1 -12  -5    9.70    2.90
   1 -12  -5   12.00    3.10
   1 -12  -5   18.60    3.50
  -1  12   5    6.40    3.20
  -1  12   5   10.40    3.10
  -1  12   5   16.40    3.60
  -1  12   5    7.90    3.10
  -1  12   5    8.70    3.30
  -1  12   5   10.60    3.90
   0 -12  -5    3.40    2.90
   0 -12  -5    3.90    3.40
   0 -12  -5    0.40    2.90
   0 -12  -5    4.90    3.00
   0  12   5   -0.40    3.10
   0  12   5    8.80    2.70
   0  12   5    4.70    3.50
   0  12   5    2.00    2.80
   0  12   5    2.60    2.90
   0  12   5    3.60    2.90
  -1 -12  -5    6.60    2.90
  -1 -12  -5    5.10    3.10
  -1 -12  -5   10.40    3.50
  -1 -12  -5    4.80    3.10
   1  12   5   10.00    3.30
   1  12   5    3.00    3.10
   1  12   5    6.90    2.50
   1  12   5    9.90    3.30
   1  12   5    2.20    3.00
   1  12   5    6.40    2.60
  -2 -12  -5    8.50    3.50
  -2 -12  -5   -0.90    2.40
  -2 -12  -5   -3.70    2.70
  -2 -12  -5    1.20    2.90
   2  12   5   -1.30    2.60
   2  12   5   -0.90    2.70
   2  12   5   -0.60    2.80
   2  12   5   -4.30    2.80
   2  12   5    1.00    3.20
  -3 -12  -5   18.90    3.90
  -3 -12  -5    8.20    3.50
  -3 -12  -5   12.60    2.50
   3  12   5   11.60    3.60
   3  12   5   15.20    3.60
  -4 -12  -5   19.10    4.40
  -4 -12  -5    6.70    2.50
   4  12   5    4.60    4.30
   4  12   5    9.60    3.90
   2 -13  -5    1.90    3.70
   2 -13  -5   -1.40    3.60
   2 -13  -5    1.40    4.10
  -2  13   5   -4.20    3.40
  -2  13   5   -8.20    4.80
  -2  13   5   -1.20    3.20
  -2  13   5   -4.10    3.30
   1 -13  -5    2.30    3.10
   1 -13  -5   -0.60    3.40
   1 -13  -5    5.50    3.50
  -1  13   5    0.40    3.30
  -1  13   5   -2.00    3.50
  -1  13   5    0.10    4.20
  -1  13   5   -4.80    2.90
  -1  13   5    2.00    3.00
   0 -13  -5   26.00    3.70
   0 -13  -5   31.90    3.90
   0 -13  -5   29.60    4.20
   0  13   5   28.10    4.20
   0  13   5   36.00    4.90
   0  13   5   26.30    3.90
   0  13   5   31.80    3.80
  -1 -13  -5    8.70    3.80
  -1 -13  -5   15.70    3.30
  -1 -13  -5    8.20    3.20
   1  13   5    4.40    3.30
   1  13   5    7.60    3.50
   1  13   5    9.50    4.10
  -2 -13  -5    1.80    2.60
  -2 -13  -5   -1.70    3.60
   2  13   5    1.80    3.20
   2  13   5    3.00    3.50
   2  13   5   -3.70    3.70
  -3 -13  -5    6.10    4.10
  -3 -13  -5    1.00    2.50
   3  13   5   -3.40    4.00
   3  13   5   -1.30    3.70
   3  13   5   -0.80    3.60
  -4 -13  -5   25.10    3.10
   4  13   5   22.90    4.70
   1 -14  -5   -2.60    3.70
   1 -14  -5    3.80    5.30
   1 -14  -5    5.80    4.20
  -1  14   5    6.80    5.00
  -1  14   5   -8.40    3.60
  -1  14   5    1.60    3.80
   0 -14  -5   -1.20    3.30
   0 -14  -5   -3.00    3.90
   0 -14  -5    3.90    4.10
   0  14   5   -5.70    3.50
   0  14   5   -2.10    4.50
   0  14   5    5.00    3.80
  -1 -14  -5   11.50    4.40
  -1 -14  -5   10.00    3.60
   1  14   5    9.80    4.00
   1  14   5    9.70    4.00
  -2 -14  -5   25.10    4.80
  -2 -14  -5   17.60    3.40
   2  14   5   18.70    4.60
   2  14   5   16.30    4.10
   2  10  -6    1.40    4.00
   1  10  -6   42.40    5.00
   1  10  -6   46.40    5.20
  -1 -10   6   48.30    4.90
   0  10  -6    4.00    3.80
   0  10  -6    4.00    3.50
   0  10  -6    8.90    3.80
   0 -10   6   -0.70    3.30
   0 -10   6    6.50    3.10
  -1  10  -6   55.89    7.00
  -1  10  -6   62.49    5.60
  -1  10  -6   58.69    5.50
   1 -10   6   56.29    5.80
   1 -10   6   62.69    6.20
  -2  10  -6    1.40    3.60
  -2  10  -6    1.20    3.10
  -2  10  -6    0.10    4.20
  -2  10  -6   -5.10    2.90
   2 -10   6   -0.90    4.10
   3   9  -6   -6.40    4.30
  -3  -9   6   -6.30    3.80
  -3  -9   6    2.60    4.10
   2   9  -6   -0.30    3.50
   2   9  -6   -3.70    2.40
  -2  -9   6    2.50    3.10
  -2  -9   6    6.10    3.40
  -2  -9   6   -4.00    3.20
  -2  -9   6    1.80    3.40
   1   9  -6   86.19    6.50
   1   9  -6   93.39    7.40
   1   9  -6  121.79    7.10
  -1  -9   6   89.79    4.10
  -1  -9   6   94.99    3.80
  -1  -9   6  100.89    6.40
  -1  -9   6   86.59    6.40
   0   9  -6  120.79    7.10
   0   9  -6  120.99    6.30
   0   9  -6  122.39    6.60
   0  -9   6  121.29    6.60
   0  -9   6  118.39    6.50
  -1   9  -6    0.90    2.90
  -1   9  -6    1.80    2.90
  -1   9  -6    0.80    3.00
   1  -9   6    1.40    3.00
   1  -9   6   -1.70    2.70
  -2   9  -6   12.90    3.90
  -2   9  -6    9.70    2.70
  -2   9  -6    8.10    2.90
  -2   9  -6    4.10    3.30
   2  -9   6   13.30    3.50
  -3   9  -6   48.30    6.90
  -3   9  -6   36.70    4.50
  -3   9  -6   34.90    4.00
  -3   9  -6   46.50    5.60
   3  -9   6   39.50    4.40
   3   8  -6   41.20    5.10
   3   8  -6   54.29    3.70
  -3  -8   6   36.90    6.30
  -3  -8   6   50.79    6.30
  -3  -8   6   31.10    4.20
  -3  -8   6   49.50    6.30
   2   8  -6    9.10    3.30
   2   8  -6    2.50    3.00
   2   8  -6    2.80    2.00
  -2  -8   6    4.10    3.20
  -2  -8   6    6.00    3.10
  -2  -8   6    0.50    3.00
  -2  -8   6    3.10    2.80
  -2  -8   6    0.40    3.00
   1   8  -6   39.40    5.20
   1   8  -6   27.10    3.60
   1   8  -6   28.30    3.80
  -1  -8   6   28.50    2.70
  -1  -8   6   24.90    4.60
  -1  -8   6   32.70    3.80
  -1  -8   6   25.80    3.50
  -1  -8   6   25.80    3.20
   0   8  -6  202.28    7.10
   0   8  -6  182.68    8.50
   0   8  -6  190.78    7.40
   0  -8   6  183.48    7.00
   0  -8   6  184.48    7.00
  -1   8  -6   92.79    6.70
  -1   8  -6   94.49    5.20
  -1   8  -6   92.39    5.90
  -1   8  -6   94.09    4.70
   1  -8   6   96.59    5.80
   1  -8   6   96.89    5.70
  -2   8  -6    0.80    2.30
  -2   8  -6   -1.90    3.10
  -2   8  -6   -4.00    2.50
  -2   8  -6    1.50    1.80
  -2   8  -6   -5.50    3.20
   2  -8   6   -1.00    2.70
  -3   8  -6    4.70    3.50
  -3   8  -6    5.40    1.90
  -3   8  -6    5.00    4.40
  -3   8  -6    3.90    2.80
  -3   8  -6    3.30    3.00
  -3   8  -6    6.10    2.00
   3  -8   6   -0.50    2.90
  -4   8  -6    3.60    3.40
  -4   8  -6    0.30    1.90
  -4   8  -6   -0.50    2.80
  -4   8  -6   14.10    5.80
   4  -8   6    3.90    3.40
   4   7  -6    2.20    4.60
  -4  -7   6   13.90    4.40
   3   7  -6   28.20    2.90
   3   7  -6   23.10    4.40
  -3  -7   6   21.40    3.90
  -3  -7   6   29.40    4.00
  -3  -7   6   22.10    3.80
   2   7  -6    3.80    3.00
   2   7  -6    3.80    1.70
  -2  -7   6    0.10    2.70
  -2  -7   6    1.30    2.70
  -2  -7   6   -0.80    2.70
  -2  -7   6    2.90    2.60
  -2  -7   6    1.30    3.10
   1   7  -6    2.60    2.60
   1   7  -6    1.70    2.70
   1   7  -6    0.60    2.90
  -1  -7   6    0.80    2.00
  -1  -7   6   -2.00    2.30
  -1  -7   6    1.40    1.80
  -1  -7   6   -0.20    2.60
  -1  -7   6    2.20    2.50
   0   7  -6    5.80    2.70
   0   7  -6    8.20    2.60
   0   7  -6    6.00    2.40
   0  -7   6    7.50    2.70
   0  -7   6    6.50    2.50
   0  -7   6    4.80    2.70
  -1   7  -6  130.99    5.90
  -1   7  -6  129.89    5.00
  -1   7  -6  121.39    4.50
  -1   7  -6   91.69    8.60
   1  -7   6  124.09    5.60
   1  -7   6  116.69    5.80
  -2   7  -6   -0.70    3.60
  -2   7  -6    2.20    1.90
  -2   7  -6    0.00    2.80
  -2   7  -6    2.10    1.60
  -2   7  -6    1.00    2.30
  -2   7  -6    7.00    3.20
   2  -7   6    1.50    2.60
  -3   7  -6   10.60    2.70
  -3   7  -6    4.20    2.50
  -3   7  -6    7.40    1.70
  -3   7  -6   13.40    3.70
  -3   7  -6    8.60    3.80
  -3   7  -6   14.90    4.70
  -3   7  -6   11.90    1.80
   3  -7   6   10.10    3.10
  -4   7  -6   19.00    5.80
  -4   7  -6    7.70    3.20
  -4   7  -6    9.90    1.80
  -4   7  -6   11.10    2.80
  -4   7  -6    6.00    3.50
  -4   7  -6   10.20    1.60
   4  -7   6    6.70    3.10
  -5   7  -6   57.39    5.40
  -5   7  -6   55.99    6.30
   5  -7   6   67.29    6.40
   4   6  -6    2.70    4.20
  -4  -6   6   -0.30    3.20
  -4  -6   6    0.60    3.70
   3   6  -6    8.00    3.80
   3   6  -6    8.90    3.50
  -3  -6   6    1.60    3.00
   2   6  -6    8.30    3.10
   2   6  -6    5.20    1.40
   2   6  -6    4.80    3.20
  -2  -6   6    4.00    2.80
  -2  -6   6    5.90    2.70
  -2  -6   6    1.60    2.50
  -2  -6   6    6.70    3.40
  -2  -6   6    4.10    2.50
   1   6  -6   33.20    4.70
   1   6  -6   35.80    4.70
   1   6  -6   29.00    3.20
  -1  -6   6   33.20    3.20
  -1  -6   6   33.20    4.20
  -1  -6   6   32.20    3.40
  -1  -6   6   29.00    3.30
  -1  -6   6   32.90    4.10
   0   6  -6   84.29    4.90
   0   6  -6   82.09    4.30
   0  -6   6   78.29    4.80
   0  -6   6   83.99    4.90
  -1   6  -6   31.70    3.00
  -1   6  -6   34.00    4.10
  -1   6  -6   33.50    3.50
  -1   6  -6   37.80    4.20
   1  -6   6   27.70    3.30
  -2   6  -6   12.70    1.60
  -2   6  -6   12.30    3.50
  -2   6  -6   13.50    3.90
  -2   6  -6   13.00    1.90
  -2   6  -6    9.10    2.80
  -2   6  -6    8.70    2.40
   2  -6   6   11.90    2.80
  -3   6  -6   56.79    2.50
  -3   6  -6   54.69    2.50
  -3   6  -6   53.99    4.80
  -3   6  -6   64.59    6.30
  -3   6  -6   56.89    6.60
  -3   6  -6   58.49    5.80
  -3   6  -6   60.09    5.60
   3  -6   6   55.99    4.70
  -4   6  -6   33.10    3.70
  -4   6  -6   30.50    4.90
  -4   6  -6   42.90    7.60
  -4   6  -6   44.80    6.10
  -4   6  -6   33.30    4.60
   4  -6   6   32.00    3.50
  -5   6  -6   27.00    4.00
  -5   6  -6   17.60    1.80
  -5   6  -6   16.20    2.50
  -5   6  -6   30.40    6.90
   5  -6   6   24.00    3.60
   5   5  -6    0.30    4.40
  -5  -5   6   -3.10    4.20
   4   5  -6    6.30    4.00
  -4  -5   6    5.90    3.60
  -4  -5   6   10.50    3.60
  -4  -5   6    9.40    3.40
   3   5  -6   15.00    3.80
   3   5  -6   17.90    3.80
  -3  -5   6   14.00    3.10
  -3  -5   6    8.90    3.10
   2   5  -6    0.80    2.60
   2   5  -6    6.00    2.90
  -2  -5   6    0.10    2.30
  -2  -5   6    0.90    2.20
  -2  -5   6    0.40    2.30
   1   5  -6   56.69    4.60
   1   5  -6   50.99    4.00
   1   5  -6   57.59    4.90
  -1  -5   6   45.10    3.50
  -1  -5   6   54.79    4.00
  -1  -5   6   54.19    3.50
  -1  -5   6   55.19    4.40
  -1  -5   6   49.99    4.80
   0   5  -6    0.50    2.00
   0   5  -6    0.90    2.10
   0   5  -6    2.60    1.70
   0   5  -6    2.40    1.80
   0  -5   6    1.80    2.70
   0  -5   6    2.60    1.70
   0  -5   6    1.60    2.10
  -1   5  -6   42.90    2.80
  -1   5  -6   45.60    3.70
  -1   5  -6   42.10    3.20
  -1   5  -6   44.30    3.80
   1  -5   6   42.60    4.60
   1  -5   6   41.10    3.40
   1  -5   6   45.80    4.10
  -2   5  -6   40.90    5.20
  -2   5  -6   43.00    2.60
  -2   5  -6   45.10    2.20
  -2   5  -6   39.50    5.30
  -2   5  -6   48.30    5.00
  -2   5  -6   43.60    5.40
  -2   5  -6   49.60    3.90
   2  -5   6   36.40    4.10
  -3   5  -6  217.58    8.40
  -3   5  -6  217.88    7.80
  -3   5  -6  202.18    8.90
  -3   5  -6  220.58    6.70
  -3   5  -6  207.38    7.50
   3  -5   6  208.68    6.30
  -4   5  -6   12.90    2.30
  -4   5  -6   21.90    4.00
  -4   5  -6   16.20    3.40
  -4   5  -6   21.90    4.30
   4  -5   6   17.70    2.90
  -5   5  -6    3.20    1.60
  -5   5  -6    6.20    5.80
  -5   5  -6   -0.80    2.90
  -5   5  -6   -0.60    1.70
   5  -5   6    6.90    2.90
   5   4  -6    1.80    3.80
   5   4  -6    9.90    4.70
  -5  -4   6   -1.20    3.70
   4   4  -6   29.60    4.30
   4   4  -6   29.70    4.10
   4   4  -6   27.80    3.90
  -4  -4   6   36.10    4.20
  -4  -4   6   25.40    4.10
  -4  -4   6   25.40    3.90
   3   4  -6   52.89    5.70
   3   4  -6   52.69    5.60
  -3  -4   6   50.59    5.30
  -3  -4   6   65.09    5.60
  -3  -4   6   49.70    5.20
   2   4  -6   26.00    3.30
   2   4  -6   26.20    3.30
  -2  -4   6   26.30    3.00
  -2  -4   6   28.60    3.10
   1   4  -6    7.90    3.00
   1   4  -6   12.00    2.40
  -1  -4   6   11.40    2.10
  -1  -4   6   14.50    2.60
  -1  -4   6   12.50    2.00
  -1  -4   6    9.10    2.00
  -1  -4   6   13.40    3.40
   0   4  -6  155.38    5.10
   0   4  -6  166.48    4.10
   0   4  -6  166.78    5.10
   0   4  -6  165.18    4.70
   0  -4   6  170.88    5.30
   0  -4   6  160.68    3.30
   0  -4   6  170.78    4.70
   0  -4   6  163.98    6.30
   0  -4   6  168.98    3.30
  -1   4  -6   78.19    3.80
  -1   4  -6   74.99    2.90
  -1   4  -6   75.79    3.30
  -1   4  -6   76.59    3.70
   1  -4   6   77.89    5.00
   1  -4   6   75.29    3.40
   1  -4   6   78.39    4.10
  -2   4  -6    0.40    1.20
  -2   4  -6    2.80    1.60
  -2   4  -6    1.30    2.50
  -2   4  -6    1.00    1.00
  -2   4  -6    1.20    3.30
  -2   4  -6   -0.10    2.10
  -2   4  -6    0.90    1.80
   2  -4   6    2.90    2.10
  -3   4  -6   74.29    5.10
  -3   4  -6   77.79    4.30
  -3   4  -6   71.49    5.80
  -3   4  -6   71.19    6.50
  -3   4  -6   72.29    5.20
   3  -4   6   76.59    4.20
  -4   4  -6    0.40    1.60
  -4   4  -6    2.30    3.30
  -4   4  -6    0.60    4.70
  -4   4  -6    2.70    3.10
  -4   4  -6   -0.10    2.00
   4  -4   6   -1.20    2.20
  -5   4  -6    0.50    1.50
  -5   4  -6    2.00    3.50
  -5   4  -6    2.20    1.50
  -5   4  -6    4.60    5.50
  -5   4  -6    4.50    4.00
  -5   4  -6   -1.90    2.40
   5  -4   6   -2.10    2.40
  -6   4  -6   14.80    3.80
  -6   4  -6   14.50    2.20
   6  -4   6   16.60    3.30
   5   3  -6    0.20    3.40
   5   3  -6    0.30    4.30
  -5  -3   6    9.00    4.10
   4   3  -6   36.90    4.40
   4   3  -6   53.79    6.20
   4   3  -6   24.20    4.40
  -4  -3   6   51.49    5.80
  -4  -3   6   33.60    4.00
   3   3  -6    1.40    2.50
   3   3  -6    0.00    2.70
   3   3  -6    0.00    3.00
  -3  -3   6    1.70    2.80
  -3  -3   6    2.90    2.70
   2   3  -6    4.00    2.50
   2   3  -6   -0.90    2.40
  -2  -3   6    1.80    2.30
  -2  -3   6   -0.20    2.10
  -2  -3   6    2.80    2.20
   1   3  -6   58.39    3.90
   1   3  -6   56.09    4.20
  -1  -3   6   64.49    3.50
  -1  -3   6   58.99    3.40
  -1  -3   6   62.29    5.10
  -1  -3   6   57.69    3.30
  -1  -3   6   55.19    3.80
   0   3  -6  292.17    6.30
   0   3  -6  288.67    5.20
   0   3  -6  284.57    6.10
   0  -3   6  276.77    8.10
   0  -3   6  288.67    5.00
   0  -3   6  291.77    5.90
   0  -3   6  286.77    6.60
   0  -3   6  287.17    5.00
  -1   3  -6  155.88    6.40
  -1   3  -6  154.88    3.70
  -1   3  -6  153.98    4.40
  -1   3  -6  159.28    6.40
  -1   3  -6  157.38    3.90
  -1   3  -6  155.48    4.20
   1  -3   6  149.29    6.20
   1  -3   6  157.28    4.70
   1  -3   6  158.58    4.00
  -2   3  -6   10.50    3.50
  -2   3  -6   10.20    2.20
  -2   3  -6    7.20    1.50
  -2   3  -6    8.10    2.50
   2  -3   6    9.40    2.00
   2  -3   6   10.30    3.30
  -3   3  -6    4.50    2.60
  -3   3  -6   14.50    4.30
  -3   3  -6    5.80    1.80
  -3   3  -6    8.10    3.00
  -3   3  -6    4.90    1.70
   3  -3   6    7.90    2.20
  -4   3  -6  592.74   12.10
  -4   3  -6  618.94   16.00
  -4   3  -6  609.54   13.50
  -4   3  -6  597.94   11.70
  -4   3  -6  605.74   13.80
   4  -3   6  594.14   10.80
  -5   3  -6   29.20    4.70
  -5   3  -6   28.90    2.30
  -5   3  -6   28.40    4.30
  -5   3  -6   36.30    6.50
  -5   3  -6   29.50    2.40
  -5   3  -6   24.90    3.50
  -5   3  -6   27.30    3.20
   5  -3   6   29.30    3.10
  -6   3  -6   12.80    2.10
  -6   3  -6   13.10    3.30
  -6   3  -6   11.70    2.40
   6  -3   6   14.80    3.10
   5   2  -6   -2.80    3.90
   5   2  -6    1.20    3.40
  -5  -2   6   -0.80    3.70
  -5  -2   6   -1.40    3.50
   4   2  -6   72.19    6.20
   4   2  -6   58.69    6.50
  -4  -2   6   67.19    5.60
  -4  -2   6   65.59    6.10
  -4  -2   6   70.79    6.10
   3   2  -6 1323.67   22.30
   3   2  -6 1345.87   23.80
  -3  -2   6 1261.07   23.00
  -3  -2   6 1330.37   21.70
  -3  -2   6 1332.17   21.70
   2   2  -6    8.20    2.50
   2   2  -6    2.10    2.60
   2   2  -6    5.40    2.20
  -2  -2   6    8.60    2.30
  -2  -2   6    6.40    2.30
  -2  -2   6    6.10    2.70
   1   2  -6    0.10    1.70
   1   2  -6   -0.40    1.70
   1   2  -6    0.60    1.90
  -1  -2   6   -0.20    1.60
  -1  -2   6    1.20    1.50
  -1  -2   6    1.60    1.60
   0   2  -6  236.68    5.00
   0   2  -6  241.78    7.60
   0   2  -6  243.48    5.50
   0   2  -6  241.18    5.50
   0  -2   6  241.88    4.60
   0  -2   6  237.28    7.40
   0  -2   6  242.28    5.70
   0  -2   6  246.38    4.80
   0  -2   6  244.58    4.50
  -1   2  -6 1577.54   22.40
  -1   2  -6 1602.54   25.90
  -1   2  -6 1593.24   25.90
  -1   2  -6 1588.64   22.30
  -1   2  -6 1588.14   23.00
   1  -2   6 1563.64   26.00
   1  -2   6 1572.14   23.10
   1  -2   6 1577.94   22.40
  -2   2  -6    0.50    3.10
  -2   2  -6    0.90    1.20
  -2   2  -6    2.50    2.00
  -2   2  -6    1.60    1.80
  -2   2  -6    0.60    1.40
   2  -2   6    1.50    2.80
   2  -2   6    1.60    1.60
  -3   2  -6    1.70    3.80
  -3   2  -6    5.20    3.70
  -3   2  -6    5.90    1.60
  -3   2  -6    5.30    1.60
  -3   2  -6    7.80    2.70
   3  -2   6    7.10    1.90
  -4   2  -6    1.10    1.60
  -4   2  -6    5.70    3.00
  -4   2  -6    5.30    4.40
  -4   2  -6    1.60    2.90
  -4   2  -6    3.90    1.90
   4  -2   6    0.50    1.80
  -5   2  -6   11.60    4.00
  -5   2  -6    8.30    1.80
  -5   2  -6   14.40    5.40
  -5   2  -6   10.10    4.20
  -5   2  -6   15.10    3.60
  -5   2  -6   14.70    1.70
  -5   2  -6   11.50    1.70
   5  -2   6   11.50    2.40
   5  -2   6   13.30    3.60
  -6   2  -6    7.60    2.00
  -6   2  -6    3.90    2.70
  -6   2  -6    1.10    2.20
   6  -2   6   -0.40    2.60
   6  -2   6    4.80    4.20
   5   1  -6    0.60    2.70
   5   1  -6    6.40    3.70
  -5  -1   6   -7.40    3.20
  -5  -1   6    2.40    3.50
   4   1  -6   15.10    3.40
   4   1  -6   10.10    2.60
   4   1  -6   11.70    3.60
  -4  -1   6   10.80    3.20
  -4  -1   6   18.20    3.40
  -4  -1   6   15.20    3.20
   3   1  -6  713.53   15.00
  -3  -1   6  724.43   13.70
  -3  -1   6  730.93   13.70
  -3  -1   6  683.53   13.80
   2   1  -6  227.58    6.50
   2   1  -6  225.08    6.60
   2   1  -6  219.48    7.80
  -2  -1   6  226.08    6.20
  -2  -1   6  224.98    6.10
   1   1  -6    4.80    1.80
   1   1  -6    2.30    1.70
   1   1  -6    4.70    1.90
  -1  -1   6    3.40    1.60
  -1  -1   6    3.90    1.60
  -1  -1   6    2.00    1.40
   0   1  -6    1.70    1.50
   0   1  -6    1.70    1.40
   0   1  -6    0.90    1.50
   0  -1   6    2.30    0.90
   0  -1   6   -1.90    2.30
   0  -1   6    1.50    1.20
   0  -1   6    0.60    1.00
  -1   1  -6   78.39    2.60
  -1   1  -6   79.99    5.20
  -1   1  -6   74.99    3.00
  -1   1  -6   77.39    2.20
  -1   1  -6   74.49    2.50
  -1   1  -6   74.79    4.60
   1  -1   6   74.39    4.80
   1  -1   6   71.69    3.10
  -2   1  -6   79.99    2.60
  -2   1  -6   77.99    1.90
  -2   1  -6   75.29    3.80
  -2   1  -6   76.19    3.90
  -2   1  -6   73.59    4.30
  -2   1  -6   72.59    5.50
   2  -1   6   75.49    3.60
   2  -1   6   77.29    5.20
   2  -1   6   77.49    3.70
  -3   1  -6   33.90    5.60
  -3   1  -6   40.40    4.10
  -3   1  -6   39.30    4.00
  -3   1  -6   37.40    2.70
  -3   1  -6   38.30    3.70
   3  -1   6   37.80    4.00
   3  -1   6   38.90    2.70
  -4   1  -6    0.00    1.50
  -4   1  -6   -1.40    1.00
  -4   1  -6   -1.50    2.90
  -4   1  -6   -2.90    2.70
  -4   1  -6    2.70    4.40
  -4   1  -6    0.00    1.10
   4  -1   6   -2.70    2.10
  -5   1  -6   34.40    2.90
  -5   1  -6   43.10    3.80
  -5   1  -6   38.40    2.70
  -5   1  -6   41.50    7.30
  -5   1  -6   37.50    5.90
  -5   1  -6   48.90    5.90
   5  -1   6   38.10    5.40
   5  -1   6   34.80    3.80
  -6   1  -6    4.90    2.40
  -6   1  -6    7.60    2.20
   6  -1   6    0.80    2.40
   6  -1   6    3.00    3.90
   5   0  -6    1.50    2.40
   5   0  -6   -4.60    3.50
   5   0  -6    5.20    3.90
  -5   0   6    1.90    3.40
  -5   0   6   -3.60    3.90
   4   0  -6    0.60    2.90
   4   0  -6   -3.90    2.00
  -4   0   6   -0.60    2.20
  -4   0   6    2.80    2.90
   3   0  -6    0.60    1.90
   3   0  -6   -0.50    2.50
   3   0  -6    3.50    3.00
  -3   0   6   -0.40    2.50
  -3   0   6    0.40    1.60
  -3   0   6   -2.80    2.40
   2   0  -6   52.39    4.60
   2   0  -6   56.39    4.20
   2   0  -6   52.49    4.00
  -2   0   6   58.39    4.00
   1   0  -6   23.60    3.20
   1   0  -6   24.30    3.70
   1   0  -6   22.60    2.90
  -1   0   6   26.50    2.70
  -1   0   6   24.20    2.40
   0   0  -6  120.59    3.80
   0   0  -6  117.19    5.20
   0   0  -6  121.99    3.80
   0   0   6  123.19    3.30
   0   0   6  123.49    5.70
   0   0   6  122.69    3.40
  -1   0  -6    3.60    2.90
  -1   0  -6    2.50    1.30
  -1   0  -6    0.30    1.10
  -1   0  -6    1.00    1.10
  -1   0  -6    0.60    1.40
   1   0   6    1.40    1.20
   1   0   6    2.20    1.40
   1   0   6    0.80    2.50
  -2   0  -6  163.28    4.70
  -2   0  -6  159.38    3.40
  -2   0  -6  159.98    3.20
  -2   0  -6  161.78    6.80
  -2   0  -6  156.98    5.60
  -2   0  -6  149.59    4.70
  -2   0  -6  152.18    3.20
   2   0   6  151.38    4.70
   2   0   6  159.48    3.80
   2   0   6  153.98    6.50
  -3   0  -6   43.10    3.80
  -3   0  -6   45.10    4.20
  -3   0  -6   48.60    1.90
  -3   0  -6   43.10    7.20
  -3   0  -6   47.60    3.80
  -3   0  -6   45.00    1.80
   3   0   6   47.90    3.90
   3   0   6   44.50    2.40
  -4   0  -6    0.90    1.50
  -4   0  -6    0.90    1.30
  -4   0  -6   -1.40    2.60
  -4   0  -6    0.60    1.20
  -4   0  -6   -0.20    2.50
  -4   0  -6   -2.90    4.20
   4   0   6   -0.20    2.10
   4   0   6    1.30    1.50
   4   0   6   -1.00    2.40
  -5   0  -6    6.30    4.80
  -5   0  -6   -0.10    1.60
  -5   0  -6   -1.30    1.70
  -5   0  -6    2.80    3.20
  -5   0  -6    0.70    1.50
   5   0   6    1.90    2.90
   5   0   6    5.30    1.70
   5   0   6    2.00    2.70
  -6   0  -6   12.40    2.50
  -6   0  -6   10.10    2.90
   6   0   6   12.60    4.00
  -7   0  -6    6.40    4.00
  -7   0  -6   17.10    3.40
   7   0   6   20.00    5.40
   5  -1  -6   -5.80    4.90
   5  -1  -6   11.40    3.40
   5  -1  -6   -3.70    3.50
   5  -1  -6    2.10    2.10
  -5   1   6   -2.10    3.10
  -5   1   6    4.40    3.50
   4  -1  -6    3.70    2.00
   4  -1  -6    7.40    3.10
  -4   1   6    7.20    2.50
  -4   1   6    5.30    3.00
   3  -1  -6   44.00    4.50
   3  -1  -6   48.30    4.80
   3  -1  -6   48.90    4.60
  -3   1   6   48.50    4.60
  -3   1   6   42.00    3.30
  -3   1   6   42.20    4.50
   2  -1  -6   57.79    4.10
   2  -1  -6   55.39    4.30
   2  -1  -6   52.29    3.90
  -2   1   6   53.79    2.50
  -2   1   6   56.69    3.80
   1  -1  -6    3.70    1.60
   1  -1  -6    5.30    1.70
   1  -1  -6    4.50    1.80
  -1   1   6    3.50    1.60
  -1   1   6    3.50    1.60
   0  -1  -6   27.50    3.70
   0  -1  -6   24.50    2.60
   0  -1  -6   23.80    2.80
   0   1   6   28.60    2.20
   0   1   6   25.40    1.80
   0   1   6   27.90    3.90
   0   1   6   28.60    4.20
   0   1   6   27.30    2.50
  -1  -1  -6   15.00    1.60
  -1  -1  -6   16.20    3.20
  -1  -1  -6   12.50    2.00
  -1  -1  -6   14.90    2.00
   1   1   6   11.00    1.90
   1   1   6   17.20    3.20
   1   1   6   15.40    1.40
   1   1   6   14.80    2.10
  -2  -1  -6  147.29    3.40
  -2  -1  -6  152.18    4.10
  -2  -1  -6  146.79    4.80
  -2  -1  -6  152.58    6.70
  -2  -1  -6  148.39    3.40
  -2  -1  -6  149.09    5.50
   2   1   6  152.98    5.50
   2   1   6  144.59    6.40
   2   1   6  142.99    4.60
  -3  -1  -6   12.50    1.90
  -3  -1  -6   13.70    1.50
  -3  -1  -6   14.70    1.70
  -3  -1  -6   12.50    2.30
  -3  -1  -6   16.30    2.40
   3   1   6   14.70    1.40
   3   1   6   14.20    2.40
   3   1   6   12.00    1.90
  -4  -1  -6   -0.90    1.30
  -4  -1  -6   -0.10    2.70
  -4  -1  -6   -0.20    1.50
  -4  -1  -6   -4.70    3.90
  -4  -1  -6    1.20    1.60
   4   1   6    0.90    1.30
   4   1   6    2.60    2.50
   4   1   6   -2.60    1.50
   4   1   6   -0.50    2.00
  -5  -1  -6   57.59    6.00
  -5  -1  -6   57.09    3.40
  -5  -1  -6   57.89    4.40
  -5  -1  -6   63.79    3.70
   5   1   6   64.49    6.00
   5   1   6   58.29    5.10
  -6  -1  -6   23.70    2.90
  -6  -1  -6   20.90    7.50
  -6  -1  -6   15.40    3.10
  -6  -1  -6   26.50    5.70
   6   1   6   15.90    4.00
   6   1   6   15.50    4.30
  -7  -1  -6    8.90    3.50
  -7  -1  -6    7.90    3.70
   7   1   6    1.00    4.70
   5  -2  -6   24.40    5.50
   5  -2  -6   11.30    2.20
   5  -2  -6   12.00    3.50
   5  -2  -6   17.80    4.00
  -5   2   6   22.50    4.10
  -5   2   6   18.90    3.80
   4  -2  -6    1.60    3.90
   4  -2  -6   -4.40    2.70
   4  -2  -6   -1.50    1.70
  -4   2   6    0.10    2.50
  -4   2   6    1.40    2.70
   3  -2  -6    2.10    2.70
   3  -2  -6    3.30    1.90
   3  -2  -6    0.50    2.40
  -3   2   6    6.20    2.60
  -3   2   6    7.10    2.70
  -3   2   6    1.40    1.90
   2  -2  -6   21.30    2.70
   2  -2  -6   22.10    3.80
   2  -2  -6   21.80    2.70
  -2   2   6   22.10    2.50
  -2   2   6   20.00    3.10
  -2   2   6   20.30    2.50
   1  -2  -6  194.18    6.30
   1  -2  -6  194.28    5.30
   1  -2  -6  184.08    5.20
  -1   2   6  189.28    6.30
  -1   2   6  191.48    5.20
  -1   2   6  187.28    5.00
   0  -2  -6  278.17    5.90
   0  -2  -6  268.37    7.40
   0  -2  -6  267.07    5.90
   0   2   6  278.27    7.50
   0   2   6  272.97    5.70
   0   2   6  264.07    8.00
   0   2   6  275.67    5.60
  -1  -2  -6   24.90    2.40
  -1  -2  -6   22.50    3.70
  -1  -2  -6   30.40    4.50
  -1  -2  -6   24.20    2.30
   1   2   6   24.20    2.00
   1   2   6   28.10    3.80
   1   2   6   25.10    1.90
   1   2   6   21.70    2.40
   1   2   6   27.40    3.60
  -2  -2  -6   15.10    2.00
  -2  -2  -6   13.60    2.00
  -2  -2  -6   13.80    2.00
  -2  -2  -6   16.50    2.00
  -2  -2  -6   17.00    3.50
  -2  -2  -6   17.10    1.90
   2   2   6   11.60    1.90
   2   2   6   18.00    3.20
   2   2   6   16.30    2.10
  -3  -2  -6    0.30    5.50
  -3  -2  -6    1.70    1.50
  -3  -2  -6   -0.20    1.10
  -3  -2  -6    0.20    1.30
  -3  -2  -6    2.40    2.20
   3   2   6   -0.50    1.40
   3   2   6    1.50    1.30
   3   2   6   -0.70    1.70
  -4  -2  -6  191.78    7.20
  -4  -2  -6  190.68    4.90
  -4  -2  -6  184.78    9.00
  -4  -2  -6  180.48    4.80
  -4  -2  -6  186.88    6.50
   4   2   6  183.28    5.70
   4   2   6  177.58    6.90
   4   2   6  187.18    6.30
  -5  -2  -6    7.80    2.00
  -5  -2  -6    5.80    3.20
  -5  -2  -6    3.80    1.90
  -5  -2  -6    4.20    2.20
   5   2   6    3.20    2.90
   5   2   6    3.40    2.00
   5   2   6    2.70    2.50
  -6  -2  -6   43.80    4.50
  -6  -2  -6   42.40    5.00
  -6  -2  -6   42.00    5.00
  -6  -2  -6   45.20    7.60
   6   2   6   45.10    5.70
   6   2   6   35.60    4.80
  -7  -2  -6    9.20    3.40
  -7  -2  -6    4.20    3.90
   7   2   6    1.80    4.50
   7   2   6    4.40    4.60
   5  -3  -6   -1.50    1.80
   5  -3  -6   -5.10    3.10
   5  -3  -6    7.90    5.10
   5  -3  -6    0.60    3.50
  -5   3   6    0.50    3.90
  -5   3   6   -1.90    3.40
   4  -3  -6    4.40    2.90
   4  -3  -6   13.90    4.40
   4  -3  -6    7.50    2.00
  -4   3   6   10.60    3.80
  -4   3   6    9.30    3.10
   3  -3  -6  432.26   10.00
   3  -3  -6  428.76    9.80
   3  -3  -6  434.46   11.20
   3  -3  -6  430.46    9.90
  -3   3   6  420.96    9.00
  -3   3   6  422.86   12.90
  -3   3   6  414.56    9.80
   2  -3  -6   21.90    3.10
   2  -3  -6   27.80    3.70
   2  -3  -6   26.90    3.50
   2  -3  -6   28.60    4.00
  -2   3   6   27.20    3.80
  -2   3   6   26.50    3.50
  -2   3   6   30.60    3.60
   1  -3  -6  370.86    7.90
   1  -3  -6  387.56    9.20
   1  -3  -6  382.96    7.90
  -1   3   6  371.26    8.90
  -1   3   6  382.66    7.60
  -1   3   6  387.66    7.80
  -1   3   6  376.46    6.80
   0  -3  -6  576.54   10.20
   0  -3  -6  585.74   11.90
   0  -3  -6  577.24   10.00
   0   3   6  565.64   12.50
   0   3   6  592.44   10.00
   0   3   6  581.34    9.80
   0   3   6  571.84    8.70
   0   3   6  583.64   11.80
  -1  -3  -6  250.67    4.10
  -1  -3  -6  248.88    5.40
  -1  -3  -6  258.47    7.80
  -1  -3  -6  245.58    5.50
  -1  -3  -6  247.08    7.30
   1   3   6  251.57    7.20
   1   3   6  240.38    7.70
   1   3   6  248.28    5.10
   1   3   6  252.77    5.10
  -2  -3  -6   57.09    2.80
  -2  -3  -6   58.89    2.60
  -2  -3  -6   54.39    2.70
  -2  -3  -6   57.39    4.40
  -2  -3  -6   55.69    5.00
   2   3   6   54.79    4.70
   2   3   6   58.49    4.10
   2   3   6   57.29    3.50
   2   3   6   54.89    2.30
   2   3   6   57.39    2.20
  -3  -3  -6    3.40    1.70
  -3  -3  -6    4.30    1.80
  -3  -3  -6    4.40    4.60
  -3  -3  -6    3.90    1.60
  -3  -3  -6    4.70    1.40
   3   3   6    6.10    1.40
   3   3   6    5.00    1.60
   3   3   6    5.50    1.00
   3   3   6    3.60    2.10
  -4  -3  -6  869.11   14.40
  -4  -3  -6  888.81   14.40
  -4  -3  -6  889.61   19.30
  -4  -3  -6  887.01   16.50
  -4  -3  -6  897.51   15.40
   4   3   6  886.61   16.70
   4   3   6  903.31   16.20
   4   3   6  871.61   14.70
  -5  -3  -6  626.24   13.00
  -5  -3  -6  612.14   11.70
  -5  -3  -6  596.34   11.50
  -5  -3  -6  607.94   12.80
   5   3   6  626.14   14.10
   5   3   6  634.04   12.70
   5   3   6  609.14   12.30
  -6  -3  -6   11.50    5.10
  -6  -3  -6    1.50    3.30
  -6  -3  -6    2.10    3.10
  -6  -3  -6    8.90    3.30
   6   3   6    6.00    3.90
   6   3   6    3.80    2.30
   6   3   6    1.40    3.70
  -7  -3  -6    0.30    3.50
  -7  -3  -6   -9.90    3.70
   7   3   6    7.90    4.70
   7   3   6    3.40    4.40
   5  -4  -6    3.40    3.30
   5  -4  -6    0.00    3.50
   5  -4  -6    7.10    5.20
  -5   4   6    3.30    3.50
  -5   4   6    6.60    6.30
   4  -4  -6   45.60    5.50
   4  -4  -6   37.20    5.30
   4  -4  -6   35.30    4.40
  -4   4   6   37.80    4.10
  -4   4   6   33.80    4.00
  -4   4   6   37.40    3.90
   3  -4  -6  119.69    5.70
   3  -4  -6  113.09    7.20
   3  -4  -6  124.89    5.80
   3  -4  -6  116.79    5.80
  -3   4   6  116.79    5.40
  -3   4   6  130.89    6.50
   2  -4  -6   87.69    5.30
   2  -4  -6   88.89    5.10
   2  -4  -6   95.29    4.80
   2  -4  -6   89.39    4.60
  -2   4   6   86.49    3.90
  -2   4   6   90.49    4.90
  -2   4   6   90.19    4.40
  -2   4   6   85.49    4.50
   1  -4  -6   -2.40    1.70
   1  -4  -6   -1.40    1.70
   1  -4  -6    2.20    1.80
   1  -4  -6    1.10    1.60
  -1   4   6   -0.80    1.50
  -1   4   6   -0.10    1.10
  -1   4   6    3.10    1.70
  -1   4   6    0.60    1.50
   0  -4  -6    4.50    1.80
   0  -4  -6    4.20    1.50
   0  -4  -6    6.80    1.80
   0  -4  -6    4.60    1.70
   0   4   6    7.40    2.90
   0   4   6    6.70    1.70
   0   4   6    3.20    1.60
   0   4   6    4.10    1.00
   0   4   6    4.60    1.50
  -1  -4  -6  207.78    5.10
  -1  -4  -6  203.48    5.10
  -1  -4  -6  212.28    4.10
  -1  -4  -6  207.08    6.90
   1   4   6  200.88    7.00
   1   4   6  206.78    4.80
   1   4   6  222.48    4.90
   1   4   6  209.78    6.60
   1   4   6  201.98    4.20
  -2  -4  -6  101.49    3.70
  -2  -4  -6  102.29    5.40
  -2  -4  -6  104.99    3.70
  -2  -4  -6  105.39    3.40
  -2  -4  -6  103.09    5.80
   2   4   6  109.49    5.10
   2   4   6  101.69    5.60
   2   4   6  101.39    3.20
   2   4   6  104.59    4.40
   2   4   6  101.09    3.30
  -3  -4  -6   42.00    3.50
  -3  -4  -6   40.10    4.60
  -3  -4  -6   43.20    3.20
  -3  -4  -6   37.60    2.90
  -3  -4  -6   37.70    6.30
   3   4   6   39.40    4.20
   3   4   6   39.00    5.10
   3   4   6   41.60    2.40
   3   4   6   36.20    2.20
   3   4   6   42.80    4.20
   3   4   6   43.90    2.40
  -4  -4  -6  139.89    8.20
  -4  -4  -6  128.19    4.80
  -4  -4  -6  139.79    5.00
  -4  -4  -6  138.09    5.70
  -4  -4  -6  129.39    6.60
   4   4   6  131.99    3.60
   4   4   6  131.69    6.20
   4   4   6  128.09    4.50
   4   4   6  129.89    6.00
   4   4   6  131.09    3.60
  -5  -4  -6  209.88    6.70
  -5  -4  -6  214.98    7.70
  -5  -4  -6  205.38    7.80
  -5  -4  -6  198.98    6.40
   5   4   6  201.58    6.60
   5   4   6  202.28    4.20
   5   4   6  197.58    8.30
   5   4   6  211.48    7.50
  -6  -4  -6    3.90    3.00
  -6  -4  -6    9.20    3.50
  -6  -4  -6    9.30    3.00
  -6  -4  -6    7.90    5.40
   6   4   6    5.20    3.70
   6   4   6    0.10    2.40
   6   4   6    3.00    3.20
  -7  -4  -6    3.00    3.70
   7   4   6   -3.10    4.50
   7   4   6    0.90    4.50
   5  -5  -6   -2.10    1.80
   5  -5  -6    2.10    5.00
   5  -5  -6    2.80    3.40
   5  -5  -6   11.20    3.80
  -5   5   6    3.60    4.10
  -5   5   6   -1.30    3.50
  -5   5   6    0.90    3.00
   4  -5  -6   18.10    2.50
   4  -5  -6   26.70    4.90
   4  -5  -6   26.50    3.70
  -4   5   6   27.60    3.90
  -4   5   6   25.70    3.80
  -4   5   6   27.50    3.60
  -4   5   6   26.60    3.40
   3  -5  -6   10.80    2.90
   3  -5  -6    7.10    2.20
   3  -5  -6   11.30    3.70
   3  -5  -6    8.90    2.70
  -3   5   6    7.90    2.00
  -3   5   6   14.10    2.50
  -3   5   6   12.30    2.70
  -3   5   6   10.20    2.80
   2  -5  -6    1.00    2.20
   2  -5  -6    0.60    2.10
   2  -5  -6    2.40    2.60
   2  -5  -6    1.10    1.80
  -2   5   6    2.60    1.70
  -2   5   6    4.90    1.80
  -2   5   6    0.90    1.90
  -2   5   6    4.10    2.00
   1  -5  -6  301.57    7.20
   1  -5  -6  304.37    8.40
   1  -5  -6  292.17    6.90
   1  -5  -6  300.17    7.90
  -1   5   6  318.97    8.20
  -1   5   6  296.77    6.30
  -1   5   6  289.97    8.10
  -1   5   6  291.57    6.90
   0  -5  -6  275.07    6.60
   0  -5  -6  290.87    6.60
   0  -5  -6  287.97    8.20
   0  -5  -6  284.87    5.50
   0  -5  -6  284.47    5.70
   0   5   6  290.37    6.50
   0   5   6  276.47    5.60
   0   5   6  278.27    6.30
   0   5   6  279.97    8.40
   0   5   6  287.87    7.90
  -1  -5  -6   26.10    2.90
  -1  -5  -6   27.90    2.30
  -1  -5  -6   29.00    2.90
  -1  -5  -6   28.40    4.40
   1   5   6   27.00    3.80
   1   5   6   28.80    2.40
   1   5   6   28.20    2.70
   1   5   6   29.10    3.80
   1   5   6   26.80    2.60
  -2  -5  -6    2.00    1.50
  -2  -5  -6    3.80    2.00
  -2  -5  -6    0.40    1.40
  -2  -5  -6   -1.10    2.80
  -2  -5  -6    3.70    1.70
   2   5   6    2.20    1.40
   2   5   6    0.60    2.60
   2   5   6    1.00    1.40
   2   5   6    1.80    1.60
   2   5   6    1.00    1.50
  -3  -5  -6    2.00    1.80
  -3  -5  -6    4.10    4.00
  -3  -5  -6    2.30    2.10
  -3  -5  -6    1.20    1.70
  -3  -5  -6    2.40    2.00
   3   5   6    1.50    1.70
   3   5   6   -0.10    2.10
   3   5   6    2.60    1.40
   3   5   6    1.50    1.60
   3   5   6   -0.60    1.10
  -4  -5  -6   40.40    6.50
  -4  -5  -6   33.30    5.50
  -4  -5  -6   32.40    3.80
  -4  -5  -6   35.50    5.70
  -4  -5  -6   39.20    4.10
   4   5   6   36.70    3.10
   4   5   6   40.60    2.90
   4   5   6   40.70    3.00
   4   5   6   35.10    4.90
  -5  -5  -6   22.90    3.60
  -5  -5  -6   16.20    3.20
  -5  -5  -6   14.30    2.90
  -5  -5  -6   19.50    3.60
   5   5   6   11.70    2.70
   5   5   6   19.20    2.80
   5   5   6   19.50    2.30
   5   5   6   17.70    2.10
   5   5   6   13.40    3.30
  -6  -5  -6    7.60    3.00
  -6  -5  -6    2.50    3.50
  -6  -5  -6    9.70    3.80
  -6  -5  -6    9.10    5.50
   6   5   6    6.10    2.80
   6   5   6    7.30    1.80
   6   5   6    6.30    2.10
   6   5   6    5.30    3.30
   6   5   6   10.30    3.90
  -7  -5  -6    3.20    4.00
   7   5   6    5.00    4.60
   7   5   6    0.00    6.90
   5  -6  -6    2.10    3.90
   5  -6  -6    4.30    3.70
   5  -6  -6    4.20    3.60
   5  -6  -6    5.40    5.40
  -5   6   6    6.80    4.40
  -5   6   6    7.20    3.50
  -5   6   6    0.90    3.60
   4  -6  -6    9.60    3.30
   4  -6  -6    5.80    4.30
   4  -6  -6    8.40    3.10
   4  -6  -6    5.20    2.30
  -4   6   6   10.60    3.40
  -4   6   6    4.70    3.30
  -4   6   6    5.70    2.80
  -4   6   6    9.70    3.30
   3  -6  -6   12.40    2.50
   3  -6  -6   17.00    3.90
   3  -6  -6   19.40    3.10
   3  -6  -6   15.50    3.30
  -3   6   6   14.90    3.00
  -3   6   6   14.80    2.80
  -3   6   6   16.40    3.00
  -3   6   6   11.40    2.20
   2  -6  -6    1.00    2.10
   2  -6  -6   -0.40    2.10
   2  -6  -6    0.10    2.60
   2  -6  -6    2.00    2.30
  -2   6   6    2.40    2.20
  -2   6   6    0.20    2.10
  -2   6   6    4.30    1.80
  -2   6   6    1.00    1.80
   1  -6  -6   -0.80    2.00
   1  -6  -6    0.00    1.80
   1  -6  -6   -1.30    1.80
   1  -6  -6   -0.30    1.90
  -1   6   6   -3.40    1.80
  -1   6   6    1.90    1.80
  -1   6   6    1.50    1.70
  -1   6   6    1.00    1.50
   0  -6  -6   -0.30    1.70
   0  -6  -6   -1.00    1.30
   0  -6  -6   -2.00    1.20
   0  -6  -6    0.30    1.90
   0  -6  -6   -1.20    1.60
   0   6   6    1.60    1.30
   0   6   6    2.00    2.70
   0   6   6   -0.50    1.60
   0   6   6    3.00    1.70
   0   6   6    1.50    1.70
  -1  -6  -6    6.10    1.80
  -1  -6  -6   11.10    2.10
  -1  -6  -6    6.90    1.90
  -1  -6  -6    3.50    2.20
  -1  -6  -6    6.50    1.50
   1   6   6    5.90    1.90
   1   6   6    2.80    2.70
   1   6   6    7.30    1.80
   1   6   6    5.70    1.90
   1   6   6    6.90    1.60
  -2  -6  -6   55.79    5.60
  -2  -6  -6   51.49    2.60
  -2  -6  -6   55.09    3.60
  -2  -6  -6   51.09    5.30
  -2  -6  -6   53.29    3.40
  -2  -6  -6   54.99    3.70
   2   6   6   46.10    6.40
   2   6   6   48.50    3.40
   2   6   6   52.39    3.20
   2   6   6   51.29    4.70
   2   6   6   48.10    3.30
  -3  -6  -6   25.60    3.50
  -3  -6  -6   32.80    3.70
  -3  -6  -6   35.60    3.90
  -3  -6  -6   37.50    5.70
  -3  -6  -6   30.60    5.80
   3   6   6   32.10    4.70
   3   6   6   32.20    4.30
   3   6   6   30.60    3.00
   3   6   6   27.50    3.20
   3   6   6   27.00    2.10
  -4  -6  -6  323.87    8.20
  -4  -6  -6  322.77   10.30
  -4  -6  -6  324.17    8.60
  -4  -6  -6  319.77   11.20
  -4  -6  -6  323.07    8.30
   4   6   6  326.77    7.30
   4   6   6  313.07    7.00
   4   6   6  303.37   11.20
   4   6   6  317.27    7.20
   4   6   6  326.07    9.70
  -5  -6  -6   11.90    2.90
  -5  -6  -6   12.50    3.50
  -5  -6  -6    9.90    3.10
   5   6   6   11.90    2.60
   5   6   6   11.10    2.80
   5   6   6   15.10    2.40
   5   6   6   17.40    2.80
   5   6   6   11.10    3.20
  -6  -6  -6    3.10    3.90
  -6  -6  -6   14.70    5.90
  -6  -6  -6    2.40    3.20
  -6  -6  -6   -2.20    3.50
   6   6   6   -1.90    3.70
   6   6   6    4.40    3.40
   6   6   6    1.40    2.90
   6   6   6    0.40    2.90
   6   6   6    2.50    2.30
   5  -7  -6    8.70    4.00
   5  -7  -6    8.10    4.10
   5  -7  -6   -0.80    5.40
   5  -7  -6    4.50    3.90
  -5   7   6    3.30    3.60
  -5   7   6    6.20    3.90
   4  -7  -6   10.10    2.60
   4  -7  -6   15.50    4.70
   4  -7  -6   16.90    3.50
   4  -7  -6    9.70    3.60
  -4   7   6   16.40    3.50
  -4   7   6   10.30    3.20
  -4   7   6    8.80    2.20
  -4   7   6    9.60    3.30
  -4   7   6    8.40    4.00
   3  -7  -6    0.10    2.30
   3  -7  -6    0.80    2.80
   3  -7  -6   -1.70    2.60
   3  -7  -6    1.10    3.00
  -3   7   6   -1.00    2.70
  -3   7   6    3.40    2.60
  -3   7   6    1.10    1.80
  -3   7   6    4.60    2.50
   2  -7  -6   44.30    4.40
   2  -7  -6   46.10    4.90
   2  -7  -6   56.09    4.90
   2  -7  -6   46.10    5.70
   2  -7  -6   52.29    4.30
  -2   7   6   46.00    4.50
  -2   7   6   44.10    4.30
  -2   7   6   43.00    4.90
   1  -7  -6   66.29    4.40
   1  -7  -6   67.29    4.50
   1  -7  -6   66.69    4.40
   1  -7  -6   68.89    5.90
   1  -7  -6   71.39    4.20
  -1   7   6   69.79    4.30
  -1   7   6   64.59    6.30
  -1   7   6   63.09    4.30
  -1   7   6   71.49    4.00
   0  -7  -6  446.76    9.40
   0  -7  -6  460.25    8.90
   0  -7  -6  457.35   11.60
   0  -7  -6  453.35    8.80
   0  -7  -6  448.16    9.30
   0   7   6  464.95    9.50
   0   7   6  437.26    8.40
   0   7   6  445.86    9.30
   0   7   6  441.56   11.10
   0   7   6  456.05    8.90
   0   7   6  453.05   13.40
  -1  -7  -6   11.80    2.20
  -1  -7  -6   11.90    2.10
  -1  -7  -6   13.00    2.80
  -1  -7  -6   14.00    2.20
  -1  -7  -6   15.70    2.00
   1   7   6   16.00    2.00
   1   7   6   14.40    2.10
   1   7   6   16.90    2.40
   1   7   6   13.20    3.30
   1   7   6   14.10    2.40
  -2  -7  -6    4.70    3.40
  -2  -7  -6    2.20    2.10
  -2  -7  -6    2.10    1.60
  -2  -7  -6    1.60    2.40
  -2  -7  -6    0.00    1.90
  -2  -7  -6    0.70    1.80
   2   7   6    1.40    1.80
   2   7   6    2.20    2.00
   2   7   6    0.30    1.70
   2   7   6   -1.40    2.50
  -3  -7  -6   96.69    5.00
  -3  -7  -6   81.29   10.20
  -3  -7  -6  102.69    7.40
  -3  -7  -6   99.69    5.00
  -3  -7  -6   88.69    6.20
  -3  -7  -6   89.29    2.70
   3   7   6  100.29    6.30
   3   7   6   95.39    4.40
   3   7   6  100.09    5.80
   3   7   6   98.79    4.50
  -4  -7  -6   67.29    5.60
  -4  -7  -6   72.19    5.20
  -4  -7  -6   71.69    7.10
  -4  -7  -6   66.39    7.20
  -4  -7  -6   60.09    6.30
   4   7   6   68.39    3.70
   4   7   6   73.99    6.40
   4   7   6   75.79    4.30
   4   7   6   71.39    4.50
   4   7   6   75.79    5.80
  -5  -7  -6   25.30    3.90
  -5  -7  -6   24.60    3.50
  -5  -7  -6   31.20    3.80
   5   7   6   21.40    3.80
   5   7   6   20.10    3.30
   5   7   6   27.80    3.20
   5   7   6   26.40    4.20
  -6  -7  -6   -1.20    3.70
  -6  -7  -6   -0.60    3.30
  -6  -7  -6   13.50    6.30
   6   7   6   -1.10    3.90
   6   7   6   -0.10    2.90
   6   7   6   -0.50    3.20
   6   7   6    3.50    3.10
   6   7   6   -0.80    3.50
   5  -8  -6   24.20    6.20
   4  -8  -6   37.20    5.70
   4  -8  -6   44.20    5.70
   4  -8  -6   26.40    4.40
   4  -8  -6   31.90    5.20
  -4   8   6   33.20    4.10
  -4   8   6   30.70    4.10
  -4   8   6   33.80    4.90
   3  -8  -6   91.39    5.70
   3  -8  -6   86.59    5.40
   3  -8  -6   87.69    6.00
   3  -8  -6   89.19    7.10
   3  -8  -6   86.39    6.60
  -3   8   6   89.79    6.00
  -3   8   6   92.49    5.70
  -3   8   6   73.39    5.50
  -3   8   6   83.39    6.90
   2  -8  -6    0.60    2.60
   2  -8  -6    5.00    2.90
   2  -8  -6   -3.20    2.60
   2  -8  -6    3.10    2.60
   2  -8  -6    3.60    2.50
  -2   8   6    3.00    2.50
  -2   8   6    3.50    2.20
  -2   8   6    2.10    2.20
  -2   8   6    1.90    2.20
   1  -8  -6    0.30    2.50
   1  -8  -6   -1.30    2.30
   1  -8  -6    2.70    2.70
   1  -8  -6   -5.40    2.10
   1  -8  -6    1.10    2.20
  -1   8   6    1.20    2.40
  -1   8   6    3.80    2.00
  -1   8   6   -3.40    1.90
  -1   8   6   -1.70    2.00
  -1   8   6   -1.00    2.20
   0  -8  -6 1332.97   21.10
   0  -8  -6 1400.46   24.80
   0  -8  -6 1353.56   22.00
   0  -8  -6 1381.56   21.90
   0  -8  -6 1376.86   21.60
   0   8   6 1350.26   23.70
   0   8   6 1371.46   21.60
   0   8   6 1344.97   21.00
   0   8   6 1411.36   24.40
   0   8   6 1363.46   21.90
   0   8   6 1391.06   22.10
  -1  -8  -6 1617.64   23.70
  -1  -8  -6 1608.04   25.20
  -1  -8  -6 1626.74   24.90
  -1  -8  -6 1623.24   28.00
  -1  -8  -6 1604.44   24.50
   1   8   6 1570.64   26.60
   1   8   6 1570.24   24.60
   1   8   6 1591.14   24.90
   1   8   6 1600.04   27.50
   1   8   6 1666.63   25.20
   1   8   6 1538.55   23.10
  -2  -8  -6    7.20    3.00
  -2  -8  -6    4.70    1.80
  -2  -8  -6    6.40    2.60
  -2  -8  -6    5.50    2.60
  -2  -8  -6    9.50    2.60
   2   8   6   10.60    2.30
   2   8   6    4.90    3.10
   2   8   6    5.30    2.20
   2   8   6    4.40    2.20
   2   8   6    5.50    2.30
   2   8   6    8.10    1.50
  -3  -8  -6    5.60    4.50
  -3  -8  -6    2.50    2.50
  -3  -8  -6    5.60    3.20
  -3  -8  -6    8.80    1.60
  -3  -8  -6    4.30    2.50
   3   8   6    5.30    2.20
   3   8   6    1.80    2.30
   3   8   6    3.30    2.40
   3   8   6    0.50    2.20
  -4  -8  -6    5.00    2.70
  -4  -8  -6    1.40    2.80
  -4  -8  -6    2.80    2.90
  -4  -8  -6    1.30    4.10
   4   8   6   -0.40    2.60
   4   8   6    1.30    2.30
   4   8   6   -0.90    2.60
   4   8   6    4.70    2.60
  -5  -8  -6   46.50    5.50
  -5  -8  -6   45.50    5.80
  -5  -8  -6   37.70    4.30
   5   8   6   39.60    5.00
   5   8   6   42.60    4.90
   5   8   6   40.70    5.60
   5   8   6   41.70    4.60
  -6  -8  -6   26.60    6.80
  -6  -8  -6   20.40    4.30
   6   8   6   24.30    4.30
   6   8   6   15.70    3.90
   6   8   6   20.80    4.70
   6   8   6   15.30    3.80
   4  -9  -6    6.10    4.90
   4  -9  -6    6.80    3.80
   4  -9  -6   13.00    3.70
   4  -9  -6   11.80    4.10
  -4   9   6    9.60    3.60
  -4   9   6    4.70    3.90
  -4   9   6    3.40    3.60
   3  -9  -6   75.39    6.10
   3  -9  -6   72.99    5.70
   3  -9  -6   78.89    7.20
  -3   9   6   68.69    6.30
  -3   9   6   71.79    5.70
  -3   9   6   76.79    5.80
  -3   9   6   74.49    6.00
   2  -9  -6    8.10    2.80
   2  -9  -6   10.20    3.00
   2  -9  -6    9.50    3.20
   2  -9  -6    7.50    3.10
   2  -9  -6    7.40    3.10
  -2   9   6    7.70    2.70
  -2   9   6    9.30    2.70
  -2   9   6    9.40    2.80
  -2   9   6    3.10    2.50
   1  -9  -6   66.59    5.00
   1  -9  -6   67.19    5.60
   1  -9  -6   70.49    7.30
   1  -9  -6   66.09    4.80
  -1   9   6   60.79    4.60
  -1   9   6   62.29    6.20
  -1   9   6   64.89    4.70
  -1   9   6   73.79    4.90
  -1   9   6   63.39    5.10
   0  -9  -6  231.28    9.80
   0  -9  -6  226.88    7.00
   0  -9  -6  228.38    7.10
   0  -9  -6  214.08    6.60
   0  -9  -6  235.38    6.90
   0   9   6  223.78    8.00
   0   9   6  218.48    8.80
   0   9   6  222.78    6.50
   0   9   6  222.68    6.90
  -1  -9  -6   22.30    3.10
  -1  -9  -6   20.40    2.80
  -1  -9  -6   20.60    3.00
  -1  -9  -6   21.20    2.80
  -1  -9  -6   15.80    3.60
   1   9   6   21.10    3.30
   1   9   6   22.00    2.90
   1   9   6   23.10    3.00
   1   9   6   19.80    3.10
   1   9   6   25.40    3.20
   1   9   6   22.70    3.80
  -2  -9  -6  144.29    7.60
  -2  -9  -6  168.18    4.90
  -2  -9  -6  168.88    6.40
  -2  -9  -6  171.28   11.60
   2   9   6  163.08    6.10
   2   9   6  165.08    6.90
   2   9   6  170.48    6.40
   2   9   6  160.08    4.60
   2   9   6  173.78    6.30
  -3  -9  -6   -0.60    2.60
  -3  -9  -6   -0.50    2.50
  -3  -9  -6    3.70    1.60
  -3  -9  -6    0.70    4.80
  -3  -9  -6    1.40    2.60
   3   9   6    0.90    2.40
   3   9   6   -0.20    3.10
   3   9   6    3.00    2.40
   3   9   6   -1.00    2.40
  -4  -9  -6  122.19    8.20
  -4  -9  -6  112.49    6.40
  -4  -9  -6  121.49    6.20
  -4  -9  -6  112.89    6.70
   4   9   6  117.79    7.10
   4   9   6  115.39    7.20
   4   9   6  114.09    5.80
  -5  -9  -6   10.20    3.70
  -5  -9  -6   11.30    3.70
   5   9   6   11.30    3.70
   5   9   6   12.60    3.10
   5   9   6    9.60    3.30
   5   9   6   21.10    4.30
  -6  -9  -6    9.70    4.40
  -6  -9  -6   21.80    7.30
   6   9   6   10.60    3.90
   6   9   6    9.00    4.00
   6   9   6    9.40    4.00
   6   9   6   12.50    4.30
   4 -10  -6   -0.60    3.80
   4 -10  -6   10.60    5.40
   4 -10  -6   10.70    3.90
  -4  10   6    7.20    3.70
  -4  10   6   -2.70    3.70
   3 -10  -6   15.50    4.50
   3 -10  -6   24.40    3.80
   3 -10  -6   13.50    3.70
  -3  10   6   16.10    3.60
  -3  10   6   16.70    3.60
  -3  10   6   14.60    3.20
   2 -10  -6   18.00    3.20
   2 -10  -6   13.40    3.50
  -2  10   6   19.00    3.50
  -2  10   6   18.80    3.30
  -2  10   6   12.90    3.30
  -2  10   6   14.60    3.20
  -2  10   6   11.80    4.10
   1 -10  -6   22.40    3.30
   1 -10  -6   24.00    3.30
   1 -10  -6   26.70    3.50
   1 -10  -6   20.60    4.70
  -1  10   6   26.50    3.40
  -1  10   6   21.80    3.20
  -1  10   6   26.20    3.80
  -1  10   6   29.20    4.70
  -1  10   6   23.80    3.40
  -1  10   6   18.80    3.30
   0 -10  -6   20.40    3.10
   0 -10  -6   15.70    2.80
   0 -10  -6   21.90    3.30
   0 -10  -6    8.40    3.40
   0 -10  -6   18.80    3.10
   0  10   6   17.80    3.00
   0  10   6   24.80    3.90
   0  10   6   15.00    2.80
   0  10   6   15.80    3.20
   0  10   6   19.70    3.00
  -1 -10  -6    3.80    2.30
  -1 -10  -6    2.00    3.30
  -1 -10  -6    2.50    2.50
  -1 -10  -6    3.40    2.70
  -1 -10  -6    4.10    2.60
   1  10   6    6.80    3.20
   1  10   6    4.70    2.60
   1  10   6    3.80    2.40
   1  10   6    3.10    2.60
   1  10   6    5.20    2.30
  -2 -10  -6  114.39    6.00
  -2 -10  -6  110.19    4.50
  -2 -10  -6  117.69    6.00
   2  10   6  113.09    5.70
   2  10   6  107.69    4.40
   2  10   6  109.19    6.00
   2  10   6  103.49    6.60
  -3 -10  -6    2.80    1.80
  -3 -10  -6    4.10    2.80
  -3 -10  -6    4.30    3.10
  -3 -10  -6   -5.10    5.10
   3  10   6    0.00    3.00
   3  10   6    2.90    2.60
   3  10   6    1.30    2.50
  -4 -10  -6    3.80    3.20
  -4 -10  -6    2.40    4.90
  -4 -10  -6    4.30    3.00
  -4 -10  -6   -0.20    3.20
   4  10   6    1.00    3.40
   4  10   6   -4.10    2.70
   4  10   6   -2.30    2.70
   4  10   6    0.30    2.80
  -5 -10  -6    0.60    3.80
   5  10   6    5.40    3.40
   5  10   6   -3.20    2.90
   5  10   6   -7.20    3.60
   5  10   6    1.30    3.40
   3 -11  -6    9.50    3.70
   3 -11  -6    8.10    3.60
   3 -11  -6    2.90    3.50
  -3  11   6    6.90    3.20
  -3  11   6    2.40    3.50
  -3  11   6    3.00    3.40
   2 -11  -6    3.20    3.60
   2 -11  -6   -1.00    3.20
   2 -11  -6    4.10    3.10
  -2  11   6    1.70    3.00
  -2  11   6    3.50    3.10
  -2  11   6    3.70    3.00
  -2  11   6    6.90    3.40
   1 -11  -6   14.10    3.00
   1 -11  -6    8.30    3.00
   1 -11  -6    9.20    3.20
  -1  11   6    3.30    2.70
  -1  11   6    9.00    3.60
  -1  11   6    6.60    3.10
  -1  11   6    7.60    3.00
  -1  11   6    6.10    3.90
  -1  11   6    6.80    3.00
   0 -11  -6    1.50    2.60
   0 -11  -6   -3.30    2.70
   0 -11  -6    1.50    2.70
   0  11   6   -0.30    2.60
   0  11   6   -0.60    2.50
   0  11   6    2.30    3.10
   0  11   6   -0.30    2.60
  -1 -11  -6    1.70    2.40
  -1 -11  -6    0.70    2.80
  -1 -11  -6   -3.80    3.50
  -1 -11  -6    0.40    2.60
   1  11   6    1.40    2.70
   1  11   6   -0.10    2.70
   1  11   6   -1.20    2.60
   1  11   6   -0.90    2.60
   1  11   6    1.60    2.40
  -2 -11  -6   11.60    2.60
  -2 -11  -6    6.50    3.00
  -2 -11  -6    6.50    3.00
  -2 -11  -6   10.00    3.20
   2  11   6    8.50    2.70
   2  11   6    6.10    2.60
   2  11   6    5.70    3.00
   2  11   6    6.20    2.90
  -3 -11  -6    8.00    2.20
  -3 -11  -6   11.80    3.60
  -3 -11  -6    1.20    2.80
  -3 -11  -6    0.00    3.00
   3  11   6    5.10    3.20
   3  11   6    8.30    3.10
   3  11   6   -3.40    3.20
   3  11   6    3.00    2.90
  -4 -11  -6   13.60    2.50
  -4 -11  -6   11.80    3.80
  -4 -11  -6    5.20    3.30
  -4 -11  -6   10.80    6.00
   4  11   6    0.30    5.10
   4  11   6    9.80    4.10
   4  11   6   10.70    3.40
   4  11   6    8.20    3.00
  -5 -11  -6    8.00    4.20
   5  11   6    8.30    4.00
   5  11   6   20.10    4.50
   3 -12  -6   -1.60    3.70
   3 -12  -6    2.90    3.90
   3 -12  -6   -1.20    3.90
  -3  12   6   -3.30    3.70
  -3  12   6    5.40    3.50
  -3  12   6   -4.30    3.40
   2 -12  -6   -0.40    3.40
   2 -12  -6   -1.40    3.20
   2 -12  -6    0.80    3.20
  -2  12   6    0.00    3.30
  -2  12   6   -0.10    4.20
  -2  12   6   -1.30    3.20
  -2  12   6   -7.70    2.90
   1 -12  -6    3.80    2.70
   1 -12  -6    7.90    3.40
   1 -12  -6    5.80    3.20
   1 -12  -6    5.00    3.00
  -1  12   6    1.20    3.10
  -1  12   6    4.50    3.10
  -1  12   6    6.00    3.80
  -1  12   6    2.50    3.70
  -1  12   6    1.70    3.10
   0 -12  -6   23.90    3.50
   0 -12  -6   22.80    3.50
   0 -12  -6   26.80    3.90
   0 -12  -6   21.00    3.60
   0  12   6   25.30    3.30
   0  12   6   35.40    5.60
   0  12   6   27.40    3.70
   0  12   6   17.30    3.70
   0  12   6   20.40    3.60
   0  12   6   30.70    4.60
  -1 -12  -6    0.80    2.60
  -1 -12  -6   -0.10    3.10
  -1 -12  -6   -0.10    2.90
  -1 -12  -6   -1.00    2.80
   1  12   6    1.10    2.80
   1  12   6   -0.30    2.90
   1  12   6   -0.60    2.80
   1  12   6    1.80    2.90
   1  12   6   -1.40    2.80
  -2 -12  -6    1.70    2.50
  -2 -12  -6    6.20    3.40
  -2 -12  -6    2.60    3.20
  -2 -12  -6    8.50    3.20
   2  12   6   -2.00    2.60
   2  12   6    9.00    3.10
   2  12   6    0.90    2.90
   2  12   6    0.70    2.50
   2  12   6    5.20    3.10
  -3 -12  -6    3.70    2.40
  -3 -12  -6   -5.30    3.00
  -3 -12  -6    9.20    3.80
   3  12   6    6.00    3.40
   3  12   6    1.50    3.30
   3  12   6    7.40    3.40
  -4 -12  -6    2.80    2.60
  -4 -12  -6   11.70    4.10
   4  12   6   -4.70    3.90
   4  12   6    1.10    3.60
   2 -13  -6   -1.20    3.90
   2 -13  -6    8.10    4.10
  -2  13   6   -2.30    5.00
  -2  13   6   -4.30    5.50
  -2  13   6    2.00    3.70
  -2  13   6    0.50    3.50
  -2  13   6    5.40    3.50
   1 -13  -6    1.50    3.40
   1 -13  -6    9.60    3.70
   1 -13  -6    1.00    3.20
  -1  13   6    8.20    3.90
  -1  13   6   -0.30    3.50
  -1  13   6    4.40    3.50
   0 -13  -6    3.60    3.30
   0 -13  -6    3.80    3.60
   0 -13  -6   -4.00    2.90
   0  13   6    0.40    3.40
   0  13   6    8.70    4.10
   0  13   6    5.60    3.40
  -1 -13  -6   31.20    3.80
  -1 -13  -6   27.00    4.30
   1  13   6   31.00    4.40
   1  13   6   36.20    4.40
   1  13   6   31.70    4.30
   1  13   6   29.00    4.20
  -2 -13  -6    9.90    3.90
  -2 -13  -6    7.50    2.90
   2  13   6    7.00    3.60
   2  13   6    7.30    3.60
   2  13   6    6.10    3.80
  -3 -13  -6   24.30    4.80
  -3 -13  -6   24.20    2.90
   3  13   6   21.70    4.50
   3  13   6   17.10    4.10
   3  13   6   20.20    4.20
  -4 -13  -6   96.69    7.00
   4  13   6   78.19    9.60
   4  13   6   98.59    8.00
  -1  14   6   -3.80    5.20
   0 -14  -6   20.20    4.70
   0 -14  -6    7.60    3.70
   0  14   6    3.90    3.70
   0  14   6    6.10    4.00
  -1 -14  -6   88.09    6.30
  -1 -14  -6   76.99    7.80
   1  14   6   78.09    7.30
   1  14   6   71.59    7.90
   1  14   6   82.69    7.70
  -2 -14  -6    3.80    4.40
  -2 -14  -6   -0.90    2.80
   2  14   6    5.60    4.30
   2  14   6   -3.80    3.60
   0  10  -7   15.50    4.10
   0  10  -7   11.40    4.30
   0  10  -7   10.80    4.20
   0 -10   7   -0.40    3.50
  -1  10  -7   51.09    5.30
  -2  -9   7   -2.60    3.00
   1   9  -7   43.70    5.00
   1   9  -7   56.49    6.60
  -1  -9   7   37.00    4.20
  -1  -9   7   53.69    6.40
   0   9  -7   28.50    3.80
   0   9  -7   29.80    4.00
   0   9  -7   36.30    4.20
   0   9  -7   27.60    4.10
   0  -9   7   26.10    4.10
   0  -9   7   25.60    4.20
  -1   9  -7    7.00    3.30
  -1   9  -7   -5.90    3.10
  -1   9  -7    3.90    3.50
  -1   9  -7    2.30    2.80
   1  -9   7    3.40    3.50
   1  -9   7   -4.10    3.10
  -2   9  -7   39.70    4.50
  -2   9  -7   36.80    4.50
  -2   9  -7   32.90    4.60
  -2   9  -7   33.40    4.50
   2  -9   7   33.80    4.60
  -3   9  -7   13.00    3.90
  -3   9  -7    8.60    3.90
   3   8  -7   -1.90    4.40
  -3  -8   7   -1.20    4.00
  -3  -8   7    9.50    4.20
   2   8  -7    1.00    4.00
  -2  -8   7   -0.30    3.10
  -2  -8   7    0.80    3.40
  -2  -8   7   -3.50    3.20
  -2  -8   7   -0.30    2.70
  -2  -8   7    4.50    3.60
   1   8  -7   58.49    6.20
   1   8  -7   46.00    5.70
   1   8  -7   71.29    6.50
  -1  -8   7   57.29    3.50
  -1  -8   7   61.69    5.80
  -1  -8   7   60.89    3.20
  -1  -8   7   65.49    5.00
   0   8  -7  233.68    8.40
   0   8  -7  229.68    7.60
   0   8  -7  236.68    7.80
   0   8  -7  217.48    6.90
   0  -8   7  228.98    8.00
   0  -8   7  233.38    8.00
  -1   8  -7   47.00    5.30
  -1   8  -7   50.19    4.40
  -1   8  -7   43.20    5.70
  -1   8  -7   49.20    5.00
   1  -8   7   52.69    5.40
   1  -8   7   48.80    5.40
  -2   8  -7    8.90    2.30
  -2   8  -7   13.30    3.70
  -2   8  -7   11.20    3.30
   2  -8   7   10.40    3.30
  -3   8  -7   36.70    4.30
  -3   8  -7   35.60    3.40
  -3   8  -7   31.70    4.30
  -3   8  -7   33.70    4.00
  -3   8  -7   41.80    6.40
  -3   8  -7   36.10    4.70
   3  -8   7   36.30    4.30
   3   7  -7   12.40    4.70
  -3  -7   7    5.20    3.70
  -3  -7   7    4.10    4.60
  -3  -7   7   -0.30    5.10
  -3  -7   7    2.80    3.50
   2   7  -7   -3.70    3.30
   2   7  -7   -1.20    3.40
  -2  -7   7    8.70    3.80
  -2  -7   7    1.50    2.70
  -2  -7   7   -1.70    2.90
  -2  -7   7   -3.20    3.00
   1   7  -7    2.60    2.80
   1   7  -7    1.80    3.10
  -1  -7   7    1.70    2.70
  -1  -7   7    1.30    2.00
  -1  -7   7    0.70    2.60
  -1  -7   7    8.70    3.10
  -1  -7   7    3.60    1.80
   0   7  -7   65.79    5.40
   0   7  -7   58.79    4.80
   0   7  -7   64.09    5.40
   0   7  -7   60.09    4.20
   0  -7   7   59.79    5.00
   0  -7   7   64.09    5.20
   0  -7   7   69.69    5.30
  -1   7  -7  315.47    8.10
  -1   7  -7  325.37    7.60
  -1   7  -7  329.97    8.90
   1  -7   7  317.97    8.70
   1  -7   7  328.37    8.40
  -2   7  -7   26.90    3.90
  -2   7  -7   32.20    3.10
  -2   7  -7   33.40    3.60
  -2   7  -7   34.60    4.10
  -2   7  -7   35.60    4.60
  -2   7  -7   32.30    4.00
   2  -7   7   30.10    3.70
  -3   7  -7    4.70    2.80
  -3   7  -7   12.10    4.80
  -3   7  -7    6.20    2.90
  -3   7  -7    5.80    1.60
  -3   7  -7    8.10    1.90
  -3   7  -7    6.40    3.70
   3  -7   7    5.00    3.00
  -4   7  -7   28.70    6.20
  -4   7  -7   11.50    3.50
  -4   7  -7   15.00    3.20
   4  -7   7   11.80    3.50
   4   6  -7   13.10    4.70
   4   6  -7   17.40    4.90
  -4  -6   7   26.90    5.00
   3   6  -7   37.30    4.90
  -3  -6   7   45.00    5.90
  -3  -6   7   46.10    4.60
  -3  -6   7   40.10    4.30
   2   6  -7   13.20    3.50
   2   6  -7   13.30    3.40
  -2  -6   7    4.40    2.80
  -2  -6   7    6.90    4.00
  -2  -6   7    2.50    2.90
  -2  -6   7    6.20    2.70
   1   6  -7    4.10    2.50
   1   6  -7    0.00    2.90
  -1  -6   7    1.10    2.00
  -1  -6   7    0.10    2.60
  -1  -6   7    1.30    1.70
  -1  -6   7   -2.10    2.30
  -1  -6   7    4.10    3.00
   0   6  -7   31.80    3.20
   0   6  -7   36.30    4.00
   0   6  -7   42.20    4.50
   0   6  -7   36.60    4.50
   0  -6   7   34.90    3.60
   0  -6   7   41.00    4.20
   0  -6   7   37.40    4.60
  -1   6  -7   38.40    3.80
  -1   6  -7   35.00    4.10
  -1   6  -7   32.80    3.40
  -1   6  -7   43.10    4.30
   1  -6   7   41.30    4.60
   1  -6   7   47.90    5.20
   1  -6   7   37.10    3.90
  -2   6  -7    4.80    2.70
  -2   6  -7    2.70    2.20
  -2   6  -7    2.30    7.10
  -2   6  -7    4.00    2.50
  -2   6  -7    7.00    1.90
  -2   6  -7    3.30    3.20
  -2   6  -7    6.30    1.60
   2  -6   7    6.60    2.70
  -3   6  -7   14.90    2.90
  -3   6  -7   21.90    5.30
  -3   6  -7   22.60    2.40
  -3   6  -7   14.60    4.10
  -3   6  -7   11.40    2.80
  -3   6  -7   15.40    1.50
  -3   6  -7   16.70    3.60
   3  -6   7   14.50    3.10
  -4   6  -7   12.10    3.20
  -4   6  -7   17.90    4.10
  -4   6  -7   28.50    6.20
  -4   6  -7   15.10    4.90
   4  -6   7   20.80    3.40
  -5   6  -7    1.20    3.50
  -5   6  -7   -0.40    2.50
   5  -6   7    0.00    3.30
   4   5  -7    0.60    4.20
   4   5  -7    3.80    3.90
  -4  -5   7    3.00    3.90
  -4  -5   7    4.40    3.50
   3   5  -7   59.19    6.70
   3   5  -7   78.49    6.10
  -3  -5   7   65.39    6.10
  -3  -5   7   57.79    7.50
   2   5  -7    1.10    3.00
   2   5  -7    1.20    3.30
  -2  -5   7   -1.40    2.40
  -2  -5   7   -1.40    2.40
  -2  -5   7   -1.30    3.80
  -2  -5   7    2.70    2.40
   1   5  -7  103.19    5.50
   1   5  -7  109.49    5.70
  -1  -5   7  116.79    6.30
  -1  -5   7  110.69    4.10
  -1  -5   7  109.79    5.50
  -1  -5   7  104.69    4.20
   0   5  -7   46.90    4.00
   0   5  -7   43.60    2.90
   0   5  -7   44.40    3.80
   0  -5   7   41.90    3.70
   0  -5   7   42.80    4.50
   0  -5   7   41.90    4.80
  -1   5  -7  109.79    4.70
  -1   5  -7  115.19    7.60
  -1   5  -7  120.59    4.80
  -1   5  -7  118.99    4.50
  -1   5  -7  120.79    4.10
   1  -5   7  111.29    6.30
   1  -5   7  115.89    4.50
   1  -5   7  117.39    5.30
  -2   5  -7  104.09    7.40
  -2   5  -7  114.49    6.50
  -2   5  -7  114.29    4.70
  -2   5  -7   88.49   11.50
  -2   5  -7   96.39    8.30
  -2   5  -7  111.99    3.60
  -2   5  -7  108.19    3.30
   2  -5   7  111.39    5.20
  -3   5  -7   45.40    6.60
  -3   5  -7   51.59    5.50
  -3   5  -7   42.10    4.20
  -3   5  -7   41.00    5.80
  -3   5  -7   44.30    5.40
   3  -5   7   43.10    4.60
  -4   5  -7    5.00    3.70
  -4   5  -7    2.80    2.20
  -4   5  -7    2.40    3.20
  -4   5  -7    0.20    2.70
  -4   5  -7    1.80    4.80
   4  -5   7    0.70    2.50
  -5   5  -7   29.90    6.40
  -5   5  -7   16.70    3.50
  -5   5  -7   12.80    2.60
   4   4  -7  121.29    9.50
   4   4  -7  111.09    8.20
  -4  -4   7  106.69    7.60
  -4  -4   7   96.79    7.40
   3   4  -7   29.20    4.00
   3   4  -7   36.90    4.20
   3   4  -7   25.00    3.90
  -3  -4   7   31.00    3.80
  -3  -4   7   32.40    3.90
   2   4  -7   12.20    3.20
   2   4  -7   14.80    3.40
   2   4  -7    4.30    2.80
  -2  -4   7   10.00    2.60
  -2  -4   7    9.70    2.80
  -2  -4   7   11.80    2.60
   1   4  -7   -2.00    2.50
   1   4  -7    1.20    2.40
  -1  -4   7   -0.90    1.80
  -1  -4   7    3.10    3.20
  -1  -4   7    2.80    1.90
  -1  -4   7    3.90    2.50
  -1  -4   7   -1.20    1.60
   0   4  -7    0.10    1.80
   0   4  -7   -0.40    2.30
   0   4  -7    2.00    2.30
   0   4  -7    1.70    1.30
   0  -4   7    2.00    2.30
   0  -4   7    0.10    1.60
   0  -4   7    0.50    3.00
  -1   4  -7   11.80    2.50
  -1   4  -7   16.20    2.30
  -1   4  -7   17.90    2.00
  -1   4  -7   19.10    2.20
  -1   4  -7   15.50    2.10
   1  -4   7   18.90    3.70
   1  -4   7   12.30    2.40
   1  -4   7   17.10    2.00
  -2   4  -7   22.70    3.50
  -2   4  -7   27.00    2.00
  -2   4  -7   20.50    2.30
  -2   4  -7   18.20    2.80
  -2   4  -7   20.80    2.90
  -2   4  -7   23.20    3.10
   2  -4   7   22.10    2.70
  -3   4  -7   81.69    5.60
  -3   4  -7   96.89    7.40
  -3   4  -7   85.09    5.90
  -3   4  -7   81.89    6.20
  -3   4  -7   79.79    4.40
   3  -4   7   82.99    4.80
  -4   4  -7    4.60    3.60
  -4   4  -7    4.60    2.10
  -4   4  -7    3.50    2.40
  -4   4  -7    4.20    3.20
  -4   4  -7   11.20    5.00
   4  -4   7    5.10    2.50
  -5   4  -7   36.90    5.60
  -5   4  -7   33.60    4.40
  -5   4  -7   44.20    7.00
  -5   4  -7   34.30    3.60
   5  -4   7   29.90    3.50
  -6   4  -7   -1.70    3.50
   6  -4   7   -2.30    3.10
   5   3  -7    7.30    4.00
   5   3  -7    4.90    4.70
  -5  -3   7   -0.40    4.20
   4   3  -7  221.38    9.20
   4   3  -7  209.08   10.50
  -4  -3   7  222.38    8.80
  -4  -3   7  219.18    8.20
  -4  -3   7  197.08    9.70
   3   3  -7  129.49    6.70
   3   3  -7  127.19    7.00
   3   3  -7  122.69    8.20
  -3  -3   7  124.79    6.40
  -3  -3   7  123.99    6.40
   2   3  -7    4.30    3.00
  -2  -3   7    0.50    2.20
  -2  -3   7    1.20    2.20
  -2  -3   7   -1.10    2.30
   1   3  -7  120.49    5.20
   1   3  -7  132.09    5.60
   1   3  -7  128.99    7.30
  -1  -3   7  127.49    7.00
  -1  -3   7  130.59    4.50
  -1  -3   7  120.99    4.30
  -1  -3   7  127.69    4.50
   0   3  -7  235.48    8.60
   0   3  -7  237.38    6.00
   0   3  -7  225.18    5.60
   0   3  -7  234.78    6.10
   0  -3   7  233.98    4.40
   0  -3   7  242.58    6.40
   0  -3   7  231.48    4.30
   0  -3   7  233.78    8.10
   0  -3   7  230.38    5.20
  -1   3  -7  171.48    4.60
  -1   3  -7  183.88    4.90
  -1   3  -7  174.28    4.60
  -1   3  -7  176.78    7.30
   1  -3   7  179.98    4.40
   1  -3   7  174.78    5.40
   1  -3   7  177.58    7.20
  -2   3  -7  263.37    5.90
  -2   3  -7  267.97    7.00
  -2   3  -7  255.37    4.80
  -2   3  -7  251.77    4.70
  -2   3  -7  262.07    8.60
  -2   3  -7  267.37    7.80
   2  -3   7  267.97    9.10
   2  -3   7  265.77    6.50
  -3   3  -7   58.19    3.60
  -3   3  -7   51.39    4.90
  -3   3  -7   54.39    5.40
  -3   3  -7   56.39    5.00
  -3   3  -7   63.49    6.80
   3  -3   7   57.79    3.90
  -4   3  -7   14.90    2.40
  -4   3  -7   22.70    5.50
  -4   3  -7   18.60    2.60
  -4   3  -7   19.70    3.50
  -4   3  -7   24.70    4.20
   4  -3   7   17.50    2.60
  -5   3  -7    4.00    3.80
  -5   3  -7    7.10    3.70
  -5   3  -7   -2.20    5.20
  -5   3  -7   -2.50    2.40
  -5   3  -7    1.50    1.90
   5  -3   7    1.00    2.50
  -6   3  -7    3.60    3.30
   6  -3   7   -3.00    3.00
   5   2  -7   13.80    4.60
   5   2  -7    8.60    3.80
  -5  -2   7    9.50    4.10
   4   2  -7   14.80    3.50
   4   2  -7    6.20    3.70
   4   2  -7    5.60    3.10
  -4  -2   7    4.40    3.30
  -4  -2   7   11.00    3.50
   3   2  -7  311.07    9.20
   3   2  -7  307.67   11.70
  -3  -2   7  310.17    8.60
  -3  -2   7  296.17    8.80
  -3  -2   7  319.97    8.80
   2   2  -7  118.09    5.60
   2   2  -7  118.79    7.20
   2   2  -7  114.79    6.00
  -2  -2   7  110.19    5.20
  -2  -2   7  117.79    5.10
  -2  -2   7  116.59    5.30
   1   2  -7  159.78    7.30
   1   2  -7  157.58    5.60
   1   2  -7  141.69    6.80
  -1  -2   7  169.98    4.80
  -1  -2   7  166.68    4.70
  -1  -2   7  165.48    4.90
  -1  -2   7  166.08    7.50
   0   2  -7  188.78    5.30
   0   2  -7  205.68    7.70
   0   2  -7  191.08    5.20
   0  -2   7  184.28    5.50
   0  -2   7  191.18    4.20
   0  -2   7  195.98    7.40
   0  -2   7  188.18    4.00
   0  -2   7  194.48    4.00
  -1   2  -7   74.69    3.00
  -1   2  -7   79.59    5.40
  -1   2  -7   77.89    3.30
  -1   2  -7   79.59    3.20
  -1   2  -7   75.09    2.90
   1  -2   7   83.29    5.70
   1  -2   7   78.09    3.80
  -2   2  -7   13.20    2.60
  -2   2  -7   11.10    1.20
  -2   2  -7   10.60    4.60
  -2   2  -7   11.10    1.30
  -2   2  -7   11.20    1.50
  -2   2  -7    7.40    2.20
  -2   2  -7    9.90    2.10
   2  -2   7   13.70    3.80
   2  -2   7   11.10    2.10
  -3   2  -7  114.89    5.80
  -3   2  -7  105.59    6.60
  -3   2  -7  114.19    4.00
  -3   2  -7  108.39    5.60
  -3   2  -7  107.39    7.70
   3  -2   7  111.99    4.20
  -4   2  -7   31.80    3.90
  -4   2  -7   25.70    4.20
  -4   2  -7   36.30    4.30
  -4   2  -7   38.20    6.90
  -4   2  -7   25.00    3.40
   4  -2   7   31.00    3.40
  -5   2  -7   38.80    6.70
  -5   2  -7   43.90    5.20
  -5   2  -7   45.40    2.40
  -5   2  -7   40.10    4.30
  -5   2  -7   49.50    5.00
  -5   2  -7   42.20    2.50
   5  -2   7   37.70    4.00
  -6   2  -7    6.70    3.00
  -6   2  -7   10.30    2.00
  -6   2  -7    9.30    2.50
  -6   2  -7    6.20    1.80
   6  -2   7    7.00    2.90
   5   1  -7    1.00    4.40
   5   1  -7    2.70    3.30
  -5  -1   7   -8.20    3.80
  -5  -1   7    5.40    4.40
   4   1  -7    3.00    3.40
   4   1  -7    9.10    3.40
   4   1  -7    4.60    2.80
  -4  -1   7    4.80    3.20
  -4  -1   7    9.20    3.30
  -4  -1   7    5.80    3.40
   3   1  -7    3.60    2.90
   3   1  -7    2.60    2.50
  -3  -1   7    6.30    2.80
  -3  -1   7    5.90    2.80
  -3  -1   7    3.40    2.90
   2   1  -7   10.70    2.60
   2   1  -7   11.30    2.70
   2   1  -7   17.60    3.10
  -2  -1   7   10.20    2.50
  -2  -1   7   13.40    2.70
  -2  -1   7   10.60    2.40
   1   1  -7  245.78    8.30
   1   1  -7  227.28    6.30
   1   1  -7  225.08    7.20
  -1  -1   7  236.88    5.80
  -1  -1   7  227.28    5.30
  -1  -1   7  234.98    5.70
   0   1  -7  386.56    7.60
   0   1  -7  383.36   10.00
   0   1  -7  376.16    7.60
   0  -1   7  386.26    6.70
   0  -1   7  382.66   10.20
   0  -1   7  375.76    6.60
   0  -1   7  376.26    6.20
  -1   1  -7  383.96    6.10
  -1   1  -7  380.36    7.00
  -1   1  -7  382.56    9.80
  -1   1  -7  372.06    6.90
  -1   1  -7  383.26    6.90
   1  -1   7  389.66    7.60
   1  -1   7  385.66   10.20
  -2   1  -7  137.79    3.40
  -2   1  -7  131.79    3.10
  -2   1  -7  139.09    4.90
  -2   1  -7  131.59    7.20
  -2   1  -7  140.59    5.90
  -2   1  -7  138.89    3.10
  -2   1  -7  139.79    5.00
   2  -1   7  141.49    4.20
   2  -1   7  136.09    6.90
  -3   1  -7   44.40    4.40
  -3   1  -7   44.90    2.90
  -3   1  -7   42.20    5.60
  -3   1  -7   45.20    4.30
  -3   1  -7   37.80    6.10
   3  -1   7   45.30    3.10
  -4   1  -7  335.27    8.80
  -4   1  -7  316.57    9.40
  -4   1  -7  313.87    7.40
  -4   1  -7  316.27    9.10
  -4   1  -7  329.27   11.80
   4  -1   7  320.97    6.60
  -5   1  -7   20.70    5.60
  -5   1  -7   13.20    2.20
  -5   1  -7   20.50    3.90
  -5   1  -7   18.50    2.50
  -5   1  -7   14.80    2.40
  -5   1  -7   18.20    2.30
  -5   1  -7   19.00    4.30
   5  -1   7   19.30    2.50
  -6   1  -7   23.90    3.20
  -6   1  -7   16.00    2.60
   6  -1   7   17.30    4.30
   6  -1   7   19.60    2.80
   5   0  -7    1.30    2.90
   5   0  -7    2.10    4.10
  -5   0   7    9.40    3.50
  -5   0   7   -4.50    3.70
   4   0  -7    1.60    3.20
   4   0  -7    0.50    2.50
   4   0  -7   -1.70    2.90
  -4   0   7    1.60    3.00
  -4   0   7   -0.30    2.80
  -4   0   7   -1.10    2.80
   3   0  -7   28.90    3.70
   3   0  -7   33.90    5.50
  -3   0   7   35.90    4.70
  -3   0   7   38.10    3.90
  -3   0   7   35.30    3.70
   2   0  -7    1.10    2.50
   2   0  -7    2.60    2.00
   2   0  -7    7.20    2.40
  -2   0   7    2.60    2.20
  -2   0   7    0.70    2.00
  -2   0   7    0.80    2.30
   1   0  -7    0.50    1.80
   1   0  -7   -2.30    2.00
   1   0  -7    0.90    1.80
  -1   0   7   -0.40    1.50
  -1   0   7   -2.70    1.70
  -1   0   7    1.00    1.40
   0   0  -7   30.60    4.10
   0   0  -7   31.50    3.00
   0   0  -7   25.10    2.70
   0   0   7   29.30    2.20
   0   0   7   27.40    2.40
   0   0   7   23.70    4.40
  -1   0  -7   80.99    4.90
  -1   0  -7   89.89    3.10
  -1   0  -7   83.89    3.00
   1   0   7   82.59    5.50
   1   0   7   80.39    3.00
  -2   0  -7  294.67    5.00
  -2   0  -7  294.27    6.80
  -2   0  -7  287.17    9.40
  -2   0  -7  297.17    6.80
  -2   0  -7  285.07    5.30
  -2   0  -7  300.87    8.20
  -2   0  -7  294.17    5.30
   2   0   7  297.77    9.40
   2   0   7  294.77    6.70
   2   0   7  273.57    8.20
  -3   0  -7  320.97   10.60
  -3   0  -7  301.67    7.60
  -3   0  -7  309.67    5.40
  -3   0  -7  299.17    5.30
  -3   0  -7  323.17    8.60
  -3   0  -7  306.67    8.00
  -3   0  -7  310.17    6.20
   3   0   7  313.67    6.00
   3   0   7  312.87    8.00
  -4   0  -7    3.00    1.80
  -4   0  -7    4.30    4.30
  -4   0  -7    7.50    3.00
  -4   0  -7    6.70    1.30
  -4   0  -7    6.30    1.40
  -4   0  -7    8.70    2.90
   4   0   7    8.20    1.80
   4   0   7    7.80    2.80
  -5   0  -7    7.30    1.90
  -5   0  -7    6.30    3.50
  -5   0  -7    3.40    1.80
  -5   0  -7    6.30    1.60
  -5   0  -7    1.70    4.70
   5   0   7    3.50    2.80
   5   0   7    7.30    2.00
   5   0   7    4.30    3.20
  -6   0  -7    4.70    1.90
  -6   0  -7    7.90    2.20
   6   0   7    8.80    3.80
   5  -1  -7   -5.50    5.50
   5  -1  -7   11.90    4.30
   5  -1  -7    0.20    2.70
  -5   1   7    2.90    4.00
  -5   1   7    3.10    3.70
   4  -1  -7   12.70    3.70
   4  -1  -7    3.30    3.20
   4  -1  -7    2.10    2.30
  -4   1   7    2.70    2.30
  -4   1   7    3.00    3.10
   3  -1  -7   14.20    2.60
   3  -1  -7   14.90    3.00
  -3   1   7   18.70    3.20
  -3   1   7   18.00    2.00
  -3   1   7   19.20    3.20
   2  -1  -7  167.58    6.10
   2  -1  -7  161.78    6.10
   2  -1  -7  162.68    6.90
  -2   1   7  169.48    5.70
  -2   1   7  169.58    5.80
   1  -1  -7   24.40    4.10
   1  -1  -7   23.90    2.60
   1  -1  -7   28.20    3.60
  -1   1   7   27.10    2.50
  -1   1   7   24.20    3.20
  -1   1   7   26.00    2.90
   0  -1  -7    7.00    1.70
   0  -1  -7    7.20    1.80
   0  -1  -7    4.70    1.80
   0   1   7    6.90    3.10
   0   1   7    7.80    1.10
   0   1   7    6.80    1.60
   0   1   7    6.70    1.40
   0   1   7    6.70    1.90
  -1  -1  -7   61.19    2.80
  -1  -1  -7   60.49    2.80
  -1  -1  -7   62.79    4.40
   1   1   7   60.39    1.90
   1   1   7   61.19    4.60
   1   1   7   57.19    2.70
   1   1   7   60.79    2.00
   1   1   7   53.39    4.90
  -2  -1  -7  135.49    4.10
  -2  -1  -7  135.79    5.70
  -2  -1  -7  135.49    6.90
  -2  -1  -7  136.29    3.50
  -2  -1  -7  127.79    3.40
   2   1   7  132.99    5.80
   2   1   7  132.49    4.50
   2   1   7  133.89    6.70
  -3  -1  -7   66.69    4.90
  -3  -1  -7   61.59    6.30
  -3  -1  -7   68.19    4.70
  -3  -1  -7   62.89    3.90
  -3  -1  -7   67.19    2.70
  -3  -1  -7   63.49    2.50
   3   1   7   63.69    6.10
   3   1   7   64.29    4.90
   3   1   7   65.49    4.50
  -4  -1  -7  396.86    7.30
  -4  -1  -7  410.96    9.40
  -4  -1  -7  391.36   10.30
  -4  -1  -7  413.36    7.40
  -4  -1  -7  406.26    9.90
  -4  -1  -7  407.66   12.80
   4   1   7  401.16   10.20
   4   1   7  417.96    6.90
   4   1   7  406.06   10.00
  -5  -1  -7   72.29    3.80
  -5  -1  -7   83.29    6.60
  -5  -1  -7   74.39    5.00
  -5  -1  -7   73.99    3.60
   5   1   7   71.69    5.10
   5   1   7   82.49    6.50
  -6  -1  -7    5.30    2.40
  -6  -1  -7    1.40    2.80
  -6  -1  -7   -0.40    1.90
   6   1   7    4.90    3.60
   6   1   7    1.10    3.70
   5  -2  -7   11.10    5.60
   5  -2  -7   19.30    4.40
   5  -2  -7    9.70    2.70
  -5   2   7    5.80    4.00
  -5   2   7   16.60    4.10
   4  -2  -7   12.90    3.60
   4  -2  -7    7.20    2.30
   4  -2  -7    3.40    4.50
   4  -2  -7    9.90    3.40
  -4   2   7   11.70    3.30
  -4   2   7   12.90    3.00
   3  -2  -7    3.50    2.10
   3  -2  -7    4.80    2.70
  -3   2   7    7.90    2.10
  -3   2   7    4.90    2.80
  -3   2   7    5.60    2.80
   2  -2  -7   22.50    2.90
   2  -2  -7   17.40    2.60
   2  -2  -7   26.00    3.10
  -2   2   7   26.50    2.90
  -2   2   7   24.80    3.00
  -2   2   7   20.40    2.50
   1  -2  -7   -0.20    1.60
   1  -2  -7    3.30    1.80
   1  -2  -7    1.40    2.00
  -1   2   7   -0.30    1.70
  -1   2   7    1.20    1.80
  -1   2   7   -1.00    1.60
   0  -2  -7 1515.05   23.00
   0  -2  -7 1511.55   25.20
   0  -2  -7 1569.64   22.90
   0   2   7 1538.35   22.60
   0   2   7 1525.25   26.30
   0   2   7 1501.25   22.40
   0   2   7 1580.24   25.40
  -1  -2  -7  126.29    3.80
  -1  -2  -7  123.39    3.80
   1   2   7  121.79    3.30
   1   2   7  117.89    6.10
   1   2   7  130.89    5.70
   1   2   7  125.59    3.20
   1   2   7  124.19    3.90
  -2  -2  -7   66.89    2.70
  -2  -2  -7   65.09    2.10
  -2  -2  -7   65.39    4.80
  -2  -2  -7   66.69    5.70
  -2  -2  -7   61.89    2.80
  -2  -2  -7   64.19    2.80
   2   2   7   65.59    5.30
   2   2   7   66.09    4.60
   2   2   7   63.29    3.60
  -3  -2  -7 1304.37   19.80
  -3  -2  -7 1302.67   19.50
  -3  -2  -7 1291.67   19.40
  -3  -2  -7 1299.47   24.50
  -3  -2  -7 1322.67   19.40
  -3  -2  -7 1332.87   22.40
   3   2   7 1322.97   21.50
   3   2   7 1352.76   22.40
   3   2   7 1321.27   24.70
  -4  -2  -7 2426.36   36.90
  -4  -2  -7 2428.16   36.90
  -4  -2  -7 2372.96   34.00
  -4  -2  -7 2349.86   34.00
   4   2   7 2418.36   36.70
   4   2   7 2343.27   34.90
   4   2   7 2443.86   37.10
  -5  -2  -7   38.80    4.60
  -5  -2  -7   32.00    2.90
  -5  -2  -7   30.80    3.30
  -5  -2  -7   29.20    4.80
   5   2   7   27.10    4.80
   5   2   7   40.30    5.70
   5   2   7   35.60    4.20
  -6  -2  -7    3.90    2.30
  -6  -2  -7    0.30    1.90
  -6  -2  -7    2.30    2.80
   6   2   7    2.00    3.50
   6   2   7    1.60    6.20
  -7  -2  -7    5.80    3.60
   7   2   7    7.30    4.80
   5  -3  -7   11.60    5.60
   5  -3  -7   -3.30    3.80
   5  -3  -7   -3.10    2.30
  -5   3   7   -0.10    4.00
  -5   3   7   -6.70    3.60
   4  -3  -7  154.58    6.90
   4  -3  -7  163.18    9.20
   4  -3  -7  150.68    6.80
   4  -3  -7  157.38    7.30
  -4   3   7  170.08    7.30
  -4   3   7  155.88   11.20
   3  -3  -7  102.49    5.80
   3  -3  -7  101.89    7.10
   3  -3  -7  104.89    6.00
   3  -3  -7   99.79    5.90
  -3   3   7  100.69    5.70
  -3   3   7  100.99    4.70
   2  -3  -7   10.60    2.50
   2  -3  -7    9.60    2.30
   2  -3  -7   14.50    2.70
  -2   3   7   10.30    2.30
  -2   3   7   13.50    2.50
  -2   3   7   12.20    2.50
   1  -3  -7    0.20    1.70
   1  -3  -7    0.70    1.80
  -1   3   7    2.70    1.70
  -1   3   7    2.40    1.90
  -1   3   7    2.40    1.10
  -1   3   7    0.80    1.80
   0  -3  -7  736.73   12.50
   0  -3  -7  738.63   12.40
   0  -3  -7  738.93   14.60
   0   3   7  741.83   14.40
   0   3   7  720.93   12.00
   0   3   7  732.13   15.40
   0   3   7  722.43   10.60
   0   3   7  724.93   12.20
  -1  -3  -7  104.49    3.70
  -1  -3  -7  105.89    5.50
  -1  -3  -7  107.49    3.80
   1   3   7  117.29    5.40
   1   3   7  106.79    3.30
   1   3   7  108.29    6.00
   1   3   7  108.39    3.40
   1   3   7  107.19    3.90
  -2  -3  -7  112.09    5.60
  -2  -3  -7  105.49    3.50
  -2  -3  -7  105.29    6.40
  -2  -3  -7  109.29    2.80
  -2  -3  -7  111.79    3.70
   2   3   7  105.59    2.90
   2   3   7  103.99    2.80
   2   3   7  113.39    5.40
   2   3   7  103.79    6.10
   2   3   7  107.79    4.40
  -3  -3  -7   30.30    5.60
  -3  -3  -7   29.60    3.10
  -3  -3  -7   28.60    2.80
  -3  -3  -7   28.60    2.70
  -3  -3  -7   23.60    2.80
   3   3   7   24.10    4.20
   3   3   7   26.70    3.90
   3   3   7   32.50    5.30
  -4  -3  -7   68.39    5.80
  -4  -3  -7   77.69    3.80
  -4  -3  -7   81.99    4.10
  -4  -3  -7   82.99    4.90
  -4  -3  -7   79.39    7.50
   4   3   7   72.59    5.50
   4   3   7   74.69    5.50
   4   3   7   75.19    3.80
  -5  -3  -7   34.30    4.10
  -5  -3  -7   30.50    3.70
  -5  -3  -7   37.50    5.20
  -5  -3  -7   37.40    3.60
   5   3   7   33.10    4.30
   5   3   7   33.80    4.90
   5   3   7   34.60    4.00
  -6  -3  -7   -1.40    3.00
  -6  -3  -7    1.00    5.20
  -6  -3  -7    0.80    3.30
   6   3   7    0.60    2.40
   6   3   7   -6.40    3.30
   6   3   7    0.20    3.00
  -7  -3  -7    2.40    3.60
  -7  -3  -7    2.90    3.80
   7   3   7    6.00    4.50
   5  -4  -7    8.80    4.20
   5  -4  -7   13.50    5.70
   5  -4  -7    3.40    2.30
  -5   4   7    6.10    3.80
  -5   4   7    8.50    4.50
   4  -4  -7    2.10    3.30
   4  -4  -7    6.20    4.40
   4  -4  -7    3.30    3.10
   4  -4  -7   -1.00    2.20
  -4   4   7   -3.00    3.10
  -4   4   7    3.30    2.90
  -4   4   7   -0.70    2.80
   3  -4  -7  243.58    7.70
   3  -4  -7  234.48    7.60
   3  -4  -7  237.58    7.90
   3  -4  -7  241.08    9.00
  -3   4   7  243.48    7.50
  -3   4   7  230.28    7.00
   2  -4  -7  150.98    5.90
   2  -4  -7  160.98    6.60
   2  -4  -7  156.38    6.00
   2  -4  -7  157.38    6.70
  -2   4   7  155.28    6.60
  -2   4   7  149.49    5.70
  -2   4   7  154.68    4.90
  -2   4   7  154.88    5.90
   1  -4  -7   47.90    3.70
   1  -4  -7   51.69    3.90
   1  -4  -7   49.50    3.90
   1  -4  -7   50.99    4.90
  -1   4   7   49.40    2.60
  -1   4   7   44.70    5.50
  -1   4   7   48.00    4.50
  -1   4   7   53.19    3.70
   0  -4  -7  105.19    4.20
   0  -4  -7  104.79    5.60
   0  -4  -7  101.29    3.50
   0  -4  -7  104.39    4.10
   0   4   7  101.69    3.80
   0   4   7  103.19    2.80
   0   4   7  102.89    4.10
   0   4   7  108.79    5.50
   0   4   7  106.29    6.20
  -1  -4  -7  161.78    6.50
  -1  -4  -7  151.68    4.60
  -1  -4  -7  162.28    4.70
  -1  -4  -7  158.48    3.30
   1   4   7  153.28    3.40
   1   4   7  155.48    6.80
   1   4   7  166.08    6.30
   1   4   7  156.08    4.20
   1   4   7  159.78    4.40
  -2  -4  -7   35.70    2.30
  -2  -4  -7   29.40    4.60
  -2  -4  -7   27.30    2.70
  -2  -4  -7   34.10    3.00
  -2  -4  -7   27.80    5.10
   2   4   7   29.30    3.40
   2   4   7   32.50    2.40
   2   4   7   33.80    2.30
   2   4   7   25.20    4.60
   2   4   7   30.10    4.10
  -3  -4  -7   85.19    5.80
  -3  -4  -7   81.99    3.80
  -3  -4  -7   80.69    3.60
  -3  -4  -7   79.09    3.80
  -3  -4  -7   80.49    6.70
   3   4   7   78.09    2.70
   3   4   7   81.79    2.80
   3   4   7   82.59    6.30
   3   4   7   78.19    5.30
   3   4   7   81.29    4.90
  -4  -4  -7  159.88    8.90
  -4  -4  -7  160.98    5.40
  -4  -4  -7  155.28    5.20
  -4  -4  -7  155.88    7.40
  -4  -4  -7  161.18    5.90
   4   4   7  158.48    6.80
   4   4   7  152.28    4.50
  -5  -4  -7   34.20    4.40
  -5  -4  -7   36.20    3.80
  -5  -4  -7   44.00    8.40
  -5  -4  -7   39.80    4.00
  -5  -4  -7   38.50    5.50
   5   4   7   35.00    4.40
   5   4   7   39.20    3.70
   5   4   7   35.90    5.30
  -6  -4  -7    8.00    3.60
  -6  -4  -7   13.70    3.20
  -6  -4  -7    4.90    3.20
   6   4   7   10.10    2.90
   6   4   7    7.30    3.30
   6   4   7   11.70    4.10
  -7  -4  -7    6.10    4.00
  -7  -4  -7   -0.40    4.20
   7   4   7    7.00    4.50
   5  -5  -7   -4.30    2.40
   5  -5  -7   10.50    5.80
   5  -5  -7   -5.10    4.10
  -5   5   7    2.10    3.70
  -5   5   7   -1.30    4.50
   4  -5  -7    6.90    4.50
   4  -5  -7    1.30    3.30
   4  -5  -7   -0.80    2.30
   4  -5  -7    1.20    3.10
  -4   5   7   -0.90    3.20
  -4   5   7    5.30    3.20
  -4   5   7   -3.10    2.90
  -4   5   7    3.60    2.80
   3  -5  -7    3.10    3.70
   3  -5  -7    5.10    3.00
   3  -5  -7    0.00    2.70
   3  -5  -7   -2.60    2.10
  -3   5   7    1.20    2.10
  -3   5   7    3.50    2.60
  -3   5   7   -0.30    2.00
   2  -5  -7    3.70    2.90
   2  -5  -7    5.50    2.30
   2  -5  -7    2.00    2.50
   2  -5  -7    1.10    2.50
  -2   5   7    1.50    1.70
  -2   5   7    1.60    2.40
  -2   5   7    1.60    2.00
  -2   5   7    0.70    2.30
   1  -5  -7   60.49    5.20
   1  -5  -7   58.79    4.10
   1  -5  -7   59.89    4.10
   1  -5  -7   64.79    4.40
  -1   5   7   61.39    4.00
  -1   5   7   63.89    4.10
  -1   5   7   59.69    3.10
  -1   5   7   61.29    4.90
   0  -5  -7  507.85    9.90
   0  -5  -7  474.45   10.70
   0  -5  -7  541.85   12.10
   0  -5  -7  502.25    8.70
   0   5   7  509.85    9.60
   0   5   7  529.65    9.90
   0   5   7  522.65   12.60
   0   5   7  514.65   11.60
   0   5   7  504.45    8.60
  -1  -5  -7   70.69    2.70
  -1  -5  -7   76.69    5.40
  -1  -5  -7   68.59    3.60
  -1  -5  -7   74.79    3.70
   1   5   7   75.39    3.40
   1   5   7   76.29    3.50
   1   5   7   72.79    5.40
   1   5   7   68.59    2.80
   1   5   7   75.69    5.00
  -2  -5  -7    1.60    1.30
  -2  -5  -7   -0.20    3.40
  -2  -5  -7    0.90    1.80
  -2  -5  -7    4.40    2.10
  -2  -5  -7   -0.80    1.60
   2   5   7    0.70    2.80
   2   5   7   -0.80    1.30
   2   5   7   -1.20    1.40
   2   5   7    1.10    1.90
  -3  -5  -7  223.98    5.90
  -3  -5  -7  211.08    8.20
  -3  -5  -7  219.78    6.00
  -3  -5  -7  213.68    9.00
  -3  -5  -7  217.28    5.90
   3   5   7  215.18    8.70
   3   5   7  215.68    5.10
   3   5   7  220.48    7.00
   3   5   7  222.78    7.80
   3   5   7  218.78    5.20
  -4  -5  -7  135.79    7.50
  -4  -5  -7  137.49    5.50
  -4  -5  -7  134.59    5.20
  -4  -5  -7  137.99    5.90
  -4  -5  -7  134.09    8.50
   4   5   7  136.09    4.00
   4   5   7  138.59    3.90
   4   5   7  136.79    6.70
   4   5   7  131.89    3.90
  -5  -5  -7   10.60    3.30
  -5  -5  -7   12.00    3.00
  -5  -5  -7    3.40    2.60
  -5  -5  -7    6.50    3.00
   5   5   7   10.00    2.30
   5   5   7    8.60    2.50
   5   5   7    9.60    1.50
   5   5   7    9.80    3.50
   5   5   7    8.70    1.70
  -6  -5  -7    3.20    3.50
  -6  -5  -7   -0.30    3.10
  -6  -5  -7    1.30    3.00
   6   5   7    5.90    3.10
   6   5   7   -0.30    2.70
   6   5   7   -0.50    3.60
   5  -6  -7    0.40    4.00
   5  -6  -7   -4.10    3.60
   5  -6  -7    1.20    5.90
  -5   6   7    3.20    3.70
  -5   6   7    1.10    3.80
  -5   6   7    2.70    4.90
   4  -6  -7   -1.80    2.40
   4  -6  -7    9.00    4.60
   4  -6  -7    2.80    3.20
   4  -6  -7    5.10    3.30
  -4   6   7   -1.50    3.00
  -4   6   7    1.00    2.80
  -4   6   7   -1.50    3.40
   3  -6  -7   46.00    5.20
   3  -6  -7   49.99    5.60
   3  -6  -7   46.20    8.50
  -3   6   7   38.50    4.80
  -3   6   7   47.20    4.90
   2  -6  -7   20.60    3.00
   2  -6  -7   23.80    3.10
   2  -6  -7   28.30    3.60
   2  -6  -7   31.40    4.20
  -2   6   7   25.90    3.70
  -2   6   7   20.30    3.50
   1  -6  -7   39.10    4.00
   1  -6  -7   48.10    5.70
   1  -6  -7   36.40    3.80
   1  -6  -7   42.70    4.30
  -1   6   7   40.70    3.20
  -1   6   7   42.50    4.00
  -1   6   7   39.20    5.80
  -1   6   7   39.40    3.90
   0  -6  -7   59.39    2.90
   0  -6  -7   59.99    5.80
   0  -6  -7   55.79    3.90
   0  -6  -7   64.89    4.10
   0   6   7   67.49    3.80
   0   6   7   56.09    3.80
   0   6   7   59.69    5.10
   0   6   7   60.59    5.70
   0   6   7   64.09    3.10
  -1  -6  -7   33.90    5.30
  -1  -6  -7   27.60    3.20
  -1  -6  -7   31.80    2.60
  -1  -6  -7   27.00    3.30
   1   6   7   28.40    3.00
   1   6   7   25.10    4.60
   1   6   7   27.40    3.20
   1   6   7   31.90    4.40
   1   6   7   27.30    2.80
  -2  -6  -7   43.60    6.00
  -2  -6  -7   44.50    2.90
  -2  -6  -7   48.90    3.20
  -2  -6  -7   50.09    4.10
  -2  -6  -7   53.59    5.90
  -2  -6  -7   47.80    3.60
   2   6   7   47.50    5.20
   2   6   7   50.09    5.00
   2   6   7   49.10    3.50
   2   6   7   45.70    3.20
   2   6   7   46.20    3.30
  -3  -6  -7  141.89    7.90
  -3  -6  -7  140.99    7.70
  -3  -6  -7  137.39    5.20
  -3  -6  -7  141.29    5.30
  -3  -6  -7  146.49    5.20
   3   6   7  138.99    6.10
   3   6   7  133.09    7.50
   3   6   7  137.69    6.90
   3   6   7  135.19    4.60
   3   6   7  141.59    4.50
  -4  -6  -7  254.27    7.20
  -4  -6  -7  255.97    9.50
  -4  -6  -7  259.77   10.60
  -4  -6  -7  263.37    7.70
  -4  -6  -7  255.57    7.30
   4   6   7  249.97    6.20
   4   6   7  244.38    5.40
   4   6   7  251.77    8.70
   4   6   7  262.27    9.10
   4   6   7  247.98    6.10
  -5  -6  -7   44.90    5.80
  -5  -6  -7   46.20    5.20
  -5  -6  -7   48.30    6.70
  -5  -6  -7   45.20    4.80
   5   6   7   65.79    6.30
   5   6   7   48.10    3.80
   5   6   7   52.79    3.60
   5   6   7   43.60    6.00
   5   6   7   50.19    3.80
  -6  -6  -7   20.70    4.20
  -6  -6  -7   15.60    3.40
  -6  -6  -7   13.20    3.60
   6   6   7    7.40    3.20
   6   6   7   12.40    2.40
   6   6   7   12.30    3.40
   6   6   7   14.90    2.10
   6   6   7    6.90    4.00
   4  -7  -7  117.69    6.70
   4  -7  -7  129.99    7.10
   4  -7  -7  109.69    7.20
   4  -7  -7  121.79    9.60
   4  -7  -7  118.79    7.20
  -4   7   7  103.99    7.90
  -4   7   7  129.49    6.90
  -4   7   7  123.49    7.20
   3  -7  -7    2.50    3.80
   3  -7  -7    0.30    2.80
   3  -7  -7   -1.10    2.40
  -3   7   7    0.40    2.20
  -3   7   7    0.40    2.70
  -3   7   7    1.20    2.50
  -3   7   7    3.30    2.70
   2  -7  -7   22.80    3.20
   2  -7  -7   26.90    3.60
   2  -7  -7   25.20    3.40
   2  -7  -7   26.10    3.40
  -2   7   7   24.90    2.90
  -2   7   7   20.80    3.00
  -2   7   7   28.80    3.30
   1  -7  -7   32.40    4.30
   1  -7  -7   43.20    4.00
   1  -7  -7   33.90    4.40
   1  -7  -7   36.90    6.10
  -1   7   7   44.80    5.40
  -1   7   7   33.20    4.20
  -1   7   7   40.10    3.70
  -1   7   7   41.60    4.30
   0  -7  -7  299.57    7.60
   0  -7  -7  299.77    6.80
   0  -7  -7  289.47    7.70
   0  -7  -7  308.77    9.90
   0   7   7  301.47    7.60
   0   7   7  291.97    6.80
   0   7   7  307.07    9.40
   0   7   7  296.17    9.70
   0   7   7  290.17    7.40
  -1  -7  -7  114.59    5.00
  -1  -7  -7  126.69    5.10
  -1  -7  -7  118.19    7.30
  -1  -7  -7  121.39    4.50
  -1  -7  -7  118.89    4.30
   1   7   7  120.69    4.70
   1   7   7  114.49    4.40
   1   7   7  127.29    6.50
   1   7   7  121.69    4.90
   1   7   7  112.79    6.40
  -2  -7  -7   19.70    2.30
  -2  -7  -7   14.20    2.60
  -2  -7  -7   16.30    2.50
  -2  -7  -7   13.50    3.10
  -2  -7  -7   16.70    5.30
  -2  -7  -7   18.30    2.20
   2   7   7   12.90    2.40
   2   7   7   17.80    2.40
   2   7   7   16.70    3.80
   2   7   7   16.40    2.50
   2   7   7   17.10    2.20
  -3  -7  -7    2.40    1.30
  -3  -7  -7   -1.00    3.90
  -3  -7  -7    0.00    2.20
  -3  -7  -7   -1.50    2.40
  -3  -7  -7    0.00    2.20
  -3  -7  -7    0.00    2.70
   3   7   7    2.10    2.40
   3   7   7    2.50    3.40
   3   7   7   -2.60    2.00
   3   7   7   -1.80    1.80
   3   7   7    0.50    2.10
  -4  -7  -7   76.89    5.30
  -4  -7  -7   77.29    7.40
  -4  -7  -7   89.79    7.90
  -4  -7  -7   83.29    5.20
  -4  -7  -7   81.59    5.50
   4   7   7   81.19    4.50
   4   7   7   91.79    6.80
   4   7   7   76.29    6.10
   4   7   7   80.79    4.30
   4   7   7   75.39    3.10
  -5  -7  -7   16.60    3.40
  -5  -7  -7   23.30    9.20
  -5  -7  -7   12.00    3.50
  -5  -7  -7   17.50    3.40
   5   7   7   17.10    2.50
   5   7   7   14.00    3.60
   5   7   7   14.40    3.30
   5   7   7   19.10    2.90
  -6  -7  -7   27.80    3.90
  -6  -7  -7   34.90    4.40
   6   7   7   31.30    3.20
   6   7   7   30.70    3.50
   6   7   7   28.50    3.90
   6   7   7   23.10    4.60
   4  -8  -7    0.40    4.80
   4  -8  -7   -5.50    2.90
   4  -8  -7    3.30    3.60
   4  -8  -7    0.90    3.70
   4  -8  -7    1.50    3.70
  -4   8   7    3.10    3.40
  -4   8   7   -0.70    2.40
  -4   8   7    1.80    3.50
   3  -8  -7   -0.40    3.10
   3  -8  -7   -1.40    2.80
   3  -8  -7    0.20    3.70
   3  -8  -7    0.60    2.90
   3  -8  -7    2.60    3.10
  -3   8   7    1.10    2.30
  -3   8   7    0.00    2.70
  -3   8   7    1.70    2.90
  -3   8   7   -4.00    3.00
   2  -8  -7   -2.50    2.50
   2  -8  -7    0.30    2.90
   2  -8  -7    2.80    2.90
   2  -8  -7   -1.20    2.50
   2  -8  -7    4.60    2.90
  -2   8   7    2.80    2.40
  -2   8   7    1.40    2.30
  -2   8   7    1.70    2.30
   1  -8  -7    9.40    2.50
   1  -8  -7    6.70    3.00
   1  -8  -7    8.70    2.90
   1  -8  -7    8.80    2.80
  -1   8   7    9.40    2.60
  -1   8   7   11.00    2.70
  -1   8   7   12.00    2.30
   0  -8  -7  504.85    9.90
   0  -8  -7  503.45   10.80
   0  -8  -7  491.85   13.40
   0  -8  -7  494.45   10.50
   0  -8  -7  489.25   10.00
   0   8   7  480.45   12.50
   0   8   7  496.85    9.90
   0   8   7  489.75   10.40
   0   8   7  495.45   10.60
   0   8   7  507.75   12.70
  -1  -8  -7  103.49    7.60
  -1  -8  -7   90.29    4.50
  -1  -8  -7   96.89    5.00
  -1  -8  -7   87.29    4.40
  -1  -8  -7   92.09    5.00
   1   8   7   99.19    4.90
   1   8   7   93.19    4.80
   1   8   7   89.39    4.60
   1   8   7   98.09    6.40
   1   8   7   88.19    6.30
  -2  -8  -7   41.40    6.90
  -2  -8  -7   33.20    3.90
  -2  -8  -7   37.00    4.40
  -2  -8  -7   38.70    4.20
   2   8   7   33.50    5.20
   2   8   7   28.20    3.90
   2   8   7   31.30    5.30
   2   8   7   31.50    3.90
   2   8   7   28.70    2.90
  -3  -8  -7    0.10    1.50
  -3  -8  -7    3.20    4.20
  -3  -8  -7    3.20    2.60
  -3  -8  -7   -0.20    2.50
  -3  -8  -7    2.60    3.60
  -3  -8  -7    0.50    2.30
   3   8   7   -1.50    2.20
   3   8   7   -1.80    2.00
   3   8   7    2.00    2.30
   3   8   7    3.00    3.60
  -4  -8  -7  372.26    9.80
  -4  -8  -7  388.36    9.70
  -4  -8  -7  391.96    9.90
  -4  -8  -7  390.36   12.70
  -4  -8  -7  400.56   12.80
   4   8   7  391.46    9.00
   4   8   7  364.96    7.30
   4   8   7  392.46    9.10
   4   8   7  404.46   12.40
   4   8   7  381.76   11.00
  -5  -8  -7   -0.10    3.10
  -5  -8  -7    1.60    3.20
  -5  -8  -7    9.90    5.80
  -5  -8  -7   -1.90    3.00
   5   8   7    2.90    2.50
   5   8   7    3.40    2.40
   5   8   7   -1.40    3.20
   5   8   7    0.50    2.90
  -6  -8  -7   -2.70    3.60
   6   8   7    4.50    4.10
   6   8   7   -2.00    3.70
   6   8   7    4.80    3.70
   6   8   7    3.50    3.30
   6   8   7   -0.10    3.30
   4  -9  -7    7.10    4.10
   4  -9  -7   11.00    3.90
   4  -9  -7   12.20    4.00
   4  -9  -7    5.50    5.30
  -4   9   7    3.40    3.90
  -4   9   7   12.00    3.70
  -4   9   7    6.90    3.00
   3  -9  -7    7.60    3.40
   3  -9  -7   10.30    3.40
   3  -9  -7    4.70    3.30
   3  -9  -7   10.30    3.30
   3  -9  -7    6.50    3.90
  -3   9   7    5.30    2.70
  -3   9   7    8.90    3.10
  -3   9   7    6.60    3.10
   2  -9  -7   29.90    3.70
   2  -9  -7   33.00    3.80
   2  -9  -7   32.60    4.00
   2  -9  -7   18.90    3.60
  -2   9   7   27.80    3.30
  -2   9   7   30.90    3.70
  -2   9   7   27.20    3.70
  -2   9   7   29.10    3.70
   1  -9  -7   96.49    5.60
   1  -9  -7   89.29    5.30
   1  -9  -7   87.99    7.90
   1  -9  -7   75.29    5.50
  -1   9   7   83.39    6.90
  -1   9   7   93.79    5.10
  -1   9   7   91.49    5.30
   0  -9  -7  149.99    5.90
   0  -9  -7  154.78    5.80
   0  -9  -7  162.18    6.20
   0  -9  -7  166.28    6.30
   0   9   7  159.18    6.00
   0   9   7  164.48    8.00
   0   9   7  158.38    5.90
   0   9   7  154.48    7.50
  -1  -9  -7  609.34   12.90
  -1  -9  -7  594.44   15.80
  -1  -9  -7  608.64   11.20
  -1  -9  -7  625.04   11.90
   1   9   7  625.04   14.90
   1   9   7  623.44   14.20
   1   9   7  596.94   10.20
   1   9   7  619.64   12.10
   1   9   7  631.94   12.50
  -2  -9  -7   48.20    4.50
  -2  -9  -7   54.49    7.40
  -2  -9  -7   51.19    4.80
  -2  -9  -7   49.10    3.40
   2   9   7   45.80    5.50
   2   9   7   47.30    4.50
   2   9   7   45.80    4.50
  -3  -9  -7    5.30    2.60
  -3  -9  -7    1.00    2.60
  -3  -9  -7   -2.60    3.00
  -3  -9  -7    1.20    4.60
  -3  -9  -7    2.30    2.80
  -3  -9  -7    3.20    1.80
   3   9   7    0.40    2.70
   3   9   7    2.40    2.30
   3   9   7   -0.20    2.50
  -4  -9  -7   25.70    3.70
  -4  -9  -7   19.20    3.60
  -4  -9  -7   31.40    3.90
  -4  -9  -7   32.70    5.80
   4   9   7   20.20    3.70
   4   9   7   30.40    4.20
   4   9   7   25.40    3.40
   4   9   7   27.00    3.40
   4   9   7   20.50    2.90
  -5  -9  -7   -3.10    3.30
  -5  -9  -7   15.20    6.30
  -5  -9  -7    3.70    3.40
   5   9   7    0.90    3.10
   5   9   7    1.00    2.30
   5   9   7   -0.10    2.80
   5   9   7    3.30    3.80
  -6  -9  -7    4.20    4.10
   6   9   7   -6.50    3.60
   6   9   7    2.80    4.20
   6   9   7    0.10    3.90
   6   9   7    6.50    4.40
   6   9   7    0.80    3.60
   3 -10  -7    9.10    3.70
   3 -10  -7   11.20    3.50
   3 -10  -7    9.50    4.50
   3 -10  -7    4.90    3.70
  -3  10   7    6.00    3.40
  -3  10   7    6.40    3.70
  -3  10   7   11.20    3.50
   2 -10  -7   36.50    4.10
   2 -10  -7   32.60    7.20
   2 -10  -7   25.60    4.30
   2 -10  -7   39.50    4.20
   2 -10  -7   33.40    3.90
  -2  10   7   38.00    5.00
  -2  10   7   27.20    3.60
  -2  10   7   38.00    5.30
  -2  10   7   30.90    3.70
   1 -10  -7   -3.00    3.10
   1 -10  -7   -3.90    2.70
   1 -10  -7    4.10    2.90
  -1  10   7    2.90    2.60
  -1  10   7    0.30    2.60
  -1  10   7   -2.50    3.80
  -1  10   7   -2.90    2.20
   0 -10  -7   78.59    5.10
   0 -10  -7   84.59    8.30
   0 -10  -7   79.39    5.20
   0 -10  -7   77.59    5.50
   0  10   7   80.39    7.00
   0  10   7   78.89    6.20
   0  10   7   82.69    4.80
   0  10   7   84.69    5.20
   0  10   7   77.99    5.20
  -1 -10  -7   -0.10    2.50
  -1 -10  -7    2.00    3.30
  -1 -10  -7   -0.80    2.30
  -1 -10  -7   -1.50    2.50
   1  10   7    1.10    2.60
   1  10   7    2.20    3.10
   1  10   7   -0.50    1.90
   1  10   7    0.10    2.20
   1  10   7    3.30    2.50
  -2 -10  -7    0.90    2.10
  -2 -10  -7    1.50    2.50
  -2 -10  -7   -2.90    3.10
  -2 -10  -7   -2.80    2.60
   2  10   7    3.20    2.50
   2  10   7   -1.30    2.30
   2  10   7   -1.70    3.00
   2  10   7    0.80    1.60
  -3 -10  -7    5.30    2.10
  -3 -10  -7    2.40    2.90
  -3 -10  -7    0.20    2.70
  -3 -10  -7    6.30    3.10
   3  10   7    3.80    2.80
   3  10   7    8.00    2.80
   3  10   7    5.90    1.80
   3  10   7    5.80    2.80
  -4 -10  -7   18.60    5.80
  -4 -10  -7    2.60    3.20
  -4 -10  -7   16.60    3.30
  -4 -10  -7   21.70    3.70
   4  10   7   13.60    3.40
   4  10   7   13.00    3.30
   4  10   7   11.20    3.30
   4  10   7   11.70    3.40
  -5 -10  -7   15.80    4.10
  -5 -10  -7   16.80    6.70
  -5 -10  -7    5.90    4.80
   5  10   7   14.60    2.90
   5  10   7   12.60    4.30
   5  10   7   12.20    3.50
   5  10   7    7.60    5.80
   5  10   7   13.90    3.50
   3 -11  -7    6.60    4.00
   3 -11  -7    1.30    4.70
   3 -11  -7   14.80    3.70
   3 -11  -7    8.80    4.20
  -3  11   7   -1.10    3.40
  -3  11   7   10.10    3.40
  -3  11   7    2.80    3.80
   2 -11  -7   -1.50    3.00
   2 -11  -7   -3.10    3.10
   2 -11  -7   -1.00    3.30
  -2  11   7   -1.10    2.80
  -2  11   7    1.40    2.90
  -2  11   7   -0.20    3.00
   1 -11  -7   21.20    3.60
   1 -11  -7   22.30    3.60
   1 -11  -7   16.90    3.50
  -1  11   7   21.00    3.10
  -1  11   7   12.80    3.20
  -1  11   7   18.10    4.00
  -1  11   7   22.90    5.00
  -1  11   7   11.50    3.20
  -1  11   7   15.30    3.20
   0 -11  -7   17.10    3.10
   0 -11  -7   15.20    3.40
   0 -11  -7   18.60    3.40
   0 -11  -7   15.00    4.00
   0 -11  -7   15.20    3.20
   0  11   7   20.30    3.30
   0  11   7   12.60    3.20
   0  11   7   16.00    3.30
   0  11   7   22.30    4.30
   0  11   7   14.70    3.00
  -1 -11  -7   20.50    3.50
  -1 -11  -7   12.40    3.90
  -1 -11  -7   21.70    3.50
  -1 -11  -7   14.90    2.90
  -1 -11  -7   20.50    3.20
   1  11   7   22.00    3.50
   1  11   7   12.60    3.40
   1  11   7   20.80    2.90
   1  11   7   25.00    4.40
   1  11   7   22.00    3.40
   1  11   7   19.10    3.30
  -2 -11  -7  109.59    6.20
  -2 -11  -7  124.19    7.90
  -2 -11  -7  111.69    6.40
  -2 -11  -7  118.09    4.90
   2  11   7  111.69    4.60
   2  11   7  116.99    6.10
   2  11   7  111.89    6.10
   2  11   7  108.59    6.80
   2  11   7  121.39    6.40
  -3 -11  -7   -3.60    2.90
  -3 -11  -7    5.50    2.20
  -3 -11  -7    2.50    2.70
  -3 -11  -7    4.10    3.30
   3  11   7    3.80    2.20
   3  11   7    7.20    3.10
   3  11   7    4.70    3.00
   3  11   7    3.20    2.80
   3  11   7    7.80    3.10
  -4 -11  -7    6.90    4.00
  -4 -11  -7   -7.30    5.90
  -4 -11  -7   -8.00    3.10
   4  11   7   -0.70    3.00
   4  11   7   -1.70    3.70
   4  11   7   -2.60    3.10
  -5 -11  -7   16.20    7.30
  -5 -11  -7    4.20    4.00
   5  11   7    0.80    4.00
   5  11   7    7.40    3.70
   2 -12  -7   -3.40    3.60
   2 -12  -7   -0.70    3.50
   2 -12  -7    1.20    3.20
  -2  12   7   -3.90    3.30
  -2  12   7    1.10    3.40
  -2  12   7    4.30    3.40
   1 -12  -7    2.20    3.10
   1 -12  -7    8.00    3.70
   1 -12  -7   -4.30    2.90
  -1  12   7   -4.60    3.00
  -1  12   7    3.60    4.10
  -1  12   7    3.00    4.00
  -1  12   7    1.60    3.00
   0 -12  -7    2.20    2.80
   0 -12  -7    6.30    3.40
   0 -12  -7   -0.30    2.90
   0 -12  -7   -0.20    3.00
   0  12   7   -2.70    3.00
   0  12   7   -2.40    2.60
   0  12   7    0.50    3.40
   0  12   7    1.30    3.60
   0  12   7   -1.20    2.80
  -1 -12  -7   -3.70    2.90
  -1 -12  -7    1.60    2.70
  -1 -12  -7    0.20    2.80
  -1 -12  -7   -0.40    3.10
   1  12   7   -0.90    2.70
   1  12   7   -3.30    2.70
   1  12   7   -1.40    2.90
   1  12   7   -1.10    2.90
   1  12   7   -3.50    3.20
   1  12   7   -0.20    2.80
  -2 -12  -7    9.10    2.80
  -2 -12  -7    8.90    3.30
  -2 -12  -7   10.30    3.60
   2  12   7    9.80    2.90
   2  12   7   11.40    3.50
   2  12   7   15.30    3.40
   2  12   7    9.10    3.60
   2  12   7   11.50    4.00
  -3 -12  -7  134.29    7.20
  -3 -12  -7  136.79    7.80
  -3 -12  -7  133.89    5.00
   3  12   7  132.59    7.20
   3  12   7  133.39    7.60
   3  12   7  131.69    5.60
  -4 -12  -7   30.20    4.60
   4  12   7   17.10    4.90
   4  12   7   30.90    4.60
   1 -13  -7   29.80    4.70
   1 -13  -7   19.90    3.90
  -1  13   7   23.60    4.00
  -1  13   7   35.10    5.50
  -1  13   7   21.20    4.50
   0 -13  -7   89.69    6.30
   0 -13  -7  105.89    7.10
   0  13   7   80.89    6.50
   0  13   7   86.19    7.20
   0  13   7  100.39    6.70
   0  13   7   81.49    7.10
  -1 -13  -7   26.50    3.60
  -1 -13  -7   32.80    4.50
  -1 -13  -7   32.60    4.50
   1  13   7   41.70    4.80
   1  13   7   34.60    4.30
   1  13   7   36.50    5.20
   1  13   7   36.00    4.50
  -2 -13  -7    6.40    4.00
  -2 -13  -7    3.00    2.90
   2  13   7    1.60    3.20
   2  13   7    2.10    3.40
   2  13   7    3.20    3.40
  -3 -13  -7   11.40    2.80
  -3 -13  -7    8.40    4.40
   3  13   7    7.40    3.90
   3  13   7    3.00    3.90
   0 -14  -7   40.50    5.20
   0 -14  -7   34.50    4.50
   0  14   7   32.90    4.90
   0  14   7   48.20    6.40
  -1 -14  -7    5.60    4.40
  -1 -14  -7   -1.40    3.40
   1  14   7   -0.10    3.80
   1  14   7    3.10    4.10
  -2 -14  -7    6.70    3.30
  -2 -14  -7    6.30    4.50
   2  14   7    0.40    4.10
   2  14   7    2.40    3.80
   0   9  -8   38.10    4.80
   0   9  -8   54.69    6.60
   0   9  -8   33.80    4.60
   0  -9   8   27.80    4.50
   0  -9   8   23.60    4.10
  -1   9  -8    5.00    3.60
  -1   9  -8   13.30    3.70
  -1   9  -8    7.10    3.80
   1  -9   8    2.60    3.60
   1  -9   8    3.60    3.60
   2   8  -8    3.70    4.60
  -2  -8   8   -8.10    3.50
  -2  -8   8    3.30    3.80
   1   8  -8    3.20    3.90
  -1  -8   8    4.80    3.70
  -1  -8   8    0.40    3.40
  -1  -8   8   -5.60    3.20
   0   8  -8    7.20    3.40
   0   8  -8    2.30    3.20
   0   8  -8   -3.80    3.00
   0   8  -8   -0.50    2.50
   0  -8   8   -2.90    3.30
  -1   8  -8    3.40    3.10
  -1   8  -8    6.80    3.10
  -1   8  -8    2.10    3.20
  -1   8  -8    9.80    3.10
   1  -8   8    2.80    3.30
  -2   8  -8   48.80    4.60
  -2   8  -8   57.09    4.90
  -2   8  -8   48.30    8.30
  -2   8  -8   46.60    6.50
  -2   8  -8   51.79    6.20
   2  -8   8   52.79    6.20
  -3   8  -8   25.20    4.10
  -3   8  -8   32.90    4.90
  -3   8  -8   22.10    4.20
   3  -8   8   27.40    4.30
   2   7  -8    8.60    4.10
  -2  -7   8   14.30    4.60
  -2  -7   8    6.70    3.50
  -2  -7   8    0.40    2.80
  -2  -7   8   -0.90    3.30
   1   7  -8   14.50    3.60
   1   7  -8   11.90    3.60
  -1  -7   8    8.40    1.60
  -1  -7   8    4.90    3.00
  -1  -7   8   19.30    4.40
  -1  -7   8   13.70    3.50
  -1  -7   8    9.30    2.00
   0   7  -8   38.20    3.80
   0   7  -8   42.50    5.50
   0   7  -8   38.40    5.30
   0   7  -8   39.60    4.90
   0  -7   8   48.30    5.90
   0  -7   8   33.60    4.10
   0  -7   8   42.50    5.20
  -1   7  -8    1.90    2.50
  -1   7  -8    0.60    4.30
  -1   7  -8   -3.30    2.40
  -1   7  -8   -2.00    3.00
  -1   7  -8    4.40    2.90
   1  -7   8    3.50    2.70
   1  -7   8   -1.60    2.90
  -2   7  -8   13.40    3.50
  -2   7  -8   12.80    2.70
  -2   7  -8   15.40    2.40
  -2   7  -8   20.20    3.70
   2  -7   8   10.90    3.40
  -3   7  -8   27.20    3.00
  -3   7  -8   34.50    4.70
  -3   7  -8   25.80    4.30
  -3   7  -8   35.20    6.80
  -3   7  -8   23.90    3.70
   3  -7   8   29.00    4.20
  -4   7  -8   54.59    7.60
  -4   7  -8   59.69    9.00
  -4   7  -8   46.80    6.40
   4  -7   8   36.10    4.50
   3   6  -8   -7.50    4.30
   3   6  -8   -3.00    3.90
  -3  -6   8   -7.50    5.70
  -3  -6   8    2.60    3.90
  -3  -6   8    8.70    3.50
  -3  -6   8   -3.50    3.60
   2   6  -8   13.80    3.90
   2   6  -8   20.40    3.50
  -2  -6   8   11.90    3.20
  -2  -6   8    8.70    3.40
  -2  -6   8   18.10    3.00
  -2  -6   8   24.60    5.10
   1   6  -8    0.70    3.00
   1   6  -8   11.80    3.40
  -1  -6   8   14.90    4.20
  -1  -6   8    3.50    2.80
  -1  -6   8    6.60    1.80
  -1  -6   8    5.10    2.10
  -1  -6   8    6.90    3.00
   0   6  -8   -0.50    2.90
   0   6  -8   -1.20    2.80
   0   6  -8    1.60    2.40
   0   6  -8   -1.60    1.70
   0  -6   8   -1.70    2.60
   0  -6   8    1.50    2.30
   0  -6   8    0.60    3.30
  -1   6  -8   10.00    2.40
  -1   6  -8   15.70    2.70
  -1   6  -8   13.20    2.60
  -1   6  -8   16.80    3.80
  -1   6  -8    5.40    3.00
   1  -6   8   12.90    3.20
   1  -6   8   12.60    4.10
   1  -6   8   10.30    2.50
  -2   6  -8   91.99    5.30
  -2   6  -8   77.89    5.90
  -2   6  -8   92.29    4.20
  -2   6  -8   79.39    3.60
  -2   6  -8   89.19    6.80
  -2   6  -8   87.39    7.50
   2  -6   8   84.19    5.60
  -3   6  -8   -1.60    1.40
  -3   6  -8   -1.60    2.40
  -3   6  -8    4.80    1.70
  -3   6  -8   -2.20    2.60
  -3   6  -8    2.80    3.30
  -3   6  -8    0.00    3.60
  -3   6  -8    2.50    4.90
   3  -6   8   -2.70    2.80
  -4   6  -8    2.40    3.00
  -4   6  -8   11.10    5.70
  -4   6  -8    9.10    3.10
  -4   6  -8    9.00    4.00
   4  -6   8   11.50    3.40
   4   5  -8    3.50    4.60
  -4  -5   8   -2.20    4.20
   3   5  -8   -1.40    3.70
   3   5  -8   -7.00    4.00
  -3  -5   8    4.90    3.50
  -3  -5   8   -1.30    3.10
   2   5  -8   10.80    3.50
   2   5  -8   -1.80    3.00
   2   5  -8   -0.10    3.10
  -2  -5   8   -3.20    2.90
  -2  -5   8   -0.70    4.30
  -2  -5   8   -1.20    2.80
  -2  -5   8    4.80    2.50
   1   5  -8   13.20    3.10
   1   5  -8    8.40    3.40
   1   5  -8   17.70    3.30
  -1  -5   8   16.10    3.10
  -1  -5   8   13.40    2.70
  -1  -5   8   16.70    2.30
  -1  -5   8   18.30    4.30
  -1  -5   8   16.70    2.10
   0   5  -8   51.09    4.90
   0   5  -8   59.89    7.10
   0   5  -8   58.69    4.50
   0   5  -8   51.39    4.30
   0   5  -8   55.69    2.70
   0  -5   8   53.89    4.00
   0  -5   8   53.49    5.70
   0  -5   8   48.50    5.00
  -1   5  -8    5.50    2.70
  -1   5  -8    7.20    2.10
  -1   5  -8    5.90    2.30
  -1   5  -8    5.70    2.00
   1  -5   8    5.10    2.00
   1  -5   8    5.10    2.60
   1  -5   8    3.60    3.80
  -2   5  -8  125.29    6.10
  -2   5  -8  110.59    4.90
  -2   5  -8  119.49    4.10
  -2   5  -8  116.89    6.90
  -2   5  -8  106.99    3.70
  -2   5  -8  120.79    7.50
   2  -5   8  111.39    5.50
  -3   5  -8   20.00    3.20
  -3   5  -8   26.20    2.90
  -3   5  -8   30.70    4.10
  -3   5  -8   37.90    6.00
  -3   5  -8   26.20    4.50
   3  -5   8   27.60    3.30
  -4   5  -8    9.10    3.90
  -4   5  -8    6.30    3.70
  -4   5  -8    1.80    2.60
  -4   5  -8   12.70    5.50
  -4   5  -8    0.70    2.70
   4  -5   8    3.60    2.80
  -5   5  -8    1.00    4.20
  -5   5  -8    5.40    3.40
   5  -5   8    6.80    3.30
   4   4  -8   12.90    4.60
   4   4  -8   26.40    4.70
  -4  -4   8    9.60    4.00
  -4  -4   8   20.80    4.50
   3   4  -8    0.00    3.20
   3   4  -8    8.00    4.00
  -3  -4   8    3.40    3.10
  -3  -4   8   -0.60    3.10
  -3  -4   8   -3.70    3.20
   2   4  -8    3.50    3.10
   2   4  -8    4.20    3.20
   2   4  -8    5.70    3.10
  -2  -4   8    8.90    2.60
  -2  -4   8    3.60    4.30
  -2  -4   8    5.30    2.60
  -2  -4   8    4.50    2.80
   1   4  -8   52.09    5.20
   1   4  -8   54.69    7.00
   1   4  -8   52.69    7.00
  -1  -4   8   58.29    6.10
  -1  -4   8   46.20    3.50
  -1  -4   8   52.79    3.20
  -1  -4   8   51.69    4.00
   0   4  -8    9.30    2.80
   0   4  -8   12.80    2.80
   0   4  -8   13.20    2.20
   0   4  -8   10.30    2.50
   0  -4   8   16.10    2.10
   0  -4   8   14.50    3.90
   0  -4   8   10.70    2.70
  -1   4  -8   -0.30    1.70
  -1   4  -8   -1.70    1.70
  -1   4  -8    2.00    2.00
  -1   4  -8    0.40    2.30
  -1   4  -8    2.80    1.80
   1  -4   8   -1.70    3.20
   1  -4   8    4.30    2.50
   1  -4   8   -0.20    1.60
  -2   4  -8   41.90    2.80
  -2   4  -8   44.60    5.80
  -2   4  -8   45.20    4.40
  -2   4  -8   45.40    5.80
  -2   4  -8   44.40    5.40
  -2   4  -8   37.20    3.40
   2  -4   8   42.30    6.10
   2  -4   8   37.30    4.20
  -3   4  -8  208.68    6.10
  -3   4  -8  213.38    8.40
  -3   4  -8  217.58    7.80
  -3   4  -8  226.38    9.90
   3  -4   8  218.88    6.70
  -4   4  -8   11.30    3.60
  -4   4  -8   14.50    2.70
  -4   4  -8    9.00    2.60
  -4   4  -8    8.90    5.30
  -4   4  -8   13.20    3.90
   4  -4   8   12.50    2.90
  -5   4  -8    1.80    2.40
  -5   4  -8    1.20    2.90
  -5   4  -8   14.90    7.10
   5  -4   8    5.30    3.00
   4   3  -8   66.19    8.10
   4   3  -8   71.89    9.40
  -4  -3   8   99.39    8.60
  -4  -3   8   86.09    7.00
   3   3  -8    0.10    3.10
   3   3  -8    3.80    3.20
   3   3  -8    7.00    3.60
  -3  -3   8    0.30    3.00
  -3  -3   8    5.00    3.10
  -3  -3   8    2.30    3.70
   2   3  -8   52.49    7.10
   2   3  -8   45.70    5.40
   2   3  -8   42.00    5.20
  -2  -3   8   43.90    4.70
  -2  -3   8   40.40    4.30
   1   3  -8  220.38    7.00
   1   3  -8  217.48    6.90
   1   3  -8  217.78    9.40
  -1  -3   8  214.48    8.80
  -1  -3   8  215.38    5.70
  -1  -3   8  213.88    5.60
  -1  -3   8  207.08    5.50
   0   3  -8  270.57   10.80
   0   3  -8  276.87    7.50
   0   3  -8  286.77    7.10
   0  -3   8  297.37    9.70
   0  -3   8  286.47    6.00
   0  -3   8  289.37    7.50
  -1   3  -8    9.90    1.90
  -1   3  -8    8.10    1.90
  -1   3  -8   12.50    2.20
  -1   3  -8    6.20    2.40
  -1   3  -8    6.80    1.70
   1  -3   8   12.00    3.90
   1  -3   8    9.60    2.40
   1  -3   8    7.10    1.50
  -2   3  -8   53.89    5.00
  -2   3  -8   54.39    3.20
  -2   3  -8   61.99    5.80
  -2   3  -8   56.49    4.40
  -2   3  -8   61.29    6.80
  -2   3  -8   59.19    2.80
  -2   3  -8   56.89    2.60
   2  -3   8   57.49    4.10
   2  -3   8   51.99    6.10
  -3   3  -8  114.89    7.90
  -3   3  -8  110.69    6.40
  -3   3  -8  107.39    4.30
  -3   3  -8  114.69    6.60
  -3   3  -8  104.59    6.00
   3  -3   8   96.19    4.80
  -4   3  -8   17.90    3.70
  -4   3  -8   20.70    5.70
  -4   3  -8   14.80    2.40
  -4   3  -8   13.80    2.60
  -4   3  -8   11.80    3.90
   4  -3   8   14.60    2.60
  -5   3  -8   27.10    4.00
  -5   3  -8   19.90    3.10
  -5   3  -8   17.40    2.80
  -5   3  -8   23.50    4.80
   5  -3   8   21.00    3.10
  -6   3  -8    3.90    3.50
   4   2  -8  292.87   11.60
   4   2  -8  296.47   10.40
  -4  -2   8  267.47    9.50
  -4  -2   8  258.37   10.70
   3   2  -8   46.60    6.10
   3   2  -8   52.39    7.30
   3   2  -8   62.89    5.80
  -3  -2   8   42.60    5.40
  -3  -2   8   45.40    5.60
   2   2  -8    0.70    2.60
   2   2  -8    2.20    2.70
   2   2  -8    3.20    2.90
  -2  -2   8   -0.20    2.20
  -2  -2   8    1.80    2.40
  -2  -2   8    1.60    2.30
   1   2  -8   13.80    2.90
   1   2  -8   10.80    4.30
   1   2  -8   11.60    2.50
  -1  -2   8   14.80    2.10
  -1  -2   8   14.60    2.00
  -1  -2   8   14.10    2.30
  -1  -2   8   21.70    4.80
   0   2  -8   91.19    4.30
   0   2  -8   90.59    6.50
   0   2  -8   89.49    4.50
   0  -2   8   86.29    2.70
   0  -2   8   85.39    6.40
   0  -2   8   89.39    3.00
   0  -2   8   87.79    2.80
  -1   2  -8   75.39    3.50
  -1   2  -8   80.59    6.10
  -1   2  -8   75.39    2.90
  -1   2  -8   74.09    3.40
  -1   2  -8   76.49    3.60
   1  -2   8   77.79    6.40
   1  -2   8   79.09    4.30
  -2   2  -8   27.40    4.90
  -2   2  -8   25.50    2.50
  -2   2  -8   29.50    5.20
  -2   2  -8   27.10    3.80
  -2   2  -8   26.10    2.40
  -2   2  -8   25.50    2.20
   2  -2   8   25.40    2.70
   2  -2   8   26.50    4.80
  -3   2  -8   12.90    3.00
  -3   2  -8   21.60    3.50
  -3   2  -8   16.50    1.90
  -3   2  -8   22.10    5.10
  -3   2  -8   13.10    2.50
   3  -2   8   14.00    2.30
  -4   2  -8   74.09    5.60
  -4   2  -8   74.39    6.20
  -4   2  -8   69.99    7.60
  -4   2  -8   73.89    6.20
  -4   2  -8   77.09    4.10
   4  -2   8   74.49    4.20
  -5   2  -8    6.90    5.20
  -5   2  -8    1.10    2.80
  -5   2  -8    1.40    2.10
  -5   2  -8    6.70    3.70
  -5   2  -8   11.70    4.10
   5  -2   8    2.50    2.50
  -6   2  -8   22.30    3.20
  -6   2  -8   41.40    5.50
  -6   2  -8   32.60    6.30
   6  -2   8   37.40    3.60
   5   1  -8   -1.50    3.80
   5   1  -8   10.50    5.40
  -5  -1   8   -0.70    4.20
   4   1  -8   26.60    4.00
   4   1  -8   28.90    4.50
  -4  -1   8   34.70    4.70
   3   1  -8   27.10    4.00
   3   1  -8   23.70    3.60
   3   1  -8   19.20    3.40
  -3  -1   8   25.60    3.50
  -3  -1   8   30.80    3.70
   2   1  -8    3.30    2.80
   2   1  -8    2.20    2.80
   2   1  -8    2.80    2.50
  -2  -1   8   -1.00    2.40
  -2  -1   8    2.10    2.00
  -2  -1   8    3.60    2.30
   1   1  -8    6.10    2.30
   1   1  -8   11.00    2.80
   1   1  -8    9.50    2.40
  -1  -1   8    9.10    1.90
  -1  -1   8   14.10    4.30
  -1  -1   8    9.90    2.30
  -1  -1   8   13.00    1.80
   0   1  -8    8.00    2.00
   0   1  -8   11.90    2.30
   0   1  -8    5.20    2.30
   0  -1   8   10.10    1.10
   0  -1   8   10.40    1.60
   0  -1   8   10.90    1.50
   0  -1   8   11.90    3.90
  -1   1  -8   23.90    2.60
  -1   1  -8   25.60    2.90
  -1   1  -8   18.50    2.60
  -2   1  -8    8.40    1.40
  -2   1  -8    7.00    1.50
  -2   1  -8    8.40    2.50
  -2   1  -8    8.10    1.20
  -2   1  -8    7.40    2.20
  -2   1  -8    6.20    4.00
  -2   1  -8    4.80    2.00
   2  -1   8    6.80    2.10
   2  -1   8    8.30    3.70
  -3   1  -8    7.90    2.80
  -3   1  -8    4.60    1.50
  -3   1  -8   12.20    4.80
  -3   1  -8    4.10    2.00
  -3   1  -8    6.70    1.20
  -3   1  -8    4.80    2.70
  -3   1  -8    6.60    1.10
   3  -1   8    6.50    2.00
  -4   1  -8   44.00    5.00
  -4   1  -8   40.10    5.20
  -4   1  -8   36.30    4.20
  -4   1  -8   36.70    3.40
  -4   1  -8   39.10    7.10
   4  -1   8   29.30    3.30
  -5   1  -8   13.90    2.50
  -5   1  -8   21.50    5.70
  -5   1  -8   16.80    1.80
  -5   1  -8   15.00    1.60
  -5   1  -8   12.60    2.50
  -5   1  -8   12.80    3.80
  -5   1  -8   15.80    4.10
   5  -1   8   14.80    2.50
  -6   1  -8   -2.90    2.00
  -6   1  -8    8.90    2.00
  -6   1  -8    2.50    2.90
   5   0  -8   -3.90    4.50
   5   0  -8    3.00    3.70
  -5   0   8    5.10    4.30
   4   0  -8    5.90    3.10
   4   0  -8    6.60    3.70
  -4   0   8   11.40    3.50
  -4   0   8   19.10    4.40
   3   0  -8    5.20    3.20
   3   0  -8    2.30    2.70
  -3   0   8    3.50    2.80
  -3   0   8    3.40    2.80
   2   0  -8    1.00    2.60
   2   0  -8    0.00    4.20
   2   0  -8    0.10    2.20
  -2   0   8    5.50    2.40
  -2   0   8    7.40    2.50
  -2   0   8    3.30    2.10
   1   0  -8    4.00    2.10
   1   0  -8    8.00    2.50
   1   0  -8    0.70    2.10
  -1   0   8    7.40    2.00
  -1   0   8   16.00    4.30
  -1   0   8    7.40    2.20
  -1   0   8    7.70    1.60
   0   0  -8    6.80    2.20
   0   0  -8    9.20    2.00
   0   0  -8    9.20    2.30
   0   0   8   10.60    3.80
   0   0   8    9.80    1.60
   0   0   8   10.10    1.50
  -1   0  -8   -0.90    1.70
  -1   0  -8    0.80    1.60
  -1   0  -8    1.20    1.40
   1   0   8   -0.30    1.20
   1   0   8   -3.90    2.80
  -2   0  -8   24.20    4.60
  -2   0  -8   24.00    2.30
  -2   0  -8   26.90    3.40
  -2   0  -8   26.00    2.20
  -2   0  -8   25.20    3.50
  -2   0  -8   28.60    4.50
   2   0   8   26.90    3.20
   2   0   8   26.40    4.50
  -3   0  -8    3.90    1.30
  -3   0  -8    5.80    1.20
  -3   0  -8    5.30    4.50
  -3   0  -8    6.10    1.40
  -3   0  -8    6.40    2.10
  -3   0  -8    6.10    3.10
  -3   0  -8    6.00    2.50
   3   0   8    5.40    2.00
   3   0   8    2.70    2.30
   3   0   8    8.30    4.20
  -4   0  -8   49.60    2.40
  -4   0  -8   45.90    3.40
  -4   0  -8   44.20    5.10
  -4   0  -8   49.80    7.40
  -4   0  -8   50.29    2.60
  -4   0  -8   54.39    5.70
   4   0   8   47.60    6.50
   4   0   8   45.70    3.30
  -5   0  -8    1.60    1.50
  -5   0  -8   12.30    5.10
  -5   0  -8    1.60    3.40
  -5   0  -8    1.90    1.80
  -5   0  -8   -2.70    2.00
  -5   0  -8   -4.90    3.40
   5   0   8   -1.00    2.80
   5   0   8    2.40    3.20
  -6   0  -8   32.20    4.80
  -6   0  -8   42.70    3.70
  -6   0  -8   36.10    4.10
   5  -1  -8   -0.90    4.40
   5  -1  -8  -11.20    5.60
  -5   1   8   -2.30    3.80
   4  -1  -8    3.80    3.60
   4  -1  -8   -0.40    2.80
   4  -1  -8   -4.90    5.20
  -4   1   8    1.90    3.70
  -4   1   8   -1.40    2.10
  -4   1   8   -0.60    3.20
   3  -1  -8    7.10    3.20
   3  -1  -8    2.60    2.50
  -3   1   8    8.20    3.00
   2  -1  -8   42.80    5.00
   2  -1  -8   42.10    5.70
   2  -1  -8   36.20    6.00
  -2   1   8   37.00    3.80
  -2   1   8   45.70    4.30
   1  -1  -8  143.39    5.40
   1  -1  -8  145.09    5.60
   1  -1  -8  143.09    6.90
  -1   1   8  145.19    4.90
  -1   1   8  139.59    3.90
   0  -1  -8   19.10    2.40
   0  -1  -8   16.40    2.60
   0  -1  -8   23.10    3.10
   0   1   8   25.90    4.20
   0   1   8   17.90    2.40
  -1  -1  -8   50.99    3.00
  -1  -1  -8   52.49    3.20
  -1  -1  -8   58.09    4.90
   1   1   8   56.99    2.80
   1   1   8   51.99    5.00
   1   1   8   48.20    5.50
   1   1   8   52.99    2.00
   1   1   8   51.29    1.90
  -2  -1  -8   22.90    2.20
  -2  -1  -8   23.10    2.50
  -2  -1  -8   27.10    4.60
  -2  -1  -8   16.90    2.50
  -2  -1  -8   23.20    3.00
   2   1   8   30.80    4.80
   2   1   8   22.70    3.10
   2   1   8   20.00    2.60
  -3  -1  -8   -3.90    4.10
  -3  -1  -8    2.00    1.20
  -3  -1  -8    3.40    1.30
  -3  -1  -8    2.30    1.50
  -3  -1  -8    3.30    2.10
  -3  -1  -8    9.00    4.70
  -3  -1  -8    2.20    2.10
   3   1   8    6.00    3.90
   3   1   8    4.10    2.30
   3   1   8    1.30    2.10
  -4  -1  -8   70.89    7.70
  -4  -1  -8   78.59    3.40
  -4  -1  -8   77.49    5.00
  -4  -1  -8   81.69    6.00
  -4  -1  -8   77.89    5.70
  -4  -1  -8   79.39    3.10
   4   1   8   83.99    6.00
   4   1   8   74.59    5.80
  -5  -1  -8  103.29    3.90
  -5  -1  -8  110.99    6.20
  -5  -1  -8   98.79    7.10
  -5  -1  -8  108.09    4.20
  -5  -1  -8  117.09    9.00
   5   1   8   98.29    7.00
  -6  -1  -8    8.10    2.40
  -6  -1  -8   -0.50    2.10
  -6  -1  -8   -3.80    2.60
   6   1   8   -3.00    3.30
   6   1   8    3.90    4.00
   5  -2  -8   15.80    6.10
   5  -2  -8   13.60    3.30
   5  -2  -8   13.40    4.90
  -5   2   8    6.30    4.30
   4  -2  -8   77.19    6.80
   4  -2  -8   76.39    6.80
   4  -2  -8   55.49    8.80
   4  -2  -8   64.79    5.90
  -4   2   8   75.39    5.00
  -4   2   8   66.09    7.00
  -4   2   8   81.99    6.40
   3  -2  -8    2.50    2.90
   3  -2  -8    2.20    2.40
  -3   2   8    1.50    2.60
  -3   2   8    7.90    1.90
   2  -2  -8   34.00    5.40
   2  -2  -8   36.00    4.70
  -2   2   8   31.40    2.50
  -2   2   8   33.20    4.30
  -2   2   8   33.10    3.50
   1  -2  -8   24.30    3.10
   1  -2  -8   18.40    2.70
   1  -2  -8   27.00    2.90
  -1   2   8   24.60    3.30
   0  -2  -8    8.50    2.20
   0  -2  -8   13.30    2.10
   0  -2  -8   14.50    2.40
   0   2   8   10.00    1.40
   0   2   8    9.90    2.30
   0   2   8   11.30    1.80
   0   2   8   14.70    4.10
   0   2   8   13.30    2.10
  -1  -2  -8    5.10    1.80
  -1  -2  -8    5.60    1.60
  -1  -2  -8    4.40    2.00
   1   2   8    5.80    1.20
   1   2   8    4.60    1.50
   1   2   8    9.00    1.50
   1   2   8    4.70    1.90
   1   2   8    5.00    3.20
  -2  -2  -8   68.29    3.10
  -2  -2  -8   67.59    3.20
  -2  -2  -8   65.99    5.40
  -2  -2  -8   63.09    6.40
  -2  -2  -8   65.19    3.00
   2   2   8   69.59    5.30
   2   2   8   65.79    6.00
   2   2   8   68.19    3.80
  -3  -2  -8  701.73   11.20
  -3  -2  -8  687.53   11.40
  -3  -2  -8  678.73   11.40
  -3  -2  -8  693.33   11.90
  -3  -2  -8  688.23   16.60
  -3  -2  -8  719.83   14.80
   3   2   8  697.83   16.70
   3   2   8  706.83   13.50
   3   2   8  705.03   14.70
  -4  -2  -8  109.59    4.10
  -4  -2  -8  109.69    6.40
  -4  -2  -8  104.69    3.80
  -4  -2  -8  102.29    4.80
   4   2   8  110.39    6.30
   4   2   8  106.79    6.40
  -5  -2  -8    8.00    2.50
  -5  -2  -8   14.90    2.50
  -5  -2  -8   16.10    2.30
   5   2   8   10.80    2.70
   5   2   8   14.00    3.50
  -6  -2  -8    6.60    2.50
  -6  -2  -8   -1.70    2.90
   6   2   8    5.30    4.20
   5  -3  -8   19.00    4.90
   5  -3  -8   10.40    3.10
   5  -3  -8   13.80    6.20
  -5   3   8    7.40    4.00
   4  -3  -8    6.80    3.60
   4  -3  -8    0.80    2.70
   4  -3  -8    0.60    2.90
   4  -3  -8    3.60    4.90
  -4   3   8    6.10    3.20
  -4   3   8    2.70    3.40
   3  -3  -8    9.70    2.70
   3  -3  -8   14.10    3.40
   3  -3  -8   16.80    5.20
  -3   3   8   16.00    2.50
  -3   3   8   16.50    3.20
   2  -3  -8   49.10    5.60
  -2   3   8   55.19    4.60
  -2   3   8   50.19    4.70
   1  -3  -8    1.00    2.40
   1  -3  -8    4.20    2.30
   1  -3  -8    3.20    2.10
  -1   3   8    1.80    1.10
  -1   3   8    3.20    2.00
  -1   3   8    1.70    2.10
  -1   3   8    3.00    2.10
   0  -3  -8  105.29    4.60
   0  -3  -8  102.09    6.00
   0  -3  -8  104.69    4.30
   0   3   8  105.49    4.10
   0   3   8  104.29    6.00
   0   3   8  102.89    6.80
   0   3   8  103.09    3.90
  -1  -3  -8    9.60    1.80
  -1  -3  -8    8.60    2.00
  -1  -3  -8    8.00    2.20
   1   3   8    7.90    1.80
   1   3   8    6.30    2.00
   1   3   8   11.40    3.80
   1   3   8   10.30    1.50
   1   3   8    5.80    1.60
  -2  -3  -8    6.70    4.00
  -2  -3  -8    4.10    1.70
  -2  -3  -8    3.80    2.00
  -2  -3  -8    4.00    1.50
   2   3   8    2.30    1.00
   2   3   8    4.50    3.40
   2   3   8    2.30    1.90
   2   3   8    2.50    1.20
   2   3   8    3.40    2.00
  -3  -3  -8    4.20    1.60
  -3  -3  -8    4.40    2.30
  -3  -3  -8    4.40    1.60
  -3  -3  -8    6.80    4.10
  -3  -3  -8    3.00    1.80
   3   3   8    6.90    3.90
   3   3   8    1.50    2.00
   3   3   8    6.50    2.30
  -4  -3  -8  879.61   17.40
  -4  -3  -8  859.31   14.30
  -4  -3  -8  864.61   14.70
  -4  -3  -8  837.32   14.20
   4   3   8  875.91   17.20
   4   3   8  891.41   20.10
  -5  -3  -8    3.60    2.50
  -5  -3  -8    8.90    2.70
  -5  -3  -8   11.00    2.40
  -5  -3  -8   13.50    3.10
   5   3   8    8.70    2.40
   5   3   8    8.40    2.70
   5   3   8    7.30    3.40
  -6  -3  -8   -1.10    3.00
  -6  -3  -8   -0.20    2.50
  -6  -3  -8    8.40    3.60
   6   3   8    1.90    3.20
   6   3   8    0.60    3.80
   6   3   8    2.70    2.90
   5  -4  -8   -1.50    4.20
   5  -4  -8    3.80    4.80
   5  -4  -8    7.00    6.10
  -5   4   8    0.00    4.10
   4  -4  -8    1.50    4.70
   4  -4  -8    5.30    3.50
   4  -4  -8   -0.10    3.00
   4  -4  -8   -2.20    2.40
  -4   4   8    1.40    3.10
  -4   4   8    5.40    3.50
   3  -4  -8   32.60    4.40
   3  -4  -8   32.50    5.80
   3  -4  -8   26.30    3.70
   3  -4  -8   20.70    3.00
  -3   4   8   25.60    3.00
  -3   4   8   33.40    4.00
  -3   4   8   24.00    3.50
   2  -4  -8   21.90    3.40
   2  -4  -8   18.10    2.90
   2  -4  -8   30.80    4.00
  -2   4   8   21.60    3.10
  -2   4   8   20.30    3.00
  -2   4   8   26.10    3.40
   1  -4  -8   12.20    2.60
   1  -4  -8    8.50    2.60
   1  -4  -8    5.60    2.30
   1  -4  -8    8.70    2.40
  -1   4   8    4.00    2.10
  -1   4   8    5.00    2.00
  -1   4   8    6.80    1.40
  -1   4   8    6.90    2.40
   0  -4  -8   99.79    6.10
   0  -4  -8   97.49    3.80
   0  -4  -8   96.29    4.60
   0  -4  -8   94.29    4.30
   0   4   8   91.39    5.70
   0   4   8   90.79    2.60
   0   4   8   99.39    6.80
   0   4   8   92.69    4.10
   0   4   8   95.29    3.90
  -1  -4  -8    5.90    2.20
  -1  -4  -8    8.00    1.80
  -1  -4  -8    8.70    2.00
   1   4   8    9.50    3.60
   1   4   8    8.80    1.60
   1   4   8    8.70    1.80
   1   4   8    4.80    2.00
  -2  -4  -8   42.70    5.20
  -2  -4  -8   45.30    2.10
  -2  -4  -8   48.30    6.30
  -2  -4  -8   42.60    3.10
  -2  -4  -8   48.10    3.40
   2   4   8   41.40    2.60
   2   4   8   40.70    5.50
   2   4   8   45.80    4.80
   2   4   8   44.60    3.70
   2   4   8   40.30    2.40
  -3  -4  -8  148.69    7.40
  -3  -4  -8  143.39    4.90
  -3  -4  -8  141.29    4.80
  -3  -4  -8  151.08    4.50
  -3  -4  -8  140.69    8.20
   3   4   8  143.29    3.40
   3   4   8  151.18    6.80
   3   4   8  139.29    3.30
   3   4   8  147.49    6.10
   3   4   8  142.99    8.00
  -4  -4  -8    1.70    2.00
  -4  -4  -8    4.20    2.40
  -4  -4  -8    7.80    4.60
  -4  -4  -8    2.70    2.50
   4   4   8   -0.20    2.20
   4   4   8    1.50    3.10
  -5  -4  -8   15.10    3.00
  -5  -4  -8   19.70    2.90
  -5  -4  -8   24.50    5.60
  -5  -4  -8   18.60    3.30
  -5  -4  -8   18.10    3.10
   5   4   8   22.60    4.00
   5   4   8   16.80    3.00
   5   4   8   20.00    2.60
  -6  -4  -8    8.30    2.90
  -6  -4  -8    9.90    3.60
  -6  -4  -8    5.40    3.30
   6   4   8   15.00    4.20
   6   4   8    6.90    3.10
   6   4   8    7.10    3.20
   5  -5  -8    3.50    6.20
   5  -5  -8   -4.80    4.50
  -5   5   8    1.40    3.90
   4  -5  -8    3.00    3.40
   4  -5  -8   -0.30    4.70
   4  -5  -8    0.50    3.60
   4  -5  -8   -4.40    2.60
  -4   5   8    1.60    3.30
  -4   5   8    4.50    3.00
  -4   5   8   -0.90    3.70
   3  -5  -8    4.00    3.00
   3  -5  -8    1.60    2.50
   3  -5  -8    1.70    4.50
   3  -5  -8    3.30    3.10
  -3   5   8   -0.50    2.70
  -3   5   8    3.80    2.20
   2  -5  -8   71.39    6.30
   2  -5  -8   80.79    6.00
   2  -5  -8   70.29    5.30
  -2   5   8   79.59    6.00
  -2   5   8   69.59    4.90
  -2   5   8   73.49    4.00
  -2   5   8   71.19    5.20
   1  -5  -8   28.50    3.20
   1  -5  -8   18.40    2.90
   1  -5  -8   23.20    3.00
   1  -5  -8   29.40    3.20
  -1   5   8   18.80    2.80
  -1   5   8   26.90    2.80
  -1   5   8   20.70    2.70
  -1   5   8   28.60    3.90
   0  -5  -8   12.00    2.50
   0  -5  -8    9.60    2.20
   0  -5  -8    8.60    2.50
   0  -5  -8   12.20    1.80
   0   5   8    9.80    2.00
   0   5   8    5.50    2.20
   0   5   8    9.40    1.40
   0   5   8   12.90    4.10
  -1  -5  -8    1.90    1.00
  -1  -5  -8    1.70    2.60
  -1  -5  -8   -1.60    1.70
  -1  -5  -8    2.80    2.20
   1   5   8    0.10    1.50
   1   5   8   -1.10    3.00
   1   5   8   -1.60    1.60
   1   5   8    3.10    1.90
   1   5   8   -0.20    1.20
  -2  -5  -8   -0.50    1.20
  -2  -5  -8   -2.10    2.10
  -2  -5  -8    1.30    2.20
  -2  -5  -8   -0.50    1.70
  -2  -5  -8    3.50    4.10
   2   5   8    0.60    1.60
   2   5   8   -1.50    1.90
   2   5   8    2.90    1.50
   2   5   8   -1.50    3.20
   2   5   8    2.30    1.90
  -3  -5  -8  115.29    4.60
  -3  -5  -8  114.99    7.90
  -3  -5  -8  105.09    5.80
  -3  -5  -8  119.99    7.30
  -3  -5  -8  111.89    4.30
   3   5   8  117.09    3.80
   3   5   8  111.59    6.40
   3   5   8  115.69    3.70
   3   5   8  123.99    6.00
   3   5   8  119.89    7.70
  -4  -5  -8   59.19    4.50
  -4  -5  -8   58.29    6.50
  -4  -5  -8   62.09    7.20
  -4  -5  -8   62.49    4.60
  -4  -5  -8   65.09    4.20
   4   5   8   52.79    5.60
   4   5   8   61.09    5.70
   4   5   8   56.29    2.80
  -5  -5  -8   39.40    6.30
  -5  -5  -8   27.70    3.60
  -5  -5  -8   39.70    5.60
  -5  -5  -8   38.90    3.90
   5   5   8   38.80    4.60
   5   5   8   46.10    6.00
   5   5   8   38.50    3.30
  -6  -5  -8   -4.10    3.00
  -6  -5  -8    6.30    3.10
  -6  -5  -8    4.30    3.60
  -6  -5  -8    1.00    3.20
   6   5   8   -0.50    4.00
   6   5   8    2.90    3.20
   6   5   8    2.50    3.00
   4  -6  -8    5.10    3.90
   4  -6  -8    5.00    4.80
   4  -6  -8    7.00    3.00
  -4   6   8    4.10    3.50
  -4   6   8    8.20    3.90
  -4   6   8    2.30    3.00
   3  -6  -8    5.80    3.10
   3  -6  -8    0.70    2.60
   3  -6  -8    1.20    3.80
   3  -6  -8   -1.00    2.90
  -3   6   8    1.70    2.70
  -3   6   8    0.70    2.40
   2  -6  -8   50.09    5.10
   2  -6  -8   41.70    6.20
   2  -6  -8   52.99    5.50
  -2   6   8   43.70    5.60
  -2   6   8   47.90    4.00
  -2   6   8   51.79    4.70
   1  -6  -8   50.69    4.60
   1  -6  -8   51.89    4.40
   1  -6  -8   59.99    6.40
  -1   6   8   56.99    4.50
  -1   6   8   56.09    4.60
  -1   6   8   61.79    5.80
  -1   6   8   59.79    3.60
   0  -6  -8   -1.60    2.10
   0  -6  -8    1.60    2.20
   0  -6  -8    1.00    2.30
   0  -6  -8    0.90    1.50
   0   6   8    5.50    3.80
   0   6   8    0.20    1.80
   0   6   8   -0.90    2.00
   0   6   8    2.30    2.10
   0   6   8    0.40    1.40
  -1  -6  -8    5.10    2.30
  -1  -6  -8    3.40    1.40
  -1  -6  -8    4.90    2.10
  -1  -6  -8    3.40    2.40
   1   6   8    3.50    1.80
   1   6   8    4.10    2.10
   1   6   8    3.90    1.50
   1   6   8    1.90    3.40
  -2  -6  -8  156.78    8.30
  -2  -6  -8  152.28    7.90
  -2  -6  -8  155.78    5.50
  -2  -6  -8  150.18    5.40
  -2  -6  -8  154.28    4.40
   2   6   8  160.08    7.20
   2   6   8  150.78    4.80
   2   6   8  151.38    4.90
   2   6   8  151.68    7.80
  -3  -6  -8  227.28    6.10
  -3  -6  -8  234.68    6.70
  -3  -6  -8  216.88    9.60
  -3  -6  -8  216.58    6.50
  -3  -6  -8  226.98    9.20
  -3  -6  -8  223.48    4.50
   3   6   8  222.88    8.50
   3   6   8  221.78    7.60
   3   6   8  212.98    5.70
   3   6   8  220.68    9.40
   3   6   8  223.48    5.60
  -4  -6  -8   -2.10    4.20
  -4  -6  -8    3.50    4.10
  -4  -6  -8    1.60    2.50
  -4  -6  -8    1.10    2.30
  -4  -6  -8   -2.40    2.50
   4   6   8    3.70    1.60
   4   6   8    0.00    2.20
   4   6   8    1.80    2.80
   4   6   8    1.20    1.80
  -5  -6  -8    7.60    5.30
  -5  -6  -8    0.00    2.80
  -5  -6  -8   -1.60    2.60
  -5  -6  -8   -2.20    3.00
  -5  -6  -8   -2.70    2.80
   5   6   8   -0.40    1.80
   5   6   8   -1.50    3.10
   5   6   8   -2.60    2.60
   5   6   8    1.80    1.60
   5   6   8    1.50    1.90
  -6  -6  -8   85.09    6.20
  -6  -6  -8   91.29    6.50
  -6  -6  -8   86.19    7.30
   6   6   8   79.09    5.20
   6   6   8   81.49    7.90
   6   6   8   91.79    8.30
   4  -7  -8    1.00    3.90
   4  -7  -8   13.00    5.30
   4  -7  -8    3.30    3.20
  -4   7   8   13.20    3.60
  -4   7   8    4.50    3.40
  -4   7   8    4.30    4.30
   3  -7  -8    5.60    4.00
   3  -7  -8    4.30    3.30
   3  -7  -8    4.40    2.80
   3  -7  -8    3.10    3.10
  -3   7   8    9.20    3.00
  -3   7   8    6.30    2.70
  -3   7   8    0.10    2.80
  -3   7   8    2.10    2.50
   2  -7  -8    7.20    2.80
   2  -7  -8   -0.20    2.70
   2  -7  -8    9.80    3.40
  -2   7   8    4.70    2.60
  -2   7   8    2.70    2.10
  -2   7   8    3.40    2.40
   1  -7  -8  908.51   16.90
   1  -7  -8  934.81   15.90
   1  -7  -8  923.61   18.90
  -1   7   8  912.11   15.40
  -1   7   8  880.71   17.50
  -1   7   8  933.51   16.70
  -1   7   8  940.11   18.50
   0  -7  -8  559.14    9.60
   0  -7  -8  564.24   14.10
   0  -7  -8  584.74   11.50
   0  -7  -8  570.74   11.70
   0   7   8  564.44   10.30
   0   7   8  559.94   14.30
   0   7   8  560.94   11.40
   0   7   8  577.74   13.60
   0   7   8  558.54   11.30
  -1  -7  -8    0.90    1.50
  -1  -7  -8   -2.80    2.30
  -1  -7  -8    1.90    2.20
  -1  -7  -8    2.60    2.80
   1   7   8    0.50    2.10
   1   7   8    0.40    1.90
   1   7   8   -0.50    1.60
   1   7   8   -1.70    3.40
   1   7   8    1.60    2.20
  -2  -7  -8    0.60    2.40
  -2  -7  -8    1.80    2.80
  -2  -7  -8    0.40    2.20
  -2  -7  -8    2.60    1.80
   2   7   8    1.30    1.90
   2   7   8    0.40    2.00
   2   7   8   -0.70    3.30
   2   7   8    0.40    1.80
   2   7   8    0.90    1.80
  -3  -7  -8   63.39    4.60
  -3  -7  -8   66.79    4.90
  -3  -7  -8   69.69    3.00
  -3  -7  -8   65.79    4.50
  -3  -7  -8   63.39    7.20
   3   7   8   66.69    6.00
   3   7   8   63.59    3.80
   3   7   8   61.89    4.60
   3   7   8   66.09    6.60
  -4  -7  -8   79.29    7.40
  -4  -7  -8   73.99    7.40
  -4  -7  -8   82.29    5.30
  -4  -7  -8   72.69    5.00
  -4  -7  -8   76.19    5.50
   4   7   8   83.29    6.40
   4   7   8   81.09    6.80
   4   7   8   75.49    4.10
  -5  -7  -8   24.60    3.70
  -5  -7  -8   24.70    3.70
  -5  -7  -8   16.20    3.50
  -5  -7  -8   33.60    6.70
  -5  -7  -8   18.40    3.70
   5   7   8   21.10    2.90
   5   7   8   22.60    4.10
   5   7   8   18.70    2.80
  -6  -7  -8   10.70    3.50
  -6  -7  -8    0.30    3.80
   6   7   8    7.40    2.20
   6   7   8    2.50    3.50
   6   7   8    2.80    4.20
   6   7   8    6.60    2.80
   4  -8  -8   35.40    4.90
   4  -8  -8   33.20    5.10
   4  -8  -8   37.20    6.30
  -4   8   8   35.80    6.00
  -4   8   8   35.50    4.70
  -4   8   8   31.70    4.50
   3  -8  -8    8.70    4.30
   3  -8  -8    6.40    3.40
   3  -8  -8    7.40    3.20
   3  -8  -8   11.20    3.60
   3  -8  -8   11.10    3.40
  -3   8   8    0.70    2.90
  -3   8   8    5.60    2.70
  -3   8   8    7.40    2.90
   2  -8  -8   -4.20    2.60
   2  -8  -8   -3.50    3.00
   2  -8  -8   -0.40    2.80
   2  -8  -8    0.00    2.80
   2  -8  -8    3.60    3.00
  -2   8   8   -1.90    2.50
  -2   8   8   -1.10    2.60
  -2   8   8    3.20    2.30
   1  -8  -8    2.30    2.80
   1  -8  -8   -2.60    2.30
   1  -8  -8    2.70    3.00
   1  -8  -8    2.60    2.70
  -1   8   8    3.30    2.70
  -1   8   8    4.50    2.10
  -1   8   8    5.30    2.40
   0  -8  -8  722.23   13.20
   0  -8  -8  691.33   18.50
   0  -8  -8  728.83   14.20
   0   8   8  735.13   14.00
   0   8   8  753.32   16.50
   0   8   8  729.83   16.60
   0   8   8  726.33   13.00
  -1  -8  -8  175.38    5.80
  -1  -8  -8  173.68    6.40
  -1  -8  -8  170.48    5.40
   1   8   8  179.48    6.20
   1   8   8  171.98    5.50
   1   8   8  181.08    8.00
   1   8   8  168.48    8.00
   1   8   8  175.28    6.00
  -2  -8  -8   20.60    2.50
  -2  -8  -8   16.30    3.50
  -2  -8  -8   23.40    3.20
  -2  -8  -8   25.30    2.50
  -2  -8  -8   22.60    4.00
   2   8   8   26.20    3.00
   2   8   8   23.80    3.00
   2   8   8   24.20    4.60
   2   8   8   19.80    2.50
  -3  -8  -8   71.49    3.00
  -3  -8  -8   69.89    7.70
  -3  -8  -8   70.29    5.30
  -3  -8  -8   69.59    4.90
  -3  -8  -8   63.19    7.80
  -3  -8  -8   79.19    5.10
   3   8   8   73.79    6.80
   3   8   8   74.19    4.70
   3   8   8   72.79    6.10
   3   8   8   73.69    4.50
   3   8   8   64.79    6.70
  -4  -8  -8   89.89    8.00
  -4  -8  -8   77.69    5.80
  -4  -8  -8   83.09    5.70
  -4  -8  -8   89.19    8.20
  -4  -8  -8   87.89    5.70
   4   8   8   83.59    6.50
   4   8   8   85.79    5.00
   4   8   8   83.79    4.80
  -5  -8  -8    5.50    3.20
  -5  -8  -8   -0.90    3.20
  -5  -8  -8    0.70    3.10
  -5  -8  -8    0.00    3.20
   5   8   8   -2.10    2.30
   5   8   8    2.50    1.70
   5   8   8    0.60    2.80
   5   8   8    1.40    3.30
   5   8   8    1.90    2.90
  -6  -8  -8    1.90    3.80
   6   8   8   -2.40    3.60
   6   8   8    3.20    2.90
   6   8   8   -1.50    4.20
   4  -9  -8   29.20    6.40
   4  -9  -8   39.30    5.20
   4  -9  -8   43.50    6.60
   4  -9  -8   40.30    5.10
  -4   9   8   30.60    5.00
   3  -9  -8    7.20    3.20
   3  -9  -8    4.00    3.60
   3  -9  -8    5.80    3.70
   3  -9  -8    7.30    3.70
   3  -9  -8    7.30    4.30
  -3   9   8    5.10    3.30
  -3   9   8    4.50    3.20
  -3   9   8    7.80    2.90
   2  -9  -8   41.20    5.70
   2  -9  -8   38.00    4.30
   2  -9  -8   44.00    4.40
   2  -9  -8   42.40    5.40
  -2   9   8   46.00    5.40
  -2   9   8   35.00    3.80
  -2   9   8   47.70    6.70
  -2   9   8   48.00    5.10
   1  -9  -8   52.59    4.60
   1  -9  -8   47.50    5.50
   1  -9  -8   44.10    7.40
   1  -9  -8   62.29    5.40
  -1   9   8   54.99    6.70
  -1   9   8   48.80    4.90
  -1   9   8   49.70    4.50
   0  -9  -8   -1.10    2.90
   0  -9  -8   -0.20    2.50
   0  -9  -8    0.00    2.20
   0  -9  -8   -4.20    2.60
   0   9   8    1.10    2.10
   0   9   8   -0.70    2.40
   0   9   8   -0.90    3.60
   0   9   8   -2.40    2.10
  -1  -9  -8   68.29    5.10
  -1  -9  -8   62.69    7.70
  -1  -9  -8   69.09    4.40
  -1  -9  -8   68.29    4.50
   1   9   8   64.49    4.50
   1   9   8   62.59    4.70
   1   9   8   72.99    6.30
   1   9   8   66.29    6.50
   1   9   8   69.99    5.00
  -2  -9  -8    0.50    2.60
  -2  -9  -8   -2.20    2.20
  -2  -9  -8    1.80    2.50
  -2  -9  -8   -2.60    3.10
  -2  -9  -8    0.00    2.20
   2   9   8   -0.80    2.10
   2   9   8   -0.40    2.80
   2   9   8    5.10    3.60
   2   9   8    0.20    2.50
  -3  -9  -8    9.50    5.40
  -3  -9  -8   16.60    3.00
  -3  -9  -8   10.70    3.20
  -3  -9  -8   13.70    2.10
  -3  -9  -8    7.70    3.60
  -3  -9  -8   11.70    3.10
   3   9   8   13.20    4.30
   3   9   8   12.10    3.30
   3   9   8   16.70    3.10
   3   9   8   16.00    4.60
  -4  -9  -8   -1.10    2.90
  -4  -9  -8    2.20    3.00
  -4  -9  -8    2.60    3.10
  -4  -9  -8    0.50    3.30
  -4  -9  -8   -3.30    5.10
   4   9   8    2.20    2.80
   4   9   8    2.80    2.70
   4   9   8   -3.00    2.80
   4   9   8   -0.60    2.50
  -5  -9  -8    3.20    3.40
  -5  -9  -8    0.80    3.60
  -5  -9  -8    0.40    5.70
   5   9   8    6.00    3.90
   5   9   8    1.00    2.80
   5   9   8   -3.50    3.00
   5   9   8    3.40    1.80
   5   9   8   -1.70    3.20
   3 -10  -8    3.50    4.00
   3 -10  -8   -0.20    4.50
   3 -10  -8    7.00    4.00
  -3  10   8    4.70    3.20
  -3  10   8    1.90    3.40
  -3  10   8    9.90    3.80
   2 -10  -8    7.60    3.80
   2 -10  -8   -2.90    3.00
   2 -10  -8    3.70    3.50
   2 -10  -8    8.60    3.50
  -2  10   8    1.80    2.80
  -2  10   8    0.70    2.90
  -2  10   8    0.60    2.70
   1 -10  -8    8.80    3.10
   1 -10  -8    5.70    3.10
   1 -10  -8    4.60    3.60
   1 -10  -8    9.70    3.30
  -1  10   8    5.50    2.90
  -1  10   8    2.40    2.70
  -1  10   8    0.70    4.40
  -1  10   8    5.10    2.50
  -1  10   8    9.30    3.40
   0 -10  -8    1.80    2.70
   0 -10  -8    2.60    2.70
   0 -10  -8    0.60    2.80
   0 -10  -8   -0.80    2.70
   0 -10  -8   -1.80    3.20
   0  10   8   -2.90    2.50
   0  10   8    2.90    3.00
   0  10   8    1.70    2.40
   0  10   8   -2.00    2.20
   0  10   8   -2.40    3.60
  -1 -10  -8  149.88    6.10
  -1 -10  -8  142.89    5.70
  -1 -10  -8  149.39    6.70
  -1 -10  -8  146.19    9.70
   1  10   8  146.29    6.30
   1  10   8  150.98    8.00
   1  10   8  154.68    6.20
   1  10   8  156.28    8.20
  -2 -10  -8   11.80    2.40
  -2 -10  -8   10.00    2.80
  -2 -10  -8   11.10    3.10
  -2 -10  -8    8.80    3.80
   2  10   8   13.70    3.00
   2  10   8   10.10    4.00
   2  10   8   12.90    2.80
  -3 -10  -8    0.20    2.80
  -3 -10  -8    4.20    3.70
  -3 -10  -8   -1.40    2.70
  -3 -10  -8    5.10    3.20
  -3 -10  -8    5.10    3.00
   3  10   8    4.20    3.20
   3  10   8   10.10    4.60
   3  10   8    4.20    2.70
   3  10   8    1.90    2.90
  -4 -10  -8   11.80    3.60
  -4 -10  -8   12.10    6.80
   4  10   8    7.80    3.00
   4  10   8    8.80    3.10
   4  10   8   18.80    3.40
   4  10   8   20.10    4.10
  -5 -10  -8    3.90    3.40
  -5 -10  -8    3.40    4.00
  -5 -10  -8   10.10    6.70
   5  10   8    5.90    3.50
   5  10   8   11.50    3.60
   5  10   8    4.80    4.20
   3 -11  -8    1.50    5.00
   3 -11  -8    4.90    4.50
   3 -11  -8   -2.90    3.70
  -3  11   8   -1.80    3.80
  -3  11   8    3.60    6.20
  -3  11   8    0.80    3.40
   2 -11  -8   -1.20    3.70
   2 -11  -8    0.50    3.50
   2 -11  -8    1.10    3.90
  -2  11   8   -2.70    3.10
  -2  11   8    0.70    3.30
  -2  11   8   -5.10    3.10
   1 -11  -8    0.20    3.00
   1 -11  -8    1.90    3.10
   1 -11  -8   -2.60    3.10
   1 -11  -8    0.80    3.60
  -1  11   8    0.50    4.50
  -1  11   8    1.80    2.90
  -1  11   8    2.80    2.80
  -1  11   8   -1.70    2.90
   0 -11  -8   -1.00    2.70
   0 -11  -8    4.60    2.90
   0 -11  -8   -2.40    2.90
   0 -11  -8    3.00    3.50
   0 -11  -8    3.80    3.10
   0  11   8    3.80    3.90
   0  11   8   -3.90    2.50
   0  11   8    1.40    2.50
   0  11   8   -1.10    2.90
   0  11   8    2.40    2.60
  -1 -11  -8    2.40    2.70
  -1 -11  -8   -0.30    3.00
  -1 -11  -8    1.60    3.50
  -1 -11  -8    4.60    2.90
  -1 -11  -8    5.80    3.10
   1  11   8    2.80    2.90
   1  11   8   12.50    3.20
   1  11   8    7.30    2.80
   1  11   8    4.70    2.30
   1  11   8    2.50    3.10
   1  11   8   11.80    4.00
  -2 -11  -8    4.40    2.60
  -2 -11  -8    4.80    2.90
  -2 -11  -8    2.00    3.70
  -2 -11  -8    0.90    3.10
  -2 -11  -8    4.40    3.00
   2  11   8    1.50    3.90
   2  11   8   -0.30    2.60
   2  11   8    1.70    2.50
   2  11   8    4.20    2.80
   2  11   8    3.60    2.90
  -3 -11  -8    8.30    2.40
  -3 -11  -8   12.50    3.60
  -3 -11  -8    5.30    3.20
   3  11   8    5.40    4.30
   3  11   8   -1.70    3.00
   3  11   8   11.20    3.30
   3  11   8    7.60    3.10
  -4 -11  -8   -3.00    3.40
  -4 -11  -8    7.40    4.00
   4  11   8    3.60    3.20
   4  11   8    0.00    3.00
   4  11   8   -2.00    3.50
  -5 -11  -8   20.20    7.50
  -5 -11  -8    1.40    4.10
   5  11   8   -1.60    5.70
   5  11   8    2.90    3.90
   2 -12  -8   10.30    4.00
   2 -12  -8   25.20    4.60
  -2  12   8   -0.30    3.50
  -2  12   8   10.60    3.70
  -2  12   8    8.40    3.40
  -2  12   8   -6.30    6.00
   1 -12  -8   38.10    4.70
   1 -12  -8   32.90    4.40
  -1  12   8   50.29    7.30
  -1  12   8   34.40    4.30
  -1  12   8   37.10    4.40
  -1  12   8   28.10    4.00
   0 -12  -8    2.70    3.10
   0 -12  -8    5.60    3.30
   0 -12  -8    6.00    3.40
   0  12   8    6.80    4.10
   0  12   8   -4.10    3.80
   0  12   8    1.50    2.90
   0  12   8    3.90    3.00
   0  12   8    4.70    3.00
  -1 -12  -8    0.60    2.70
  -1 -12  -8    4.20    3.40
  -1 -12  -8    4.60    3.10
   1  12   8    5.50    3.00
   1  12   8    5.60    4.00
   1  12   8   -3.50    3.00
   1  12   8   -0.30    2.50
  -2 -12  -8   64.29    6.30
  -2 -12  -8   61.39    4.90
  -2 -12  -8   53.89    5.90
   2  12   8   67.39    6.80
   2  12   8   62.39    5.90
   2  12   8   53.59    3.70
   2  12   8   53.89    6.10
  -3 -12  -8   41.90    5.20
  -3 -12  -8   40.60    4.30
  -3 -12  -8   46.50    4.30
   3  12   8   48.20    6.40
   3  12   8   42.40    5.80
  -4 -12  -8    2.00    3.90
   4  12   8    4.90    3.90
   4  12   8   -8.90    3.90
   1 -13  -8   15.30    4.10
  -1  13   8   18.00    4.30
  -1  13   8   15.10    4.10
   0 -13  -8   73.19    6.40
   0 -13  -8   73.59    7.50
   0  13   8   63.99    6.70
   0  13   8   57.79    7.00
   0  13   8   52.69    6.60
   0  13   8   84.49    7.40
  -1 -13  -8   -1.90    2.90
  -1 -13  -8   -2.40    3.10
  -1 -13  -8    3.70    3.80
   1  13   8    3.30    3.20
   1  13   8    8.30    3.70
   1  13   8    2.90    4.20
   1  13   8    0.70    3.40
  -2 -13  -8    1.00    3.80
  -2 -13  -8    6.20    4.30
  -2 -13  -8    2.40    2.90
   2  13   8   -0.10    4.40
   2  13   8    5.30    3.90
   2  13   8    3.90    3.70
  -3 -13  -8   18.90    4.70
  -3 -13  -8   19.00    2.90
   3  13   8   18.70    4.20
   3  13   8   17.10    4.30
  -1 -14  -8   23.60    4.80
  -1 -14  -8   30.60    4.30
   1  14   8   25.90    4.80
   1  14   8   34.90    5.80
   0   8  -9   90.99    6.80
   0   8  -9   84.39   12.20
   0   8  -9   85.59    7.50
   0   8  -9   70.69    7.40
   0  -8   9   84.49    7.10
   0  -8   9   78.09    7.80
  -1   8  -9   24.30    4.60
   1  -8   9   30.90    5.00
   1   7  -9    4.50    3.90
   1   7  -9    2.20    3.80
  -1  -7   9    5.00    4.90
  -1  -7   9   -1.20    3.20
   0   7  -9   26.20    3.90
   0   7  -9   23.60    3.90
   0   7  -9   18.40    4.40
   0  -7   9   34.60    5.60
   0  -7   9   16.70    4.00
   0  -7   9   23.10    3.60
  -1   7  -9   -0.20    2.70
  -1   7  -9    4.70    3.30
  -1   7  -9    3.70    3.50
  -1   7  -9    0.40    3.40
   1  -7   9    4.90    3.00
   1  -7   9    2.00    3.50
  -2   7  -9   10.80    2.90
  -2   7  -9   11.70    3.80
  -2   7  -9   10.50    2.60
  -2   7  -9   10.90    3.60
  -2   7  -9    5.60    3.80
   2  -7   9    9.60    3.50
  -3   7  -9    4.50    3.70
  -3   7  -9    0.70    4.00
  -3   7  -9    0.20    3.20
   3  -7   9   -0.10    3.50
   2   6  -9   15.00    4.40
   2   6  -9   30.00    4.80
  -2  -6   9   22.50    3.70
  -2  -6   9   12.10    3.10
  -2  -6   9   28.70    6.00
   1   6  -9   -2.60    3.50
   1   6  -9   -0.60    3.50
   1   6  -9    0.30    3.60
  -1  -6   9    0.40    1.40
  -1  -6   9    1.30    3.00
  -1  -6   9    8.90    4.70
   0   6  -9   64.39    8.60
   0   6  -9   60.39    5.20
   0   6  -9   54.89    5.70
   0   6  -9   48.60    5.50
   0  -6   9   49.90    5.80
   0  -6   9   50.69    5.10
   0  -6   9   60.09    6.80
  -1   6  -9   -2.80    2.80
  -1   6  -9   -2.80    2.40
  -1   6  -9    0.80    3.00
  -1   6  -9    0.80    2.40
   1  -6   9    1.10    3.00
   1  -6   9    1.40    2.50
   1  -6   9    4.20    4.40
  -2   6  -9   10.40    3.40
  -2   6  -9   13.30    2.80
  -2   6  -9   15.10    2.70
  -2   6  -9   20.20    3.40
  -2   6  -9   13.70    4.20
   2  -6   9   10.80    3.40
  -3   6  -9   12.90    3.90
  -3   6  -9    7.20    3.40
  -3   6  -9    8.00    3.30
  -3   6  -9   10.90    1.80
  -3   6  -9    5.20    5.90
   3  -6   9    6.30    3.40
  -4   6  -9   -5.80    3.10
  -4   6  -9    5.50    6.00
  -4   6  -9    2.30    3.40
   4  -6   9   -2.10    3.40
   3   5  -9    2.80    4.40
   3   5  -9    6.90    4.40
  -3  -5   9   -0.90    3.50
  -3  -5   9    7.60    3.70
  -3  -5   9    0.80    3.90
  -3  -5   9   -0.70    6.70
   2   5  -9    1.20    3.60
   2   5  -9   11.20    3.90
  -2  -5   9    2.40    4.80
  -2  -5   9   -1.90    3.00
  -2  -5   9   -0.20    2.60
  -2  -5   9    5.20    3.30
   1   5  -9   29.60    3.90
   1   5  -9   28.30    4.40
   1   5  -9   31.80    4.00
  -1  -5   9   29.40    3.50
  -1  -5   9   37.40    5.50
  -1  -5   9   30.30    2.90
  -1  -5   9   26.70    3.20
   0   5  -9    7.40    3.20
   0   5  -9    7.50    3.20
   0  -5   9    6.80    2.40
   0  -5   9    8.40    3.00
   0  -5   9    8.00    4.40
  -1   5  -9   31.10    3.10
  -1   5  -9   32.60    4.30
  -1   5  -9   37.10    3.90
  -1   5  -9   25.10    3.80
  -1   5  -9   30.20    3.70
   1  -5   9   33.90    3.70
   1  -5   9   46.10    6.70
   1  -5   9   34.60    4.00
  -2   5  -9   75.09    6.50
  -2   5  -9   80.49    7.60
  -2   5  -9   74.79    5.50
  -2   5  -9   71.89    4.40
  -2   5  -9   77.59    4.10
   2  -5   9   77.99    5.40
  -3   5  -9    6.90    3.40
  -3   5  -9   -0.90    3.80
  -3   5  -9    6.60    5.80
  -3   5  -9    3.40    1.70
  -3   5  -9   -1.00    2.30
  -3   5  -9    4.60    2.70
   3  -5   9   -1.60    2.70
  -4   5  -9    3.40    2.80
  -4   5  -9   15.50    4.20
  -4   5  -9    2.50    2.90
  -4   5  -9    6.20    5.60
   4  -5   9    0.20    3.20
   3   4  -9   22.80    4.60
   3   4  -9   12.00    4.20
  -3  -4   9   19.70    3.90
  -3  -4   9   30.70    4.40
   2   4  -9   78.39    6.30
   2   4  -9   61.79    8.80
   2   4  -9   70.49    6.50
  -2  -4   9   63.99    8.10
  -2  -4   9   61.59    4.90
  -2  -4   9   61.99    5.40
  -2  -4   9   67.59    5.60
   1   4  -9   19.30    3.40
   1   4  -9   21.80    3.60
   1   4  -9   12.60    3.50
  -1  -4   9   22.80    2.60
  -1  -4   9   18.20    2.60
  -1  -4   9   26.40    5.10
  -1  -4   9   20.10    2.20
   0   4  -9    1.80    2.40
   0   4  -9   -1.00    2.80
   0   4  -9    2.80    2.80
   0  -4   9   -0.90    1.80
   0  -4   9   -2.00    2.60
   0  -4   9    2.20    3.80
  -1   4  -9    9.10    2.90
  -1   4  -9   12.00    2.10
  -1   4  -9   13.80    2.40
  -1   4  -9   12.40    2.00
  -1   4  -9   15.60    2.60
   1  -4   9    9.00    2.80
   1  -4   9   11.30    4.40
  -2   4  -9   -1.20    1.60
  -2   4  -9   -4.70    3.10
  -2   4  -9    2.80    2.40
  -2   4  -9    0.50    1.80
  -2   4  -9   -1.90    2.40
  -2   4  -9   -0.90    1.70
   2  -4   9    0.70    2.60
   2  -4   9   -0.40    4.20
  -3   4  -9    2.20    5.10
  -3   4  -9    4.20    2.00
  -3   4  -9    1.70    2.60
  -3   4  -9    6.90    3.20
  -3   4  -9    6.20    1.30
  -3   4  -9    4.60    3.50
   3  -4   9    0.50    2.40
  -4   4  -9   14.70    3.10
  -4   4  -9   30.20    6.10
  -4   4  -9   20.50    4.50
  -4   4  -9   17.10    2.90
  -4   4  -9   22.10    3.90
   4  -4   9   18.30    3.20
  -5   4  -9   10.90    3.50
  -5   4  -9   14.70    3.20
   5  -4   9   15.30    3.60
  -4  -3   9   70.29    8.00
  -4  -3   9   49.80    5.20
   3   3  -9   24.00    4.70
   3   3  -9   16.10    4.10
  -3  -3   9   19.10    3.90
  -3  -3   9   18.40    3.70
  -3  -3   9   27.40    3.80
   2   3  -9   17.00    3.50
   2   3  -9   10.30    3.70
   2   3  -9    9.40    3.40
  -2  -3   9   13.50    5.20
  -2  -3   9    6.80    3.10
  -2  -3   9   13.30    2.90
  -2  -3   9   15.20    2.80
   1   3  -9    1.60    2.60
   1   3  -9    0.50    2.60
   1   3  -9    3.00    3.10
  -1  -3   9    0.20    1.80
  -1  -3   9    2.80    4.10
  -1  -3   9    0.20    2.10
  -1  -3   9    1.00    1.70
   0   3  -9   88.19    7.40
   0   3  -9   84.89    5.00
   0   3  -9   76.89    4.90
   0  -3   9   85.49    3.50
   0  -3   9   91.69    7.10
  -1   3  -9   24.80    3.30
  -1   3  -9   26.90    2.80
  -1   3  -9   27.10    2.90
  -1   3  -9   25.20    2.70
  -1   3  -9   20.80    3.30
   1  -3   9   17.50    2.90
   1  -3   9   27.40    5.00
  -2   3  -9   15.40    2.70
  -2   3  -9   21.60    3.70
  -2   3  -9   17.50    3.00
  -2   3  -9   20.90    2.60
  -2   3  -9   21.70    2.70
  -2   3  -9   22.40    2.80
   2  -3   9   16.80    2.70
   2  -3   9   24.90    5.20
  -3   3  -9   32.70    3.20
  -3   3  -9   42.50    6.40
  -3   3  -9   39.10    4.60
  -3   3  -9   42.40    5.30
  -3   3  -9   24.30    3.40
  -3   3  -9   32.40    2.30
  -3   3  -9   33.70    2.10
   3  -3   9   35.50    3.30
  -4   3  -9   11.20    2.40
  -4   3  -9   10.10    4.00
  -4   3  -9   10.00    2.70
  -4   3  -9   15.00    3.80
  -4   3  -9   15.80    5.40
   4  -3   9    8.90    2.70
  -5   3  -9    8.40    4.50
  -5   3  -9    2.00    2.90
   5  -3   9    8.80    2.90
   4   2  -9   38.70    5.20
   4   2  -9   59.39    8.10
  -4  -2   9   44.60    4.90
  -4  -2   9   57.49    7.40
   3   2  -9    4.00    3.60
   3   2  -9    2.40    3.30
  -3  -2   9   -1.60    3.20
  -3  -2   9   -0.80    3.10
  -3  -2   9   -2.50    3.10
   2   2  -9    8.60    3.20
   2   2  -9    5.30    3.50
   2   2  -9    7.90    3.20
  -2  -2   9    2.20    5.00
  -2  -2   9    8.90    2.70
  -2  -2   9    5.50    2.90
  -2  -2   9    4.10    2.50
   1   2  -9    1.50    2.90
   1   2  -9   -0.10    2.50
  -1  -2   9    3.60    2.20
  -1  -2   9    2.30    1.70
  -1  -2   9    1.40    1.80
  -1  -2   9    7.60    4.20
   0   2  -9  226.18    6.70
   0   2  -9  230.38    9.50
   0   2  -9  221.88    6.40
   0  -2   9  212.88    4.30
   0  -2   9  214.28    9.30
   0  -2   9  213.18    4.20
   0  -2   9  220.68    4.60
  -1   2  -9    0.70    2.00
  -1   2  -9    3.00    2.30
  -1   2  -9    0.20    1.70
   1  -2   9    0.90    2.20
   1  -2   9    1.00    3.60
  -2   2  -9   71.19    3.30
  -2   2  -9   60.49    7.40
  -2   2  -9   71.29    2.80
  -2   2  -9   76.39    6.50
  -2   2  -9   67.09    5.20
  -2   2  -9   67.39    3.10
  -2   2  -9   68.89    4.40
   2  -2   9   72.99    4.50
   2  -2   9   73.39    7.00
  -3   2  -9   34.20    2.20
  -3   2  -9   46.70    6.40
  -3   2  -9   22.60    5.50
  -3   2  -9   34.90    5.30
  -3   2  -9   36.80    4.90
  -3   2  -9   36.70    2.80
  -3   2  -9   32.40    2.10
   3  -2   9   38.90    4.00
  -4   2  -9    3.00    1.90
  -4   2  -9   -0.30    4.80
  -4   2  -9   -1.10    3.30
  -4   2  -9    1.50    2.80
  -4   2  -9    5.30    3.70
   4  -2   9   -0.60    2.20
  -5   2  -9   50.59    6.40
  -5   2  -9   36.20    5.90
  -5   2  -9   41.20    4.70
  -5   2  -9   54.09    7.10
   5  -2   9   42.20    4.60
   4   1  -9   13.40    4.80
   4   1  -9    2.40    3.80
  -4  -1   9   15.00    4.20
  -4  -1   9   11.10    4.20
   3   1  -9   -0.50    3.10
   3   1  -9    1.40    3.50
   3   1  -9    1.00    3.00
  -3  -1   9   -4.00    3.10
  -3  -1   9    0.10    2.90
  -3  -1   9    0.30    3.00
   2   1  -9   14.50    3.30
   2   1  -9   14.10    3.40
   2   1  -9   12.50    3.30
  -2  -1   9   19.80    3.30
  -2  -1   9   15.70    2.80
  -2  -1   9   14.80    2.60
   1   1  -9  101.89    5.60
   1   1  -9   96.29    5.50
   1   1  -9  105.09    7.50
  -1  -1   9   95.69    4.70
  -1  -1   9   91.79    3.60
  -1  -1   9   98.89    7.80
  -1  -1   9   94.29    4.20
   0   1  -9    4.00    2.50
   0   1  -9    1.80    2.10
   0   1  -9    2.70    2.50
   0  -1   9    3.80    1.50
   0  -1   9    2.80    1.30
   0  -1   9    4.20    3.70
  -1   1  -9  258.47    6.20
  -1   1  -9  270.97    6.40
  -1   1  -9  261.47   11.20
   1  -1   9  262.17    9.80
  -2   1  -9  141.29    4.20
  -2   1  -9  132.99    5.20
  -2   1  -9  146.59    8.60
  -2   1  -9  131.79    4.00
  -2   1  -9  137.09    5.70
  -2   1  -9  146.29    7.40
   2  -1   9  141.29    5.00
   2  -1   9  147.89    8.10
  -3   1  -9  192.38    4.60
  -3   1  -9  193.78    6.90
  -3   1  -9  202.18   10.00
  -3   1  -9  180.68    4.10
  -3   1  -9  204.58    7.30
  -3   1  -9  206.78    8.20
  -3   1  -9  195.98    4.30
   3  -1   9  190.48    5.50
   3  -1   9  200.58    9.70
  -4   1  -9    4.80    1.80
  -4   1  -9    5.30    3.30
  -4   1  -9    6.40    1.40
  -4   1  -9    6.90    3.30
  -4   1  -9    6.10    2.40
  -4   1  -9    7.10    1.20
  -4   1  -9   10.50    5.50
   4  -1   9    9.20    2.40
  -5   1  -9    5.30    2.60
  -5   1  -9    1.50    3.60
  -5   1  -9    6.50    2.40
  -5   1  -9    5.30    4.00
  -5   1  -9    5.00    1.50
  -5   1  -9    4.90    1.70
   5  -1   9    7.90    2.60
  -6   1  -9   18.10    3.40
  -6   1  -9   15.20    2.90
   4   0  -9   -2.20    3.40
   4   0  -9    0.40    4.10
  -4   0   9    3.80    3.80
   3   0  -9    7.50    3.20
   3   0  -9   13.00    3.10
   3   0  -9    5.30    3.50
  -3   0   9   11.10    3.20
  -3   0   9   14.80    3.50
  -3   0   9    8.90    3.30
   2   0  -9    1.10    2.60
   2   0  -9    4.30    2.90
   2   0  -9    3.90    3.00
  -2   0   9    2.90    2.80
  -2   0   9    1.50    2.10
  -2   0   9    2.40    2.40
   1   0  -9   26.70    3.20
   1   0  -9   23.10    4.70
   1   0  -9   29.90    3.50
  -1   0   9   33.40    3.40
  -1   0   9   35.70    5.80
  -1   0   9   28.40    2.60
   0   0  -9   59.29    4.40
   0   0  -9   59.89    6.00
   0   0  -9   57.79    4.10
   0   0   9   60.49    2.90
   0   0   9   60.79    6.60
   0   0   9   57.19    3.30
  -1   0  -9   14.60    2.30
  -1   0  -9   11.60    2.00
  -1   0  -9   13.60    2.80
   1   0   9   15.80    4.30
  -2   0  -9  107.59    3.80
  -2   0  -9  109.29    4.90
  -2   0  -9  103.89    3.70
  -2   0  -9  106.99    6.50
  -2   0  -9  113.99    8.20
   2   0   9  108.59    4.60
   2   0   9  113.79    7.50
  -3   0  -9   92.79    3.20
  -3   0  -9   98.79    5.60
  -3   0  -9   87.69    3.00
  -3   0  -9   95.19    5.20
  -3   0  -9  100.09    6.40
  -3   0  -9   91.29    3.10
  -3   0  -9   89.39    8.00
   3   0   9   90.59    5.20
   3   0   9   81.69    7.30
  -4   0  -9    0.90    4.80
  -4   0  -9   -0.20    1.20
  -4   0  -9    2.50    2.30
  -4   0  -9    2.20    1.60
  -4   0  -9    0.50    1.40
  -4   0  -9    2.80    3.20
  -4   0  -9    2.40    3.20
   4   0   9    3.70    2.10
   4   0   9    1.60    2.80
  -5   0  -9   17.20    2.40
  -5   0  -9   18.70    1.90
  -5   0  -9   19.70    5.60
  -5   0  -9    8.20    4.00
  -5   0  -9   13.50    2.10
  -5   0  -9   15.20    4.00
  -6   0  -9   32.50    3.50
  -6   0  -9   38.40    5.40
   4  -1  -9    0.20    4.10
   4  -1  -9    0.80    3.40
  -4   1   9    4.40    3.60
   3  -1  -9   14.10    3.30
   3  -1  -9   11.00    3.50
   3  -1  -9    7.40    3.10
  -3   1   9    8.20    3.40
  -3   1   9   12.30    3.10
  -3   1   9   11.80    3.30
   2  -1  -9   44.00    7.80
   2  -1  -9   44.80    5.20
   2  -1  -9   38.70    5.10
  -2   1   9   40.70    4.90
  -2   1   9   51.79    4.20
   1  -1  -9  237.88    7.30
   1  -1  -9  234.58    7.20
   1  -1  -9  237.48    9.20
  -1   1   9  234.98    6.60
  -1   1   9  231.88    5.00
  -1   1   9  239.78   10.30
  -1   1   9  238.68    6.40
   0  -1  -9   83.89    4.30
   0  -1  -9   79.29    4.70
   0  -1  -9   81.39    6.30
   0   1   9   77.09    6.90
   0   1   9   74.39    3.70
   0   1   9   76.19    3.40
  -1  -1  -9    0.90    2.20
  -1  -1  -9    5.40    2.10
  -1  -1  -9    2.60    1.70
   1   1   9    2.80    1.10
   1   1   9    4.20    1.00
   1   1   9    0.30    3.60
   1   1   9    3.60    1.50
  -2  -1  -9  661.23   16.30
  -2  -1  -9  659.73   11.20
  -2  -1  -9  652.33   11.20
  -2  -1  -9  680.23   15.10
  -2  -1  -9  667.13   11.90
   2   1   9  664.63   16.30
   2   1   9  662.63   12.00
  -3  -1  -9 1326.17   18.90
  -3  -1  -9 1309.47   26.00
  -3  -1  -9 1282.57   18.60
  -3  -1  -9 1257.87   20.60
  -3  -1  -9 1356.56   24.00
  -3  -1  -9 1279.57   19.50
  -3  -1  -9 1322.37   19.50
   3   1   9 1343.87   28.00
   3   1   9 1324.77   21.80
  -4  -1  -9  128.79    4.20
  -4  -1  -9  133.49    7.10
  -4  -1  -9  128.79    3.90
  -4  -1  -9  119.89    5.80
  -4  -1  -9  136.19    9.10
  -4  -1  -9  128.29    7.00
  -4  -1  -9  123.69    3.80
   4   1   9  121.39    7.70
  -5  -1  -9    0.00    2.00
  -5  -1  -9    4.50    1.70
  -5  -1  -9   -2.30    3.70
  -5  -1  -9    0.70    2.40
  -5  -1  -9    8.50    4.60
   5   1   9   -2.50    3.00
  -6  -1  -9   -1.40    2.50
  -6  -1  -9   10.00    2.40
  -6  -1  -9    2.90    2.80
   6   1   9    3.70    4.30
   4  -2  -9   -8.90    5.20
   4  -2  -9    4.90    4.20
   4  -2  -9    1.50    3.10
  -4   2   9   -3.50    3.40
  -4   2   9    1.90    2.20
   3  -2  -9    4.20    2.80
   3  -2  -9   -1.40    3.50
   3  -2  -9   -0.20    3.20
  -3   2   9    2.90    3.10
  -3   2   9   -0.20    2.70
   2  -2  -9   45.50    6.90
   2  -2  -9   46.50    5.30
   2  -2  -9   38.50    5.10
  -2   2   9   46.30    5.00
  -2   2   9   38.10    4.10
   1  -2  -9  337.67    8.60
   1  -2  -9  345.57    8.70
   1  -2  -9  354.66   10.80
  -1   2   9  340.77    6.40
  -1   2   9  312.47   13.10
  -1   2   9  333.07    8.20
  -1   2   9  329.87    6.00
  -1   2   9  342.47    7.80
   0  -2  -9   49.50    5.80
   0  -2  -9   50.09    3.90
   0  -2  -9   47.60    4.20
   0   2   9   50.69    3.60
   0   2   9   47.90    6.40
   0   2   9   45.30    2.50
   0   2   9   50.29    3.20
   0   2   9   50.39    5.80
  -1  -2  -9  163.38    7.60
  -1  -2  -9  160.48    5.00
  -1  -2  -9  170.48    5.20
   1   2   9  158.78    4.60
   1   2   9  159.98    3.90
   1   2   9  166.58    8.30
   1   2   9  169.78    7.60
  -2  -2  -9   64.09    3.60
  -2  -2  -9   66.29    3.40
  -2  -2  -9   70.09    6.00
  -2  -2  -9   61.49    3.30
  -2  -2  -9   61.69    7.40
   2   2   9   67.59    6.60
   2   2   9   63.29    3.90
   2   2   9   65.89    5.90
  -3  -2  -9  761.42   12.70
  -3  -2  -9  785.82   18.40
  -3  -2  -9  777.22   12.70
  -3  -2  -9  787.72   16.60
  -3  -2  -9  770.32   11.60
  -3  -2  -9  757.32   11.50
  -3  -2  -9  772.62   13.00
   3   2   9  789.82   14.60
   3   2   9  712.73   20.80
   3   2   9  799.12   16.50
  -4  -2  -9   52.69    5.80
  -4  -2  -9   54.89    3.80
  -4  -2  -9   50.09    3.30
  -4  -2  -9   48.90    3.10
   4   2   9   51.39    6.20
   4   2   9   54.29    6.00
  -5  -2  -9    0.40    2.40
  -5  -2  -9    3.10    4.90
  -5  -2  -9    4.80    2.70
  -5  -2  -9    3.90    1.90
   5   2   9    2.00    3.30
   5   2   9    3.00    2.70
  -6  -2  -9   -0.20    2.60
  -6  -2  -9    4.30    3.40
  -6  -2  -9    0.40    2.50
  -6  -2  -9   -1.70    2.90
   6   2   9    6.50    4.40
   4  -3  -9  113.69    8.40
   4  -3  -9  100.69   10.10
   4  -3  -9  110.49    8.00
  -4   3   9  106.59    5.80
  -4   3   9  105.69    7.40
   3  -3  -9    0.80    4.30
   3  -3  -9    8.30    3.40
   3  -3  -9    6.10    3.10
  -3   3   9    4.60    3.20
  -3   3   9    5.70    2.20
  -3   3   9    3.50    2.90
   2  -3  -9   58.09    6.60
   2  -3  -9   62.49    5.50
  -2   3   9   55.29    3.20
  -2   3   9   68.59    5.30
  -2   3   9   63.89    3.50
  -2   3   9   61.09    4.90
   1  -3  -9   71.49    5.10
   1  -3  -9   68.69    6.50
   1  -3  -9   68.69    4.90
  -1   3   9   78.09    4.80
  -1   3   9   67.19    2.70
  -1   3   9   76.49    6.50
  -1   3   9   70.79    4.30
   0  -3  -9   94.09    5.00
   0  -3  -9   95.29    4.60
   0  -3  -9   97.29    6.60
   0   3   9   98.99    6.50
   0   3   9   99.09    4.40
   0   3   9   93.99    3.90
   0   3   9   91.89    7.20
   0   3   9   88.99    3.50
  -1  -3  -9    1.10    2.20
  -1  -3  -9    0.60    2.00
  -1  -3  -9   -0.90    1.70
   1   3   9   -0.40    1.60
   1   3   9    1.30    2.10
   1   3   9    1.60    1.30
   1   3   9   -1.80    3.40
   1   3   9    0.40    1.50
  -2  -3  -9   14.90    2.30
  -2  -3  -9   11.10    2.70
  -2  -3  -9   15.90    2.10
  -2  -3  -9    9.70    4.50
  -2  -3  -9   14.70    1.60
   2   3   9   13.80    1.40
   2   3   9   12.80    1.60
   2   3   9   12.30    2.30
   2   3   9   12.10    2.60
   2   3   9   13.80    4.20
  -3  -3  -9  528.55    9.90
  -3  -3  -9  531.95    8.70
  -3  -3  -9  547.85   13.40
  -3  -3  -9  543.65   10.00
   3   3   9  504.65   17.60
   3   3   9  555.64   11.70
   3   3   9  552.94   13.40
  -4  -3  -9    0.80    2.30
  -4  -3  -9    1.50    1.90
  -4  -3  -9    0.70    1.70
  -4  -3  -9    2.10    2.00
   4   3   9    5.70    2.90
   4   3   9   -1.80    2.30
  -5  -3  -9    6.80    2.90
  -5  -3  -9    6.80    2.70
  -5  -3  -9   10.00    2.30
  -5  -3  -9    8.00    2.60
  -5  -3  -9   10.40    5.00
   5   3   9    5.40    3.40
   5   3   9    4.40    2.80
  -6  -3  -9    2.20    2.90
  -6  -3  -9    9.90    3.20
  -6  -3  -9    9.00    3.60
  -6  -3  -9    6.50    3.60
   6   3   9    4.10    3.20
   6   3   9    3.20    4.20
   4  -4  -9   -2.40    3.60
   4  -4  -9    7.00    5.40
   4  -4  -9    2.80    4.00
  -4   4   9    3.80    4.10
  -4   4   9   11.30    3.10
  -4   4   9   -0.30    3.40
   3  -4  -9    9.90    3.40
   3  -4  -9   12.60    3.90
   3  -4  -9   24.00    4.70
   3  -4  -9   15.30    3.70
  -3   4   9   14.70    2.80
  -3   4   9   17.10    2.70
  -3   4   9   15.30    3.40
  -3   4   9   17.40    3.50
   2  -4  -9    0.30    2.50
   2  -4  -9    2.40    3.40
   2  -4  -9    2.30    2.80
  -2   4   9   -0.30    1.60
  -2   4   9   -0.50    2.40
  -2   4   9   -2.50    2.30
   1  -4  -9  296.87   10.00
   1  -4  -9  304.97    8.40
  -1   4   9  289.47    7.50
  -1   4   9  286.17    5.90
  -1   4   9  290.57    9.90
  -1   4   9  293.57    7.80
   0  -4  -9   31.30    3.90
   0  -4  -9   21.20    3.00
   0   4   9   34.70    5.50
   0   4   9   24.60    3.20
   0   4   9   29.40    3.20
  -1  -4  -9    5.30    2.20
  -1  -4  -9    2.90    2.30
  -1  -4  -9    4.60    2.00
   1   4   9    5.30    3.80
   1   4   9    3.50    2.10
   1   4   9    3.20    1.60
   1   4   9    2.40    1.80
   1   4   9    3.80    1.90
  -2  -4  -9    0.40    4.30
  -2  -4  -9   -0.60    2.00
  -2  -4  -9    1.10    2.30
  -2  -4  -9    0.60    1.80
   2   4   9    0.40    2.00
   2   4   9    0.60    3.70
   2   4   9   -1.90    2.00
   2   4   9   -0.50    1.50
   2   4   9    0.00    1.20
  -3  -4  -9   29.10    3.30
  -3  -4  -9   26.80    3.50
  -3  -4  -9   32.10    2.70
  -3  -4  -9   38.90    7.70
  -3  -4  -9   30.80    4.20
   3   4   9   30.40    5.40
   3   4   9   35.90    4.50
   3   4   9   34.20    6.80
  -4  -4  -9  149.49    7.90
  -4  -4  -9  145.49    5.10
  -4  -4  -9  146.89    5.30
  -4  -4  -9  144.89    5.10
   4   4   9  152.28    7.20
   4   4   9  152.48    7.60
  -5  -4  -9   -0.10    3.20
  -5  -4  -9    3.10    2.60
  -5  -4  -9    5.40    2.90
  -5  -4  -9    5.30    2.30
  -5  -4  -9    2.80    4.90
   5   4   9    5.10    2.80
   5   4   9   -0.80    3.30
  -6  -4  -9    6.70    3.30
  -6  -4  -9    0.70    4.90
  -6  -4  -9   14.40    3.20
  -6  -4  -9   14.70    3.80
   6   4   9    9.10    3.50
   6   4   9    8.30    4.30
   4  -5  -9   17.20    5.50
   4  -5  -9   13.70    4.60
  -4   5   9    9.90    3.80
  -4   5   9   11.60    4.10
  -4   5   9    6.00    3.10
   3  -5  -9    2.70    3.20
   3  -5  -9   -1.50    3.30
   3  -5  -9    9.60    4.40
   3  -5  -9    2.10    3.30
  -3   5   9    0.50    2.20
  -3   5   9    2.40    3.00
  -3   5   9    4.50    3.00
   2  -5  -9    8.90    3.10
   2  -5  -9    7.70    2.90
   2  -5  -9   14.30    3.60
  -2   5   9    9.90    2.10
  -2   5   9   12.80    3.00
  -2   5   9    7.10    2.70
   1  -5  -9    0.30    2.40
   1  -5  -9   -1.30    2.50
   1  -5  -9   -0.40    2.40
   1  -5  -9    3.40    2.70
  -1   5   9    0.80    2.20
  -1   5   9   -1.40    2.20
  -1   5   9    0.80    2.50
  -1   5   9    1.50    1.40
   0  -5  -9   20.80    2.30
   0  -5  -9   17.10    2.70
   0  -5  -9   17.90    3.10
   0  -5  -9   20.40    3.10
   0   5   9   18.80    2.10
   0   5   9   14.20    2.80
   0   5   9   19.80    2.50
   0   5   9   22.20    5.00
   0   5   9   20.40    2.70
  -1  -5  -9    1.60    2.00
  -1  -5  -9   -2.20    2.20
  -1  -5  -9    1.30    2.40
   1   5   9    3.30    2.00
   1   5   9   -1.30    3.70
   1   5   9    2.00    2.10
   1   5   9    3.70    1.80
  -2  -5  -9  303.17    7.50
  -2  -5  -9  301.17    7.50
  -2  -5  -9  299.87    5.50
  -2  -5  -9  318.07   10.40
   2   5   9  305.47    8.00
   2   5   9  310.17    6.50
   2   5   9  311.87    9.90
   2   5   9  308.77   11.00
   2   5   9  298.67    6.60
  -3  -5  -9  195.58    9.70
  -3  -5  -9  192.48    8.70
  -3  -5  -9  188.08    4.90
  -3  -5  -9  194.18    6.00
  -3  -5  -9  194.48    6.20
   3   5   9  191.88    4.70
   3   5   9  187.18    4.50
   3   5   9  197.58    7.20
   3   5   9  179.18   11.20
   3   5   9  195.78    8.30
  -4  -5  -9   72.89    4.70
  -4  -5  -9   72.79    4.40
  -4  -5  -9   71.09    4.50
   4   5   9   81.99    6.60
   4   5   9   74.79    6.00
  -5  -5  -9   42.70    7.10
  -5  -5  -9   45.80    5.40
  -5  -5  -9   62.19    8.20
  -5  -5  -9   38.10    5.00
  -5  -5  -9   40.50    3.90
   5   5   9   44.90    6.40
   5   5   9   40.40    6.50
  -6  -5  -9   -3.50    3.40
  -6  -5  -9    4.00    3.80
  -6  -5  -9    3.70    3.20
  -6  -5  -9   -1.60    3.10
   6   5   9   -1.60    3.80
   6   5   9   -0.40    2.70
   6   5   9    9.40    4.50
   4  -6  -9   14.50    4.50
   4  -6  -9    9.40    5.50
   4  -6  -9    5.80    5.90
  -4   6   9    5.10    3.40
  -4   6   9    0.20    3.40
  -4   6   9    4.10    4.30
   3  -6  -9    1.90    4.10
   3  -6  -9   -4.90    4.80
   3  -6  -9    0.90    3.60
   3  -6  -9   -0.40    3.10
  -3   6   9    5.30    2.80
  -3   6   9    2.80    2.70
  -3   6   9    3.70    3.10
  -3   6   9    6.60    3.80
   2  -6  -9    5.20    3.10
   2  -6  -9    5.00    3.50
   2  -6  -9    2.40    3.30
  -2   6   9    2.60    3.00
  -2   6   9    5.00    2.10
  -2   6   9    3.50    2.70
  -2   6   9    1.10    2.40
   1  -6  -9  105.99    7.50
   1  -6  -9  110.69    5.20
   1  -6  -9   98.29    5.80
  -1   6   9   96.59    5.20
  -1   6   9  106.59    7.00
  -1   6   9  101.89    4.10
  -1   6   9  100.69    5.60
   0  -6  -9    5.40    2.80
   0  -6  -9    3.30    1.70
   0  -6  -9    3.20    2.70
   0  -6  -9    5.50    2.50
   0   6   9    3.20    3.90
   0   6   9    4.40    1.50
   0   6   9    3.20    2.10
   0   6   9    4.90    2.50
   0   6   9    6.00    2.40
  -1  -6  -9   22.40    3.40
  -1  -6  -9   27.40    3.10
  -1  -6  -9   21.40    3.00
   1   6   9   25.10    3.20
   1   6   9   20.90    3.00
   1   6   9   25.90    4.80
   1   6   9   27.50    2.60
   1   6   9   28.50    3.60
  -2  -6  -9   -2.10    3.90
  -2  -6  -9    1.80    2.20
  -2  -6  -9    0.80    2.30
  -2  -6  -9    1.80    1.40
   2   6   9    0.30    3.70
   2   6   9   -0.20    1.70
   2   6   9   -0.50    2.10
   2   6   9    2.50    1.90
   2   6   9    1.80    2.40
  -3  -6  -9   56.69    7.70
  -3  -6  -9   59.29    7.20
  -3  -6  -9   65.49    4.40
  -3  -6  -9   68.19    3.70
  -3  -6  -9   60.99    4.70
   3   6   9   67.09    7.30
   3   6   9   67.79    6.00
   3   6   9   63.49    3.60
   3   6   9   64.19    3.40
   3   6   9   66.89    6.30
  -4  -6  -9   15.90    2.70
  -4  -6  -9   12.40    3.30
  -4  -6  -9   17.90    3.20
   4   6   9   20.20    3.50
   4   6   9   15.60    3.00
   4   6   9   18.00    2.20
   4   6   9   16.40    1.90
  -5  -6  -9   19.40    3.40
  -5  -6  -9   15.60    3.40
  -5  -6  -9   25.20    6.20
  -5  -6  -9   18.30    3.10
   5   6   9   14.60    3.70
  -6  -6  -9   78.89    8.70
  -6  -6  -9   81.09    6.40
  -6  -6  -9   80.99    7.20
  -6  -6  -9   74.99    6.20
   6   6   9   76.39    4.60
   6   6   9   93.59    8.60
   6   6   9   97.39   10.00
   4  -7  -9   13.40    4.70
   4  -7  -9   24.10    6.10
  -4   7   9   12.20    4.70
  -4   7   9    3.50    3.70
  -4   7   9    8.70    3.80
   3  -7  -9    8.10    3.60
   3  -7  -9    2.10    3.30
   3  -7  -9    5.50    4.40
  -3   7   9    3.20    2.60
  -3   7   9    7.80    3.00
  -3   7   9    0.50    2.90
   2  -7  -9   -3.30    2.80
   2  -7  -9    1.20    3.00
   2  -7  -9   -0.40    2.90
   2  -7  -9   -2.80    3.20
  -2   7   9    1.60    2.90
  -2   7   9   -2.10    2.00
  -2   7   9    2.10    2.70
  -2   7   9   -2.20    2.40
   1  -7  -9   11.10    2.70
   1  -7  -9   13.60    3.30
   1  -7  -9   12.30    3.80
  -1   7   9   14.20    4.80
  -1   7   9   14.20    3.10
  -1   7   9   11.40    2.90
  -1   7   9   10.70    2.10
   0  -7  -9    5.80    1.60
   0  -7  -9    4.30    2.50
   0  -7  -9    6.50    3.50
   0  -7  -9    1.10    2.50
   0   7   9    2.00    2.50
   0   7   9    4.00    4.20
   0   7   9    2.60    1.70
   0   7   9    4.20    2.50
   0   7   9    4.00    2.40
  -1  -7  -9   27.40    2.80
  -1  -7  -9   39.50    6.60
  -1  -7  -9   34.60    4.40
   1   7   9   31.70    5.50
   1   7   9   27.30    3.10
   1   7   9   28.30    3.00
   1   7   9   25.80    3.50
   1   7   9   34.00    5.40
  -2  -7  -9   28.60    4.10
  -2  -7  -9   35.50    4.30
  -2  -7  -9   26.00    3.00
  -2  -7  -9   25.20    3.90
   2   7   9   24.80    3.40
   2   7   9   28.60    3.60
   2   7   9   31.20    3.10
   2   7   9   32.10    5.20
  -3  -7  -9  310.97    9.10
  -3  -7  -9  325.97    6.20
  -3  -7  -9  323.37    8.50
  -3  -7  -9  324.47    7.30
  -3  -7  -9  326.57   11.60
  -3  -7  -9  325.07   12.10
   3   7   9  327.87   11.70
   3   7   9  324.97   12.50
   3   7   9  321.47    9.40
   3   7   9  322.37    7.30
   3   7   9  259.37   10.50
  -4  -7  -9    8.70    3.10
  -4  -7  -9    4.20    3.10
  -4  -7  -9    4.20    2.80
  -4  -7  -9    7.10    2.80
   4   7   9    6.80    2.30
   4   7   9    9.30    2.10
   4   7   9    1.80    3.10
  -5  -7  -9   -1.20    2.90
  -5  -7  -9    2.50    3.00
  -5  -7  -9   -3.30    3.10
  -5  -7  -9    7.20    5.50
  -5  -7  -9   -1.90    3.20
   5   7   9   -2.10    1.90
   5   7   9    1.50    3.40
   5   7   9   -1.60    2.90
   5   7   9   -4.30    2.20
  -6  -7  -9   21.50    4.40
  -6  -7  -9   19.70    4.10
   6   7   9   19.10    4.10
   6   7   9   17.10    4.70
   3  -8  -9    3.30    3.50
   3  -8  -9   24.30    4.20
   3  -8  -9   10.30    4.60
  -3   8   9    9.80    3.20
  -3   8   9   15.70    3.60
  -3   8   9    9.50    3.30
   2  -8  -9    2.20    3.30
   2  -8  -9    8.70    3.30
   2  -8  -9    5.10    3.20
   2  -8  -9    5.20    3.20
  -2   8   9    8.60    3.00
  -2   8   9    2.00    2.70
  -2   8   9    3.20    2.60
  -2   8   9    9.60    3.10
   1  -8  -9  362.76   12.20
   1  -8  -9  338.17    8.50
   1  -8  -9  370.16    9.90
  -1   8   9  383.86   10.20
  -1   8   9  372.26    9.40
  -1   8   9  343.67   12.60
  -1   8   9  359.16   11.40
  -1   8   9  357.16    8.30
   0  -8  -9  360.66   12.00
   0  -8  -9  360.96    9.50
   0   8   9  353.66   11.40
   0   8   9  343.07    7.80
   0   8   9  354.96    8.90
   0   8   9  355.16    9.30
  -1  -8  -9   13.00    3.30
  -1  -8  -9   12.50    2.90
  -1  -8  -9   11.50    3.00
  -1  -8  -9   13.50    2.20
  -1  -8  -9   12.40    2.60
   1   8   9   14.30    4.60
   1   8   9    9.70    2.70
   1   8   9   13.90    2.80
   1   8   9   14.00    3.00
   1   8   9   12.20    2.10
  -2  -8  -9   54.19    7.60
  -2  -8  -9   54.19    4.90
  -2  -8  -9   50.89    4.70
  -2  -8  -9   50.79    3.80
  -2  -8  -9   50.79    4.10
   2   8   9   47.00    3.70
   2   8   9   57.49    4.40
   2   8   9   54.49    6.50
   2   8   9   49.99    4.10
  -3  -8  -9  176.08    6.80
  -3  -8  -9  175.98    9.80
  -3  -8  -9  169.98    4.70
  -3  -8  -9  164.38    9.80
  -3  -8  -9  157.48    6.70
  -3  -8  -9  171.68    6.80
   3   8   9  169.38    5.90
   3   8   9  167.78    5.80
   3   8   9  180.98    9.30
   3   8   9  170.58    7.70
  -4  -8  -9   -0.40    2.80
  -4  -8  -9   -5.30    3.00
  -4  -8  -9   -2.50    2.90
  -4  -8  -9    3.30    2.90
  -4  -8  -9    1.30    8.10
   4   8   9   -3.60    2.40
   4   8   9    0.00    2.70
   4   8   9    6.80    3.30
   4   8   9    0.10    2.30
  -5  -8  -9   -1.70    3.50
  -5  -8  -9   -1.50    3.30
  -5  -8  -9    8.20    5.60
  -5  -8  -9    3.10    3.30
  -5  -8  -9   -1.10    3.00
   5   8   9    5.10    3.00
   5   8   9    1.60    3.00
   5   8   9   -0.60    3.60
   5   8   9   -0.10    2.30
  -6  -8  -9   52.99    6.90
  -6  -8  -9   32.50    4.50
   6   8   9   31.10    4.70
   3  -9  -9    5.20    4.20
   3  -9  -9   -2.60    3.70
   3  -9  -9    5.50    4.00
   3  -9  -9   11.00    4.80
  -3   9   9   -0.20    3.30
  -3   9   9    2.60    3.30
  -3   9   9    6.10    3.20
   2  -9  -9   25.00    4.10
   2  -9  -9   22.70    3.60
   2  -9  -9   26.40    4.10
   2  -9  -9   20.40    4.10
   2  -9  -9   18.90    3.90
  -2   9   9   25.30    3.30
  -2   9   9   20.70    3.70
  -2   9   9   21.20    3.60
   1  -9  -9    1.30    2.90
   1  -9  -9    6.70    3.10
   1  -9  -9    4.70    3.20
   1  -9  -9    4.40    3.50
   1  -9  -9    7.70    2.70
  -1   9   9    8.00    2.50
  -1   9   9    5.30    2.80
  -1   9   9    5.20    2.90
  -1   9   9    9.50    3.00
  -1   9   9    7.10    4.90
   0  -9  -9   20.30    3.50
   0  -9  -9   22.80    3.40
   0  -9  -9   15.30    3.70
   0   9   9   18.90    3.10
   0   9   9   25.50    2.80
   0   9   9   18.00    3.40
   0   9   9   25.10    5.30
  -1  -9  -9    2.00    2.90
  -1  -9  -9    3.90    2.60
  -1  -9  -9    4.50    3.30
   1   9   9    5.00    4.00
   1   9   9    3.80    2.40
   1   9   9    5.20    2.20
   1   9   9    1.00    2.40
  -2  -9  -9   12.80    3.10
  -2  -9  -9    8.40    3.50
  -2  -9  -9   15.80    3.10
  -2  -9  -9   13.80    2.60
  -2  -9  -9    7.90    2.70
   2   9   9   13.50    2.80
   2   9   9   11.40    2.80
   2   9   9   15.70    5.30
   2   9   9   13.20    2.50
  -3  -9  -9    8.30    2.90
  -3  -9  -9   -3.00    2.40
  -3  -9  -9    0.00    3.00
  -3  -9  -9   -5.20    3.20
  -3  -9  -9    3.40    2.50
   3   9   9    1.00    4.40
   3   9   9    0.90    2.60
   3   9   9    2.80    3.10
   3   9   9   -0.50    2.60
   3   9   9   -0.50    2.30
  -4  -9  -9   -1.30    2.90
  -4  -9  -9   -0.50    5.60
  -4  -9  -9   -1.30    3.40
  -4  -9  -9    0.00    2.90
  -4  -9  -9    3.70    3.30
   4   9   9   -4.00    2.50
   4   9   9    4.50    3.40
   4   9   9   -2.80    3.00
   4   9   9   -0.80    2.70
  -5  -9  -9   15.00    3.90
  -5  -9  -9   20.50    4.30
  -5  -9  -9   28.10    6.50
   5   9   9    8.30    5.90
   5   9   9   24.70    4.90
   5   9   9   25.00    3.80
   3 -10  -9   20.70    5.30
   3 -10  -9   13.40    4.80
   3 -10  -9   14.10    4.70
   3 -10  -9    4.40    4.40
  -3  10   9    8.30    3.80
  -3  10   9   15.30    4.40
  -3  10   9   15.00    3.60
   2 -10  -9   14.60    4.00
   2 -10  -9   11.50    4.10
   2 -10  -9   12.00    3.70
  -2  10   9   12.60    3.50
  -2  10   9   15.00    3.30
  -2  10   9   15.60    3.50
   1 -10  -9   16.10    3.60
   1 -10  -9   19.00    3.80
   1 -10  -9   16.00    3.30
   1 -10  -9   11.90    4.00
  -1  10   9   17.40    3.30
  -1  10   9   17.40    3.00
  -1  10   9   16.00    3.50
  -1  10   9   19.30    5.50
  -1  10   9   21.20    3.50
   0 -10  -9    2.60    2.80
   0 -10  -9    7.40    3.00
   0 -10  -9    4.80    3.20
   0 -10  -9    6.80    3.70
   0  10   9    5.80    2.50
   0  10   9    7.00    3.10
   0  10   9    0.50    2.70
   0  10   9    6.90    4.50
   0  10   9    6.30    2.90
  -1 -10  -9   16.30    3.90
  -1 -10  -9   27.60    3.20
  -1 -10  -9   27.00    3.60
  -1 -10  -9   24.10    3.20
   1  10   9   22.90    3.60
   1  10   9   26.20    3.60
   1  10   9   26.70    3.20
   1  10   9   28.80    3.60
  -2 -10  -9   11.10    2.50
  -2 -10  -9    6.80    3.50
  -2 -10  -9   10.90    2.90
  -2 -10  -9   11.70    3.30
  -2 -10  -9   18.30    3.40
   2  10   9   15.50    2.80
   2  10   9   20.80    3.20
   2  10   9   12.70    3.40
  -3 -10  -9   13.10    3.00
  -3 -10  -9    6.40    3.90
  -3 -10  -9    9.50    3.40
  -3 -10  -9   11.80    2.40
  -3 -10  -9    9.90    3.20
   3  10   9   12.50    3.30
   3  10   9    6.20    3.00
   3  10   9    9.00    4.80
   3  10   9   10.40    3.00
  -4 -10  -9    1.00    3.80
  -4 -10  -9   -0.60    3.10
  -4 -10  -9    8.80    3.60
  -4 -10  -9    2.50    6.30
   4  10   9   10.30    3.40
   4  10   9    5.50    3.60
   4  10   9    5.70    3.00
  -5 -10  -9   12.70    7.80
  -5 -10  -9   13.70    4.20
  -5 -10  -9    0.80    3.70
   5  10   9   14.50    3.90
   5  10   9   11.10    4.30
   5  10   9   12.90    3.70
   2 -11  -9    5.50    4.40
   2 -11  -9    1.70    4.20
   2 -11  -9    2.70    4.00
  -2  11   9    2.90    3.40
  -2  11   9   -1.20    3.20
  -2  11   9   -2.10    3.40
   1 -11  -9    2.20    4.10
   1 -11  -9    1.30    3.60
   1 -11  -9    6.60    3.50
  -1  11   9    4.40    5.10
  -1  11   9    3.00    2.90
  -1  11   9   -1.20    3.10
  -1  11   9    5.30    3.30
   0 -11  -9    0.30    3.90
   0 -11  -9    5.70    3.50
   0 -11  -9    3.40    3.10
   0  11   9    6.50    3.00
   0  11   9    0.50    2.80
   0  11   9    2.70    4.40
   0  11   9    3.00    2.70
  -1 -11  -9    1.70    2.80
  -1 -11  -9    2.10    2.80
  -1 -11  -9   -3.10    2.80
  -1 -11  -9    0.60    3.60
  -1 -11  -9    3.30    3.20
   1  11   9   -5.30    2.80
   1  11   9    3.50    5.20
   1  11   9   -2.50    2.50
   1  11   9    1.10    2.70
   1  11   9    2.70    2.70
  -2 -11  -9   80.19    5.80
  -2 -11  -9   58.19    9.10
  -2 -11  -9   74.79    6.20
  -2 -11  -9   77.79    4.70
   2  11   9   72.49    9.00
   2  11   9   83.09    5.90
   2  11   9   77.29    5.90
   2  11   9   71.09    5.70
  -3 -11  -9   -1.70    2.90
  -3 -11  -9   -3.20    4.00
  -3 -11  -9    0.90    2.30
  -3 -11  -9    9.00    3.50
   3  11   9    1.00    5.00
   3  11   9    4.00    3.20
   3  11   9    3.30    3.10
   3  11   9    5.70    2.90
  -4 -11  -9    5.00    3.70
  -4 -11  -9    7.70    4.10
   4  11   9    8.30    3.50
   4  11   9    5.20    3.40
   4  11   9   -0.70    3.90
   1 -12  -9   28.20    4.40
   1 -12  -9   31.60    5.00
  -1  12   9   31.50    4.20
  -1  12   9   44.10    8.00
  -1  12   9   32.80    4.40
   0 -12  -9   10.60    3.50
   0 -12  -9   17.20    4.30
   0 -12  -9    4.60    4.30
   0  12   9    8.10    3.30
   0  12   9   11.00    3.50
   0  12   9   11.40    5.00
  -1 -12  -9    8.80    3.10
  -1 -12  -9   -0.70    4.40
  -1 -12  -9   10.50    3.80
  -1 -12  -9    2.00    3.10
   1  12   9    7.60    4.90
   1  12   9   11.50    3.60
   1  12   9    8.30    3.30
  -2 -12  -9   41.50    5.00
  -2 -12  -9   42.30    4.90
  -2 -12  -9   33.30    3.80
   2  12   9   51.39    7.30
   2  12   9   43.00    5.80
   2  12   9   43.70    4.60
  -3 -12  -9   95.69    7.40
  -3 -12  -9   65.29    6.40
  -3 -12  -9   97.89    5.10
   3  12   9   84.99    6.60
   3  12   9   86.49    7.00
  -4 -12  -9   11.30    5.00
   4  12   9   12.30    5.10
   4  12   9   10.70    4.00
   0 -13  -9   69.89    6.60
   0 -13  -9   95.59    7.80
   0  13   9   66.89    6.90
   0  13   9   60.79    7.20
   0  13   9   93.99    8.60
  -1 -13  -9    9.20    3.30
  -1 -13  -9   -6.90    3.10
  -1 -13  -9    3.80    4.00
   1  13   9    2.20    5.00
   1  13   9    2.70    3.70
   1  13   9    6.70    3.60
  -2 -13  -9    8.60    3.10
  -2 -13  -9    4.00    3.40
  -2 -13  -9   13.00    4.20
   2  13   9   14.60    5.80
   2  13   9    8.20    4.10
   2  13   9    7.40    3.60
  -3 -13  -9   25.90    3.40
   3  13   9   21.70    4.60
   3  13   9   24.40    4.50
  -1   7 -10   25.30    3.90
  -1   7 -10   18.60    4.40
  -1   7 -10   18.50    6.10
  -1   7 -10   16.80    3.90
   1  -7  10   19.30    4.40
   1   6 -10   -0.10    3.80
   1   6 -10    8.00    4.20
  -1  -6  10   10.60    5.70
   0   6 -10   13.10    4.00
   0   6 -10   11.10    3.80
   0   6 -10    7.20    3.90
   0  -6  10   14.60    4.10
   0  -6  10   24.80    6.90
   0  -6  10   14.30    3.10
  -1   6 -10   29.30    3.30
  -1   6 -10   33.10    3.90
  -1   6 -10   29.60    4.00
  -1   6 -10   29.50    4.70
   1  -6  10   27.40    4.20
   1  -6  10   42.10    6.80
  -2   6 -10   23.30    4.40
  -2   6 -10   32.10    4.30
  -2   6 -10   34.70    4.90
  -2   6 -10   40.00    5.30
  -2   6 -10   34.40    4.00
   2  -6  10   23.90    4.00
  -3   6 -10   20.40    4.20
  -3   6 -10   18.90    4.20
  -3   6 -10   14.70    3.80
   3  -6  10   14.60    4.00
   2   5 -10   10.60    4.50
   2   5 -10    7.90    4.30
  -2  -5  10   14.10    3.20
  -2  -5  10   25.50    6.60
  -2  -5  10    8.40    4.70
   1   5 -10    9.10    3.90
   1   5 -10    9.10    3.70
   1   5 -10    3.50    3.80
  -1  -5  10   -1.50    1.40
  -1  -5  10    6.30    5.30
  -1  -5  10    2.00    2.80
   0   5 -10    6.30    3.50
   0   5 -10    4.60    3.60
   0   5 -10   -2.60    3.10
   0  -5  10    2.50    2.50
   0  -5  10    3.40    4.80
  -1   5 -10  126.69    4.50
  -1   5 -10  117.69    5.80
  -1   5 -10  129.39    6.10
  -1   5 -10  133.59    5.10
  -1   5 -10  134.69    9.70
   1  -5  10  138.09    9.20
   1  -5  10  127.79    6.90
  -2   5 -10   16.10    2.40
  -2   5 -10   18.90    3.50
  -2   5 -10   20.60    3.10
  -2   5 -10    9.70    3.90
  -2   5 -10   18.60    2.60
  -2   5 -10   13.40    3.70
   2  -5  10   15.90    3.50
  -3   5 -10    8.00    2.60
  -3   5 -10   10.40    3.70
  -3   5 -10    5.20    1.80
  -3   5 -10    5.40    3.40
   3  -5  10    3.00    3.30
  -4   5 -10   26.70    4.20
   2   4 -10   33.70    4.80
   2   4 -10   34.10    5.00
  -2  -4  10   41.60    6.90
  -2  -4  10   33.80    3.80
  -2  -4  10   36.30    4.10
   1   4 -10   27.30    4.60
   1   4 -10   32.40    4.00
   1   4 -10   34.00    4.40
  -1  -4  10   48.00    7.70
  -1  -4  10   33.10    3.10
  -1  -4  10   31.00    4.40
  -1  -4  10   31.50    3.60
   0   4 -10    3.10    3.20
   0   4 -10    8.10    3.30
   0   4 -10    7.90    3.10
   0  -4  10    5.40    2.00
   0  -4  10    8.40    4.60
  -1   4 -10   27.40    3.00
  -1   4 -10   19.90    3.00
  -1   4 -10   24.30    3.20
  -1   4 -10   17.10    3.70
   1  -4  10   19.40    3.50
   1  -4  10   34.80    6.00
  -2   4 -10   94.29    6.90
  -2   4 -10   95.19    4.20
  -2   4 -10   95.69    5.20
  -2   4 -10  104.79    8.00
  -2   4 -10   84.69    4.40
  -2   4 -10   92.29    4.00
   2  -4  10  104.39    6.00
   2  -4  10  100.59    8.70
  -3   4 -10   41.30    7.10
  -3   4 -10   17.30    6.40
  -3   4 -10   25.40    3.60
  -3   4 -10   26.80    2.70
  -3   4 -10   31.10    2.90
  -3   4 -10   44.50    5.80
  -3   4 -10   29.20    4.70
   3  -4  10   35.00    3.80
  -4   4 -10   11.50    4.40
  -4   4 -10    5.10    3.20
  -4   4 -10    7.50    2.80
  -4   4 -10    9.20    4.60
  -4   4 -10   15.20    7.20
   4  -4  10    3.20    3.10
   3   3 -10    3.10    4.10
   3   3 -10   -7.20    4.30
  -3  -3  10    2.90    3.70
  -3  -3  10    2.30    3.60
  -3  -3  10    6.00    4.00
   2   3 -10   14.00    4.10
   2   3 -10    6.40    3.70
  -2  -3  10   14.30    5.90
  -2  -3  10   17.50    3.70
   1   3 -10  115.29    9.20
   1   3 -10  104.79    6.50
   1   3 -10  104.99    6.50
  -1  -3  10   94.19    4.60
  -1  -3  10  110.89    8.60
  -1  -3  10   96.29    4.50
  -1  -3  10   96.39    4.10
   0   3 -10   -0.80    2.70
   0   3 -10   -0.50    2.80
   0  -3  10    0.20    1.50
   0  -3  10    0.50    4.40
  -1   3 -10    9.90    2.70
  -1   3 -10    7.70    2.90
  -1   3 -10    9.10    2.40
   1  -3  10   10.60    4.70
   1  -3  10   14.40    3.00
  -2   3 -10   34.70    3.20
  -2   3 -10   34.00    3.40
  -2   3 -10   44.40    6.70
  -2   3 -10   39.10    5.60
  -2   3 -10   39.50    2.90
  -2   3 -10   47.10    4.30
   2  -3  10   34.80    3.60
   2  -3  10   43.70    7.60
  -3   3 -10    8.30    5.80
  -3   3 -10   11.80    3.20
  -3   3 -10    8.20    1.50
  -3   3 -10   17.00    3.40
  -3   3 -10   11.20    1.90
  -3   3 -10    5.20    1.80
  -3   3 -10   10.50    3.80
   3  -3  10   11.60    3.00
  -4   3 -10   10.40    2.40
  -4   3 -10   11.10    3.80
  -4   3 -10    7.50    3.00
  -4   3 -10    5.90    4.00
  -4   3 -10   17.00    5.60
   4  -3  10    9.80    2.90
  -5   3 -10    1.30    3.20
  -5   3 -10    4.40    3.20
   5  -3  10    5.90    3.20
   3   2 -10   -1.80    4.20
   3   2 -10    0.30    3.90
  -3  -2  10    2.50    3.40
  -3  -2  10   -0.90    3.40
  -3  -2  10   -1.30    3.70
   2   2 -10   11.40    3.60
   2   2 -10    0.70    3.20
   2   2 -10    9.90    3.60
  -2  -2  10    7.60    3.20
  -2  -2  10    6.00    3.20
  -2  -2  10   -0.60    5.60
  -2  -2  10    2.80    2.60
   1   2 -10    3.30    3.00
   1   2 -10    1.90    2.80
   1   2 -10   -1.30    2.60
  -1  -2  10    0.10    1.70
  -1  -2  10    3.60    4.70
  -1  -2  10    0.40    2.50
  -1  -2  10    1.80    1.90
   0   2 -10   16.80    3.50
   0   2 -10   22.10    3.10
   0   2 -10   22.10    3.40
   0  -2  10   27.90    5.50
  -1   2 -10    2.90    2.70
  -1   2 -10    4.10    2.20
   1  -2  10    0.00    4.10
  -2   2 -10    0.80    1.90
  -2   2 -10    1.90    2.50
  -2   2 -10   -0.70    1.60
  -2   2 -10   -4.30    2.20
  -2   2 -10    3.10    3.00
   2  -2  10    8.20    4.60
   2  -2  10    2.90    2.60
  -3   2 -10   53.19    6.50
  -3   2 -10   64.99    8.40
  -3   2 -10   56.59    2.80
  -3   2 -10   58.29    3.00
  -3   2 -10   65.79    5.50
  -3   2 -10   45.20    5.90
  -3   2 -10   53.59    3.00
   3  -2  10   63.49    4.80
  -4   2 -10    7.90    3.60
  -4   2 -10    8.00    2.90
  -4   2 -10    7.50    2.00
  -4   2 -10   19.20    5.40
  -4   2 -10    4.60    3.80
   4  -2  10   10.10    2.80
  -5   2 -10   25.30    3.90
  -5   2 -10   38.60    5.50
  -5   2 -10   25.60    3.20
   5  -2  10   36.30    3.80
   3   1 -10   -1.00    3.50
   3   1 -10    3.90    4.10
  -3  -1  10   -0.60    3.10
  -3  -1  10    1.30    3.60
  -3  -1  10   -1.00    3.30
   2   1 -10    3.80    3.20
   2   1 -10    4.80    3.40
   2   1 -10    3.50    3.30
  -2  -1  10    3.20    3.20
  -2  -1  10    5.50    2.60
  -2  -1  10    0.40    2.30
  -2  -1  10   -2.40    5.20
   1   1 -10    4.90    3.00
   1   1 -10    7.00    2.90
   1   1 -10    4.70    3.00
  -1  -1  10    5.90    4.20
  -1  -1  10    4.00    4.60
  -1  -1  10    6.10    2.10
  -1  -1  10    2.80    1.50
   0   1 -10    3.00    2.70
   0   1 -10    2.80    2.60
   0   1 -10    4.60    2.50
   0  -1  10    5.30    1.30
   0  -1  10   11.30    4.50
   0  -1  10    6.60    1.60
  -1   1 -10    9.30    2.30
  -1   1 -10    3.20    2.50
   1  -1  10   10.20    5.00
  -2   1 -10    4.70    2.60
  -2   1 -10    5.50    1.70
  -2   1 -10    7.80    2.00
  -2   1 -10    9.60    2.90
   2  -1  10   10.10    4.60
  -3   1 -10    9.10    1.80
  -3   1 -10    6.80    3.10
  -3   1 -10    4.00    4.70
  -3   1 -10    6.00    2.60
  -3   1 -10    8.20    1.50
  -3   1 -10   12.90    3.30
   3  -1  10    8.20    2.50
   3  -1  10   10.70    5.10
  -4   1 -10    8.30    5.20
  -4   1 -10    3.50    3.50
  -4   1 -10    0.30    1.50
  -4   1 -10    1.20    3.40
  -4   1 -10    4.50    2.70
  -4   1 -10    4.90    1.30
   4  -1  10    4.50    2.50
  -5   1 -10   45.20    6.80
  -5   1 -10   39.60    5.60
  -5   1 -10   45.80    5.40
  -5   1 -10   43.80    4.40
   5  -1  10   48.10    3.80
   4   0 -10   -0.60    4.20
  -4   0  10   -1.70    4.00
  -4   0  10   -1.90    4.10
   3   0 -10   24.60    4.10
   3   0 -10   29.00    4.50
  -3   0  10   29.30    4.20
  -3   0  10   30.80    3.90
  -3   0  10   32.30    4.10
   2   0 -10   13.80    3.60
   2   0 -10   14.60    3.70
   2   0 -10   12.80    3.50
  -2   0  10   18.10    3.30
  -2   0  10   19.40    3.10
  -2   0  10   15.70    2.60
   1   0 -10   -1.10    2.50
   1   0 -10    0.10    2.70
   1   0 -10    2.30    2.70
  -1   0  10    0.60    1.30
  -1   0  10   -2.60    1.90
  -1   0  10    2.50    2.50
  -1   0  10   -2.00    4.20
   0   0 -10   21.10    3.10
   0   0 -10   13.40    3.10
   0   0 -10   18.30    2.90
   0   0  10   20.40    2.30
   0   0  10   17.70    1.80
   0   0  10   34.70    6.20
  -1   0 -10   14.50    2.40
  -1   0 -10    9.00    2.70
   1   0  10   18.40    6.00
  -2   0 -10   14.30    2.10
  -2   0 -10   15.70    3.10
  -2   0 -10   18.50    3.10
  -2   0 -10   14.80    2.20
   2   0  10   21.20    5.00
  -3   0 -10  116.99    3.90
  -3   0 -10  120.69    5.90
  -3   0 -10  115.99    3.70
  -3   0 -10  121.49    7.50
  -3   0 -10  109.59    8.90
   3   0  10  118.49    8.60
  -4   0 -10    4.80    1.50
  -4   0 -10    4.00    1.70
  -4   0 -10    9.70    3.40
  -4   0 -10    1.20    1.50
  -4   0 -10    1.90    3.50
  -4   0 -10    2.40    2.60
  -4   0 -10    8.20    5.00
  -5   0 -10    2.20    1.70
  -5   0 -10   -1.50    2.10
  -5   0 -10   -3.50    3.70
  -5   0 -10    0.30    2.80
  -5   0 -10   -0.80    1.90
   4  -1 -10    1.40    4.50
   4  -1 -10    5.40    4.10
  -4   1  10    5.70    4.30
  -4   1  10    2.70    3.90
   3  -1 -10    0.00    3.70
   3  -1 -10    1.00    3.30
  -3   1  10    0.60    3.10
  -3   1  10    3.20    3.20
  -3   1  10   -1.30    3.40
   2  -1 -10    1.10    3.20
   2  -1 -10    9.50    3.40
   2  -1 -10    6.00    3.00
  -2   1  10    6.90    2.40
  -2   1  10   15.00    3.90
  -2   1  10    8.00    2.80
   1  -1 -10   81.89    5.50
   1  -1 -10   80.19    5.70
   1  -1 -10   83.59    7.50
  -1   1  10   91.49    8.30
  -1   1  10   78.39    4.40
  -1   1  10   78.49    2.90
  -1   1  10   86.99    5.00
   0  -1 -10    4.20    2.40
   0  -1 -10    2.90    2.50
   0  -1 -10    2.40    2.60
   0   1  10    4.10    1.60
   0   1  10    6.50    4.00
   0   1  10    3.70    2.00
  -1  -1 -10    9.50    2.90
  -1  -1 -10    9.60    2.20
  -1  -1 -10   14.00    4.20
   1   1  10   13.20    5.50
   1   1  10    9.80    1.70
  -2  -1 -10   36.10    3.10
  -2  -1 -10   44.40    6.10
  -2  -1 -10   38.50    3.80
  -2  -1 -10   36.60    3.50
   2   1  10   46.90    6.90
   2   1  10   44.30    3.70
  -3  -1 -10   21.20    2.30
  -3  -1 -10   25.00    6.10
  -3  -1 -10   18.70    2.60
  -3  -1 -10   25.00    3.00
  -3  -1 -10   14.70    3.10
   3   1  10   21.40    5.50
   3   1  10   21.90    3.10
  -4  -1 -10  190.28    4.70
  -4  -1 -10  183.58    5.10
  -4  -1 -10  185.68    4.90
  -4  -1 -10  197.68    8.90
  -4  -1 -10  192.08   10.50
  -4  -1 -10  198.68    5.30
  -4  -1 -10  193.38    7.00
   4   1  10  189.48    7.80
  -5  -1 -10    1.80    1.90
  -5  -1 -10   -1.10    2.70
  -5  -1 -10    1.60    2.10
  -5  -1 -10    4.50    1.90
   5   1  10   -1.40    3.40
  -6  -1 -10   20.40    3.70
   6   1  10   25.40    5.30
   4  -2 -10    1.20    6.30
   4  -2 -10    5.70    4.60
   4  -2 -10    1.90    3.90
  -4   2  10   -1.40    3.80
  -4   2  10   10.20    4.30
   3  -2 -10   31.10    4.40
  -3   2  10   40.80    5.70
  -3   2  10   38.40    4.20
   2  -2 -10   -0.30    3.10
   2  -2 -10    4.30    3.00
   2  -2 -10    2.20    3.00
  -2   2  10   -1.10    2.50
  -2   2  10    2.30    2.20
   1  -2 -10   13.40    3.10
   1  -2 -10    8.50    3.00
   1  -2 -10    8.10    3.00
  -1   2  10    8.00    1.20
  -1   2  10   15.10    2.50
  -1   2  10   10.90    1.50
  -1   2  10   14.80    5.20
   0  -2 -10    1.20    2.20
   0  -2 -10    3.90    2.60
   0  -2 -10    3.10    2.60
   0   2  10    4.30    1.60
   0   2  10    2.50    1.20
   0   2  10   -1.60    3.80
  -1  -2 -10    3.30    2.00
  -1  -2 -10    2.70    2.40
  -1  -2 -10    3.60    2.30
   1   2  10    3.90    1.50
   1   2  10    3.40    1.60
   1   2  10    2.20    4.60
   1   2  10    5.70    1.30
  -2  -2 -10  201.48    9.10
  -2  -2 -10  203.08    5.60
  -2  -2 -10  204.08    5.80
  -2  -2 -10  200.68    5.50
   2   2  10  203.98    6.00
   2   2  10  201.38    9.80
   2   2  10  206.08    8.70
  -3  -2 -10  539.45   15.90
  -3  -2 -10  573.94   10.60
  -3  -2 -10  600.64   14.80
  -3  -2 -10  575.04   10.40
  -3  -2 -10  576.04   10.50
   3   2  10  604.84   14.50
   3   2  10  587.54   12.30
   3   2  10  592.24   16.40
  -4  -2 -10    6.00    2.70
  -4  -2 -10   15.50    5.20
  -4  -2 -10    8.90    2.00
  -4  -2 -10   10.30    2.20
  -4  -2 -10    5.60    1.90
  -4  -2 -10    7.70    1.50
  -4  -2 -10    4.80    2.70
   4   2  10    3.80    3.00
   4   2  10    5.80    2.80
  -5  -2 -10   26.20    3.70
  -5  -2 -10   38.30    3.50
   5   2  10   34.80    4.80
  -6  -2 -10    7.00    3.30
  -6  -2 -10   16.10    2.90
  -6  -2 -10   20.20    4.00
   6   2  10    2.30    4.50
   4  -3 -10   -0.80    3.80
   4  -3 -10   -9.90    4.10
   4  -3 -10   -5.30    5.90
  -4   3  10   13.10    3.90
   3  -3 -10   -6.70    4.60
   3  -3 -10    2.60    3.40
   3  -3 -10    6.40    3.80
  -3   3  10    4.50    3.30
  -3   3  10    0.70    3.10
   2  -3 -10   -0.50    2.90
   2  -3 -10    1.80    2.80
   2  -3 -10   -2.00    2.90
  -2   3  10   -1.50    1.50
  -2   3  10   -2.00    2.50
   1  -3 -10   16.80    3.20
   1  -3 -10   20.50    3.30
   1  -3 -10   11.30    3.10
  -1   3  10   18.10    5.40
  -1   3  10   13.80    2.60
  -1   3  10   18.40    2.50
  -1   3  10   15.70    3.00
  -1   3  10   14.20    1.40
  -1   3  10   14.40    1.60
   0  -3 -10    7.90    2.40
   0  -3 -10    9.50    2.90
   0  -3 -10   12.00    2.90
   0   3  10    8.70    2.80
   0   3  10   11.20    3.20
   0   3  10   11.10    1.60
   0   3  10   11.20    4.70
   0   3  10   10.80    2.10
  -1  -3 -10    5.70    2.80
  -1  -3 -10    5.10    2.20
  -1  -3 -10    6.50    2.40
   1   3  10    9.20    5.20
   1   3  10    5.20    1.90
   1   3  10    6.90    1.80
   1   3  10    6.30    1.60
  -2  -3 -10  121.49    3.70
  -2  -3 -10  124.39    7.80
  -2  -3 -10  122.59    4.70
   2   3  10  121.69    5.10
   2   3  10  137.09    7.70
   2   3  10  133.89    8.60
  -3  -3 -10   79.69    4.30
  -3  -3 -10   70.99    3.40
  -3  -3 -10   73.89    3.80
  -3  -3 -10   76.29    6.90
   3   3  10   84.39    7.80
   3   3  10   76.19    5.20
   3   3  10   74.89    6.80
  -4  -3 -10   28.20    3.70
  -4  -3 -10   25.90    3.30
  -4  -3 -10   27.20    3.30
   4   3  10   23.20    3.50
   4   3  10   44.60    5.50
  -5  -3 -10    1.30    4.60
  -5  -3 -10    7.80    2.40
  -5  -3 -10    1.80    2.60
  -5  -3 -10    3.20    2.90
   5   3  10    6.80    3.20
   5   3  10    1.50    3.60
  -6  -3 -10   11.30    3.20
  -6  -3 -10    1.50    3.30
  -6  -3 -10    7.70    3.00
  -6  -3 -10   10.90    3.70
   6   3  10    8.10    4.40
   4  -4 -10    7.90    6.20
   4  -4 -10   -2.60    3.70
   4  -4 -10    5.10    4.40
  -4   4  10    5.10    3.50
  -4   4  10    0.20    3.80
   3  -4 -10    8.50    4.80
   3  -4 -10    8.00    3.60
   3  -4 -10    5.30    3.30
  -3   4  10   11.50    2.60
  -3   4  10    5.80    3.20
  -3   4  10   12.90    2.70
   2  -4 -10    1.20    3.00
   2  -4 -10    2.10    2.80
   2  -4 -10   -3.70    3.60
   2  -4 -10   -3.10    2.60
  -2   4  10    1.50    1.70
  -2   4  10    5.20    3.40
  -2   4  10    1.90    2.80
   1  -4 -10   26.30    3.50
   1  -4 -10   26.00    3.70
   1  -4 -10   26.60    3.60
  -1   4  10   27.30    3.40
  -1   4  10   21.80    3.50
  -1   4  10   39.30    6.20
  -1   4  10   26.20    2.30
  -1   4  10   27.20    3.50
   0  -4 -10    2.40    2.80
   0  -4 -10   -2.20    2.40
   0  -4 -10   -0.50    2.50
   0   4  10    0.20    2.20
   0   4  10    0.30    1.80
   0   4  10    1.30    3.90
   0   4  10   -1.50    1.60
   0   4  10    2.00    2.50
  -1  -4 -10   19.70    3.30
  -1  -4 -10   26.80    2.90
  -1  -4 -10   29.30    4.00
   1   4  10   32.40    5.20
   1   4  10   30.20    3.30
   1   4  10   24.90    2.80
   1   4  10   26.80    3.40
  -2  -4 -10    4.50    2.70
  -2  -4 -10    5.40    2.20
  -2  -4 -10    9.70    2.50
   2   4  10    7.00    4.60
   2   4  10    5.80    2.20
   2   4  10    4.00    2.40
   2   4  10    8.00    1.80
   2   4  10    6.50    1.40
  -3  -4 -10   43.70    6.40
  -3  -4 -10   47.90    4.00
  -3  -4 -10   48.90    3.70
   3   4  10   41.60    4.70
   3   4  10   40.20    7.00
   3   4  10   46.10    6.20
  -4  -4 -10   -1.80    1.80
  -4  -4 -10    0.80    2.70
  -4  -4 -10    4.40    2.10
  -4  -4 -10    1.40    2.60
   4   4  10    3.60    2.70
   4   4  10    0.20    2.80
  -5  -4 -10    4.20    2.50
  -5  -4 -10   -0.10    2.70
  -5  -4 -10    0.00    2.90
  -5  -4 -10    1.20    2.70
   5   4  10    5.10    3.60
  -6  -4 -10    6.00    3.10
  -6  -4 -10    8.20    3.90
  -6  -4 -10    0.10    3.30
  -6  -4 -10    4.70    3.50
   6   4  10    6.40    4.70
   4  -5 -10    4.20    6.10
   4  -5 -10   -4.40    4.50
   4  -5 -10    1.20    3.90
  -4   5  10    5.90    3.50
  -4   5  10    6.60    4.00
   3  -5 -10    9.10    4.80
   3  -5 -10   -0.70    3.50
   3  -5 -10   -0.60    3.20
  -3   5  10   -1.80    3.10
  -3   5  10   -6.20    2.90
  -3   5  10    4.50    2.60
   2  -5 -10    3.40    3.10
   2  -5 -10    1.60    3.10
   2  -5 -10    6.20    3.80
   2  -5 -10    3.70    4.40
  -2   5  10   -0.50    2.80
  -2   5  10   -0.90    3.00
  -2   5  10    0.30    1.80
  -2   5  10   -2.00    2.70
   1  -5 -10   13.40    3.30
   1  -5 -10   14.10    3.30
   1  -5 -10   19.00    3.30
   1  -5 -10   10.40    2.90
  -1   5  10   20.50    5.40
  -1   5  10   13.90    1.70
  -1   5  10    7.90    3.10
  -1   5  10   19.20    2.90
  -1   5  10    8.50    2.90
   0  -5 -10   22.50    3.10
   0  -5 -10   15.80    3.20
   0  -5 -10   26.50    3.40
   0  -5 -10   24.60    3.20
   0   5  10   21.60    1.90
   0   5  10   27.40    5.50
   0   5  10   25.30    3.10
   0   5  10   19.00    3.20
   0   5  10   23.40    2.70
  -1  -5 -10   48.70    4.60
  -1  -5 -10   58.59    6.70
  -1  -5 -10   50.59    4.30
   1   5  10   47.40    4.10
   1   5  10   64.39    7.00
   1   5  10   57.59    3.50
   1   5  10   50.99    4.80
  -2  -5 -10  217.88    6.50
  -2  -5 -10  225.28    9.50
  -2  -5 -10  209.68    6.60
   2   5  10  215.88    8.90
   2   5  10  205.28    5.40
   2   5  10  217.98    6.80
   2   5  10  215.58   10.40
   2   5  10  210.58    5.20
  -3  -5 -10   25.60    2.40
  -3  -5 -10   22.00    3.60
  -3  -5 -10   30.70    4.10
  -3  -5 -10   33.30    3.90
   3   5  10   33.90    6.00
   3   5  10   23.20    3.60
   3   5  10   26.20    2.50
   3   5  10   27.90    2.10
   3   5  10   35.50    4.80
  -4  -5 -10   11.90    2.30
  -4  -5 -10   13.10    2.60
  -4  -5 -10   17.20    5.40
  -4  -5 -10    9.80    3.10
  -4  -5 -10   10.40    3.00
   4   5  10   10.60    3.30
  -5  -5 -10   51.19    4.80
  -5  -5 -10   31.40    4.30
  -5  -5 -10   41.60    5.30
  -5  -5 -10   40.80    5.00
   5   5  10   47.50    7.00
  -6  -5 -10   45.10    5.70
  -6  -5 -10   29.10    4.30
  -6  -5 -10   22.20    4.00
  -6  -5 -10   24.90    4.40
   6   5  10   28.30    4.30
   6   5  10   26.30    5.10
   3  -6 -10    6.90    4.70
   3  -6 -10   -0.60    3.30
   3  -6 -10   -2.00    4.00
  -3   6  10    5.60    3.50
  -3   6  10    2.00    2.80
  -3   6  10    1.20    3.50
   2  -6 -10  221.08    8.40
   2  -6 -10  217.58    8.60
   2  -6 -10  201.78    7.60
   2  -6 -10  215.68   10.20
  -2   6  10  203.88    7.90
  -2   6  10  208.58    6.30
  -2   6  10  210.48    7.80
  -2   6  10  204.18    9.30
   1  -6 -10  107.59    5.50
   1  -6 -10  109.89    6.20
   1  -6 -10   95.29    8.10
  -1   6  10  104.19    8.80
  -1   6  10   98.09    3.90
  -1   6  10   99.59    7.70
  -1   6  10   98.69    5.70
   0  -6 -10   36.30    4.80
   0  -6 -10   32.70    3.20
   0  -6 -10   29.10    3.40
   0  -6 -10   22.00    3.50
   0   6  10   27.40    3.00
   0   6  10   33.40    2.50
   0   6  10   34.30    6.00
   0   6  10   29.90    3.40
   0   6  10   39.50    6.90
  -1  -6 -10    2.50    2.80
  -1  -6 -10   -1.40    2.60
  -1  -6 -10    3.30    2.60
   1   6  10    0.60    4.10
   1   6  10    0.40    1.10
   1   6  10   -2.90    2.10
   1   6  10    0.60    1.90
  -2  -6 -10  117.59    3.30
  -2  -6 -10  101.89    6.10
  -2  -6 -10  126.29    8.20
  -2  -6 -10  124.49    5.60
   2   6  10  120.89    8.80
   2   6  10  120.39    5.80
   2   6  10  115.39    4.40
   2   6  10  125.09    4.80
  -3  -6 -10   15.20    3.40
  -3  -6 -10   20.60    2.90
  -3  -6 -10   24.00    3.30
   3   6  10   23.50    2.70
   3   6  10   21.40    5.30
   3   6  10   26.10    2.60
   3   6  10   26.80    3.80
  -4  -6 -10   -3.00    4.90
  -4  -6 -10    4.60    2.30
  -4  -6 -10    4.90    2.90
  -4  -6 -10    0.10    3.00
  -4  -6 -10    6.20    2.60
   4   6  10    6.50    1.60
   4   6  10    5.90    3.40
  -5  -6 -10   38.50    4.00
  -5  -6 -10   29.90    3.50
  -5  -6 -10   42.90    5.00
  -5  -6 -10   24.30    4.20
   5   6  10   47.10    7.10
   5   6  10   40.80    5.00
  -6  -6 -10   23.60    4.60
  -6  -6 -10   34.20    4.50
  -6  -6 -10   43.70    4.60
  -6  -6 -10   37.10    4.00
   6   6  10   31.60    4.50
   6   6  10   38.50    5.60
   3  -7 -10   -3.10    3.70
   3  -7 -10    5.80    4.30
   3  -7 -10   -4.90    4.60
  -3   7  10    0.70    3.10
  -3   7  10    1.80    3.00
  -3   7  10   -5.10    3.10
   2  -7 -10  131.79    7.60
   2  -7 -10  141.19    6.80
   2  -7 -10  149.49    7.40
   2  -7 -10  126.79    9.00
  -2   7  10  135.29    6.60
  -2   7  10  138.69    6.80
  -2   7  10  138.99    8.60
  -2   7  10  127.39    5.60
   1  -7 -10  698.23   17.10
   1  -7 -10  700.73   13.20
   1  -7 -10  704.53   14.60
  -1   7  10  683.03   13.80
  -1   7  10  697.33   16.70
  -1   7  10  676.43   12.10
  -1   7  10  686.73   14.40
  -1   7  10  678.13   18.10
   0  -7 -10   31.30    2.80
   0  -7 -10   15.80    3.40
   0  -7 -10   24.70    3.40
   0  -7 -10   19.40    3.20
   0   7  10   27.10    3.20
   0   7  10   22.90    3.20
   0   7  10   27.70    5.70
   0   7  10   22.00    2.90
   0   7  10   19.90    3.40
  -1  -7 -10   43.60    4.80
  -1  -7 -10   47.10    7.20
  -1  -7 -10   44.80    4.70
   1   7  10   47.00    3.00
   1   7  10   43.20    4.30
   1   7  10   42.30    3.90
   1   7  10   46.10    7.10
  -2  -7 -10    3.40    2.50
  -2  -7 -10    7.40    2.90
  -2  -7 -10    3.20    1.60
  -2  -7 -10    2.60    2.90
   2   7  10    4.20    2.40
   2   7  10    2.40    2.80
   2   7  10    4.80    4.40
   2   7  10    6.00    2.10
  -3  -7 -10  239.48    7.60
  -3  -7 -10  228.28    5.90
  -3  -7 -10  246.28   10.70
  -3  -7 -10  232.28    7.40
  -3  -7 -10  236.48    5.80
   3   7  10  246.28   11.10
   3   7  10  252.77    8.60
   3   7  10  239.18   10.90
   3   7  10  237.88    6.10
  -4  -7 -10    6.50    3.50
  -4  -7 -10   11.20    3.20
  -4  -7 -10   10.40    5.70
  -4  -7 -10   10.90    3.00
   4   7  10   13.80    3.60
   4   7  10   14.60    2.40
   4   7  10    9.70    3.00
   4   7  10   11.80    2.00
  -5  -7 -10    2.00    3.20
  -5  -7 -10   12.40    3.50
  -5  -7 -10    0.00    3.60
  -5  -7 -10    0.30    3.50
   5   7  10    9.80    3.40
   5   7  10   10.50    3.90
   3  -8 -10    3.40    4.20
   3  -8 -10   15.60    5.10
   3  -8 -10   18.90    4.60
  -3   8  10    2.00    3.60
  -3   8  10    6.60    3.30
  -3   8  10    6.30    3.40
   2  -8 -10   15.50    4.10
   2  -8 -10   24.80    4.10
   2  -8 -10   22.70    4.40
  -2   8  10   22.00    3.80
  -2   8  10   19.30    3.60
  -2   8  10   15.10    3.50
   1  -8 -10   40.00    4.50
   1  -8 -10   32.90    4.40
   1  -8 -10   53.49    5.20
   1  -8 -10   53.69    5.80
  -1   8  10   43.90    3.90
  -1   8  10   47.40    7.00
  -1   8  10   58.09    5.50
  -1   8  10   45.50    7.80
  -1   8  10   51.99    5.10
   0  -8 -10  115.89    8.70
   0  -8 -10  111.49    6.30
   0   8  10  114.19    5.80
   0   8  10  114.99    8.70
   0   8  10  111.49    8.00
   0   8  10  107.89    4.50
  -1  -8 -10    1.00    3.20
  -1  -8 -10   -0.80    2.70
  -1  -8 -10   -0.70    2.60
   1   8  10    1.30    2.50
   1   8  10    2.00    2.60
   1   8  10   -4.90    4.00
   1   8  10    0.10    1.70
   1   8  10    1.00    2.20
  -2  -8 -10   53.29    5.20
  -2  -8 -10   53.89    4.50
  -2  -8 -10   52.19    3.60
  -2  -8 -10   51.79    7.80
  -2  -8 -10   56.29    5.20
   2   8  10   52.49    4.60
   2   8  10   59.09    3.70
   2   8  10   52.19    7.20
   2   8  10   56.39    4.30
  -3  -8 -10    4.10    3.30
  -3  -8 -10    2.40    2.80
  -3  -8 -10    1.40    2.70
  -3  -8 -10    0.60    2.10
   3   8  10   -2.00    4.20
   3   8  10    3.00    2.50
   3   8  10    4.00    2.70
   3   8  10    0.40    3.00
   3   8  10   -0.90    2.10
  -4  -8 -10    1.60    3.10
  -4  -8 -10   -0.20    5.40
  -4  -8 -10   -2.50    2.60
  -4  -8 -10   -1.90    3.30
  -4  -8 -10    8.80    3.10
   4   8  10    5.50    2.30
   4   8  10   -0.20    2.90
   4   8  10    1.70    2.60
   4   8  10    2.20    3.30
  -5  -8 -10    1.80    3.30
  -5  -8 -10    1.30    3.30
   5   8  10    3.00    3.30
   5   8  10   -2.40    4.00
   5   8  10    1.60    2.80
   3  -9 -10    6.60    4.70
   3  -9 -10    3.60    4.40
   3  -9 -10   11.50    5.30
   3  -9 -10    7.90    4.50
  -3   9  10    2.00    3.80
  -3   9  10    8.50    3.70
   2  -9 -10    1.70    3.80
   2  -9 -10    6.10    3.70
   2  -9 -10   10.80    4.10
   2  -9 -10    7.90    3.90
  -2   9  10   17.00    3.80
  -2   9  10   11.00    3.00
  -2   9  10    7.20    3.40
   1  -9 -10   -1.30    2.50
   1  -9 -10    0.60    3.40
   1  -9 -10    4.70    3.10
   1  -9 -10   -1.70    3.30
   1  -9 -10   -2.00    3.10
  -1   9  10   -4.60    4.40
  -1   9  10    5.50    2.90
  -1   9  10   -1.80    2.60
  -1   9  10    0.90    2.20
  -1   9  10   -1.20    3.00
   0  -9 -10   96.89    5.90
   0  -9 -10   83.89    6.50
   0  -9 -10   95.39    6.30
   0  -9 -10  100.09    9.10
   0   9  10   95.39    5.60
   0   9  10   86.49    4.70
   0   9  10   98.99    6.00
   0   9  10   99.79    8.30
   0   9  10   86.19    7.60
  -1  -9 -10    2.40    3.00
  -1  -9 -10   -2.00    2.60
  -1  -9 -10    2.40    3.00
  -1  -9 -10    1.60    2.10
  -1  -9 -10   -0.10    3.30
   1   9  10    5.20    2.90
   1   9  10    2.70    4.30
   1   9  10   -1.00    2.40
   1   9  10    0.70    2.00
  -2  -9 -10    5.40    3.00
  -2  -9 -10    6.90    3.20
  -2  -9 -10    3.90    2.50
  -2  -9 -10    5.30    2.30
  -2  -9 -10    2.60    3.60
   2   9  10    9.30    3.40
   2   9  10    4.60    2.10
   2   9  10    5.00    4.40
   2   9  10    6.10    2.60
  -3  -9 -10   35.60    3.90
  -3  -9 -10   25.60    3.00
  -3  -9 -10   29.50    3.80
  -3  -9 -10   22.00    4.30
  -3  -9 -10   31.90    4.00
   3   9  10   31.50    4.20
   3   9  10   38.60    4.70
   3   9  10   31.20    3.50
   3   9  10   31.20    6.10
   3   9  10   20.10    3.40
  -4  -9 -10    2.00    3.60
  -4  -9 -10    3.40    3.30
  -4  -9 -10   -9.20    5.90
  -4  -9 -10   -1.00    3.70
  -4  -9 -10    0.00    2.80
   4   9  10    2.00    5.10
   4   9  10    9.80    3.60
   4   9  10    4.80    3.00
  -5  -9 -10   11.40    4.40
  -5  -9 -10   25.50    4.50
  -5  -9 -10    8.00    3.80
   5   9  10   20.70    4.80
   5   9  10   22.60    3.30
   5   9  10   13.80    3.80
   2 -10 -10    1.70    4.10
   2 -10 -10   -7.70    4.00
   2 -10 -10   -1.00    4.00
   2 -10 -10   -1.50    3.90
  -2  10  10   -3.60    3.10
  -2  10  10   -1.10    3.20
  -2  10  10   -2.90    3.00
   1 -10 -10   -2.10    3.50
   1 -10 -10   -1.20    3.60
   1 -10 -10    0.30    3.30
  -1  10  10   -3.30    5.00
  -1  10  10   -0.80    2.50
  -1  10  10    1.40    3.20
  -1  10  10   -2.90    2.90
   0 -10 -10    6.40    3.10
   0 -10 -10    1.90    3.40
   0 -10 -10   -0.70    3.70
   0  10  10    5.20    3.00
   0  10  10    1.30    2.30
   0  10  10    3.60    2.90
   0  10  10    5.20    4.60
   0  10  10    2.50    2.90
  -1 -10 -10   -1.40    2.90
  -1 -10 -10    5.00    2.90
  -1 -10 -10   -0.10    3.00
  -1 -10 -10    1.40    2.50
  -1 -10 -10   -3.90    3.40
   1  10  10    2.30    4.50
   1  10  10    0.10    2.90
   1  10  10   -1.50    2.50
   1  10  10   -0.30    2.60
   1  10  10   -2.10    2.20
  -2 -10 -10    6.80    2.80
  -2 -10 -10    6.90    2.70
  -2 -10 -10    2.30    3.70
  -2 -10 -10   11.10    3.30
  -2 -10 -10    0.00    2.80
   2  10  10    2.70    2.70
   2  10  10    4.50    2.50
   2  10  10    1.10    2.90
   2  10  10    0.70    2.70
   2  10  10    8.80    4.80
  -3 -10 -10    6.70    3.30
  -3 -10 -10   -0.40    3.60
  -3 -10 -10   -3.60    2.70
  -3 -10 -10    6.10    2.20
   3  10  10    0.60    3.50
   3  10  10   -1.10    2.90
   3  10  10    5.00    2.90
   3  10  10   -1.80    4.70
  -4 -10 -10   10.30    4.50
  -4 -10 -10   18.20    4.00
  -4 -10 -10    8.10    3.30
   4  10  10   11.60    4.20
   4  10  10   15.80    3.90
   4  10  10   16.70    3.30
  -5 -10 -10   -3.90    3.70
  -5 -10 -10    9.20    4.10
   5  10  10   -1.50    3.40
   2 -11 -10   17.80    4.70
   2 -11 -10   11.20    7.00
   2 -11 -10    4.10    4.90
  -2  11  10    7.80    3.70
  -2  11  10   -3.20    6.90
   1 -11 -10    3.90    3.60
   1 -11 -10    5.10    3.90
   1 -11 -10   -1.90    4.10
  -1  11  10    0.60    5.20
  -1  11  10    2.20    3.50
  -1  11  10   -5.20    2.90
   0 -11 -10    2.60    3.70
   0 -11 -10    3.50    3.30
   0 -11 -10   -5.00    3.90
   0  11  10    5.70    5.00
   0  11  10   -3.20    2.70
   0  11  10    1.40    3.00
  -1 -11 -10    8.60    3.00
  -1 -11 -10    3.40    4.10
  -1 -11 -10    5.90    3.00
  -1 -11 -10    7.70    3.50
   1  11  10    3.70    3.10
   1  11  10    3.90    3.30
   1  11  10   13.50    5.20
   1  11  10   11.20    5.10
  -2 -11 -10   -0.10    3.90
  -2 -11 -10    9.60    3.70
  -2 -11 -10    1.20    2.70
  -2 -11 -10    0.20    2.90
   2  11  10   -1.30    2.90
   2  11  10    2.80    4.70
   2  11  10   -0.60    2.80
   2  11  10    2.50    3.20
  -3 -11 -10   -4.70    2.90
  -3 -11 -10    0.30    3.80
  -3 -11 -10   -1.80    3.90
  -3 -11 -10    8.80    2.70
   3  11  10    2.00    3.20
   3  11  10   -1.70    3.00
   3  11  10    0.30    5.30
  -4 -11 -10    3.80    4.50
  -4 -11 -10   10.00    3.60
  -4 -11 -10   16.50    4.30
   4  11  10   18.00    4.30
   4  11  10   17.50    3.80
   4  11  10    4.70    3.70
   1 -12 -10    5.00    3.80
   1 -12 -10   -1.50    4.20
   1 -12 -10    1.20    4.90
  -1  12  10   -3.80    3.70
  -1  12  10   11.70    6.30
  -1  12  10    1.80    3.60
   0 -12 -10   -3.10    4.60
   0 -12 -10    2.80    3.60
   0 -12 -10   -6.20    3.90
   0  12  10    2.70    3.60
   0  12  10   12.60    5.60
   0  12  10   -5.50    3.10
  -1 -12 -10   -2.70    3.10
  -1 -12 -10   -5.20    4.20
  -1 -12 -10   -1.30    3.80
  -1 -12 -10   -4.60    3.10
   1  12  10    5.20    3.10
   1  12  10    8.70    5.30
   1  12  10    6.30    3.60
  -2 -12 -10   72.99    5.60
  -2 -12 -10   57.39    7.10
  -2 -12 -10   73.09    6.20
  -2 -12 -10   51.69    6.30
   2  12  10   75.79    6.30
   2  12  10   80.59    6.70
   2  12  10   74.49    8.60
  -3 -12 -10   39.80    4.20
  -3 -12 -10   40.80    5.00
  -3 -12 -10   48.20    5.00
   3  12  10   56.79    6.50
   3  12  10   49.40    7.60
   3  12  10   46.40    4.90
  -1 -13 -10    1.00    4.30
  -1 -13 -10    0.20    3.40
  -1 -13 -10    7.30    3.40
   1  13  10   10.10    3.80
   1  13  10    9.20    5.90
   1  13  10    5.90    3.90
  -2 -13 -10    9.20    3.40
  -2 -13 -10    1.90    3.50
   2  13  10   10.00    3.80
   2  13  10    7.10    4.00
   2  13  10    9.00    6.00
   1   5 -11    5.70    4.30
  -1  -5  11    7.80    6.10
   0   5 -11    3.10    4.00
   0   5 -11   19.30    4.10
   0   5 -11   10.30    3.80
   0  -5  11   17.30    6.10
  -1   5 -11   18.00    3.70
  -1   5 -11   22.20    3.70
  -1   5 -11   12.20    4.10
   1  -5  11   16.50    6.60
   1  -5  11   14.70    3.90
  -2   5 -11    3.60    3.60
  -2   5 -11    1.40    2.70
   2  -5  11    0.80    3.60
   1   4 -11   11.30    4.20
   1   4 -11   14.00    4.30
  -1  -4  11   19.10    6.10
   0   4 -11   25.70    3.90
   0   4 -11   21.50    4.10
   0   4 -11   21.10    4.30
   0  -4  11   37.30    6.50
   0  -4  11   28.70    3.50
  -1   4 -11   -0.50    3.00
  -1   4 -11    1.60    3.20
  -1   4 -11    2.20    3.70
   1  -4  11   -2.20    5.10
  -2   4 -11   -3.40    3.90
  -2   4 -11   -2.50    2.30
  -2   4 -11    4.20    1.80
  -2   4 -11   -1.10    2.70
  -2   4 -11   -3.40    3.20
  -2   4 -11    2.30    2.70
   2  -4  11    0.40    3.10
   2  -4  11   -1.90    5.50
  -3   4 -11    8.40    3.80
  -3   4 -11    6.30    2.00
  -3   4 -11    7.60    2.20
  -3   4 -11    2.00    3.50
  -3   4 -11   13.80    4.20
   3  -4  11   11.40    3.60
   2   3 -11   27.20    4.90
   2   3 -11   24.80    4.90
  -2  -3  11   17.90    3.40
  -2  -3  11   23.30    6.90
  -2  -3  11   14.50    4.10
   1   3 -11    6.00    3.50
   1   3 -11    2.50    3.70
   1   3 -11    0.40    3.40
  -1  -3  11    1.50    1.80
  -1  -3  11    0.80    2.30
  -1  -3  11    8.30    5.40
  -1  -3  11    0.40    2.00
   0   3 -11    1.20    3.00
   0   3 -11    5.30    3.30
   0   3 -11    3.50    3.30
   0  -3  11   14.00    5.40
  -1   3 -11   28.00    3.60
  -1   3 -11   32.90    4.50
   1  -3  11   37.20    6.50
  -2   3 -11   -0.30    2.10
  -2   3 -11    1.00    3.10
  -2   3 -11    0.70    3.60
   2  -3  11    0.10    2.90
   2  -3  11   -1.60    5.20
  -3   3 -11   11.20    1.80
  -3   3 -11   14.60    2.10
  -3   3 -11   14.50    2.30
  -3   3 -11    9.00    3.30
  -3   3 -11    8.50    3.60
  -3   3 -11   17.30    4.50
   3  -3  11   12.30    3.40
  -4   3 -11    8.90    4.50
  -4   3 -11    3.60    4.10
  -4   3 -11   -0.70    3.30
   4  -3  11    5.60    3.20
   2   2 -11   21.80    4.80
   2   2 -11   29.60    4.80
  -2  -2  11   20.80    3.50
  -2  -2  11   39.10    7.80
  -2  -2  11   17.40    3.20
   1   2 -11    5.60    3.50
   1   2 -11    3.40    3.40
   1   2 -11   10.50    3.60
  -1  -2  11    7.60    3.20
  -1  -2  11    8.60    5.10
  -1  -2  11    3.60    1.80
  -1  -2  11    4.50    2.10
   0   2 -11   20.10    3.60
   0   2 -11   11.70    3.50
   0   2 -11   20.80    3.40
   0  -2  11   23.10    6.00
  -1   2 -11   28.90    3.30
  -1   2 -11   25.30    3.30
  -1   2 -11   16.70    3.80
   1  -2  11   37.80    6.30
  -2   2 -11   60.49    7.60
  -2   2 -11   62.59    6.00
  -2   2 -11   62.49    4.50
  -2   2 -11   55.69    3.90
   2  -2  11   76.89    8.60
  -3   2 -11    1.90    1.70
  -3   2 -11    0.30    2.70
  -3   2 -11   -3.40    3.30
  -3   2 -11    4.20    3.70
  -3   2 -11  -11.50    5.70
  -3   2 -11   -3.30    1.90
   3  -2  11    7.90    5.70
  -4   2 -11   21.00    3.70
  -4   2 -11   22.10    4.30
  -4   2 -11   30.00    4.70
  -4   2 -11   19.50    2.40
  -4   2 -11   20.00    2.20
   4  -2  11   20.90    3.40
   3   1 -11    0.50    4.30
   3   1 -11    2.50    4.60
  -3  -1  11   -3.70    3.60
   2   1 -11    1.40    3.70
   2   1 -11    0.20    3.50
  -2  -1  11   -0.30    2.30
  -2  -1  11   -3.90    2.80
  -2  -1  11   -6.50    5.50
   1   1 -11   18.80    3.60
   1   1 -11   17.70    3.90
   1   1 -11   24.40    3.90
  -1  -1  11   17.20    5.70
  -1  -1  11   19.80    2.70
  -1  -1  11   15.60    3.20
   0   1 -11   17.20    3.30
   0   1 -11   17.00    3.30
   0   1 -11   12.70    3.40
   0  -1  11   16.00    1.70
   0  -1  11   28.10    5.90
  -1   1 -11  135.89    8.70
  -1   1 -11  129.69    5.80
  -1   1 -11  124.79    5.60
   1  -1  11  130.19    9.00
  -2   1 -11    7.10    3.20
  -2   1 -11    4.80    2.90
  -2   1 -11    8.10    2.50
  -2   1 -11    9.40    2.10
   2  -1  11   10.50    4.90
  -3   1 -11   15.90    2.00
  -3   1 -11   19.10    2.40
  -3   1 -11   13.10    3.30
  -3   1 -11   25.90    4.00
  -3   1 -11   19.90    6.70
   3  -1  11   15.60    5.60
  -4   1 -11   -1.00    3.90
  -4   1 -11    2.00    1.80
  -4   1 -11   -1.40    1.50
  -4   1 -11    3.20    3.00
  -4   1 -11    4.40    3.80
  -4   1 -11    3.80    1.60
  -5   1 -11   32.50    5.20
  -5   1 -11   34.40    3.80
  -5   1 -11   24.30    4.10
   3   0 -11    7.70    4.40
   3   0 -11   15.80    4.70
  -3   0  11    9.10    3.80
   2   0 -11    3.80    3.40
   2   0 -11    9.20    3.70
  -2   0  11    3.60    2.40
  -2   0  11    5.00    2.90
  -2   0  11   -2.90    5.60
   1   0 -11    4.40    3.20
   1   0 -11    4.80    3.10
   1   0 -11   -4.10    2.90
  -1   0  11    3.10    4.80
  -1   0  11    0.10    2.10
  -1   0  11    0.30    2.90
   0   0 -11   -2.00    2.70
   0   0 -11    6.70    3.00
   0   0 -11   -2.40    2.50
   0   0  11    1.80    1.40
   0   0  11   -1.00    4.50
   0   0  11    1.20    1.80
  -1   0 -11  151.68    5.70
  -1   0 -11  151.48    8.90
  -1   0 -11  142.29    5.90
   1   0  11  151.58    9.60
  -2   0 -11  317.17    9.10
  -2   0 -11  283.47    9.40
  -2   0 -11  307.27   11.30
  -2   0 -11  303.17    7.20
   2   0  11  317.27   12.40
  -3   0 -11    9.00    3.00
  -3   0 -11   10.60    1.90
  -3   0 -11    6.30    5.60
  -3   0 -11    9.20    3.30
  -3   0 -11   10.10    2.20
   3   0  11   13.80    5.40
  -4   0 -11   51.39    3.40
  -4   0 -11   60.69    5.80
  -4   0 -11   39.30    2.70
  -4   0 -11   49.90    3.10
  -4   0 -11   46.70    3.00
  -4   0 -11   46.60    7.40
  -5   0 -11   16.40    2.10
  -5   0 -11    8.40    3.60
  -5   0 -11   10.30    2.20
  -5   0 -11    8.30    4.30
   3  -1 -11    2.70    4.10
   3  -1 -11    3.40    4.30
  -3   1  11    2.70    3.60
  -3   1  11    2.10    3.40
   2  -1 -11  128.99    7.60
   2  -1 -11  135.89    9.90
  -2   1  11  117.19    5.00
  -2   1  11  125.19    6.30
  -2   1  11  132.39    8.10
  -2   1  11  126.49   10.60
   1  -1 -11   22.10    3.80
   1  -1 -11   29.90    3.80
   1  -1 -11   26.70    3.70
  -1   1  11   29.50    3.60
  -1   1  11   26.80    3.00
  -1   1  11   29.70    6.30
   0  -1 -11    2.00    2.60
   0  -1 -11    4.00    2.80
   0  -1 -11    2.10    2.80
   0   1  11    4.70    2.10
   0   1  11    1.50    4.40
   0   1  11    4.10    1.60
  -1  -1 -11  289.57   11.00
  -1  -1 -11  274.77    7.60
  -1  -1 -11  272.57    7.40
   1   1  11  297.17   12.10
  -2  -1 -11 1115.69   18.80
  -2  -1 -11 1142.79   18.40
  -2  -1 -11 1087.29   19.90
  -2  -1 -11 1201.68   23.60
   2   1  11 1175.58   25.00
   2   1  11 1142.99   18.50
  -3  -1 -11    3.60    2.70
  -3  -1 -11   -2.80    5.50
  -3  -1 -11    3.20    2.20
  -3  -1 -11    3.20    1.70
  -3  -1 -11   -0.10    2.50
   3   1  11   -5.70    4.40
   3   1  11    2.50    2.50
  -4  -1 -11    3.10    2.90
  -4  -1 -11   10.40    4.30
  -4  -1 -11    7.70    1.90
  -4  -1 -11    5.60    2.20
   4   1  11    3.20    3.30
  -5  -1 -11   -1.40    2.40
  -5  -1 -11    4.60    2.00
  -5  -1 -11    3.00    2.80
  -5  -1 -11    2.90    3.30
  -5  -1 -11    0.00    2.00
   5   1  11   -4.60    3.60
   3  -2 -11    4.50    4.20
   3  -2 -11    4.40    4.10
  -3   2  11    6.10    3.50
  -3   2  11   -2.60    3.40
   2  -2 -11   26.80    4.30
   2  -2 -11   27.00    5.50
   2  -2 -11   28.80    4.30
  -2   2  11   19.50    6.50
  -2   2  11   34.60    4.00
  -2   2  11   35.90    3.90
  -2   2  11   36.60    3.20
  -2   2  11   28.60    2.90
   1  -2 -11   12.80    3.50
   1  -2 -11   22.90    3.60
   1  -2 -11   18.70    3.50
  -1   2  11   19.10    5.60
  -1   2  11   16.50    3.20
  -1   2  11   13.30    2.60
   0  -2 -11   41.80    4.50
   0  -2 -11   29.30    4.10
   0  -2 -11   39.90    5.10
   0   2  11   35.50    3.20
   0   2  11   35.80    4.00
   0   2  11   45.10    6.50
  -1  -2 -11    3.10    2.20
  -1  -2 -11    1.70    2.70
  -1  -2 -11   -0.60    2.60
   1   2  11    4.90    1.20
   1   2  11    2.80    1.60
   1   2  11    5.10    1.50
   1   2  11    6.50    4.50
  -2  -2 -11   28.20    3.00
  -2  -2 -11   23.50    3.40
  -2  -2 -11   31.80    3.60
   2   2  11   31.90    3.70
   2   2  11   39.30    6.20
  -3  -2 -11   22.80    3.60
  -3  -2 -11   25.00    6.90
  -3  -2 -11   28.60    3.70
  -3  -2 -11   28.30    3.20
   3   2  11   40.40    6.80
   3   2  11   25.50    3.40
  -4  -2 -11   -2.30    2.60
  -4  -2 -11    1.00    2.90
  -4  -2 -11    7.60    5.40
  -4  -2 -11   -2.60    3.50
  -4  -2 -11   -0.20    1.90
   4   2  11    1.10    3.10
  -5  -2 -11    9.20    1.90
  -5  -2 -11    2.70    3.10
  -5  -2 -11    4.40    2.40
  -5  -2 -11    3.30    2.30
  -5  -2 -11   -0.10    2.70
   5   2  11    4.10    3.90
   3  -3 -11   12.10    4.50
   3  -3 -11    2.00    7.60
   3  -3 -11   -2.20    3.70
  -3   3  11    2.40    2.70
  -3   3  11    5.70    3.40
  -3   3  11   -2.70    3.50
   2  -3 -11    0.20    3.10
   2  -3 -11    1.40    3.50
  -2   3  11    4.80    2.40
  -2   3  11    3.40    3.30
  -2   3  11    0.60    2.80
  -2   3  11   -1.20    1.60
   1  -3 -11   74.39    8.00
   1  -3 -11   76.09    5.80
   1  -3 -11   74.79    5.80
  -1   3  11   73.29    5.50
  -1   3  11   72.19    8.60
   0  -3 -11    0.90    2.80
   0  -3 -11    3.90    2.80
   0  -3 -11    4.40    2.50
   0   3  11   -0.70    2.50
   0   3  11    1.30    4.20
   0   3  11    2.40    2.00
   0   3  11    1.60    2.90
   0   3  11    4.00    1.40
  -1  -3 -11   45.70    7.10
  -1  -3 -11   39.20    4.10
  -1  -3 -11   35.90    4.50
   1   3  11   43.30    3.30
   1   3  11   46.60    7.30
   1   3  11   39.70    2.70
  -2  -3 -11   27.30    3.60
  -2  -3 -11   22.10    3.60
  -2  -3 -11   30.60    4.10
  -2  -3 -11   27.40    2.80
   2   3  11   36.60    6.20
   2   3  11   31.60    3.80
  -3  -3 -11   29.50    3.00
  -3  -3 -11   30.20    3.60
  -3  -3 -11   29.60    3.10
  -3  -3 -11   25.90    3.80
   3   3  11   33.40    6.00
   3   3  11   28.70    3.40
  -4  -3 -11    3.00    2.90
  -4  -3 -11    3.60    2.50
  -4  -3 -11    3.10    2.10
  -4  -3 -11    1.90    4.70
   4   3  11   -0.10    5.00
   4   3  11    2.10    3.00
   4   3  11    2.60    3.20
  -5  -3 -11   15.20    3.20
  -5  -3 -11    4.40    3.40
  -5  -3 -11   14.70    2.70
  -5  -3 -11   11.80    2.60
   5   3  11    7.50    4.00
   5   3  11    7.80    3.60
   3  -4 -11   -4.90    3.60
   3  -4 -11    7.00    4.30
   3  -4 -11    0.70    5.50
  -3   4  11    3.30    2.60
  -3   4  11    6.30    3.80
   2  -4 -11   63.99    6.50
   2  -4 -11   57.89    7.90
   2  -4 -11   38.70    9.30
  -2   4  11   57.79    3.80
  -2   4  11   66.09    5.70
  -2   4  11   49.60    3.50
  -2   4  11   51.59    6.10
   1  -4 -11    5.80    3.10
   1  -4 -11    7.20    3.30
   1  -4 -11   11.60    3.30
  -1   4  11    7.00    2.60
  -1   4  11    7.50    1.30
  -1   4  11    9.20    5.30
  -1   4  11    8.30    3.20
  -1   4  11   11.60    3.10
   0  -4 -11   10.80    3.20
   0  -4 -11    6.50    2.80
   0  -4 -11    6.20    3.00
   0   4  11    9.80    2.80
   0   4  11   10.50    3.10
   0   4  11   17.60    5.30
   0   4  11    9.30    1.90
   0   4  11    8.60    2.30
  -1  -4 -11   50.59    4.80
  -1  -4 -11   54.99    7.00
   1   4  11   60.79    7.60
   1   4  11   53.89    4.00
   1   4  11   50.79    3.80
   1   4  11   51.79    3.30
  -2  -4 -11   57.79    4.70
  -2  -4 -11   64.99    4.30
  -2  -4 -11   58.89    7.20
   2   4  11   61.79    4.50
   2   4  11   56.79    2.50
   2   4  11   70.49    8.40
   2   4  11   60.89    3.00
  -3  -4 -11   -0.30    2.50
  -3  -4 -11   -0.70    2.80
  -3  -4 -11    1.00    2.10
   3   4  11    1.60    2.50
   3   4  11    0.70    4.50
   3   4  11   -3.00    2.90
  -4  -4 -11   -3.50    2.70
  -4  -4 -11   -0.30    3.00
  -4  -4 -11    2.90    4.70
  -4  -4 -11   -3.30    2.10
  -4  -4 -11   -1.80    1.50
   4   4  11    1.10    2.70
   4   4  11    0.80    3.10
   4   4  11    2.20    4.70
  -5  -4 -11    1.10    3.20
  -5  -4 -11    2.40    2.80
  -5  -4 -11    2.70    2.60
  -5  -4 -11    4.80    3.00
   5   4  11   -1.30    3.30
   5   4  11    4.10    3.80
   3  -5 -11    2.30    4.00
   3  -5 -11   10.80    4.40
   3  -5 -11   18.40    5.70
  -3   5  11    7.20    4.00
   2  -5 -11   58.49    9.20
   2  -5 -11   48.60    8.20
   2  -5 -11   39.80    4.60
  -2   5  11   49.99    4.00
  -2   5  11   46.20    5.70
  -2   5  11   48.40    4.40
   1  -5 -11   22.50    4.00
   1  -5 -11   39.50    5.40
   1  -5 -11   33.70    4.10
   1  -5 -11   32.50    4.10
  -1   5  11   27.50    3.90
  -1   5  11   28.10    2.50
  -1   5  11   33.10    6.80
  -1   5  11   35.70    4.70
   0  -5 -11   63.19    4.10
   0  -5 -11   65.09    5.60
   0  -5 -11   71.89    7.50
   0  -5 -11   61.39    5.20
   0   5  11   64.49    4.40
   0   5  11   60.59    7.90
   0   5  11   64.29    7.20
   0   5  11   60.49    4.80
  -1  -5 -11   41.40    6.90
  -1  -5 -11   40.00    4.70
  -1  -5 -11   47.90    4.50
   1   5  11   40.70    3.40
   1   5  11   44.30    4.00
   1   5  11   40.30    4.10
   1   5  11   43.50    6.40
  -2  -5 -11  110.09    5.60
  -2  -5 -11  103.59    8.10
   2   5  11  109.19    4.30
   2   5  11  115.19    5.70
   2   5  11  114.59    8.60
   2   5  11  102.69    3.70
   2   5  11  101.69    9.10
  -3  -5 -11   33.10    6.30
  -3  -5 -11   51.09    4.80
  -3  -5 -11   30.40    4.10
   3   5  11   35.80    6.30
   3   5  11   40.10    4.90
   3   5  11   51.69    7.10
  -4  -5 -11    9.20    1.90
  -4  -5 -11   17.20    3.00
  -4  -5 -11   10.40    5.50
  -4  -5 -11    7.00    3.20
  -4  -5 -11   15.70    3.20
   4   5  11   11.80    3.30
   4   5  11   17.60    5.90
   4   5  11   18.40    3.60
  -5  -5 -11    6.10    3.00
  -5  -5 -11   -0.80    3.40
  -5  -5 -11    0.10    3.30
   5   5  11    3.50    3.40
   5   5  11    7.50    4.20
   3  -6 -11   -0.70    4.00
   3  -6 -11    2.20    4.20
   3  -6 -11   10.30    5.30
  -3   6  11    6.20    3.70
  -3   6  11    2.60    3.10
   2  -6 -11   73.69    7.20
   2  -6 -11   65.39    8.60
   2  -6 -11   67.49    7.00
  -2   6  11   61.69    4.40
  -2   6  11   70.29    6.00
  -2   6  11   50.49    7.50
  -2   6  11   56.99    7.70
   1  -6 -11    6.00    3.00
   1  -6 -11   -3.00    3.00
   1  -6 -11    5.00    3.20
   1  -6 -11    3.90    3.30
  -1   6  11   -1.10    3.00
  -1   6  11   -1.10    1.40
  -1   6  11   -0.50    4.80
  -1   6  11    2.10    2.70
  -1   6  11   -0.70    2.90
   0  -6 -11   29.00    3.80
   0  -6 -11   37.40    4.90
   0  -6 -11   32.90    3.40
   0   6  11   31.60    3.60
   0   6  11   31.90    4.30
   0   6  11   35.00    6.50
   0   6  11   22.70    3.80
  -1  -6 -11   14.70    3.60
  -1  -6 -11   12.50    3.00
  -1  -6 -11   10.10    3.10
   1   6  11    8.00    2.30
   1   6  11    8.60    2.70
   1   6  11    9.00    2.80
   1   6  11   12.10    4.90
  -2  -6 -11    0.10    2.90
  -2  -6 -11   -2.40    2.60
  -2  -6 -11    0.70    2.40
   2   6  11    1.60    2.50
   2   6  11    4.00    1.90
   2   6  11   10.20    5.00
   2   6  11    0.50    2.40
  -3  -6 -11    2.60    2.60
  -3  -6 -11   -0.20    2.80
  -3  -6 -11    3.80    3.20
  -3  -6 -11   -4.00    5.10
   3   6  11    1.80    1.50
   3   6  11    3.10    2.80
   3   6  11    3.10    4.70
   3   6  11    1.60    2.90
   3   6  11    2.40    2.00
  -4  -6 -11    9.80    3.20
  -4  -6 -11   -1.50    3.20
  -4  -6 -11    4.30    2.70
  -4  -6 -11    1.40    6.00
  -4  -6 -11    6.50    2.10
   4   6  11    4.60    5.00
   4   6  11   14.70    3.60
   4   6  11    7.80    3.20
  -5  -6 -11  152.48    7.20
  -5  -6 -11  152.78    6.40
  -5  -6 -11  143.69   10.30
  -5  -6 -11  151.48    7.00
   5   6  11  177.08    9.20
   5   6  11  152.28    9.20
   3  -7 -11   -7.30    4.20
   3  -7 -11   14.90    5.50
   3  -7 -11   11.10    4.60
  -3   7  11   -0.80    3.70
  -3   7  11   -1.80    3.20
   2  -7 -11   58.39    7.10
   2  -7 -11   37.50    5.10
   2  -7 -11   61.69    6.90
  -2   7  11   47.30    4.80
  -2   7  11   55.29    7.80
  -2   7  11   64.99    6.20
   1  -7 -11   10.90    3.10
   1  -7 -11   12.40    3.50
   1  -7 -11    5.70    3.50
   1  -7 -11   12.90    3.00
  -1   7  11    5.90    3.30
  -1   7  11    8.50    2.00
  -1   7  11    6.60    5.70
  -1   7  11   15.50    3.50
  -1   7  11   17.40    3.10
   0  -7 -11    9.10    3.20
   0  -7 -11   11.70    3.30
   0  -7 -11    6.00    3.40
   0  -7 -11   11.70    1.80
   0   7  11    6.30    3.00
   0   7  11   12.70    5.20
   0   7  11   10.30    1.70
   0   7  11   10.30    2.70
  -1  -7 -11   -3.10    2.50
  -1  -7 -11    1.20    3.00
  -1  -7 -11    1.40    2.80
   1   7  11    2.30    4.60
   1   7  11   -1.40    2.50
   1   7  11    2.90    1.20
   1   7  11    2.30    2.40
   1   7  11    1.20    2.60
  -2  -7 -11  376.96    9.60
  -2  -7 -11  368.16    9.60
  -2  -7 -11  367.46   13.00
   2   7  11  373.46    8.70
   2   7  11  364.66    8.40
   2   7  11  364.36   11.60
   2   7  11  372.46   13.70
  -3  -7 -11    8.20    3.00
  -3  -7 -11    4.70    3.50
  -3  -7 -11    8.70    3.00
  -3  -7 -11    4.70    1.70
   3   7  11    7.70    2.90
   3   7  11    5.50    2.00
   3   7  11    2.30    4.80
   3   7  11    3.20    3.00
   3   7  11    6.70    3.20
  -4  -7 -11   -4.00    3.00
  -4  -7 -11    0.20    2.70
  -4  -7 -11   -4.90    2.10
  -4  -7 -11   -5.00    3.40
  -4  -7 -11   -2.50    6.70
   4   7  11   -1.10    2.00
   4   7  11    2.50    1.70
   4   7  11    2.30    3.40
   4   7  11   -1.80    5.30
   4   7  11    6.00    3.10
  -5  -7 -11   37.80    4.70
  -5  -7 -11   28.60    4.90
  -5  -7 -11   27.20    3.90
  -5  -7 -11   34.10    3.60
   5   7  11   45.70    5.90
   2  -8 -11   12.50    4.40
   2  -8 -11   21.00    5.40
   2  -8 -11   21.20    4.50
  -2   8  11   16.60    3.40
  -2   8  11   20.90    3.90
  -2   8  11   18.60    3.90
  -2   8  11    4.50    6.50
   1  -8 -11   78.99    5.00
   1  -8 -11   81.59    6.70
   1  -8 -11   64.89    8.90
  -1   8  11   72.19    5.90
  -1   8  11   69.89    4.40
  -1   8  11   67.69    5.70
  -1   8  11   73.49    9.10
  -1   8  11   79.09    7.90
   0  -8 -11    6.80    3.30
   0  -8 -11    0.70    3.50
   0  -8 -11   -4.00    2.80
   0   8  11   -3.30    2.80
   0   8  11    4.90    2.70
   0   8  11   -1.80    1.70
   0   8  11    2.10    3.10
   0   8  11    3.30    4.70
  -1  -8 -11    3.70    3.10
  -1  -8 -11   16.00    3.40
  -1  -8 -11    7.50    3.40
   1   8  11   10.60    2.70
   1   8  11    4.20    2.90
   1   8  11   18.50    5.10
   1   8  11    8.10    1.80
  -2  -8 -11   -5.40    2.90
  -2  -8 -11   -2.50    1.60
  -2  -8 -11   -3.60    3.30
  -2  -8 -11    0.40    2.90
   2   8  11    2.90    4.80
   2   8  11    1.50    2.50
   2   8  11    0.80    3.10
   2   8  11   -2.30    2.80
   2   8  11   -3.50    2.40
  -3  -8 -11   13.90    3.20
  -3  -8 -11   14.50    3.30
  -3  -8 -11   15.80    2.30
  -3  -8 -11    4.90    3.80
  -3  -8 -11   15.40    2.70
   3   8  11   14.50    5.60
   3   8  11   14.50    2.70
   3   8  11   16.80    3.10
   3   8  11   15.70    3.00
   3   8  11   16.00    3.70
  -4  -8 -11   -2.40    3.50
  -4  -8 -11   -0.40    3.20
  -4  -8 -11   -2.80    2.90
  -4  -8 -11    1.30    2.60
   4   8  11    3.80    5.60
   4   8  11    1.20    4.20
   4   8  11   10.80    3.90
   4   8  11    0.20    2.20
  -5  -8 -11   -5.10    4.00
  -5  -8 -11    6.40    3.80
  -5  -8 -11   -5.50    3.10
   5   8  11   11.80    4.30
   2  -9 -11    3.20    7.40
   2  -9 -11    4.30    4.40
   2  -9 -11    7.70    4.30
  -2   9  11    5.80    3.20
  -2   9  11   10.80    3.70
  -2   9  11    0.00    6.90
   1  -9 -11    3.30    3.60
   1  -9 -11    2.60    2.70
   1  -9 -11   -2.90    3.70
  -1   9  11   -2.90    3.00
  -1   9  11   -2.80    2.30
  -1   9  11    2.00    5.50
   0  -9 -11    7.30    3.50
   0   9  11    3.00    2.80
   0   9  11    6.60    4.90
   0   9  11    4.80    3.30
  -1  -9 -11    4.70    3.70
  -1  -9 -11    3.80    3.00
  -1  -9 -11   -6.10    2.60
  -1  -9 -11    3.50    3.10
   1   9  11    2.40    2.80
   1   9  11    0.20    2.00
   1   9  11   -1.10    2.50
   1   9  11    0.80    2.70
   1   9  11    6.90    4.80
  -2  -9 -11    1.50    2.10
  -2  -9 -11    5.80    3.80
  -2  -9 -11    5.20    3.20
  -2  -9 -11    3.10    2.90
  -2  -9 -11    0.70    2.90
   2   9  11    5.30    2.00
   2   9  11    8.30    3.40
   2   9  11    6.90    2.70
   2   9  11    3.90    4.90
  -3  -9 -11   11.20    4.10
  -3  -9 -11   21.40    2.80
  -3  -9 -11   14.00    3.50
  -3  -9 -11    7.80    3.20
   3   9  11   17.70    3.00
   3   9  11   14.00    3.80
   3   9  11   17.90    5.80
   3   9  11   19.70    3.40
  -4  -9 -11   35.00    5.40
  -4  -9 -11   39.10    5.20
   4   9  11   51.19    5.40
   4   9  11   64.89    7.60
   4   9  11   44.20    4.70
  -5  -9 -11   26.30    5.20
  -5  -9 -11   22.00    5.30
  -5  -9 -11   30.40    4.70
   5   9  11   35.60    5.50
   2 -10 -11    0.40    4.80
   2 -10 -11    1.20    4.20
   2 -10 -11    3.70    5.60
  -2  10  11   -5.40    3.10
   1 -10 -11    3.20    3.80
   1 -10 -11    7.00    4.00
   1 -10 -11   -6.60    4.00
  -1  10  11    0.60    3.40
  -1  10  11    7.60    6.00
  -1  10  11   -5.50    2.60
   0 -10 -11   -5.30    3.10
   0 -10 -11   -1.50    3.50
   0 -10 -11   -2.10    3.80
   0  10  11    2.90    2.60
   0  10  11    5.50    3.10
   0  10  11   12.00    5.30
  -1 -10 -11   29.80    3.80
  -1 -10 -11   33.10    4.60
   1  10  11   35.00    4.30
   1  10  11   27.10    3.80
   1  10  11   33.10    4.10
   1  10  11   51.99    8.20
  -2 -10 -11   13.10    3.60
  -2 -10 -11   11.20    2.80
  -2 -10 -11    6.00    4.20
  -2 -10 -11   14.60    3.10
   2  10  11   19.50    5.70
   2  10  11   10.10    3.40
   2  10  11    8.40    3.20
   2  10  11   11.60    2.70
  -3 -10 -11   -0.60    4.20
  -3 -10 -11    5.10    3.50
  -3 -10 -11    4.80    2.80
  -3 -10 -11   -4.50    2.70
   3  10  11   -3.90    3.50
   3  10  11   -1.60    2.90
   3  10  11    2.10    5.50
   3  10  11    3.20    3.20
  -4 -10 -11   29.10    4.60
   4  10  11   33.50    4.90
   4  10  11   28.60    3.80
   1 -11 -11   10.20    4.40
   1 -11 -11    1.90    3.90
   1 -11 -11   -7.40    4.60
  -1  11  11   -1.90    3.30
  -1  11  11    7.00    3.80
  -1  11  11   12.70    6.40
   0 -11 -11   -3.20    3.50
   0 -11 -11   -3.90    3.90
   0 -11 -11   -3.10    4.50
   0  11  11    3.70    3.50
   0  11  11    8.40    5.70
   0  11  11   -4.60    2.70
  -1 -11 -11   87.59   10.80
  -1 -11 -11   72.49    7.00
  -1 -11 -11   93.39    6.30
   1  11  11   87.39    9.30
   1  11  11   77.69    6.30
  -2 -11 -11   61.59    7.00
  -2 -11 -11   70.99    5.60
  -2 -11 -11   59.49    5.60
   2  11  11   53.29    6.10
   2  11  11   57.99    9.60
  -3 -11 -11    7.10    2.70
  -3 -11 -11    1.50    4.50
  -3 -11 -11   -0.30    3.20
  -3 -11 -11    9.20    3.90
   3  11  11    6.70    3.60
   3  11  11   -4.30    4.20
   3  11  11    8.40    6.20
   3  11  11   -3.90    3.10
  -4 -11 -11   13.10    4.70
  -4 -11 -11    8.20    4.80
   4  11  11    7.30    5.00
   4  11  11   14.90    4.20
   0 -12 -11   -1.00    4.80
   0 -12 -11    8.00    3.80
   0 -12 -11    9.80    4.40
   0  12  11    0.20    3.20
   0  12  11    1.40    3.70
   0  12  11    6.30    6.00
  -1 -12 -11    4.00    3.70
  -1 -12 -11    4.80    3.50
  -1 -12 -11    6.70    3.20
  -1 -12 -11   -5.40    4.50
   1  12  11    1.90    3.20
   1  12  11    2.90    5.80
   1  12  11    5.50    3.80
  -2 -12 -11   -2.50    3.90
  -2 -12 -11   -8.10    4.50
  -2 -12 -11    1.60    3.10
  -2 -12 -11    3.20    3.30
   2  12  11    5.30    6.40
   2  12  11    2.90    3.70
   2  12  11    9.60    3.50
  -3 -12 -11    4.40    3.60
   3  12  11    9.70    4.00
   3  12  11    9.30    6.80
   0   4 -12    2.00    4.00
   0   4 -12    4.20    4.40
   0  -4  12    1.90    6.70
  -1   4 -12   12.80    3.80
  -1   4 -12    5.90    3.90
  -1   4 -12    9.10    3.70
   1  -4  12   17.20    6.80
  -2   4 -12    2.30    4.70
  -2   4 -12    0.70    3.70
   2  -4  12    4.80    6.90
   1   3 -12    5.00    5.50
   1   3 -12    3.00    4.40
  -1  -3  12   16.00    6.80
   0   3 -12    8.20    3.90
   0   3 -12    8.00    3.60
   0   3 -12    3.80    3.90
   0  -3  12   10.30    6.10
  -1   3 -12   23.50    4.60
  -1   3 -12   25.20    3.70
  -1   3 -12   14.50    3.40
   1  -3  12   25.40    6.50
  -2   3 -12   13.70    3.00
  -2   3 -12    2.50    4.10
  -2   3 -12    4.30    2.80
  -2   3 -12    3.90    3.70
   2  -3  12    1.40    6.10
  -3   3 -12    2.90    3.80
  -3   3 -12   11.70    4.60
   1   2 -12    2.60    3.90
   1   2 -12    3.70    4.00
  -1  -2  12   15.90    6.70
  -1  -2  12    4.30    2.00
   0   2 -12    2.90    3.60
   0   2 -12    4.20    3.60
   0   2 -12    2.20    3.50
   0  -2  12    9.40    5.90
  -1   2 -12   -0.50    3.20
  -1   2 -12    0.40    3.10
  -1   2 -12    1.90    2.90
   1  -2  12    7.60    5.70
  -2   2 -12   91.49    6.80
  -2   2 -12  102.69    9.40
  -2   2 -12  101.39    5.20
  -2   2 -12   94.59    5.40
   2  -2  12  118.69   10.30
  -3   2 -12    2.80    4.00
  -3   2 -12    5.70    2.10
  -3   2 -12   -1.50    3.40
   3  -2  12    9.10    6.40
   2   1 -12   -7.70    4.20
   2   1 -12    1.40    4.20
  -2  -1  12    9.20    4.10
  -2  -1  12   -1.80    3.40
  -2  -1  12   -3.20    7.00
   1   1 -12    3.90    3.80
   1   1 -12    3.20    3.80
  -1  -1  12   15.90    6.30
  -1  -1  12   -0.40    2.20
  -1  -1  12   -0.30    3.00
   0   1 -12   30.10    4.00
   0   1 -12   31.00    4.10
   0   1 -12   20.20    4.30
   0  -1  12   48.90    8.40
  -1   1 -12   49.99    5.40
  -1   1 -12   64.59    5.30
   1  -1  12   66.09    9.20
  -2   1 -12   51.69    4.40
  -2   1 -12   46.80    7.70
  -2   1 -12   54.79    4.70
  -2   1 -12   50.19    5.80
   2  -1  12   54.89    8.90
  -3   1 -12   15.70    4.20
  -3   1 -12   11.00    2.10
  -3   1 -12    5.00    3.40
  -3   1 -12    7.80    2.90
   3  -1  12   18.10    6.60
  -4   1 -12    5.70    3.50
  -4   1 -12   10.30    4.20
   2   0 -12   26.00    4.70
   2   0 -12   21.40    4.90
  -2   0  12   25.70    3.90
  -2   0  12   28.90    4.60
  -2   0  12   21.50    7.20
   1   0 -12   -1.40    3.40
   1   0 -12    8.40    3.40
   1   0 -12    3.60    3.30
  -1   0  12    5.40    3.30
  -1   0  12   -0.50    5.60
  -1   0  12   -3.00    2.30
   0   0 -12    0.90    3.20
   0   0 -12    4.40    3.20
   0   0 -12    8.30    3.10
   0   0  12    0.80    5.20
   0   0  12    1.00    1.90
   0   0  12    2.10    1.40
  -1   0 -12    3.20    3.20
  -1   0 -12    4.70    3.00
  -1   0 -12    2.40    2.70
   1   0  12    6.10    5.30
  -2   0 -12   39.90    4.60
  -2   0 -12   38.80    3.90
  -2   0 -12   41.40    5.20
  -2   0 -12   29.30    4.30
   2   0  12   38.70    6.90
  -3   0 -12   99.09    8.60
  -3   0 -12  107.29    4.40
  -3   0 -12  105.99    6.40
   3   0  12  114.79   10.40
  -4   0 -12    5.30    2.00
  -4   0 -12   11.60    3.90
  -4   0 -12   -0.50    3.50
  -4   0 -12   -2.20    2.80
   2  -1 -12    4.10    4.20
   2  -1 -12    4.30    4.20
  -2   1  12    1.70    3.20
  -2   1  12    7.20    2.70
  -2   1  12    9.80    4.50
  -2   1  12    5.30    6.90
   1  -1 -12   -2.50    3.40
   1  -1 -12   -1.70    3.20
   1  -1 -12    2.60    3.20
  -1   1  12   -2.70    3.20
  -1   1  12    8.10    5.60
  -1   1  12    1.50    2.40
   0  -1 -12   12.40    3.30
   0  -1 -12   15.50    3.30
   0  -1 -12    6.10    3.40
   0   1  12    2.90    5.00
   0   1  12    8.90    2.50
   0   1  12    8.00    1.90
  -1  -1 -12   79.59    5.10
  -1  -1 -12   80.59    5.80
  -1  -1 -12   96.89    8.70
   1   1  12   88.59    9.40
  -2  -1 -12   32.10    3.80
  -2  -1 -12   30.80    3.50
  -2  -1 -12   28.00    5.60
  -2  -1 -12   22.80    3.90
   2   1  12   40.80    6.70
  -3  -1 -12   15.90    2.40
  -3  -1 -12   20.30    3.50
  -3  -1 -12   15.10    2.90
  -3  -1 -12    8.20    3.40
   3   1  12   17.40    3.20
   3   1  12   12.20    6.00
  -4  -1 -12    0.00    3.30
  -4  -1 -12    5.50    3.60
  -4  -1 -12    3.80    2.00
   4   1  12    1.20    3.50
  -5  -1 -12   57.39    8.90
   2  -2 -12    5.70    4.00
   2  -2 -12   -1.10    3.80
  -2   2  12   -1.40    3.90
  -2   2  12   -1.30    3.20
  -2   2  12    1.30    1.60
  -2   2  12    1.40    6.10
   1  -2 -12    3.10    3.30
   1  -2 -12    3.30    3.40
   1  -2 -12   -4.20    3.10
  -1   2  12    3.90    5.10
  -1   2  12   -2.40    3.30
   0  -2 -12    4.80    3.20
   0  -2 -12    8.40    3.20
   0  -2 -12    9.20    3.00
   0   2  12    9.70    5.10
   0   2  12    7.00    2.10
   0   2  12    9.80    3.50
  -1  -2 -12   -2.40    2.80
  -1  -2 -12    0.20    2.90
  -1  -2 -12    3.40    2.50
   1   2  12    3.20    1.60
   1   2  12    8.10    5.30
  -2  -2 -12  211.38   10.50
  -2  -2 -12  211.48    6.30
  -2  -2 -12  220.58    7.10
  -2  -2 -12  204.98    6.50
   2   2  12  202.48    6.30
   2   2  12  227.48   11.50
  -3  -2 -12   10.70    2.70
  -3  -2 -12    5.80    3.20
  -3  -2 -12    9.90    2.30
  -3  -2 -12    9.80    2.60
   3   2  12    8.40    2.90
   3   2  12    7.70    5.50
  -4  -2 -12   32.40    3.80
  -4  -2 -12   24.60    3.40
  -4  -2 -12   23.00    3.10
  -4  -2 -12   16.50    3.90
   4   2  12   29.00    4.30
   4   2  12   29.00    6.90
  -5  -2 -12   13.90    2.80
  -5  -2 -12   15.10    4.20
   5   2  12    5.40    4.40
   2  -3 -12   25.60    4.90
   2  -3 -12   33.10    4.90
  -2   3  12   35.70    7.70
  -2   3  12   33.40    3.10
  -2   3  12   31.60    4.10
   1  -3 -12    4.50    3.30
   1  -3 -12    7.10    3.00
   1  -3 -12    2.90    3.30
  -1   3  12    7.00    2.70
  -1   3  12    3.30    5.50
   0  -3 -12    2.20    3.10
   0  -3 -12    7.90    3.00
   0  -3 -12    2.00    3.10
   0   3  12    6.30    2.20
   0   3  12    4.90    4.80
  -1  -3 -12   27.20    3.70
  -1  -3 -12   17.80    3.10
  -1  -3 -12   17.40    3.70
   1   3  12   25.00    2.40
   1   3  12   21.40    2.50
   1   3  12   19.70    5.90
   1   3  12   23.60    3.10
  -2  -3 -12   -0.70    3.00
  -2  -3 -12    6.50    1.90
  -2  -3 -12    3.40    2.80
   2   3  12    2.40    2.20
   2   3  12    3.60    3.20
   2   3  12    5.90    4.90
  -3  -3 -12   19.80    3.20
  -3  -3 -12   15.40    3.70
  -3  -3 -12   20.70    2.80
  -3  -3 -12   20.90    3.10
   3   3  12   17.80    3.40
   3   3  12   24.10    6.30
   3   3  12   11.20    3.40
  -4  -3 -12   11.90    3.00
  -4  -3 -12    8.10    3.50
   4   3  12   21.60    4.00
   4   3  12   17.40    6.30
   4   3  12    8.70    3.40
  -5  -3 -12    1.50    2.90
  -5  -3 -12   -2.20    3.50
   5   3  12    7.20    4.40
   2  -4 -12   -2.50    3.70
   2  -4 -12   -2.60    4.70
   2  -4 -12   -0.40    3.70
  -2   4  12    4.00    4.00
  -2   4  12   -7.20    6.30
  -2   4  12    0.70    1.80
  -2   4  12    6.10    3.40
  -2   4  12    0.70    4.20
   1  -4 -12    7.40    3.60
   1  -4 -12    6.30    4.00
   1  -4 -12   19.50    4.00
  -1   4  12   13.90    3.20
  -1   4  12   13.00    5.70
   0  -4 -12    2.80    3.20
   0  -4 -12   -0.60    3.10
   0  -4 -12   -1.80    2.80
   0   4  12    2.60    2.30
   0   4  12    5.40    4.90
   0   4  12    1.50    3.10
   0   4  12   -0.30    2.90
   0   4  12    3.30    1.70
  -1  -4 -12  115.59    6.00
  -1  -4 -12  116.99    8.80
  -1  -4 -12  119.39    5.80
   1   4  12  115.39    4.20
   1   4  12  110.29    9.50
   1   4  12  112.19    5.10
   1   4  12  114.99    4.80
  -2  -4 -12   43.90    4.80
  -2  -4 -12   40.00    4.40
  -2  -4 -12   42.00    7.60
   2   4  12   40.90    6.80
   2   4  12   48.70    8.70
   2   4  12   38.70    4.50
  -3  -4 -12    2.40    3.10
  -3  -4 -12    2.00    2.90
  -3  -4 -12    2.80    3.00
   3   4  12    6.50    3.60
   3   4  12    0.50    2.90
   3   4  12   10.00    5.60
  -4  -4 -12    7.20    2.90
  -4  -4 -12    9.00    2.80
  -4  -4 -12    2.50    3.20
   4   4  12    8.00    5.40
   4   4  12    7.20    3.70
   4   4  12    6.70    3.20
  -5  -4 -12   27.40    4.70
  -5  -4 -12   44.50    5.20
  -5  -4 -12   39.10    4.00
   5   4  12   38.50    5.30
   5   4  12   49.99    8.00
   2  -5 -12    6.70    4.80
   2  -5 -12    3.50    4.00
   2  -5 -12    1.30    4.00
  -2   5  12    8.60    3.50
  -2   5  12    2.30    1.90
  -2   5  12    3.30    6.60
   1  -5 -12    6.00    3.50
   1  -5 -12    7.10    3.40
   1  -5 -12   -0.90    3.40
  -1   5  12    0.90    3.00
  -1   5  12    4.20    3.20
  -1   5  12   -1.50    5.60
  -1   5  12   -1.10    2.80
   0  -5 -12   19.70    3.60
   0  -5 -12   13.60    3.70
   0  -5 -12   19.60    2.70
   0  -5 -12    9.90    3.30
   0   5  12   20.80    5.70
   0   5  12   15.30    3.30
   0   5  12   17.70    2.30
   0   5  12   10.60    3.40
  -1  -5 -12   64.79    5.40
  -1  -5 -12   72.39    8.20
  -1  -5 -12   66.39    5.30
   1   5  12   74.49    8.80
   1   5  12   71.59    4.00
   1   5  12   64.99    5.00
   1   5  12   66.49    4.60
   1   5  12   68.89    7.00
  -2  -5 -12   -0.80    2.40
  -2  -5 -12    0.20    2.70
  -2  -5 -12    2.80    3.30
   2   5  12    3.50    2.60
   2   5  12    0.70    1.40
   2   5  12    2.40    2.70
   2   5  12    2.20    2.20
   2   5  12    1.20    5.00
  -3  -5 -12    1.70    2.60
  -3  -5 -12    6.00    3.10
  -3  -5 -12   -0.10    3.00
   3   5  12    6.90    3.00
   3   5  12    7.70    3.10
   3   5  12    2.40    5.10
  -4  -5 -12   73.09    5.30
  -4  -5 -12   58.29    5.40
  -4  -5 -12   67.79    8.70
   4   5  12   60.79    6.70
   4   5  12   67.19    9.20
   4   5  12   65.79    7.60
  -5  -5 -12   95.89    6.30
  -5  -5 -12  103.09    6.20
  -5  -5 -12   83.99    9.90
   5   5  12  112.59    8.80
   2  -6 -12  199.48   11.80
   2  -6 -12  193.98    9.40
   2  -6 -12  213.58    9.50
  -2   6  12  174.38   12.80
  -2   6  12  179.28    8.40
  -2   6  12  184.28    5.90
   1  -6 -12   15.70    4.00
   1  -6 -12    8.50    3.90
   1  -6 -12   22.30    3.70
  -1   6  12   17.30    3.40
  -1   6  12   11.70    3.60
  -1   6  12   14.00    1.70
  -1   6  12   20.30    6.60
  -1   6  12   11.80    3.40
   0  -6 -12    1.60    2.00
   0  -6 -12   -2.50    3.10
   0  -6 -12   -1.50    3.00
   0  -6 -12   -1.50    3.20
   0   6  12   -2.50    2.30
   0   6  12    2.10    4.90
   0   6  12    0.70    2.70
  -1  -6 -12  130.79    9.40
  -1  -6 -12  109.79    6.20
  -1  -6 -12  118.69    6.40
   1   6  12  118.19    5.80
   1   6  12  122.49    5.70
   1   6  12  121.89    5.10
   1   6  12  124.29    9.90
   1   6  12  117.09    8.20
  -2  -6 -12  162.98    6.70
  -2  -6 -12  144.69    6.50
  -2  -6 -12  144.29    9.60
   2   6  12  144.79    8.40
   2   6  12  150.68    4.90
   2   6  12  157.88   10.90
   2   6  12  153.58    7.00
   2   6  12  143.29    5.90
  -3  -6 -12    5.10    3.10
  -3  -6 -12   11.80    3.00
  -3  -6 -12    8.60    3.80
   3   6  12    9.90    3.40
   3   6  12   11.50    2.10
   3   6  12   15.40    5.70
   3   6  12    8.90    1.60
   3   6  12    3.50    3.00
  -4  -6 -12   -2.10    3.20
  -4  -6 -12    5.40    3.00
  -4  -6 -12   -3.10    3.40
  -4  -6 -12   -3.50    1.50
   4   6  12   -1.40    5.50
   4   6  12    6.30    3.70
  -5  -6 -12   18.80    3.90
  -5  -6 -12   12.00    3.80
   5   6  12   15.00    5.00
   2  -7 -12  129.19    9.00
   2  -7 -12  129.89    8.30
   2  -7 -12  123.19   11.60
  -2   7  12  110.59    5.50
  -2   7  12  118.19    7.70
  -2   7  12   96.29   11.60
   1  -7 -12   43.40    4.90
   1  -7 -12   33.40    5.20
   1  -7 -12   48.30    5.50
  -1   7  12   42.90    4.50
  -1   7  12   47.80    5.70
  -1   7  12   44.20    3.40
  -1   7  12   51.39    9.00
   0  -7 -12   32.80    5.60
   0  -7 -12   24.60    4.50
   0  -7 -12   29.30    2.90
   0  -7 -12   38.60    4.50
   0   7  12   36.00    3.80
   0   7  12   41.10    6.70
   0   7  12   23.30    3.90
   0   7  12   40.90    5.30
  -1  -7 -12   82.29    5.90
  -1  -7 -12   53.69    8.40
  -1  -7 -12   67.69    5.70
   1   7  12   62.59    8.90
   1   7  12   65.79    5.50
   1   7  12   70.29    4.70
   1   7  12   68.89    7.00
   1   7  12   59.99    5.70
  -2  -7 -12   15.90    4.20
  -2  -7 -12   23.10    3.70
  -2  -7 -12   16.50    3.40
   2   7  12   19.10    2.70
   2   7  12   18.50    3.50
   2   7  12   25.20    6.40
   2   7  12   13.70    3.10
   2   7  12   17.80    3.70
  -3  -7 -12    4.80    3.70
  -3  -7 -12   -2.80    3.00
  -3  -7 -12    3.00    3.00
   3   7  12   -2.10    1.90
   3   7  12   -1.90    3.20
   3   7  12   11.20    5.70
   3   7  12    0.70    2.60
  -4  -7 -12   -5.70    3.30
  -4  -7 -12   -3.80    3.70
  -4  -7 -12    3.80    3.10
   4   7  12    9.70    5.90
   4   7  12    6.50    3.80
  -5  -7 -12   50.69    6.50
  -5  -7 -12   31.70    5.40
   5   7  12   39.60    5.50
   2  -8 -12   -6.30    4.40
   2  -8 -12   11.10    4.80
   2  -8 -12    1.10    4.80
  -2   8  12    0.90    2.80
  -2   8  12    2.70    3.80
  -2   8  12   -3.10    6.70
   1  -8 -12   38.70    5.30
   1  -8 -12   44.20    5.20
   1  -8 -12   43.40    4.80
  -1   8  12   47.30    4.70
  -1   8  12   46.50    4.10
  -1   8  12   50.89    9.30
   0  -8 -12    4.00    3.90
   0  -8 -12    2.80    3.60
   0   8  12    3.90    3.30
   0   8  12   13.00    5.50
   0   8  12    6.00    1.80
   0   8  12    2.00    2.80
  -1  -8 -12    9.40    4.00
  -1  -8 -12   11.80    4.90
  -1  -8 -12   13.00    3.70
   1   8  12   13.70    1.70
   1   8  12   14.40    2.90
   1   8  12   13.70    5.70
  -2  -8 -12   13.60    3.50
  -2  -8 -12    7.70    3.70
  -2  -8 -12   15.90    3.50
   2   8  12   17.60    3.70
   2   8  12   10.40    3.30
   2   8  12   14.10    5.80
  -3  -8 -12   -2.60    1.70
  -3  -8 -12    3.30    3.10
  -3  -8 -12   -5.50    2.80
  -3  -8 -12   -2.60    3.60
  -3  -8 -12   -5.20    2.90
   3   8  12    0.40    2.40
   3   8  12    1.30    3.00
   3   8  12   -0.60    3.30
   3   8  12    0.70    5.40
  -4  -8 -12    6.70    4.30
  -4  -8 -12   12.60    3.60
   4   8  12   12.20    4.50
   4   8  12   14.20    2.30
   4   8  12   16.10    6.60
   1  -9 -12    3.00    4.50
   1  -9 -12    7.00    2.80
   1  -9 -12    4.10    4.30
  -1   9  12    0.40    5.80
  -1   9  12    3.10    3.60
  -1   9  12    5.20    2.80
   0  -9 -12    3.90    3.90
   0  -9 -12   -0.60    3.80
   0   9  12   14.80    5.60
   0   9  12   -2.80    2.00
   0   9  12    3.30    3.10
  -1  -9 -12    7.10    3.60
  -1  -9 -12   -1.40    3.90
   1   9  12    6.80    3.40
   1   9  12    5.50    2.90
   1   9  12    4.30    2.00
   1   9  12    6.20    5.60
  -2  -9 -12    4.30    3.50
  -2  -9 -12   -0.70    3.90
  -2  -9 -12   -0.50    2.90
   2   9  12   -7.70    3.40
   2   9  12    4.80    2.90
   2   9  12    4.30    5.50
  -3  -9 -12    1.30    2.80
  -3  -9 -12    6.60    3.60
  -3  -9 -12   -1.10    4.20
  -3  -9 -12   -1.60    2.20
   3   9  12   -0.10    2.80
   3   9  12    2.20    3.10
   3   9  12    5.10    3.70
   3   9  12   -3.90    5.60
  -4  -9 -12   10.80    4.10
  -4  -9 -12   13.00    4.80
   4   9  12   14.80    7.10
   4   9  12   17.00    3.20
   4   9  12   18.70    4.70
   1 -10 -12    9.80    4.20
   1 -10 -12    2.40    6.70
   1 -10 -12   -3.60    4.80
  -1  10  12    6.90    3.80
  -1  10  12    5.00    3.50
  -1  10  12    8.10    6.30
   0 -10 -12    1.50    3.60
   0 -10 -12    3.70    3.90
   0 -10 -12   -0.90    4.40
   0  10  12   -2.30    2.50
   0  10  12   12.10    6.30
   0  10  12   -1.20    3.30
  -1 -10 -12    9.50    3.80
  -1 -10 -12    7.60    4.50
  -1 -10 -12    6.80    3.50
   1  10  12   26.50    6.80
   1  10  12   12.20    3.50
   1  10  12   17.60    2.70
  -2 -10 -12    0.50    3.80
  -2 -10 -12   -4.00    3.00
  -2 -10 -12   -7.60    4.00
   2  10  12    9.60    5.90
   2  10  12    6.70    3.40
   2  10  12    4.10    3.50
  -3 -10 -12    1.70    3.40
  -3 -10 -12    6.20    3.10
  -3 -10 -12    3.50    3.90
  -3 -10 -12   -3.20    4.20
   3  10  12    2.90    6.10
   3  10  12   -2.80    3.90
   3  10  12   -2.20    3.40
   3  10  12   -2.80    3.10
   0 -11 -12   -2.70    3.80
   0 -11 -12    2.40    4.70
   0  11  12    5.80    3.80
   0  11  12   13.30    6.60
   0  11  12    1.50    3.40
  -1 -11 -12   21.20    5.20
  -1 -11 -12   37.40    4.40
  -1 -11 -12   38.10    5.00
   1  11  12   58.29   10.20
   1  11  12   35.00    3.70
   1  11  12   29.20    4.40
  -2 -11 -12    7.10    3.90
  -2 -11 -12   10.20    3.30
  -2 -11 -12    2.30    4.50
   2  11  12    7.40    6.40
   2  11  12    5.70    3.70
   2  11  12   11.30    3.00
  -3 -11 -12   16.70    4.80
  -3 -11 -12   14.60    3.10
   3  11  12    8.70    3.70
   3  11  12   11.30    4.90
   3  11  12   31.90    7.70
   3  11  12   10.50    4.80
   0   2 -13   15.00    4.60
   0  -2  13   28.40    7.50
  -1   2 -13   50.99    6.30
  -1   2 -13   42.00    4.50
   1  -2  13   45.50    8.20
  -2   2 -13   10.00    3.20
  -2   2 -13   12.00    4.00
   2  -2  13   16.90    7.30
   0   1 -13   56.59    7.60
   0   1 -13   56.69    9.80
   0   1 -13   59.99    7.00
   0  -1  13   61.19   11.20
  -1   1 -13   37.90    4.20
  -1   1 -13   54.09    9.20
  -1   1 -13   53.19    6.00
   1  -1  13   66.39   10.70
  -2   1 -13   -0.20    2.90
  -2   1 -13   -2.40    3.80
  -2   1 -13    4.50    3.30
  -2   1 -13    3.10    3.70
   2  -1  13   17.40    7.00
  -3   1 -13   20.30    4.30
  -3   1 -13   14.30    2.60
  -3   1 -13    7.70    3.80
   3  -1  13   13.30    7.10
   1   0 -13    9.90    4.40
   1   0 -13    3.30    4.30
  -1   0  13   -3.40    2.50
  -1   0  13   13.30    7.00
   0   0 -13  156.18    7.80
   0   0 -13  140.49    7.00
   0   0 -13  146.69   11.00
   0   0  13  193.78   12.30
  -1   0 -13  348.57    9.60
  -1   0 -13  354.56    9.70
  -1   0 -13  377.16   14.50
   1   0  13  384.56   15.40
  -2   0 -13    3.50    2.80
  -2   0 -13    8.30    3.80
  -2   0 -13    8.70    3.60
  -2   0 -13    5.10    3.20
   2   0  13    8.00    6.20
  -3   0 -13   16.80    3.00
  -3   0 -13   18.50    4.40
  -3   0 -13   19.60    2.90
  -3   0 -13   18.10    3.90
   3   0  13   26.60    7.40
   1  -1 -13   -1.00    4.00
   1  -1 -13    9.00    4.30
  -1   1  13   10.70    4.10
  -1   1  13   -0.60    4.90
  -1   1  13    9.10    6.50
   0  -1 -13   -0.10    3.20
   0  -1 -13    4.70    4.00
   0  -1 -13    7.40    3.30
   0   1  13    2.30    2.60
   0   1  13   12.00    6.20
   0   1  13    4.40    1.70
  -1  -1 -13  104.09    9.80
  -1  -1 -13   99.19    6.30
  -1  -1 -13  108.99    6.10
   1   1  13  118.99   11.00
  -2  -1 -13   23.30    3.60
  -2  -1 -13   17.20    3.00
  -2  -1 -13   13.30    4.00
  -2  -1 -13   14.90    3.40
   2   1  13   22.20    6.80
  -3  -1 -13   20.20    4.00
  -3  -1 -13   14.10    3.20
  -3  -1 -13   15.70    2.80
  -3  -1 -13   12.00    4.10
   3   1  13    9.70    6.80
  -4  -1 -13    9.80    4.10
  -4  -1 -13    8.30    2.60
   1  -2 -13    4.50    3.90
   1  -2 -13    4.50    4.00
  -1   2  13    2.10    6.10
  -1   2  13    2.10    2.90
   0  -2 -13    0.40    3.70
   0  -2 -13    3.90    3.40
   0  -2 -13   -0.60    3.20
   0   2  13    1.80    5.90
   0   2  13    4.20    2.00
   0   2  13    1.70    4.40
  -1  -2 -13   28.90    3.70
  -1  -2 -13   27.40    4.60
  -1  -2 -13   35.70    4.10
   1   2  13   42.20    7.50
  -2  -2 -13    4.80    2.60
  -2  -2 -13    3.30    2.80
  -2  -2 -13    3.00    3.70
  -2  -2 -13    5.20    3.40
   2   2  13    5.80    2.40
   2   2  13    7.70    5.90
  -3  -2 -13    2.50    2.70
  -3  -2 -13    0.60    2.90
  -3  -2 -13   -1.60    3.30
  -3  -2 -13   -2.50    3.50
   3   2  13   -1.00    3.10
   3   2  13   -4.90    6.10
  -4  -2 -13   37.50    4.40
  -4  -2 -13   33.40    4.20
  -4  -2 -13   30.60    4.90
   4   2  13   36.80    4.90
   4   2  13   30.70    7.30
   2  -3 -13   -3.50    4.50
  -2   3  13    5.20    3.60
   1  -3 -13   -2.50    4.00
   1  -3 -13    3.00    3.70
  -1   3  13   -1.50    2.90
  -1   3  13   13.40    6.70
  -1   3  13   -1.60    6.20
   0  -3 -13    8.60    3.90
   0  -3 -13    9.60    3.30
   0  -3 -13    1.40    3.10
   0   3  13    1.00    2.30
   0   3  13   -0.90    3.20
   0   3  13   11.50    5.50
  -1  -3 -13   -0.60    3.50
  -1  -3 -13    0.50    3.20
  -1  -3 -13    4.30    2.90
   1   3  13    2.20    1.40
   1   3  13    3.10    1.90
   1   3  13    2.60    1.90
   1   3  13    4.20    5.50
  -2  -3 -13    7.20    2.30
  -2  -3 -13    4.40    2.70
  -2  -3 -13    2.60    3.00
  -2  -3 -13    1.80    3.50
   2   3  13    2.30    2.50
   2   3  13   12.20    5.90
  -3  -3 -13   -0.80    2.60
  -3  -3 -13   -1.20    2.90
  -3  -3 -13    2.50    3.60
   3   3  13   -0.50    3.60
   3   3  13    5.30    6.00
  -4  -3 -13    5.60    3.00
  -4  -3 -13    0.00    3.10
  -4  -3 -13    1.30    3.80
   4   3  13    2.30    6.30
   4   3  13    5.20    3.90
   2  -4 -13   -1.30    4.40
   2  -4 -13   -5.20    5.60
  -2   4  13   -3.60    3.70
   1  -4 -13   -1.50    3.90
   1  -4 -13    2.30    3.80
  -1   4  13   -0.30    5.60
  -1   4  13   -2.30    3.00
   0  -4 -13   20.80    4.40
   0  -4 -13   27.30    4.20
   0  -4 -13   36.80    5.30
   0   4  13   37.60    7.20
   0   4  13   34.60    3.40
  -1  -4 -13   52.89    8.50
  -1  -4 -13   54.49    5.30
  -1  -4 -13   47.60    6.00
   1   4  13   47.50    4.40
   1   4  13   53.29    3.90
   1   4  13   42.20    3.30
   1   4  13   63.29    9.40
  -2  -4 -13   10.80    3.40
  -2  -4 -13   10.90    3.80
  -2  -4 -13   10.00    3.10
   2   4  13   21.50    6.60
   2   4  13   13.00    2.90
  -3  -4 -13    3.80    3.60
  -3  -4 -13   10.50    2.90
  -3  -4 -13    4.20    3.20
   3   4  13    2.80    5.90
   3   4  13   10.30    3.40
  -4  -4 -13   -0.80    3.20
  -4  -4 -13    3.00    3.80
  -4  -4 -13    4.40    3.10
   4   4  13    3.40    5.70
   4   4  13    0.10    3.80
   1  -5 -13    4.50    4.00
   1  -5 -13   10.70    4.10
   1  -5 -13    0.40    4.10
  -1   5  13    5.80    3.30
  -1   5  13   12.10    3.90
  -1   5  13    4.40    5.60
   0  -5 -13   -0.20    3.20
   0  -5 -13    3.20    3.80
   0  -5 -13    7.00    2.80
   0   5  13    0.20    3.50
   0   5  13   -0.40    2.60
   0   5  13    6.40    5.40
   0   5  13   -1.10    2.00
  -1  -5 -13   28.40    3.90
  -1  -5 -13   23.30    4.50
  -1  -5 -13   28.20    3.90
   1   5  13   30.40    3.30
   1   5  13   32.90    3.70
   1   5  13   30.90    3.70
   1   5  13   39.10    7.50
  -2  -5 -13    0.20    3.50
  -2  -5 -13    1.20    3.10
  -2  -5 -13   11.50    3.00
   2   5  13   11.20    3.00
   2   5  13   14.90    6.20
   2   5  13    4.40    1.50
  -3  -5 -13    2.80    3.30
  -3  -5 -13   -0.70    3.70
  -3  -5 -13   -1.40    2.90
   3   5  13    4.40    3.30
   3   5  13   -1.60    5.60
  -4  -5 -13   67.19    5.90
  -4  -5 -13   62.29    9.60
  -4  -5 -13   70.99    6.00
   4   5  13   81.49    7.50
   4   5  13   62.89    9.70
   1  -6 -13    2.50    4.10
   1  -6 -13   15.40    3.80
  -1   6  13   11.50    3.60
  -1   6  13   16.30    6.50
  -1   6  13   10.90    4.60
   0  -6 -13   58.29    6.50
   0  -6 -13   60.89    4.10
   0   6  13   58.89    9.30
   0   6  13   58.69    7.30
   0   6  13   48.90    5.00
   0   6  13   56.29    4.70
  -1  -6 -13  115.19    9.90
  -1  -6 -13  109.59    6.50
  -1  -6 -13  106.99    6.80
   1   6  13  101.49    6.20
   1   6  13  110.89   10.70
   1   6  13  111.29    6.00
   1   6  13  108.59    5.20
  -2  -6 -13    6.50    3.20
  -2  -6 -13    1.70    3.30
  -2  -6 -13   -1.00    3.50
   2   6  13   -0.50    5.60
   2   6  13    0.90    3.40
   2   6  13    3.00    1.90
   2   6  13    2.90    2.80
  -3  -6 -13   -1.30    3.20
  -3  -6 -13    0.90    3.50
  -3  -6 -13   -2.80    3.20
   3   6  13    8.80    6.00
   3   6  13   -2.70    3.20
  -4  -6 -13   -0.30    3.30
  -4  -6 -13   -4.00    3.80
  -4  -6 -13    6.90    3.60
   4   6  13    0.90    3.90
   4   6  13    3.70    6.10
   1  -7 -13    6.40    4.40
   1  -7 -13   12.80    3.50
   1  -7 -13    4.80    4.00
  -1   7  13    5.20    3.60
  -1   7  13    8.10    6.20
   0  -7 -13   23.10    4.60
   0  -7 -13   35.00    4.70
   0   7  13   37.90    7.00
   0   7  13   25.70    3.70
   0   7  13   26.80    3.90
   0   7  13   28.00    4.10
  -1  -7 -13   10.80    3.60
   1   7  13    9.80    4.50
   1   7  13   16.10    5.90
   1   7  13   11.30    6.10
   1   7  13   13.50    3.00
  -2  -7 -13   -4.60    3.70
  -2  -7 -13   -5.60    3.10
   2   7  13   -2.20    3.10
   2   7  13   -1.50    2.50
   2   7  13    0.80    3.20
   2   7  13    2.70    5.80
  -3  -7 -13   -1.90    3.70
  -3  -7 -13    1.30    3.30
  -3  -7 -13   -1.90    3.60
   3   7  13    1.80    3.60
   3   7  13    2.60    1.80
   3   7  13   12.60    6.30
  -4  -7 -13    9.80    3.70
  -4  -7 -13   -0.70    4.20
   4   7  13    9.20    6.60
   4   7  13   19.30    4.60
   1  -8 -13    6.00    6.50
   1  -8 -13   -4.50    4.50
  -1   8  13    0.10    3.70
  -1   8  13    3.20    6.00
   0  -8 -13    3.50    4.00
   0  -8 -13   -2.90    4.10
   0   8  13    8.90    6.20
   0   8  13   -4.90    3.60
   0   8  13    7.10    3.20
  -1  -8 -13   -3.80    4.10
  -1  -8 -13    6.70    3.80
   1   8  13    6.20    3.00
   1   8  13    8.70    6.20
   1   8  13    0.90    3.60
   1   8  13    2.60    3.60
  -2  -8 -13   -2.70    3.40
  -2  -8 -13    1.50    4.10
   2   8  13    8.30    3.60
   2   8  13    5.30    3.50
   2   8  13    0.30    2.80
   2   8  13   11.10    6.50
  -3  -8 -13    4.30    3.60
  -3  -8 -13    1.50    4.30
   3   8  13    2.50    2.50
   3   8  13    4.30    6.20
   3   8  13    4.20    3.80
   3   8  13    2.90    5.30
  -4  -8 -13   19.00    4.20
   4   8  13   20.70    5.40
   4   8  13   25.80    7.20
   0  -9 -13    2.90    4.50
   0  -9 -13    7.70    4.50
   0   9  13   11.10    6.30
   0   9  13    2.90    3.50
  -1  -9 -13    0.50    3.90
   1   9  13    9.80    6.20
   1   9  13    0.80    3.20
   1   9  13   -2.50    3.50
  -2  -9 -13   -7.10    4.30
  -2  -9 -13    5.10    3.90
  -2  -9 -13   -5.40    3.20
   2   9  13    2.60    6.40
   2   9  13    1.10    3.50
   2   9  13   -4.90    3.60
   2   9  13   -0.40    3.00
  -3  -9 -13   15.10    4.00
  -3  -9 -13    1.70    4.40
  -3  -9 -13    6.00    3.30
   3   9  13   11.70    7.00
   3   9  13   13.30    4.70
   3   9  13   12.80    3.80
   3   9  13   18.90    4.70
  -1 -10 -13   20.90    5.30
  -1 -10 -13   25.50    4.30
  -1 -10 -13   26.00    5.10
   1  10  13   20.90    4.30
   1  10  13   38.60    7.60
  -2 -10 -13   -5.00    7.20
  -2 -10 -13   -0.80    3.40
  -2 -10 -13    6.20    4.00
   2  10  13   -3.30    3.40
   2  10  13    4.60    3.80
   2  10  13    9.00    6.60
   2  10  13    2.90    4.50
   0  -1 -14   -5.40    4.00
  -1  -1 -14   39.30    4.50
  -1  -1 -14   23.80    4.90
  -1  -1 -14   37.70    4.10
   1   1  14   46.10    7.90
  -2  -1 -14    6.90    4.00
  -2  -1 -14    5.60    3.70
  -2  -1 -14    5.90    3.20
   2   1  14    9.00    7.00
   0  -2 -14   -0.30    4.40
   0  -2 -14    7.10    3.80
   0   2  14   11.40    7.10
  -1  -2 -14   26.70    4.20
  -1  -2 -14   21.30    3.90
   1   2  14   30.10    7.30
  -2  -2 -14   -0.50    3.60
  -2  -2 -14   -3.90    3.80
  -2  -2 -14    1.40    3.00
   2   2  14   14.60    6.80
  -3  -2 -14   -1.60    3.80
  -3  -2 -14    5.80    3.30
  -3  -2 -14    3.00    3.10
   3   2  14    3.60    7.30
   0  -3 -14    3.00    3.90
   0  -3 -14   -0.90    4.00
   0   3  14   10.70    6.60
   0   3  14    1.40    2.50
  -1  -3 -14   30.30    4.10
   1   3  14   35.70    7.60
  -2  -3 -14    8.30    3.90
  -2  -3 -14    0.40    3.60
  -2  -3 -14    9.80    3.30
   2   3  14    7.60    6.50
   2   3  14    8.30    2.70
  -3  -3 -14    0.80    3.50
  -3  -3 -14    7.70    3.30
  -3  -3 -14   -1.00    3.90
   3   3  14    1.40    3.50
   3   3  14    3.90    6.40
   0  -4 -14   56.89    6.90
   0  -4 -14   59.69    9.80
   0   4  14   87.99   10.80
   0   4  14   66.29    6.50
  -1  -4 -14   -4.80    3.10
  -1  -4 -14    0.10    3.90
   1   4  14    3.20    6.00
   1   4  14   -1.60    2.70
  -2  -4 -14    3.70    3.30
  -2  -4 -14   -0.40    3.20
  -2  -4 -14   -1.00    3.70
   2   4  14    1.50    3.00
   2   4  14   12.80    6.40
  -3  -4 -14   37.80    4.30
  -3  -4 -14   44.50    5.60
   3   4  14   32.60    4.40
   3   4  14   45.10    8.10
   0  -5 -14   40.10    5.50
   0  -5 -14   39.80    4.90
   0   5  14   59.49    5.30
  -1  -5 -14    0.20    4.20
  -1  -5 -14    8.80    3.80
   1   5  14   11.10    2.40
   1   5  14   23.70    7.20
   1   5  14    9.70    2.60
  -2  -5 -14   -6.00    3.60
  -2  -5 -14   -2.30    3.30
   2   5  14   -0.80    3.00
   2   5  14   11.10    6.40
  -3  -5 -14   -1.00    3.40
  -3  -5 -14   -0.10    3.90
  -3  -5 -14    8.40    3.70
   3   5  14    8.30    3.80
   3   5  14    2.10    6.30
   0  -6 -14   -6.00    4.00
   0  -6 -14    0.50    3.90
   0   6  14    3.20    3.20
   0   6  14   -2.40    3.90
   0   6  14    0.00    5.90
  -1  -6 -14   83.19    7.10
  -1  -6 -14   82.19   10.30
   1   6  14   77.19    5.20
   1   6  14   86.49    5.80
   1   6  14   98.89   11.30
   1   6  14   72.49    6.50
  -2  -6 -14   -4.30    3.40
  -2  -6 -14   -5.70    4.00
   2   6  14    0.30    3.30
   2   6  14    4.40    6.30
  -3  -6 -14   -3.20    3.40
  -3  -6 -14   -3.10    3.80
   3   6  14    6.00    6.90
   3   6  14    0.20    3.90
   0  -7 -14   -5.10    4.10
   0  -7 -14    7.70    4.20
   0   7  14    9.60    3.70
   0   7  14    0.00    4.50
   0   7  14   -1.50    4.10
  -1  -7 -14    9.50    4.00
   1   7  14    9.90    6.60
   1   7  14    6.70    4.00
  -2  -7 -14   -4.20    3.60
  -2  -7 -14    1.40    3.80
   2   7  14    5.60    2.50
   2   7  14    1.10    6.40
   2   7  14    8.40    3.80
  -3  -7 -14   -0.30    4.50
  -3  -7 -14    5.80    3.90
   3   7  14   18.90    9.40
   3   7  14   15.00    4.60
  -1  -8 -14   21.90    4.50
   1   8  14   16.10    3.60
   1   8  14   24.20    7.50
   1   8  14   16.30    4.00
   1   8  14   10.80    4.20
  -2  -8 -14    3.30    3.90
   2   8  14    6.30    3.20
   2   8  14    0.90    6.40
   2   8  14    6.30    3.90
   0   0   0    0.00    0.00

_computing_structure_solution     'SHELXT 2018/2 (Sheldrick, 2018)'
;
_shelx_hkl_checksum              51044
_olex2_submission_special_instructions 'No special instructions were received'
loop_
_space_group_symop_operation_xyz
'x, y, z'
'-x, -y, -z'
loop_
_atom_site_label
_atom_site_type_symbol
_atom_site_fract_x
_atom_site_fract_y
_atom_site_fract_z
_atom_site_U_iso_or_equiv
_atom_site_adp_type
_atom_site_occupancy
_atom_site_site_symmetry_order
_atom_site_calc_flag
_atom_site_refinement_flags_posn
_atom_site_refinement_flags_adp
_atom_site_refinement_flags_occupancy
_atom_site_disorder_assembly
_atom_site_disorder_group
O1 O 0.05941(16) 0.77181(9) 0.60418(9) 0.0398(2) Uani 1 1 d . . . . .
O2 O -0.1492(2) 0.71130(11) 0.48380(11) 0.0585(3) Uani 1 1 d . . . . .
O3 O 0.7849(2) 0.73689(10) 0.92616(11) 0.0528(3) Uani 1 1 d . . . . .
N1 N 0.23896(19) 0.71457(10) 0.67308(10) 0.0344(3) Uani 1 1 d . . . . .
C1 C 0.0084(3) 0.68136(14) 0.54692(13) 0.0416(3) Uani 1 1 d . . . . .
C2 C 0.1646(3) 0.57607(14) 0.58374(13) 0.0407(3) Uani 1 1 d . . . . .
H2 H 0.173793 0.503631 0.559439 0.049 Uiso 1 1 calc R . . . .
C3 C 0.3004(2) 0.59788(12) 0.66108(12) 0.0326(3) Uani 1 1 d . . . . .
C4 C 0.4807(2) 0.52695(12) 0.73119(12) 0.0325(3) Uani 1 1 d . . . . .
C5 C 0.5509(3) 0.40505(13) 0.72600(14) 0.0422(3) Uani 1 1 d . . . . .
H5 H 0.480893 0.370388 0.677359 0.051 Uiso 1 1 calc R . . . .
C6 C 0.7224(3) 0.33714(14) 0.79247(15) 0.0485(4) Uani 1 1 d . . . . .
H6 H 0.771378 0.256790 0.787811 0.058 Uiso 1 1 calc R . . . .
C7 C 0.8234(3) 0.38792(14) 0.86679(15) 0.0461(4) Uani 1 1 d . . . . .
H7 H 0.938587 0.340731 0.912603 0.055 Uiso 1 1 calc R . . . .
C8 C 0.7558(2) 0.50722(13) 0.87383(13) 0.0388(3) Uani 1 1 d . . . . .
H8 H 0.824897 0.539025 0.925031 0.047 Uiso 1 1 calc R . . . .
C9 C 0.5837(2) 0.58198(11) 0.80487(11) 0.0304(3) Uani 1 1 d . . . . .
C10 C 0.5058(2) 0.70964(11) 0.80680(11) 0.0296(3) Uani 1 1 d . . . . .
C11 C 0.6072(2) 0.77598(12) 0.87755(12) 0.0340(3) Uani 1 1 d . . . . .
C12 C 0.4807(3) 0.89715(13) 0.89064(13) 0.0418(3) Uani 1 1 d . . . . .
H12A H 0.591209 0.943443 0.912728 0.050 Uiso 1 1 calc R . . . .
H12B H 0.345763 0.878123 0.960435 0.050 Uiso 1 1 calc R . . . .
C13 C 0.3870(2) 0.98144(12) 0.77301(12) 0.0344(3) Uani 1 1 d . . . . .
C14 C 0.2278(2) 0.90410(12) 0.73440(14) 0.0370(3) Uani 1 1 d . . . . .
H14A H 0.071984 0.898407 0.789786 0.044 Uiso 1 1 calc R . . . .
H14B H 0.202108 0.947311 0.648750 0.044 Uiso 1 1 calc R . . . .
C15 C 0.3311(2) 0.77452(11) 0.73980(11) 0.0305(3) Uani 1 1 d . . . . .
C16 C 0.2357(3) 1.09226(14) 0.80488(15) 0.0491(4) Uani 1 1 d . . . . .
H16A H 0.175512 1.144616 0.731154 0.074 Uiso 1 1 calc GR . . . .
H16B H 0.333796 1.139838 0.831774 0.074 Uiso 1 1 calc GR . . . .
H16C H 0.102895 1.061931 0.871726 0.074 Uiso 1 1 calc GR . . . .
C17 C 0.5948(3) 1.02955(14) 0.66490(15) 0.0476(4) Uani 1 1 d . . . . .
H17A H 0.683198 0.960198 0.641066 0.071 Uiso 1 1 calc GR . . . .
H17B H 0.699881 1.073303 0.691970 0.071 Uiso 1 1 calc GR . . . .
H17C H 0.532137 1.085457 0.593554 0.071 Uiso 1 1 calc GR . . . .
loop_
_atom_site_aniso_label
_atom_site_aniso_U_11
_atom_site_aniso_U_22
_atom_site_aniso_U_33
_atom_site_aniso_U_23
_atom_site_aniso_U_13
_atom_site_aniso_U_12
O1 0.0370(5) 0.0431(5) 0.0443(5) -0.0111(4) -0.0226(4) 0.0008(4)
O2 0.0619(7) 0.0683(8) 0.0535(7) -0.0122(6) -0.0347(6) -0.0090(6)
O3 0.0517(6) 0.0510(6) 0.0667(7) -0.0181(5) -0.0375(6) 0.0028(5)
N1 0.0320(6) 0.0369(6) 0.0387(6) -0.0118(5) -0.0169(5) 0.0010(4)
C1 0.0447(8) 0.0495(8) 0.0335(7) -0.0092(6) -0.0123(6) -0.0134(6)
C2 0.0485(8) 0.0428(7) 0.0353(7) -0.0128(6) -0.0117(6) -0.0094(6)
C3 0.0350(7) 0.0337(6) 0.0297(6) -0.0094(5) -0.0043(5) -0.0068(5)
C4 0.0332(6) 0.0319(6) 0.0303(6) -0.0070(5) -0.0034(5) -0.0037(5)
C5 0.0503(8) 0.0349(7) 0.0420(7) -0.0136(6) -0.0051(6) -0.0038(6)
C6 0.0550(9) 0.0321(7) 0.0535(9) -0.0103(6) -0.0068(7) 0.0057(6)
C7 0.0418(8) 0.0394(7) 0.0496(8) -0.0032(6) -0.0117(6) 0.0071(6)
C8 0.0366(7) 0.0390(7) 0.0387(7) -0.0068(6) -0.0111(6) 0.0011(6)
C9 0.0282(6) 0.0320(6) 0.0285(6) -0.0064(5) -0.0030(5) -0.0024(5)
C10 0.0277(6) 0.0314(6) 0.0299(6) -0.0082(5) -0.0069(5) -0.0019(5)
C11 0.0367(7) 0.0347(6) 0.0313(6) -0.0066(5) -0.0111(5) -0.0048(5)
C12 0.0559(9) 0.0381(7) 0.0375(7) -0.0146(6) -0.0183(6) 0.0010(6)
C13 0.0369(7) 0.0310(6) 0.0369(7) -0.0097(5) -0.0113(5) -0.0007(5)
C14 0.0310(7) 0.0356(7) 0.0474(8) -0.0140(6) -0.0135(6) 0.0032(5)
C15 0.0274(6) 0.0331(6) 0.0327(6) -0.0106(5) -0.0070(5) -0.0032(5)
C16 0.0601(10) 0.0371(7) 0.0533(9) -0.0171(7) -0.0160(7) 0.0065(7)
C17 0.0443(8) 0.0436(8) 0.0504(9) -0.0059(7) -0.0084(7) -0.0067(6)
loop_
_atom_type_symbol
_atom_type_description
_atom_type_scat_dispersion_real
_atom_type_scat_dispersion_imag
_atom_type_scat_source
C C 0.0033 0.0016 'International Tables Vol C Tables 4.2.6.8 and 6.1.1.4'
H H 0.0000 0.0000 'International Tables Vol C Tables 4.2.6.8 and 6.1.1.4'
N N 0.0061 0.0033 'International Tables Vol C Tables 4.2.6.8 and 6.1.1.4'
O O 0.0106 0.0060 'International Tables Vol C Tables 4.2.6.8 and 6.1.1.4'
loop_
_geom_angle_atom_site_label_1
_geom_angle_atom_site_label_2
_geom_angle_atom_site_label_3
_geom_angle
_geom_angle_site_symmetry_1
_geom_angle_site_symmetry_3
_geom_angle_publ_flag
N1 O1 C1 105.33(10) . . ?
C3 N1 O1 110.51(10) . . ?
C15 N1 O1 121.00(10) . . ?
C15 N1 C3 128.48(11) . . ?
O2 C1 O1 116.55(13) . . ?
O2 C1 C2 136.65(14) . . ?
C2 C1 O1 106.80(11) . . ?
C1 C2 H2 125.7 . . ?
C3 C2 C1 108.55(12) . . ?
C3 C2 H2 125.7 . . ?
N1 C3 C2 108.80(12) . . ?
N1 C3 C4 116.04(11) . . ?
C2 C3 C4 135.15(12) . . ?
C5 C4 C3 119.67(12) . . ?
C5 C4 C9 121.26(12) . . ?
C9 C4 C3 119.07(11) . . ?
C4 C5 H5 120.0 . . ?
C6 C5 C4 119.93(13) . . ?
C6 C5 H5 120.0 . . ?
C5 C6 H6 120.0 . . ?
C5 C6 C7 120.01(13) . . ?
C7 C6 H6 120.0 . . ?
C6 C7 H7 119.5 . . ?
C8 C7 C6 120.95(13) . . ?
C8 C7 H7 119.5 . . ?
C7 C8 H8 119.4 . . ?
C7 C8 C9 121.17(13) . . ?
C9 C8 H8 119.4 . . ?
C4 C9 C10 119.31(11) . . ?
C8 C9 C4 116.65(12) . . ?
C8 C9 C10 124.03(11) . . ?
C9 C10 C11 123.27(11) . . ?
C15 C10 C9 120.20(11) . . ?
C15 C10 C11 116.53(11) . . ?
O3 C11 C10 123.33(12) . . ?
O3 C11 C12 119.18(12) . . ?
C10 C11 C12 117.48(11) . . ?
C11 C12 H12A 108.4 . . ?
C11 C12 H12B 108.4 . . ?
C11 C12 C13 115.31(11) . . ?
H12A C12 H12B 107.5 . . ?
C13 C12 H12A 108.4 . . ?
C13 C12 H12B 108.4 . . ?
C12 C13 C16 109.57(11) . . ?
C14 C13 C12 107.62(11) . . ?
C14 C13 C16 109.09(11) . . ?
C17 C13 C12 110.93(12) . . ?
C17 C13 C14 110.06(11) . . ?
C17 C13 C16 109.52(12) . . ?
C13 C14 H14A 108.8 . . ?
C13 C14 H14B 108.8 . . ?
H14A C14 H14B 107.7 . . ?
C15 C14 C13 113.72(10) . . ?
C15 C14 H14A 108.8 . . ?
C15 C14 H14B 108.8 . . ?
N1 C15 C10 116.87(11) . . ?
N1 C15 C14 116.38(11) . . ?
C10 C15 C14 126.75(11) . . ?
C13 C16 H16A 109.5 . . ?
C13 C16 H16B 109.5 . . ?
C13 C16 H16C 109.5 . . ?
H16A C16 H16B 109.5 . . ?
H16A C16 H16C 109.5 . . ?
H16B C16 H16C 109.5 . . ?
C13 C17 H17A 109.5 . . ?
C13 C17 H17B 109.5 . . ?
C13 C17 H17C 109.5 . . ?
H17A C17 H17B 109.5 . . ?
H17A C17 H17C 109.5 . . ?
H17B C17 H17C 109.5 . . ?
loop_
_geom_bond_atom_site_label_1
_geom_bond_atom_site_label_2
_geom_bond_distance
_geom_bond_site_symmetry_2
_geom_bond_publ_flag
O1 N1 1.3854(13) . ?
O1 C1 1.4431(16) . ?
O2 C1 1.2084(17) . ?
O3 C11 1.2185(15) . ?
N1 C3 1.3612(16) . ?
N1 C15 1.3578(16) . ?
C1 C2 1.404(2) . ?
C2 H2 0.9300 . ?
C2 C3 1.3634(18) . ?
C3 C4 1.4361(18) . ?
C4 C5 1.4007(18) . ?
C4 C9 1.4172(17) . ?
C5 H5 0.9300 . ?
C5 C6 1.366(2) . ?
C6 H6 0.9300 . ?
C6 C7 1.385(2) . ?
C7 H7 0.9300 . ?
C7 C8 1.376(2) . ?
C8 H8 0.9300 . ?
C8 C9 1.4083(17) . ?
C9 C10 1.4606(17) . ?
C10 C11 1.4737(17) . ?
C10 C15 1.3735(16) . ?
C11 C12 1.5034(18) . ?
C12 H12A 0.9700 . ?
C12 H12B 0.9700 . ?
C12 C13 1.5282(18) . ?
C13 C14 1.5257(18) . ?
C13 C16 1.5287(18) . ?
C13 C17 1.524(2) . ?
C14 H14A 0.9700 . ?
C14 H14B 0.9700 . ?
C14 C15 1.4975(17) . ?
C16 H16A 0.9600 . ?
C16 H16B 0.9600 . ?
C16 H16C 0.9600 . ?
C17 H17A 0.9600 . ?
C17 H17B 0.9600 . ?
C17 H17C 0.9600 . ?
loop_
_geom_torsion_atom_site_label_1
_geom_torsion_atom_site_label_2
_geom_torsion_atom_site_label_3
_geom_torsion_atom_site_label_4
_geom_torsion
_geom_torsion_site_symmetry_1
_geom_torsion_site_symmetry_2
_geom_torsion_site_symmetry_3
_geom_torsion_site_symmetry_4
_geom_torsion_publ_flag
O1 N1 C3 C2 0.40(15) . . . . ?
O1 N1 C3 C4 -178.29(10) . . . . ?
O1 N1 C15 C10 179.02(11) . . . . ?
O1 N1 C15 C14 0.08(18) . . . . ?
O1 C1 C2 C3 1.27(15) . . . . ?
O2 C1 C2 C3 -177.95(18) . . . . ?
O3 C11 C12 C13 141.27(14) . . . . ?
N1 O1 C1 O2 178.40(12) . . . . ?
N1 O1 C1 C2 -1.00(14) . . . . ?
N1 C3 C4 C5 178.78(12) . . . . ?
N1 C3 C4 C9 -1.01(17) . . . . ?
C1 O1 N1 C3 0.39(13) . . . . ?
C1 O1 N1 C15 179.95(11) . . . . ?
C1 C2 C3 N1 -1.05(16) . . . . ?
C1 C2 C3 C4 177.28(14) . . . . ?
C2 C3 C4 C5 0.5(2) . . . . ?
C2 C3 C4 C9 -179.24(14) . . . . ?
C3 N1 C15 C10 -1.5(2) . . . . ?
C3 N1 C15 C14 179.55(12) . . . . ?
C3 C4 C5 C6 179.99(13) . . . . ?
C3 C4 C9 C8 178.65(11) . . . . ?
C3 C4 C9 C10 -0.57(17) . . . . ?
C4 C5 C6 C7 1.2(2) . . . . ?
C4 C9 C10 C11 -178.22(11) . . . . ?
C4 C9 C10 C15 1.29(18) . . . . ?
C5 C4 C9 C8 -1.13(18) . . . . ?
C5 C4 C9 C10 179.65(12) . . . . ?
C5 C6 C7 C8 -0.8(2) . . . . ?
C6 C7 C8 C9 -0.6(2) . . . . ?
C7 C8 C9 C4 1.56(19) . . . . ?
C7 C8 C9 C10 -179.26(12) . . . . ?
C8 C9 C10 C11 2.62(19) . . . . ?
C8 C9 C10 C15 -177.87(12) . . . . ?
C9 C4 C5 C6 -0.2(2) . . . . ?
C9 C10 C11 O3 10.1(2) . . . . ?
C9 C10 C11 C12 -169.20(12) . . . . ?
C9 C10 C15 N1 -0.35(18) . . . . ?
C9 C10 C15 C14 178.46(12) . . . . ?
C10 C11 C12 C13 -39.42(18) . . . . ?
C11 C10 C15 N1 179.20(11) . . . . ?
C11 C10 C15 C14 -1.99(19) . . . . ?
C11 C12 C13 C14 54.30(16) . . . . ?
C11 C12 C13 C16 172.80(12) . . . . ?
C11 C12 C13 C17 -66.16(16) . . . . ?
C12 C13 C14 C15 -43.32(15) . . . . ?
C13 C14 C15 N1 -161.24(11) . . . . ?
C13 C14 C15 C10 19.95(19) . . . . ?
C15 N1 C3 C2 -179.12(13) . . . . ?
C15 N1 C3 C4 2.2(2) . . . . ?
C15 C10 C11 O3 -169.45(13) . . . . ?
C15 C10 C11 C12 11.27(17) . . . . ?
C16 C13 C14 C15 -162.13(12) . . . . ?
C17 C13 C14 C15 77.68(14) . . . . ?
