#------------------------------------------------------------------------------
#$Date: 2021-02-05 01:31:17 +0200 (Fri, 05 Feb 2021) $
#$Revision: 261764 $
#$URL: file:///home/coder/svn-repositories/cod/cif/7/15/78/7157816.cif $
#------------------------------------------------------------------------------
#
# This file is available in the Crystallography Open Database (COD),
# http://www.crystallography.net/
#
# All data on this site have been placed in the public domain by the
# contributors.
#
data_7157816
loop_
_publ_author_name
'Ichikawa, Yuki'
'Hiramatsu, Michiaki'
'Mita, Yusuke'
'Makishima, Makoto'
'Matsumoto, Yotaro'
'Masumoto, Yui'
'Muranaka, Atsuya'
'Uchiyama, Masanobu'
'Hashimoto, Yuichi'
'Ishikawa, Minoru'
_publ_section_title
;
 <i>meta</i>-Non-flat substituents: a novel molecular design to improve
 aqueous solubility in small molecule drug discovery.
;
_journal_issue                   2
_journal_name_full               'Organic &amp; biomolecular chemistry'
_journal_page_first              446
_journal_page_last               456
_journal_paper_doi               10.1039/d0ob02083d
_journal_volume                  19
_journal_year                    2021
_chemical_formula_moiety         'C7 H4 Br N'
_chemical_formula_sum            'C7 H4 Br N'
_chemical_formula_weight         182.02
_chemical_melting_point          385
_chemical_name_systematic        4-Bromobenzonitrile
_space_group_crystal_system      monoclinic
_space_group_IT_number           8
_space_group_name_Hall           'C -2y'
_space_group_name_H-M_alt        'C 1 m 1'
_atom_sites_solution_hydrogens   difmap
_atom_sites_solution_primary     direct
_atom_sites_solution_secondary   difmap
_audit_creation_method           SHELXL-2014
_audit_update_record
;
2018-03-08 deposited with the CCDC.	2020-11-27 downloaded from the CCDC.
;
_cell_angle_alpha                90
_cell_angle_beta                 91.2214(1)
_cell_angle_gamma                90
_cell_formula_units_Z            2
_cell_length_a                   9.4437(1)
_cell_length_b                   8.5227(1)
_cell_length_c                   4.0482(1)
_cell_measurement_reflns_used    4004
_cell_measurement_temperature    90
_cell_measurement_theta_max      30.334
_cell_measurement_theta_min      3.220
_cell_volume                     325.749(10)
_computing_cell_refinement       HKL2000
_computing_data_collection       CrystalClear
_computing_data_reduction        HKL2000
_computing_molecular_graphics    SV
_computing_publication_material  'SHELXL-2014 (Sheldrick, 2014)'
_computing_structure_refinement  'SHELXL-2014 (Sheldrick, 2014)'
_computing_structure_solution    SIR2004
_diffrn_ambient_temperature      90
_diffrn_detector_area_resol_mean 7.31
_diffrn_measured_fraction_theta_full 1.000
_diffrn_measured_fraction_theta_max 0.994
_diffrn_measurement_device_type  'Rigaku AFC-8 with Saturn70 CCD'
_diffrn_measurement_method       \w-scan
_diffrn_radiation_type           MoK\a
_diffrn_radiation_wavelength     0.71073
_diffrn_reflns_av_R_equivalents  0.0358
_diffrn_reflns_av_unetI/netI     0.0276
_diffrn_reflns_Laue_measured_fraction_full 1.000
_diffrn_reflns_Laue_measured_fraction_max 0.994
_diffrn_reflns_limit_h_max       13
_diffrn_reflns_limit_h_min       -13
_diffrn_reflns_limit_k_max       12
_diffrn_reflns_limit_k_min       -12
_diffrn_reflns_limit_l_max       5
_diffrn_reflns_limit_l_min       -5
_diffrn_reflns_number            4004
_diffrn_reflns_point_group_measured_fraction_full 1.000
_diffrn_reflns_point_group_measured_fraction_max 0.994
_diffrn_reflns_theta_full        25.242
_diffrn_reflns_theta_max         30.334
_diffrn_reflns_theta_min         3.220
_diffrn_source                   'Fine-focus rotating anode'
_exptl_absorpt_coefficient_mu    6.203
_exptl_absorpt_correction_T_max  0.67326
_exptl_absorpt_correction_T_min  0.63685
_exptl_absorpt_correction_type   multi-scan
_exptl_absorpt_process_details
;
 MULABS - Empirical Correction for Absorption Anisotropy.
 R.H. Blessing, Acta Cryst. (1995), A51, 33-38.
;
_exptl_crystal_colour            colourless
_exptl_crystal_density_diffrn    1.856
_exptl_crystal_description       needle
_exptl_crystal_F_000             176
_exptl_crystal_recrystallization_method 'Re-crystallisation from solvent'
_exptl_crystal_size_max          0.07
_exptl_crystal_size_mid          0.04
_exptl_crystal_size_min          0.03
_refine_diff_density_max         0.340
_refine_diff_density_min         -0.602
_refine_diff_density_rms         0.071
_refine_ls_abs_structure_details
;
 Refined as an inversion twin.
;
_refine_ls_abs_structure_Flack   0.41(2)
_refine_ls_extinction_method     none
_refine_ls_goodness_of_fit_ref   1.083
_refine_ls_hydrogen_treatment    refall
_refine_ls_matrix_type           full
_refine_ls_number_parameters     58
_refine_ls_number_reflns         1031
_refine_ls_number_restraints     2
_refine_ls_restrained_S_all      1.082
_refine_ls_R_factor_all          0.0209
_refine_ls_R_factor_gt           0.0209
_refine_ls_shift/su_max          0.000
_refine_ls_shift/su_mean         0.000
_refine_ls_structure_factor_coef Fsqd
_refine_ls_weighting_details
'w=1/[\s^2^(Fo^2^)+(0.0300P)^2^+0.1262P] where P=(Fo^2^+2Fc^2^)/3'
_refine_ls_weighting_scheme      calc
_refine_ls_wR_factor_gt          0.0520
_refine_ls_wR_factor_ref         0.0520
_reflns_Friedel_coverage         0.988
_reflns_Friedel_fraction_full    1.000
_reflns_Friedel_fraction_max     0.994
_reflns_number_gt                1031
_reflns_number_total             1031
_reflns_threshold_expression     'I > 2\s(I)'
_cod_data_source_file            d0ob02083d2.cif
_cod_data_source_block           CY013
_cod_depositor_comments
'Adding full bibliography for 7157808--7157819.cif.'
_cod_original_sg_symbol_H-M      'C m'
_cod_database_code               7157816
_shelx_space_group_comment
;
The symmetry employed for this shelxl refinement is uniquely defined
by the following loop, which should always be used as a source of
symmetry information in preference to the above space-group names.
They are only intended as comments.
;
_shelx_estimated_absorpt_t_min   0.671
_shelx_estimated_absorpt_t_max   0.836
_shelxl_version_number           2014-3
_shelx_res_file
;
TITL 141203_CY013
CELL 0.71073 9.4437 8.5227 4.0482 90 91.2214 90
ZERR 2 0.0001 0.0001 0.0001 0 0.0001 0
LATT -7
SYMM x, -y, z
SFAC C H N Br
UNIT 14 8 2 2
L.S. 10
FMAP 2
PLAN 10
TEMP -183
SIZE 0.07 0.04 0.03
BOND $H
CONF
ACTA
TWIN
WGHT    0.030000    0.126200
BASF   0.41074
FVAR       2.78411
BR1   4    0.601832    0.500000    0.418578    10.50000    0.02208    0.02669 =
         0.02511    0.00000    0.00412    0.00000
N1    3   -0.075575    0.500000    1.219534    10.50000    0.03077    0.03448 =
         0.03584    0.00000    0.00653    0.00000
C1    1    0.166871    0.500000    0.935269    10.50000    0.02203    0.02465 =
         0.02249    0.00000   -0.00036    0.00000
C2    1    0.230916    0.357406    0.855269    11.00000    0.02245    0.02154 =
         0.02699    0.00203    0.00171   -0.00172
H2    2    0.189399    0.262115    0.939641    11.00000    0.02760
C3    1    0.359685    0.357799    0.695435    11.00000    0.02444    0.02142 =
         0.02658   -0.00120    0.00153    0.00048
H3    2    0.400994    0.265427    0.650624    11.00000    0.03306
C4    1    0.421684    0.500000    0.618353    10.50000    0.01864    0.02556 =
         0.02072    0.00000    0.00237    0.00000
C5    1    0.031759    0.500000    1.095524    10.50000    0.02539    0.02806 =
         0.02854    0.00000   -0.00141    0.00000
HKLF 4

REM  141203_CY013
REM R1 =  0.0209 for    1031 Fo > 4sig(Fo)  and  0.0209 for all    1031 data
REM     58 parameters refined using      2 restraints

END

WGHT      0.0300      0.1262

REM Highest difference peak  0.340,  deepest hole -0.602,  1-sigma level  0.071
Q1    1   0.6207  0.5000  0.6787  10.50000  0.05    0.34
Q2    1   0.5637  0.5000  0.6801  10.50000  0.05    0.31
Q3    1   0.6373  0.5000  0.1543  10.50000  0.05    0.30
Q4    1   0.6607  0.5932  0.2397  11.00000  0.05    0.30
Q5    1   0.6180  0.6262  0.5659  11.00000  0.05    0.28
Q6    1   0.5400  0.5765  0.6265  11.00000  0.05    0.28
Q7    1   0.2420  0.5000  0.7273  10.50000  0.05    0.28
Q8    1   0.5845  0.6265  0.2760  11.00000  0.05    0.26
Q9    1  -0.0355  0.5000  1.1086  10.50000  0.05    0.23
Q10   1  -0.0820  0.6248  1.0616  11.00000  0.05    0.22
;
_shelx_res_checksum              11947
_shelx_hkl_file
;
 -13   3   0  366.92   59.73
 -13   1  -1 1090.56  101.46
 -13  -1  -1 1132.40  100.92
 -13   1   0  906.18   99.63
 -13  -1   0  770.14   81.51
 -13  -1   1  622.86   71.77
 -13   1   1  836.85  106.90
 -12   4  -1 1015.55   98.26
 -12   4   0 1843.33  150.16
 -12  -4   0 1638.04  131.19
 -12   2  -2  619.99   80.41
 -12   2  -1 1454.65  116.07
 -12  -2  -1 1240.65   91.52
 -12  -2   0 1967.67  134.65
 -12   2   0 2355.80  175.48
 -12   0  -2  271.78   63.27
 -12   0  -1 1593.54  126.82
 -12   0   0 1873.26  148.11
 -12   0   1 2047.14  139.79
 -12   0   2  765.66   90.69
 -12   0   2  700.94   82.44
 -12   2   1 1056.72   92.84
 -12  -2   1 1156.98  103.69
 -12   2   1 1149.74  104.37
 -12  -2   1 1061.14   84.71
 -12   2   2 1099.17  121.35
 -12  -2   2 1046.95   99.47
 -12   2   2 1238.95  141.56
 -12  -2   2 1233.62  113.29
 -12   4   1  605.36   77.46
 -12   4   1  640.94   83.29
 -11   5  -2  684.49   79.14
 -11  -5  -1  882.96  101.72
 -11   5  -1 1067.67   95.13
 -11   5  -1  910.21   80.23
 -11   5   0 1682.61  132.36
 -11   5   0 1462.35   94.52
 -11  -5   0 1413.97  122.86
 -11   3  -2 1147.85  110.53
 -11  -3  -1 1774.96  109.93
 -11   3  -1 2246.97  147.06
 -11  -3   0 2047.26  131.81
 -11  -3   0 1782.64  111.89
 -11   3   0 1731.53  110.57
 -11   3   0 2004.00  130.89
 -11  -1  -2 1731.59  105.29
 -11   1  -2 1477.17  147.59
 -11   1  -1 1066.18  107.13
 -11  -1  -1 1065.75   83.93
 -11  -1   0 3023.29  171.82
 -11   1   0 2563.66  144.06
 -11   1   0 2923.27  209.49
 -11   1   1 3160.54  214.58
 -11   1   1 3034.42  183.82
 -11  -1   1 2922.28  179.02
 -11  -1   1 3136.49  200.95
 -11   1   2 2761.75  216.85
 -11  -1   2 2330.10  194.16
 -11  -1   2 2688.16  190.75
 -11   1   2 2625.35  186.72
 -11   1   3  706.11   81.78
 -11  -1   3  770.52   81.64
 -11  -1   3  587.45   92.96
 -11  -3   1 2846.61  200.89
 -11   3   1 2887.11  182.46
 -11   3   1 2787.05  177.77
 -11  -3   1 2439.03  141.07
 -11  -3   2  867.03   79.23
 -11   3   2 1122.77  114.66
 -11   3   2 1037.62  128.12
 -11  -3   2  924.24   91.51
 -11  -3   2 1116.57   97.43
 -11   3   3 1597.99  159.18
 -11   3   3 1411.77  128.59
 -11  -3   3 1512.63  131.79
 -11  -3   3 1418.82  150.34
 -11   5   1 1744.30  139.87
 -11  -5   1 1790.20  150.33
 -11   5   1 1894.39  126.70
 -11  -5   2 1037.48   99.40
 -11   5   2  923.16  103.77
 -11   5   2  990.58   93.61
 -10   8   0  520.78   61.79
 -10  -8   0  519.09   69.22
 -10   8   0  464.96   64.33
 -10   6  -2  831.35   91.31
 -10   6  -1 1625.26  125.16
 -10   6  -1 2017.18  122.92
 -10   6   0 1214.41  107.17
 -10   6   0 1011.00   88.84
 -10  -6   0 1020.11   88.16
 -10   4  -3 1170.62  102.19
 -10   4  -2 1180.01  109.57
 -10   4  -1 2836.10  192.05
 -10  -4  -1 2625.34  186.51
 -10   4  -1 2524.90  137.74
 -10  -4   0 3422.65  204.94
 -10   4   0 3180.76  183.34
 -10  -4   0 2893.30  144.76
 -10   4   0 3592.22  214.53
 -10   2  -3  847.91   67.62
 -10   2  -2 1490.43  127.53
 -10  -2  -1 3489.17  178.98
 -10   2  -1 3334.55  194.34
 -10   2  -1 3122.87  159.05
 -10   2   0 3643.39  211.44
 -10  -2   0 3198.10  208.95
 -10   2   0 3197.58  180.35
 -10  -2   0 3336.07  199.13
 -10   0  -2 2267.31  127.09
 -10   0  -2 2419.97  181.59
 -10   0  -1 4467.00  252.67
 -10   0   0 2807.75  159.32
 -10   0   1 4309.48  224.00
 -10   0   1 4047.62  197.39
 -10   0   2 3121.25  207.40
 -10   0   2 3196.97  203.93
 -10   0   3 2812.69  183.85
 -10   0   3 2913.89  234.18
 -10   2   1 3680.02  210.06
 -10  -2   1 3421.28  184.47
 -10  -2   1 3051.55  154.63
 -10   2   1 3352.67  183.50
 -10  -2   1 3641.23  193.85
 -10  -2   2 2758.71  161.49
 -10  -2   2 2812.47  181.49
 -10   2   2 3157.60  197.22
 -10   2   2 2843.52  189.10
 -10  -2   2 2698.98  208.33
 -10  -2   3 1706.72  152.44
 -10  -2   3 1614.56  140.86
 -10   2   3 1566.46  133.65
 -10  -2   3 1540.40  130.29
 -10   2   3 1870.67  173.89
 -10  -4   1 2051.02  117.08
 -10   4   1 2684.95  164.05
 -10  -4   1 2393.72  183.79
 -10  -4   1 2164.58  130.24
 -10  -4   2 1834.24  140.37
 -10   4   2 2270.55  156.55
 -10  -4   2 2329.64  173.75
 -10   4   2 2179.72  208.05
 -10   4   3 1026.31  126.01
 -10   4   3 1056.09  109.97
 -10  -4   3  943.41  113.31
 -10  -4   3  818.93   99.81
 -10   6   1 2031.44  136.49
 -10  -6   1 1754.19  148.33
 -10   6   1 1883.94  140.51
 -10  -6   2 1326.78  112.66
 -10   6   2 1262.05  125.33
 -10  -6   2 1009.13   90.63
 -10   6   2 1352.75  135.70
  -9   7  -2  357.49   46.71
  -9   7  -2  414.99   62.88
  -9   7  -2  421.54   55.46
  -9   7  -1 1445.83  117.14
  -9   7  -1 1506.70  100.50
  -9  -7  -1 1427.65  103.30
  -9   7   0 2362.84  148.90
  -9  -7   0 2316.30  156.30
  -9   5  -3 1030.95   90.06
  -9   5  -3  845.89   85.89
  -9   5  -2 1970.41  112.44
  -9   5  -2 1810.78  109.50
  -9   5  -2 1787.63  122.99
  -9  -5  -1 1280.47   97.80
  -9   5  -1 1063.18   84.56
  -9   5  -1 1074.47   75.11
  -9   5  -1 1154.32   93.29
  -9   5   0 4004.42  241.39
  -9   5   0 3815.06  219.19
  -9  -5   0 3571.40  235.65
  -9   3  -3 1338.66  107.92
  -9   3  -2 3891.04  196.40
  -9   3  -2 3614.74  191.89
  -9   3  -2 4138.86  256.23
  -9   3  -1 1214.37   83.08
  -9  -3  -1 1277.74   85.56
  -9  -3  -1 1593.40  111.46
  -9   3  -1 1444.90  119.37
  -9   3  -1 1395.77   74.92
  -9   3   0 6045.60  278.76
  -9  -3   0 5514.58  271.89
  -9   3   0 5718.42  280.90
  -9  -3   0 6227.25  295.74
  -9   1  -4  900.21   95.57
  -9  -1  -4  794.22   87.11
  -9   1  -3 2058.63  133.38
  -9  -1  -3 2117.61  127.41
  -9  -1  -2 1934.27  108.65
  -9   1  -2 1904.22  108.07
  -9   1  -2 2121.93  129.91
  -9  -1  -2 1906.40  131.03
  -9  -1  -1 3636.40  171.96
  -9   1  -1 3362.24  144.77
  -9   1  -1 3400.69  193.76
  -9  -1   0 6960.50  321.02
  -9   1   0 7006.92  303.44
  -9  -1   0 6351.20  277.36
  -9  -1   0 6477.64  300.65
  -9   1   0 6449.39  291.78
  -9  -1   1 4804.69  230.00
  -9  -1   1 5113.47  265.52
  -9   1   1 5030.75  269.76
  -9   1   1 5475.84  275.79
  -9  -1   1 5084.62  250.67
  -9  -1   2 4599.79  251.35
  -9   1   2 4832.12  261.70
  -9  -1   2 4721.72  255.58
  -9  -1   2 4874.70  268.56
  -9   1   2 4542.96  249.35
  -9  -1   3 2319.57  173.50
  -9   1   3 2251.54  159.21
  -9   1   3 2388.10  163.89
  -9   1   3 2226.33  167.88
  -9  -1   3 2253.42  160.72
  -9  -1   4 1626.02  140.20
  -9  -1   4 1627.08  154.93
  -9   1   4 1587.68  143.58
  -9  -1   4 1478.01  128.18
  -9   3   1 5873.51  299.82
  -9  -3   1 5720.09  286.25
  -9  -3   1 5009.80  250.66
  -9  -3   1 5362.98  243.95
  -9  -3   2 3412.82  201.46
  -9   3   2 3743.21  225.01
  -9  -3   2 3644.19  197.70
  -9   3   2 3877.92  254.79
  -9  -3   3 1613.75  127.25
  -9   3   3 1790.17  146.21
  -9   3   3 1494.70  156.33
  -9  -3   3 1721.15  149.89
  -9  -3   3 1589.08  103.67
  -9   3   4 1022.02  114.94
  -9  -3   4  780.21   87.70
  -9   3   4 1038.87  103.50
  -9  -3   4  866.42  100.62
  -9  -5   1 2767.96  148.43
  -9   5   1 3719.15  220.60
  -9   5   1 3585.60  230.99
  -9  -5   1 3314.68  201.46
  -9  -5   2 2247.11  157.47
  -9  -5   2 2518.13  182.79
  -9   5   2 2951.87  183.04
  -9  -5   3 1108.67  122.80
  -9   5   3 1216.21  116.61
  -9   5   3 1181.31  131.60
  -9  -5   3 1130.71  123.19
  -9   7   1 1546.16  123.64
  -9  -7   1 1162.06  121.65
  -9   7   1 1626.59  116.01
  -9   7   2 1700.83  129.42
  -9   7   2 1497.85  129.59
  -9  -7   2 1454.80   99.62
  -9  -7   2 1593.91  160.05
  -8   8  -2  902.56  102.34
  -8   8  -2  833.86   73.16
  -8   8  -2  982.55   92.73
  -8   8  -1 1005.47   76.58
  -8   8  -1 1125.16   99.73
  -8  -8  -1  887.97   77.36
  -8   8  -1 1044.02   94.26
  -8  -8   0 1186.31  109.00
  -8   8   0 1006.11   87.41
  -8   8   0 1463.14  109.79
  -8   6  -3 1134.44  102.39
  -8   6  -3 1347.64  109.01
  -8  -6  -3 1253.62  130.95
  -8   6  -2 2113.19  153.12
  -8   6  -2 2004.98  136.57
  -8  -6  -2 1847.08  117.58
  -8   6  -2 1997.29  130.78
  -8   6  -1 2118.18  134.74
  -8   6  -1 2222.23  139.02
  -8  -6  -1 2220.61  145.56
  -8   6  -1 2339.53  131.01
  -8  -6   0 2195.02  147.45
  -8  -6   0 2012.10  104.31
  -8   6   0 2510.48  139.99
  -8   6   0 2393.19  125.94
  -8   4  -4  391.57   62.21
  -8   4  -3 1904.53  125.53
  -8   4  -2 2936.37  180.56
  -8   4  -2 2781.98  147.82
  -8   4  -2 3192.00  201.58
  -8   4  -1 7554.12  330.28
  -8   4  -1 7515.28  335.31
  -8  -4  -1 7396.61  327.06
  -8   4  -1 7266.57  326.21
  -8  -4   0  725.03   72.13
  -8   4   0  622.67   59.59
  -8   4   0  691.08   52.81
  -8   4   0  717.70   72.27
  -8  -4   0  676.38   43.98
  -8  -2  -4  686.11   79.55
  -8   2  -4  712.29   70.89
  -8   2  -3 2657.84  148.78
  -8  -2  -3 2669.58  174.33
  -8   2  -2 4182.84  192.35
  -8   2  -2 4096.05  206.92
  -8   2  -1 7173.62  336.59
  -8   2  -1 6847.87  305.32
  -8   2  -1 7076.77  293.27
  -8  -2  -1 7159.21  315.62
  -8   2   0 2466.84  149.55
  -8  -2   0 2388.69  136.74
  -8   2   0 2349.93  125.31
  -8   2   0 2211.38   71.90
  -8  -2   0 2290.28  122.93
  -8   0  -4 1013.83  104.03
  -8   0  -3 3143.17  183.12
  -8   0  -2 5060.92  215.53
  -8   0  -2 5111.26  240.21
  -8   0  -1 3953.75  168.86
  -8   0  -1 4049.57  191.54
  -8   0   0 6291.71  252.65
  -8   0   0 6859.03  312.38
  -8   0   1 7377.26  364.11
  -8   0   1 6904.17  323.79
  -8   0   2 5893.46  279.96
  -8   0   2 6488.54  335.58
  -8   0   2 6468.72  329.13
  -8   0   3 4462.54  249.81
  -8   0   3 4676.91  270.14
  -8   0   3 4622.75  263.62
  -8   0   4 1816.22  158.12
  -8   0   4 1684.27  127.21
  -8   0   4 1706.33  146.52
  -8   2   1 7143.33  361.68
  -8  -2   1 7073.05  343.44
  -8  -2   1 7030.15  294.98
  -8  -2   1 7541.81  309.24
  -8   2   1 7818.17  360.35
  -8   2   2 6405.24  302.63
  -8  -2   2 6046.83  338.72
  -8  -2   2 6491.12  299.62
  -8  -2   2 6264.79  295.67
  -8   2   2 6245.99  325.96
  -8  -2   3 3859.25  215.22
  -8  -2   3 4208.55  260.36
  -8  -2   3 4411.09  225.71
  -8   2   3 4210.49  257.98
  -8  -2   4 1146.25   92.42
  -8   2   4 1145.65  121.95
  -8   2   4 1348.97  128.46
  -8  -2   4 1157.72  113.33
  -8  -2   4 1186.80  117.47
  -8  -4   1 6232.49  314.74
  -8  -4   1 6061.66  245.65
  -8   4   1 5909.47  225.88
  -8  -4   1 6071.43  267.06
  -8   4   1 6784.68  323.56
  -8  -4   2 5240.68  274.04
  -8   4   2 5453.46  329.76
  -8  -4   2 4849.32  247.54
  -8  -4   2 4817.74  256.12
  -8   4   2 5316.32  263.95
  -8   4   3 3326.80  216.54
  -8  -4   3 3135.72  163.37
  -8  -4   3 3404.80  205.32
  -8  -4   3 3316.10  219.39
  -8   4   3 3567.75  231.96
  -8   4   4  735.39   89.14
  -8  -4   4  667.47   80.47
  -8   4   4  736.06  112.58
  -8   6   1 2989.26  179.01
  -8   6   1 3281.06  189.55
  -8  -6   1 2905.12  142.99
  -8  -6   1 3128.29  167.38
  -8   6   2 2817.67  167.15
  -8  -6   2 2431.02  181.42
  -8  -6   2 2743.94  202.04
  -8   6   3 2056.27  163.39
  -8   6   3 2056.48  165.26
  -8  -6   3 2069.80  154.05
  -8  -6   3 2155.77  151.29
  -8   8   1 1526.77  118.45
  -8   8   1 1539.53  114.55
  -8  -8   1 1369.15   97.07
  -8  -8   1 1785.61  121.71
  -8   8   2 1366.20  100.06
  -8  -8   2 1360.76  138.24
  -8  -8   2 1322.82  124.05
  -7   9  -2  920.35   96.47
  -7   9  -2 1024.34  107.25
  -7  -9  -2  931.52   94.20
  -7   9  -2  860.30   97.83
  -7  -9  -1 1092.16   81.95
  -7   9  -1 1070.56   90.71
  -7   9  -1 1032.79   98.72
  -7   9   0 1900.80  130.65
  -7   9   0 2069.71  140.09
  -7  -9   0 2059.65  157.86
  -7   9   0 2042.59  125.71
  -7   7  -3  808.05   86.75
  -7  -7  -3  782.88   85.93
  -7  -7  -2 2428.00  152.53
  -7  -7  -2 2505.34  172.36
  -7   7  -2 2760.92  158.94
  -7   7  -2 2467.95  164.34
  -7   7  -2 2588.23  150.67
  -7   7  -1 2629.53  184.74
  -7  -7  -1 2604.07  145.01
  -7   7  -1 2642.94  129.39
  -7   7  -1 2469.80  143.16
  -7  -7   0 2774.95  168.89
  -7  -7   0 2355.30  119.63
  -7   7   0 2782.34  159.20
  -7   7   0 2713.15  153.66
  -7   5  -4  568.35   70.70
  -7  -5  -3 1155.57   93.55
  -7   5  -3 1278.24   86.39
  -7  -5  -2 3679.49  190.74
  -7   5  -2 4121.06  212.05
  -7   5  -2 4118.21  196.98
  -7   5  -2 3786.43  182.33
  -7  -5  -2 3778.62  220.52
  -7   5  -1 4706.81  231.05
  -7   5  -1 4802.30  246.34
  -7  -5  -1 4862.14  231.17
  -7   5  -1 4861.58  246.37
  -7  -5   0 7418.06  369.92
  -7   5   0 7867.89  294.53
  -7  -5   0 6944.41  276.47
  -7   5   0 7714.33  339.11
  -7   5   0 7506.64  354.02
  -7   3  -4 1266.10  108.23
  -7  -3  -4 1433.76  119.02
  -7  -3  -3 1465.97  111.73
  -7   3  -3 1616.50  118.09
  -7   3  -2 4919.56  226.66
  -7   3  -2 5194.38  265.38
  -7   3  -2 5161.15  233.03
  -7   3  -1 7889.70  308.52
  -7   3  -1 7299.27  282.82
  -7  -3  -1 7683.56  367.14
  -7   3  -1 7815.62  356.36
  -7   3  -1 6380.43  270.58
  -7  -3  -1 7501.59  314.62
  -7   3   014368.43  540.99
  -7  -3   013555.71  508.73
  -7   3   014465.38  596.61
  -7   3   013961.96  490.73
  -7  -3   014738.50  523.96
  -7   1  -4  970.27  102.04
  -7  -1  -4 1051.84  104.20
  -7   1  -3 2541.00  163.99
  -7  -1  -3 2632.17  160.17
  -7  -1  -2 7515.54  344.81
  -7   1  -2 7368.30  338.83
  -7  -1  -2 7699.66  358.41
  -7   1  -2 7558.04  363.07
  -7   1  -1 8037.92  315.44
  -7   1  -1 7908.12  317.91
  -7   1  -1 8305.95  328.80
  -7  -1  -1 8676.40  363.09
  -7  -1   0 9526.97  429.39
  -7  -1   0 9417.77  368.69
  -7   1   0 9794.02  406.59
  -7  -1   010019.22  389.85
  -7  -1   1 7288.28  318.46
  -7   1   1 7184.20  322.31
  -7  -1   1 7172.58  332.68
  -7  -1   1 6826.57  311.21
  -7   1   1 7197.15  313.20
  -7   1   1 6882.34  314.46
  -7  -1   2 4303.19  173.38
  -7  -1   2 5282.99  268.98
  -7   1   2 4957.86  228.98
  -7   1   2 4706.43  166.88
  -7  -1   2 4982.73  247.24
  -7   1   2 4949.28  230.99
  -7   1   3 4709.47  205.49
  -7  -1   3 5468.64  285.67
  -7  -1   3 5008.39  239.48
  -7  -1   3 5493.30  275.42
  -7   1   3 4958.99  241.85
  -7   1   3 5261.44  266.82
  -7   1   4 3298.57  225.24
  -7   1   4 2736.99  139.66
  -7  -1   4 2795.49  171.97
  -7  -1   4 3327.76  211.54
  -7  -1   4 3559.45  223.35
  -7  -3   1 1136.76   73.40
  -7  -3   1  879.81   47.96
  -7   3   1 1052.08   54.66
  -7  -3   1 1105.18   69.60
  -7   3   1 1160.66   97.92
  -7  -3   1 1043.09   57.42
  -7   3   1 1149.56   88.35
  -7  -3   2 6143.31  300.19
  -7  -3   2 6259.43  304.88
  -7   3   2 6757.70  300.12
  -7  -3   2 6537.35  300.68
  -7   3   2 6349.72  325.64
  -7  -3   3 4596.30  235.08
  -7  -3   3 4527.94  227.32
  -7   3   3 4076.77  205.58
  -7   3   3 4842.64  258.74
  -7   3   3 4657.48  277.82
  -7  -3   3 4469.53  255.58
  -7   3   4 3040.38  237.65
  -7  -3   4 2762.34  201.33
  -7  -3   4 2758.82  195.72
  -7   3   4 2945.92  211.51
  -7  -5   1 1744.96   92.32
  -7   5   1 1927.82  133.61
  -7   5   1 1868.10  107.01
  -7  -5   1 1811.86  144.25
  -7  -5   1 1617.51   72.98
  -7   5   1 1826.48  112.54
  -7   5   2 3865.15  218.68
  -7   5   2 3145.25  193.44
  -7  -5   2 3339.10  188.05
  -7  -5   2 3338.82  152.04
  -7   5   2 3723.93  219.54
  -7  -5   2 3741.28  227.61
  -7   5   3 3613.62  228.03
  -7  -5   3 2782.33  149.51
  -7  -5   3 3036.73  176.63
  -7  -5   3 2940.25  198.87
  -7   5   3 3011.83  210.54
  -7   5   4 2119.68  181.69
  -7  -5   4 2099.93  151.42
  -7   5   4 1866.20  166.22
  -7  -7   1 3166.25  201.77
  -7   7   1 3101.32  161.34
  -7  -7   1 2876.35  169.32
  -7   7   1 3406.86  185.81
  -7   7   1 3259.61  173.76
  -7  -7   2 1422.04  135.55
  -7   7   2 1517.83  114.84
  -7   7   2 1420.11  123.71
  -7   7   2 1243.77   93.78
  -7  -7   3 1689.27  146.46
  -7   7   3 1728.07  142.66
  -7   7   3 1506.81  139.44
  -7  -7   3 1615.99  123.90
  -7  -9   1  407.01   59.42
  -7   9   1  411.30   55.04
  -7   9   1  326.87   53.60
  -7   9   2 1137.33  113.47
  -7   9   2  977.77   85.13
  -7  -9   2  801.77  105.05
  -7  -9   2  896.47  107.23
  -6 -10  -1  827.55   83.50
  -6 -10  -1  777.62   80.73
  -6  10  -1  744.27   94.92
  -6  10  -1  945.19   88.62
  -6  10  -1  718.78   75.32
  -6  10   0 1439.26  105.32
  -6 -10   0 1523.80  126.03
  -6  10   0 1326.58  124.16
  -6  -8  -3  565.59   77.79
  -6   8  -3  597.64   83.84
  -6   8  -2 1182.91   95.47
  -6   8  -2 1039.68  102.72
  -6   8  -2 1291.89  111.24
  -6  -8  -2 1152.42  101.90
  -6   8  -1 3112.81  177.42
  -6  -8  -1 3234.42  183.43
  -6   8  -1 3501.22  194.05
  -6  -8  -1 3400.88  226.46
  -6   8  -1 3465.05  215.51
  -6   8   0 2388.25  162.60
  -6   8   0 2263.35  118.03
  -6  -8   0 2065.63  150.79
  -6   8   0 2217.19  129.01
  -6  -8   0 1870.74  123.89
  -6  -6  -4  344.81   64.26
  -6   6  -4  346.57   65.22
  -6  -6  -3 1314.16  114.72
  -6   6  -3 1171.93  115.09
  -6   6  -2 2325.38  137.44
  -6   6  -2 2377.93  146.82
  -6   6  -2 2494.33  138.95
  -6  -6  -2 2411.68  173.08
  -6  -6  -2 2232.88  119.01
  -6   6  -1 5699.06  275.74
  -6  -6  -1 6261.44  311.16
  -6   6  -1 5666.64  299.94
  -6  -6  -1 5872.26  358.34
  -6   6  -1 6052.24  302.47
  -6   6   0 4565.67  226.32
  -6   6   0 4491.97  232.64
  -6  -6   0 4282.72  178.75
  -6   6   0 4605.71  219.66
  -6  -6   0 4252.88  235.52
  -6  -4  -4 1523.11  109.45
  -6   4  -4 1768.68  141.66
  -6   4  -3 2271.12  148.48
  -6  -4  -3 2121.69  130.93
  -6  -4  -2 3175.51  179.54
  -6   4  -2 3166.51  170.88
  -6   4  -2 2992.82  158.22
  -6   4  -2 2938.31  164.55
  -6   4  -1 7326.03  284.20
  -6  -4  -1 7545.00  333.14
  -6   4  -1 6414.83  242.69
  -6   4  -1 7500.25  309.80
  -6   4  -1 7402.96  339.20
  -6   4   011125.23  507.69
  -6  -4   010072.65  371.57
  -6  -4   010503.78  427.85
  -6  -4   0 8458.00  361.16
  -6   4   010694.51  451.85
  -6   4   011026.95  432.83
  -6  -2  -4 1521.57  133.08
  -6   2  -4 1668.15  123.99
  -6   2  -3 2791.50  163.40
  -6  -2  -3 2402.74  126.49
  -6  -2  -3 3109.88  173.05
  -6  -2  -2 4175.53  199.13
  -6   2  -2 4070.31  223.13
  -6  -2  -2 4460.58  219.85
  -6   2  -2 4488.72  230.10
  -6   2  -110194.75  388.27
  -6   2  -110883.50  434.58
  -6  -2  -110360.17  406.49
  -6   2  -110415.13  426.89
  -6  -2  -110815.22  461.14
  -6   2  -110530.81  409.30
  -6   2   011745.10  474.81
  -6  -2   012250.70  508.96
  -6  -2   012526.85  473.28
  -6  -2   012260.87  478.15
  -6   2   012976.55  451.60
  -6   2   012798.43  521.73
  -6   0  -5 2094.08  169.49
  -6   0  -4  711.69   92.62
  -6   0  -3 3419.33  206.76
  -6   0  -2 4881.54  221.18
  -6   0  -2 5059.08  236.02
  -6   0  -117623.89  754.60
  -6   0  -117269.39  670.06
  -6   0   010180.12  448.53
  -6   0   0 9885.20  397.72
  -6   0   113474.39  535.91
  -6   0   113290.84  511.78
  -6   0   114316.95  538.32
  -6   0   210377.16  446.63
  -6   0   210430.96  426.72
  -6   0   2 9916.08  425.70
  -6   0   2 9055.26  369.39
  -6   0   3 2535.96  152.20
  -6   0   3 2571.74  167.73
  -6   0   3 2587.76  165.83
  -6   0   4 3335.73  230.21
  -6   0   4 3103.78  209.03
  -6   0   4 3077.77  157.54
  -6   0   5 1703.32  144.19
  -6   0   5 1340.17  137.98
  -6  -2   115369.94  553.44
  -6   2   115600.61  616.64
  -6  -2   114035.55  515.77
  -6   2   114669.50  463.08
  -6  -2   115050.18  582.42
  -6  -2   115535.89  628.86
  -6   2   2 4683.90  261.30
  -6  -2   2 4664.47  236.08
  -6   2   2 4988.33  230.89
  -6  -2   2 4711.79  233.11
  -6  -2   2 4709.94  215.29
  -6  -2   2 4114.94  178.56
  -6   2   2 4205.07  169.67
  -6   2   2 4828.10  187.52
  -6  -2   3 3981.88  201.31
  -6  -2   3 3807.16  176.13
  -6   2   3 3374.03  155.35
  -6  -2   3 3497.50  178.47
  -6   2   3 3701.09  234.02
  -6   2   4 3011.71  202.91
  -6   2   4 2496.89  140.33
  -6  -2   4 3038.72  188.41
  -6  -2   4 2789.17  166.05
  -6   2   4 3069.58  193.94
  -6  -2   4 2888.70  167.06
  -6  -2   5 1636.80  153.11
  -6   2   5 1560.50  143.15
  -6  -2   5 1533.45  143.55
  -6   2   5 1587.91  118.31
  -6  -4   113682.33  485.14
  -6   4   114792.26  615.09
  -6  -4   113297.10  516.21
  -6   4   113934.12  514.68
  -6  -4   114208.84  582.03
  -6   4   112336.59  475.21
  -6   4   113891.80  526.73
  -6  -4   2 2094.94  118.30
  -6   4   2 2089.06  159.63
  -6   4   2 1977.34  107.87
  -6  -4   2 2149.83  136.24
  -6   4   2 2190.12  122.49
  -6  -4   2 2004.23  126.38
  -6  -4   3 3868.50  193.06
  -6  -4   3 3911.91  197.57
  -6   4   3 3758.60  223.43
  -6  -4   3 4121.88  233.90
  -6   4   3 3661.67  188.04
  -6  -4   4 2024.63  130.89
  -6   4   4 2226.82  153.20
  -6   4   4 2323.03  175.96
  -6   4   4 2018.33  116.56
  -6  -4   4 2018.57  132.91
  -6   6   1 5495.55  243.80
  -6   6   1 5763.38  253.05
  -6   6   1 5947.92  294.12
  -6  -6   1 5643.23  262.47
  -6   6   2 4257.66  237.52
  -6   6   2 3874.40  221.47
  -6  -6   2 4052.85  233.14
  -6  -6   2 3943.11  222.48
  -6   6   2 4038.49  207.40
  -6   6   3 1121.30   91.89
  -6   6   3 1184.55  120.30
  -6  -6   3  946.25   98.34
  -6  -6   3 1229.30   99.19
  -6   6   3 1029.27   96.27
  -6   6   4 1186.85  114.65
  -6   6   4 1520.46  125.57
  -6  -6   4 1482.56  147.82
  -6  -6   4 1297.18  113.16
  -6   8   1 3078.21  169.78
  -6   8   1 2681.75  185.99
  -6  -8   1 2870.01  171.23
  -6  -8   1 2636.87  170.42
  -6   8   2 1875.69  130.93
  -6  -8   2 1889.56  161.80
  -6  -8   2 2002.52  143.46
  -6   8   2 1952.05  157.20
  -6   8   2 2092.43  154.18
  -6  -8   3  590.53   78.46
  -6   8   3  606.56   77.25
  -6   8   3  440.68   58.61
  -6  -8   3  646.58   79.44
  -6   8   3  565.76   82.88
  -6  10   1 2093.22  149.02
  -6 -10   1 1962.24  158.27
  -6 -10   1 1845.99  132.16
  -6  10   1 1982.92  148.30
  -6 -10   2  202.45   65.62
  -6  10   2  193.54   50.22
  -6  10   2  185.20   41.16
  -5  11   0  611.71   73.84
  -5 -11   0  581.01   80.36
  -5  -9  -3  743.56  106.04
  -5   9  -3  814.44   90.21
  -5   9  -2  917.06   95.02
  -5  -9  -2 1009.42  114.31
  -5   9  -2  707.68   71.75
  -5   9  -2  931.29   91.78
  -5   9  -1 1235.03  116.67
  -5   9  -1 1159.82   91.78
  -5  -9  -1 1396.49   94.15
  -5  -9  -1 1287.75  104.53
  -5  -9  -1 1148.79   85.44
  -5  -9   0 2137.60  121.63
  -5   9   0 2491.60  179.72
  -5   9   0 2562.44  145.10
  -5  -9   0 2564.50  163.10
  -5   7  -4 1937.24  163.67
  -5  -7  -4 1963.37  176.71
  -5  -7  -3  655.76   84.88
  -5   7  -2 2581.13  174.78
  -5  -7  -2 2390.08  134.32
  -5   7  -2 2628.77  177.50
  -5  -7  -2 2678.59  193.01
  -5   7  -2 2703.95  186.14
  -5  -7  -1 2947.81  189.05
  -5  -7  -1 2792.70  129.10
  -5   7  -1 2818.03  159.09
  -5   7  -1 3085.22  172.55
  -5  -7  -1 2750.37  155.65
  -5   7   0 6970.50  272.91
  -5  -7   0 6421.46  315.59
  -5   7   0 6793.12  301.90
  -5   5  -4 2009.10  153.14
  -5  -5  -4 1659.87  130.76
  -5  -5  -3 2982.78  173.81
  -5   5  -3 3395.45  199.89
  -5   5  -2 3257.88  192.50
  -5  -5  -2 3692.44  209.89
  -5   5  -2 3576.28  218.96
  -5  -5  -2 3494.78  160.15
  -5   5  -2 3597.86  196.41
  -5   5  -1 4960.40  242.47
  -5   5  -1 5500.95  232.93
  -5   5  -1 4283.23  183.92
  -5  -5  -1 4638.73  211.31
  -5  -5  -1 4988.50  289.59
  -5  -5  -1 4144.08  178.87
  -5  -5  -1 4758.15  212.92
  -5   5   0 8608.11  339.09
  -5   5   0 8548.31  363.89
  -5  -5   0 8350.73  389.09
  -5  -3  -5  715.55   91.51
  -5   3  -5  613.04   75.32
  -5   3  -4 2021.44  156.58
  -5  -3  -4 1776.28  143.34
  -5  -3  -4 1628.85  107.43
  -5  -3  -3 7019.24  330.68
  -5   3  -3 7435.60  348.64
  -5  -3  -3 6392.88  280.92
  -5  -3  -2 4718.06  242.25
  -5   3  -2 4521.51  249.07
  -5   3  -2 4529.55  254.78
  -5   3  -2 4537.13  229.96
  -5   3  -1 7620.49  303.51
  -5  -3  -1 7194.45  316.21
  -5   3  -1 7375.27  331.69
  -5   3  -1 7235.43  328.67
  -5  -3  -1 7506.04  360.44
  -5   3  -1 6803.08  283.04
  -5  -3   0 9792.68  380.97
  -5   3   010051.38  367.99
  -5   3   010532.16  422.71
  -5  -3   0 8936.77  364.44
  -5  -3   010215.55  415.33
  -5   3   010590.90  432.88
  -5   1  -5  775.51  101.35
  -5  -1  -5  803.19   94.05
  -5   1  -4 5635.39  301.21
  -5  -1  -4 5439.05  319.10
  -5  -1  -3 3170.43  156.11
  -5   1  -3 3236.41  177.96
  -5  -1  -3 2866.85  161.43
  -5  -1  -2 7654.02  312.44
  -5  -1  -2 7063.08  277.42
  -5   1  -2 7476.65  375.44
  -5   1  -2 7137.25  326.13
  -5   1  -1 9264.97  352.89
  -5   1  -1 9724.89  384.14
  -5  -1  -1 9598.59  384.38
  -5   1  -1 9169.58  368.84
  -5  -1  -1 9120.61  375.94
  -5   1   023150.96  883.61
  -5   1   023866.31  774.55
  -5   1   022513.81  747.48
  -5  -1   024395.26  848.76
  -5  -1   023685.64  855.17
  -5  -1   022449.43  835.72
  -5   1   024494.34  823.04
  -5  -1   022379.25  800.13
  -5   1   110147.71  428.05
  -5   1   110236.52  404.30
  -5   1   1 9788.71  431.22
  -5  -1   1 9855.56  398.42
  -5  -1   1 9519.08  336.77
  -5   1   110345.79  322.45
  -5  -1   110062.65  415.83
  -5  -1   110341.31  392.00
  -5   1   212631.16  498.64
  -5  -1   212260.64  544.70
  -5   1   212513.63  512.64
  -5   1   212336.45  488.65
  -5   1   210951.36  423.16
  -5  -1   212645.40  495.06
  -5  -1   212757.71  496.41
  -5   1   3 7332.01  355.35
  -5   1   3 7853.40  317.47
  -5  -1   3 7719.94  370.18
  -5   1   3 8315.39  398.09
  -5  -1   3 7564.86  331.06
  -5   1   4 1688.52  124.25
  -5   1   4 1739.80  121.08
  -5  -1   4 1552.62  115.75
  -5  -1   4 1738.74  134.21
  -5   1   4 1479.77   91.12
  -5   1   5 1380.79  129.27
  -5  -1   5 1316.44  116.54
  -5   1   5 1406.02  124.35
  -5  -1   5 1375.41  116.32
  -5   3   116065.42  610.71
  -5  -3   114888.65  584.25
  -5   3   116525.81  684.09
  -5   3   114950.29  537.44
  -5   3   116989.37  578.18
  -5  -3   115640.86  581.21
  -5  -3   116314.71  641.23
  -5   3   213387.14  540.51
  -5  -3   212723.68  506.32
  -5  -3   213276.27  567.50
  -5   3   212426.64  456.65
  -5   3   210940.27  440.05
  -5  -3   213415.59  520.76
  -5   3   212658.06  474.58
  -5   3   3 3484.56  188.03
  -5  -3   3 3359.94  177.89
  -5   3   3 3675.74  182.79
  -5  -3   3 3469.53  213.01
  -5  -3   3 3298.36  168.27
  -5   3   4 2657.11  181.18
  -5   3   4 2692.99  145.20
  -5  -3   4 2746.07  176.54
  -5  -3   4 2857.39  172.69
  -5  -3   4 2454.22  152.71
  -5   3   5 1023.28  105.82
  -5  -3   5 1082.33  114.72
  -5   3   5 1092.00  102.17
  -5  -5   1 7553.49  327.70
  -5   5   1 8268.60  369.60
  -5   5   1 7962.91  357.24
  -5   5   1 8067.71  368.50
  -5  -5   1 7221.52  255.45
  -5   5   2 7914.30  361.42
  -5  -5   2 7187.78  303.20
  -5  -5   2 7243.05  351.58
  -5   5   2 7754.00  349.10
  -5  -5   2 7156.66  330.69
  -5   5   2 7544.73  320.25
  -5   5   3 3130.68  190.17
  -5  -5   3 3134.31  186.76
  -5   5   3 3408.47  188.31
  -5   5   3 2955.06  164.09
  -5   5   4 1380.58  115.88
  -5  -5   4 1355.59  118.66
  -5  -5   4 1446.80  133.01
  -5  -5   4 1191.97   92.88
  -5   5   4 1205.30   87.88
  -5   7   1 2644.10  160.88
  -5  -7   1 2629.02  173.64
  -5  -7   1 2480.66  145.64
  -5   7   1 2728.18  138.81
  -5   7   1 2660.18  150.53
  -5   7   2 3790.31  215.98
  -5   7   2 3842.51  262.85
  -5   7   2 3765.58  197.69
  -5  -7   2 3891.04  215.14
  -5  -7   3 2906.90  207.23
  -5   7   3 3168.89  207.47
  -5   7   3 2923.24  173.57
  -5  -7   3 3241.60  232.47
  -5  -7   4  392.67   76.06
  -5   7   4  352.97   57.71
  -5   7   4  357.88   60.13
  -5   9   1 1982.77  123.13
  -5  -9   1 2015.27  137.17
  -5  -9   1 2033.48  177.66
  -5   9   2 2179.71  153.53
  -5  -9   2 2167.64  172.44
  -5   9   2 2072.97  147.71
  -5  -9   2 1957.71  163.50
  -5   9   3  806.63   96.71
  -5   9   3  761.37   95.96
  -5  -9   3  720.98  110.56
  -5  -9   3  659.13   82.21
  -5   9   3  608.96   77.85
  -5  11   1 1205.13  133.66
  -5  11   1 1146.43  101.90
  -5 -11   1 1086.59  112.28
  -4 -10  -2 1779.97  147.33
  -4  10  -2 1949.06  144.28
  -4  10  -2 1793.01  183.77
  -4  10  -1  823.72   85.08
  -4 -10  -1  713.15   74.74
  -4 -10  -1  981.93   97.99
  -4  10  -1  964.98   88.97
  -4  10  -1  762.57   74.32
  -4  10   0 1226.39   87.63
  -4  10   0 1404.52  132.52
  -4 -10   0 1265.21  106.10
  -4 -10   0 1362.93  107.74
  -4  10   0 1441.76  124.79
  -4 -10   0 1188.45   95.94
  -4  -8  -3 2592.25  219.15
  -4   8  -3 2262.70  141.62
  -4   8  -2 1390.70  110.26
  -4   8  -2 1881.35  136.86
  -4  -8  -2 1508.31  122.27
  -4   8  -2 1548.29  127.49
  -4  -8  -2 1425.36   85.16
  -4   8  -1 3049.56  160.28
  -4   8  -1 3265.25  189.96
  -4  -8  -1 2924.48  196.63
  -4   8  -1 2877.01  171.86
  -4   8   0 3151.23  152.17
  -4   8   0 2966.60  176.10
  -4  -8   0 3230.66  182.63
  -4   8   0 3227.02  183.00
  -4  -8   0 3254.94  173.82
  -4   6  -4 1253.20  125.92
  -4  -6  -4 1087.07  111.46
  -4   6  -3 4753.37  241.82
  -4  -6  -3 4276.93  277.26
  -4  -6  -2 3319.68  210.24
  -4  -6  -2 3243.75  138.89
  -4   6  -2 3371.54  187.26
  -4   6  -2 3498.65  217.76
  -4   6  -2 3161.51  191.86
  -4   6  -1 5659.13  275.52
  -4  -6  -1 5840.03  329.62
  -4  -6  -1 5969.75  269.34
  -4   6  -1 6003.16  287.96
  -4   6  -1 5858.95  280.67
  -4   6  -1 4823.21  221.39
  -4   6   0 6657.68  252.82
  -4   6   0 6519.95  317.41
  -4  -6   0 5819.87  296.57
  -4  -6   0 6104.31  248.88
  -4   6   0 6531.97  296.49
  -4  -6   0 5879.63  303.93
  -4   4  -5 1361.05  111.92
  -4  -4  -4 1090.74   89.96
  -4   4  -4 1154.55  102.64
  -4   4  -3 3005.80  192.62
  -4  -4  -3 3134.78  172.82
  -4   4  -212562.29  511.38
  -4  -4  -212447.85  557.13
  -4   4  -213359.88  545.30
  -4   4  -212963.61  543.59
  -4  -4  -212350.01  477.86
  -4  -4  -1 6238.47  261.19
  -4   4  -1 5986.21  255.18
  -4   4  -1 6639.26  292.76
  -4   4  -1 6702.94  289.80
  -4   4  -1 6513.88  275.43
  -4  -4  -1 6587.66  317.90
  -4  -4   010095.09  403.69
  -4   4   010245.24  412.86
  -4  -4   0 9394.76  398.70
  -4   4   010795.39  459.47
  -4   4   011122.88  428.20
  -4   4   010689.65  404.82
  -4   2  -5 1135.24  119.34
  -4  -2  -5 1400.08  112.23
  -4  -2  -4 1710.75  101.98
  -4   2  -4 1875.98  134.52
  -4  -2  -4 2182.15  135.52
  -4  -2  -3 5759.10  281.44
  -4  -2  -3 5514.10  248.43
  -4  -2  -212566.96  560.15
  -4  -2  -213243.16  533.49
  -4   2  -213200.64  619.23
  -4   2  -213283.48  505.94
  -4  -2  -110843.23  426.30
  -4   2  -111312.02  436.50
  -4   2  -111178.89  375.08
  -4  -2  -111053.70  461.57
  -4   2  -112644.33  472.59
  -4   2  -110941.04  441.14
  -4  -2  -111122.84  463.90
  -4  -2   014200.11  547.91
  -4   2   015466.38  528.62
  -4   2   014478.17  603.33
  -4  -2   014470.84  567.78
  -4  -2   013835.42  527.37
  -4   0  -5  916.51  104.53
  -4   0  -4 3382.79  210.85
  -4   0  -312719.51  525.10
  -4   0  -312195.12  433.07
  -4   0  -2 5617.83  243.34
  -4   0  -2 5410.43  216.13
  -4   0  -118347.94  711.24
  -4   0  -118841.89  672.66
  -4   0   019175.14  715.45
  -4   0   017354.32  661.82
  -4   0   017515.26  681.80
  -4   0   130698.74 1116.95
  -4   0   131332.93 1048.44
  -4   0   129752.31 1127.10
  -4   0   132016.75 1089.10
  -4   0   2 5299.34  254.80
  -4   0   2 4580.07  207.74
  -4   0   2 5269.77  237.79
  -4   0   2 4875.70  288.24
  -4   0   3 7774.35  363.03
  -4   0   3 7692.42  337.47
  -4   0   4 6082.99  300.29
  -4   0   4 5467.96  254.64
  -4   0   4 5885.40  301.10
  -4   0   5  701.07   97.95
  -4   0   5  627.64   80.71
  -4   2   114655.48  535.40
  -4   2   115104.84  526.50
  -4   2   114136.11  568.03
  -4  -2   114728.52  582.35
  -4   2   113595.67  503.40
  -4  -2   113863.21  514.99
  -4  -2   114446.54  549.18
  -4  -2   114678.06  587.88
  -4  -2   210363.56  537.54
  -4   2   212124.57  494.96
  -4  -2   211402.91  496.01
  -4   2   211580.30  454.29
  -4  -2   212521.66  494.03
  -4  -2   211992.91  490.60
  -4   2   211188.60  446.40
  -4   2   211178.38  421.35
  -4  -2   3 7140.04  326.26
  -4   2   3 6798.44  342.43
  -4   2   3 6696.18  268.23
  -4   2   3 6852.05  366.86
  -4  -2   3 6729.49  338.21
  -4  -2   3 6773.03  333.36
  -4   2   4 3825.89  213.98
  -4  -2   4 3863.93  235.93
  -4  -2   4 3643.35  195.29
  -4   2   4 3715.95  218.37
  -4  -2   4 3585.55  239.33
  -4  -2   5 1278.98  107.76
  -4   2   5 1227.43  127.12
  -4   2   5 1055.22  113.65
  -4  -2   5 1183.26  119.76
  -4  -4   1 8843.33  398.42
  -4  -4   1 8980.03  328.97
  -4  -4   1 9465.59  425.35
  -4   4   1 9282.30  351.97
  -4   4   1 9014.70  356.07
  -4   4   1 9323.47  419.90
  -4   4   212632.07  504.23
  -4  -4   211684.55  459.63
  -4  -4   212545.17  502.70
  -4   4   212318.06  493.86
  -4  -4   212967.06  512.55
  -4   4   211541.35  482.10
  -4  -4   3 5789.10  259.75
  -4   4   3 5652.60  252.79
  -4   4   3 6054.28  278.13
  -4  -4   3 5928.37  268.08
  -4   4   4 2654.88  157.89
  -4  -4   4 2439.83  157.09
  -4   4   4 2421.42  166.27
  -4   4   4 2321.65  147.24
  -4  -4   4 2518.44  165.87
  -4  -4   4 2485.93  162.23
  -4   4   5 1212.27  108.89
  -4  -4   5 1038.31  116.01
  -4   4   5 1315.90  124.47
  -4   4   5 1019.70   91.87
  -4  -4   5 1042.85   93.09
  -4  -6   1 8006.06  348.75
  -4   6   1 7947.47  321.20
  -4   6   1 8440.51  366.98
  -4   6   1 8430.39  336.75
  -4  -6   2 3605.19  208.59
  -4   6   2 3359.62  164.98
  -4   6   2 3416.28  189.51
  -4  -6   2 3235.81  140.90
  -4   6   2 3367.81  188.03
  -4  -6   2 3259.85  181.76
  -4  -6   3 3282.16  207.72
  -4   6   3 3380.85  190.95
  -4   6   3 3121.38  185.20
  -4   6   3 3111.18  186.67
  -4  -6   3 3069.12  159.12
  -4  -6   3 3382.54  174.77
  -4   6   4 2331.64  157.88
  -4  -6   4 2422.78  186.39
  -4   6   4 2373.69  147.19
  -4   6   4 2235.28  155.34
  -4  -6   4 1885.51  126.69
  -4  -6   4 2322.55  196.43
  -4   8   1 4715.11  242.27
  -4  -8   1 4729.63  234.97
  -4   8   1 4771.73  243.88
  -4   8   1 4520.84  188.37
  -4   8   2 1711.27  115.12
  -4   8   2 1603.53  122.42
  -4   8   2 1591.36  124.16
  -4  -8   2 1636.91  125.50
  -4   8   3 1774.78  175.41
  -4   8   3 1629.94  142.01
  -4  -8   3 1644.84  122.51
  -4   8   3 1822.91  147.34
  -4   8   4 1119.37  108.57
  -4   8   4 1109.83  112.23
  -4   8   4  958.90   91.71
  -4  -8   4 1069.74  121.50
  -4  -8   4 1189.38   99.64
  -4  10   1  965.96  103.50
  -4 -10   1 1280.99  115.18
  -4 -10   1  950.45  105.54
  -4  10   1 1002.35   68.62
  -4  10   1 1203.17  121.20
  -4  10   2 1594.19  126.08
  -4  10   2 2094.23  168.99
  -4  10   2 1868.70  154.45
  -4 -10   2 2009.33  166.65
  -3  11  -1 1660.33  156.77
  -3 -11  -1 1763.49  129.72
  -3  11   0  600.73   82.89
  -3 -11   0  571.16   94.97
  -3 -11   0  612.88   75.85
  -3  11   0  588.99   67.46
  -3  -9  -3  909.93  105.61
  -3   9  -3  933.38   99.86
  -3   9  -2 1643.18  125.89
  -3  -9  -2 1603.27  123.39
  -3   9  -1 3355.53  236.98
  -3   9  -1 2601.10  144.01
  -3  -9  -1 3085.27  206.65
  -3  -9  -1 3055.95  163.43
  -3   9   0 1985.52  110.98
  -3   9   0 2221.41  149.65
  -3  -9   0 1842.79  142.36
  -3  -9   0 2151.24  163.96
  -3   9   0 2133.84  141.14
  -3   7  -4  763.52   90.34
  -3  -7  -4  795.71   87.99
  -3  -7  -3 4048.63  217.55
  -3   7  -3 3922.93  212.41
  -3   7  -2 4514.56  197.98
  -3   7  -2 5145.58  240.20
  -3   7  -2 5267.44  226.69
  -3  -7  -2 5499.47  274.39
  -3  -7  -2 5104.37  214.22
  -3  -7  -1 2999.54  190.18
  -3   7  -1 3090.87  185.05
  -3   7  -1 3132.65  178.51
  -3  -7  -1 3169.42  182.94
  -3   7   0 6617.35  442.60
  -3   7   0 6338.12  271.67
  -3   7   0 6833.76  306.90
  -3  -7   0 6823.99  325.51
  -3  -7   0 6673.15  329.43
  -3  -5  -5  600.90   79.49
  -3   5  -5  478.84   72.03
  -3   5  -4 2715.63  189.38
  -3  -5  -4 2749.19  175.14
  -3   5  -3 3650.38  193.79
  -3  -5  -3 3599.42  241.82
  -3   5  -2 4464.01  162.58
  -3  -5  -2 5083.22  299.27
  -3   5  -2 4950.35  232.46
  -3   5  -2 5320.34  246.80
  -3  -5  -2 5088.15  207.66
  -3  -5  -112491.70  490.73
  -3   5  -111810.68  471.05
  -3   5  -113032.79  468.64
  -3   5  -110818.34  407.96
  -3  -5  -111759.38  578.64
  -3  -5  -111055.55  434.76
  -3   5  -112009.43  480.51
  -3  -5   0 8409.52  422.15
  -3   5   0 8646.35  427.46
  -3   5   0 7746.93  332.26
  -3   5   0 9132.90  344.01
  -3  -5   0 8422.46  402.81
  -3  -5   0 7539.84  354.00
  -3   5   0 8329.67  376.19
  -3  -3  -5  833.64   96.08
  -3   3  -5  844.78   99.25
  -3  -3  -5  628.99   71.63
  -3   3  -4 5285.60  265.68
  -3  -3  -4 4832.15  236.10
  -3  -3  -4 5684.91  299.62
  -3   3  -3 3311.79  177.08
  -3  -3  -3 3314.21  190.98
  -3  -3  -3 3618.98  182.94
  -3   3  -2 5632.42  312.19
  -3   3  -2 5738.27  267.18
  -3  -3  -2 5803.46  294.18
  -3  -3  -2 5730.42  275.69
  -3  -3  -2 5364.14  234.46
  -3  -3  -126646.74  913.16
  -3   3  -127652.57 1060.11
  -3   3  -128462.16  937.58
  -3   3  -130109.67 1038.45
  -3  -3  -128981.52 1110.63
  -3  -3  -128739.91 1028.28
  -3   3  -128704.94  971.71
  -3   3   011201.35  418.60
  -3   3   011388.32  441.47
  -3   3   011744.42  430.76
  -3  -3   010758.75  448.05
  -3  -3   011716.66  481.56
  -3  -3   010902.39  436.88
  -3  -3   011182.73  377.45
  -3   3   011347.75  475.77
  -3  -3   011439.21  434.47
  -3  -3   011802.43  444.28
  -3   1  -5  938.83   92.21
  -3  -1  -5 1187.44  108.76
  -3   1  -4 3053.94  168.71
  -3   1  -4 2591.97  133.99
  -3  -1  -4 3202.03  191.65
  -3  -1  -4 2846.36  169.39
  -3   1  -3 8949.18  426.59
  -3   1  -3 9228.59  323.52
  -3  -1  -3 9207.66  416.43
  -3  -1  -3 9763.00  387.59
  -3   1  -214216.47  611.58
  -3   1  -213443.26  535.95
  -3  -1  -215440.40  585.37
  -3  -1  -215184.42  578.75
  -3   1  -214765.70  469.22
  -3   1  -113828.87  637.13
  -3   1  -115063.38  524.72
  -3   1  -114097.99  518.63
  -3  -1  -114772.48  544.35
  -3  -1  -113763.76  533.20
  -3  -1  -114054.40  515.66
  -3   1   029027.67 1031.59
  -3   1   027599.04  918.14
  -3   1   027274.48  845.81
  -3   1   026589.45  953.30
  -3  -1   026362.67  957.13
  -3  -1   026445.07  930.46
  -3   1   123763.23  764.99
  -3  -1   124119.71  876.41
  -3   1   124513.06  850.24
  -3   1   123527.29  798.93
  -3   1   124514.09  830.45
  -3   1   123485.26  835.03
  -3  -1   124927.65  873.12
  -3  -1   123965.10  846.24
  -3  -1   123798.31  859.15
  -3  -1   122882.12  843.14
  -3   1   218285.11  635.06
  -3   1   216365.37  592.69
  -3   1   216728.85  770.17
  -3  -1   217238.02  603.87
  -3  -1   214732.35  561.13
  -3  -1   216601.11  654.34
  -3  -1   217607.32  665.46
  -3   1   217622.13  601.60
  -3   1   3 4902.84  238.75
  -3   1   3 4733.72  219.72
  -3  -1   3 4901.04  236.33
  -3  -1   3 5091.49  273.89
  -3  -1   3 4941.94  240.84
  -3   1   4 3529.37  192.34
  -3   1   4 3080.33  145.58
  -3   1   4 3420.12  199.81
  -3  -1   4 3283.48  168.78
  -3  -1   4 3504.97  181.59
  -3  -1   4 3517.16  184.01
  -3   1   5 2329.26  182.19
  -3   1   5 2143.22  162.64
  -3  -3   115209.21  537.50
  -3  -3   114938.75  549.68
  -3   3   116844.33  659.64
  -3   3   116022.54  579.53
  -3   3   115449.00  565.40
  -3   3   115801.07  578.40
  -3  -3   114808.22  566.65
  -3  -3   115947.75  585.59
  -3  -3   115870.36  638.03
  -3  -3   2 8200.62  376.73
  -3   3   2 8717.15  400.27
  -3   3   2 8966.34  411.22
  -3  -3   2 8590.68  346.50
  -3  -3   2 8934.73  381.82
  -3   3   2 8906.70  357.34
  -3  -3   310738.48  472.40
  -3  -3   310834.54  438.96
  -3   3   310980.36  479.18
  -3   3   310405.78  443.25
  -3  -3   310797.39  437.48
  -3   3   4 2489.21  146.27
  -3  -3   4 2411.41  154.22
  -3  -3   4 2380.55  148.19
  -3  -3   4 2568.96  151.16
  -3  -3   5 1409.94  132.11
  -3   3   5 1508.13  125.29
  -3   3   5 1644.48  125.67
  -3  -3   5 1287.13  133.43
  -3  -5   110105.25  452.55
  -3  -5   1 8968.52  311.95
  -3   5   110579.07  419.20
  -3   5   110335.34  436.31
  -3   5   2 7197.00  361.17
  -3   5   2 7326.54  343.87
  -3   5   2 7307.02  338.93
  -3  -5   2 6563.22  295.92
  -3  -5   2 6908.02  329.56
  -3  -5   2 6856.44  322.26
  -3   5   3 5378.20  272.30
  -3   5   3 5531.93  244.43
  -3  -5   3 4848.45  218.09
  -3  -5   3 5371.96  292.60
  -3   5   3 5301.32  293.49
  -3  -5   3 5434.46  249.45
  -3   5   4 1727.65  132.17
  -3   5   4 1472.64  111.24
  -3  -5   4 1651.36  139.67
  -3  -5   4 1645.49  141.97
  -3  -5   4 1615.32  127.96
  -3   5   4 1604.44  123.30
  -3   5   5 1156.14  104.69
  -3  -5   5 1040.61   86.42
  -3   5   5 1025.24  105.90
  -3   5   5 1093.07  121.73
  -3  -5   5  881.16   94.02
  -3   7   1 6023.71  309.70
  -3   7   1 5374.98  262.43
  -3   7   1 5656.63  276.94
  -3  -7   1 5327.39  310.35
  -3  -7   1 5496.35  313.85
  -3   7   2 5861.98  258.06
  -3  -7   2 5684.54  294.87
  -3   7   2 5575.39  299.54
  -3   7   2 5541.67  272.91
  -3  -7   2 5897.80  306.97
  -3  -7   2 5191.87  214.90
  -3  -7   3 1168.16  105.47
  -3   7   3 1157.73  104.90
  -3   7   3 1149.26  100.37
  -3  -7   3 1061.83   84.25
  -3   7   4 1414.88  129.24
  -3  -7   4 1303.51  127.12
  -3   9   1 2489.83  134.50
  -3  -9   1 2640.11  179.44
  -3   9   1 2775.67  173.27
  -3  -9   1 2437.66  189.91
  -3   9   2 2078.98  154.58
  -3  -9   2 1950.66  151.38
  -3   9   2 1910.46  111.84
  -3   9   2 2156.42  149.66
  -3  -9   2 1897.07  125.77
  -3   9   3 1483.90  146.59
  -3  -9   3 1511.93  118.03
  -3   9   3 1392.21  135.89
  -3   9   3 1466.68  121.91
  -3  -9   3 1610.61  133.46
  -3  11   1  907.77  106.54
  -3 -11   1  986.63  107.85
  -3  11   1  897.25   86.78
  -3 -11   2  719.60   93.33
  -3  11   2  460.55   79.11
  -3  11   2  550.19   78.93
  -2  10  -3 1320.03  130.93
  -2 -10  -3 1321.68  116.38
  -2  10  -2 1006.20   93.86
  -2 -10  -2  847.80  102.58
  -2  10  -1 1187.34  113.13
  -2  10  -1 1208.53  117.08
  -2 -10  -1 1263.92   96.31
  -2 -10  -1 1299.21  105.06
  -2  10   0 3147.91  202.18
  -2  10   0 3070.15  196.81
  -2 -10   0 3326.63  188.37
  -2 -10   0 3175.82  200.12
  -2   8  -4  590.73   75.98
  -2  -8  -4  620.64   80.46
  -2   8  -3 1245.87  105.29
  -2  -8  -3 1362.27  120.65
  -2   8  -2 5638.33  314.39
  -2   8  -2 4975.68  221.80
  -2  -8  -2 5578.69  316.85
  -2   8  -1 2913.84  164.51
  -2   8  -1 3420.41  199.09
  -2  -8  -1 3209.53  220.74
  -2  -8  -1 3245.60  164.30
  -2   8   0 3300.58  165.49
  -2   8   0 3239.23  208.71
  -2   8   0 3435.54  173.90
  -2  -8   0 3352.34  187.69
  -2  -8   0 3291.94  192.63
  -2   6  -4 1398.98  127.93
  -2  -6  -4 1529.11  130.71
  -2   6  -3 2966.31  176.36
  -2  -6  -3 3211.30  168.55
  -2   6  -2 9788.97  443.87
  -2   6  -210151.68  365.78
  -2   6  -210734.59  478.38
  -2  -6  -210541.29  483.34
  -2  -6  -210155.35  396.05
  -2   6  -1 5579.12  223.26
  -2   6  -1 5293.94  240.02
  -2   6  -1 4516.86  214.56
  -2  -6  -1 4924.65  211.86
  -2  -6  -1 5529.43  280.04
  -2  -6  -1 5244.25  288.74
  -2   6   0 6610.06  306.11
  -2   6   0 6333.28  354.67
  -2   6   0 6783.54  355.64
  -2  -6   0 6621.40  362.43
  -2  -6   0 6649.64  284.56
  -2   4  -5  904.07   93.77
  -2  -4  -5  873.56   88.99
  -2  -4  -5  891.29   89.87
  -2   4  -4 1708.23  146.59
  -2  -4  -4 1773.59  150.16
  -2  -4  -4 1696.61  142.16
  -2   4  -3 9995.60  403.65
  -2   4  -3 8693.54  310.83
  -2   4  -3 7773.77  298.04
  -2  -4  -3 9457.13  447.53
  -2   4  -2 6900.08  293.13
  -2   4  -2 7001.90  250.45
  -2  -4  -2 7449.79  359.90
  -2  -4  -2 7198.43  259.45
  -2   4  -1 7768.01  351.67
  -2   4  -1 7107.97  268.90
  -2   4  -1 7563.34  307.44
  -2  -4  -1 7405.35  308.95
  -2  -4  -1 7787.05  373.77
  -2  -4  -1 8008.91  346.03
  -2  -4  -1 7622.68  304.80
  -2  -4   023845.17  864.29
  -2   4   023412.95  869.45
  -2   4   023715.38  985.57
  -2   4   023119.22  785.72
  -2   4   022115.07  808.92
  -2  -4   023867.59  851.79
  -2  -4   024174.23  965.35
  -2  -4   024587.71  894.28
  -2   2  -5 1099.18   97.76
  -2  -2  -5 1060.22  103.03
  -2  -2  -5  990.06   83.46
  -2   2  -4 2555.57  167.39
  -2   2  -4 2270.41  110.96
  -2  -2  -4 2548.89  189.98
  -2  -2  -4 2488.43  148.69
  -2   2  -3 9124.90  340.52
  -2  -2  -3 9827.68  478.72
  -2  -2  -3 9138.51  433.58
  -2   2  -214528.12  542.88
  -2   2  -213640.30  489.81
  -2  -2  -214413.70  586.85
  -2  -2  -215282.52  587.02
  -2  -2  -214150.03  541.63
  -2   2  -1 9732.67  379.32
  -2   2  -1 9015.79  379.10
  -2   2  -1 9665.20  392.72
  -2   2  -1 9790.43  362.07
  -2  -2  -1 9176.46  349.19
  -2  -2  -1 9289.63  377.12
  -2  -2  -1 9123.23  361.07
  -2  -2  -1 9148.12  309.74
  -2   2   031815.21 1040.77
  -2   2   029606.86 1096.58
  -2   2   031312.86 1097.97
  -2   2   030355.97 1137.04
  -2   2   029465.32 1025.81
  -2  -2   027985.70  995.75
  -2  -2   029594.29 1053.61
  -2  -2   031798.20 1001.32
  -2  -2   030544.58 1018.91
  -2   0  -5 1202.79  108.17
  -2   0  -4 3279.03  200.39
  -2   0  -4 3006.98  144.99
  -2   0  -3 5239.85  264.61
  -2   0  -3 5031.34  214.04
  -2   0  -3 4378.16  213.51
  -2   0  -241782.36 1523.46
  -2   0  -241357.89 1388.87
  -2   0  -240031.17 1374.41
  -2   0  -125626.99  883.06
  -2   0  -126170.77  953.82
  -2   0  -125469.31  913.72
  -2   0  -126107.63  828.85
  -2   0   012620.45  411.86
  -2   0   012895.14  456.58
  -2   0   013454.11  519.11
  -2   0   012403.64  471.99
  -2   0   125579.45  897.23
  -2   0   123133.51  804.18
  -2   0   124432.14  799.16
  -2   0   123125.23  835.40
  -2   0   124110.37  819.27
  -2   0   223031.36  895.01
  -2   0   221303.15  855.09
  -2   0   220247.00  840.95
  -2   0   223215.76  793.96
  -2   0   223509.17  910.63
  -2   0   312296.49  494.06
  -2   0   311608.32  459.78
  -2   0   311466.74  531.78
  -2   0   4 2711.30  157.09
  -2   0   4 2402.23  143.39
  -2   0   4 2511.76  166.33
  -2   0   5 1646.04  158.60
  -2   0   5 1633.58  116.22
  -2  -2   117650.64  672.03
  -2  -2   118007.93  638.27
  -2  -2   117558.26  620.93
  -2   2   117842.25  592.72
  -2   2   117610.39  684.49
  -2   2   117524.51  597.05
  -2   2   116864.37  630.41
  -2   2   116685.89  643.09
  -2  -2   116318.36  638.36
  -2  -2   117736.63  663.67
  -2   2   215764.92  577.11
  -2   2   214719.20  581.80
  -2  -2   215393.06  587.77
  -2  -2   213109.71  490.75
  -2  -2   213623.25  528.90
  -2  -2   214973.77  574.80
  -2  -2   215026.38  562.89
  -2   2   3 8011.33  343.81
  -2  -2   3 7732.37  313.64
  -2  -2   3 7407.16  317.95
  -2  -2   3 8335.43  369.33
  -2  -2   4 5401.00  278.68
  -2   2   4 5169.96  239.82
  -2  -2   4 4984.80  252.32
  -2  -2   4 5686.57  288.56
  -2   2   5  918.53   88.00
  -2   2   5  747.28  101.72
  -2  -2   5  720.31   90.06
  -2  -2   5  811.14   92.91
  -2   4   1 8252.79  345.61
  -2   4   1 7949.45  325.40
  -2   4   1 7343.73  313.79
  -2   4   1 8274.14  348.01
  -2  -4   1 8013.64  308.17
  -2  -4   1 7770.34  281.59
  -2  -4   1 8276.88  356.10
  -2  -4   1 8236.93  345.49
  -2   4   210648.79  460.62
  -2   4   210979.61  422.45
  -2  -4   211112.37  455.91
  -2   4   210967.09  529.15
  -2  -4   2 9508.33  403.15
  -2  -4   211134.93  503.18
  -2  -4   210441.03  416.48
  -2  -4   3 5067.75  245.59
  -2  -4   3 5228.36  240.47
  -2   4   3 5397.76  256.69
  -2   4   3 5227.60  253.51
  -2  -4   3 5134.34  277.69
  -2   4   4 5880.09  288.74
  -2   4   4 6146.23  312.97
  -2   4   4 5707.75  282.74
  -2  -4   4 5729.76  294.42
  -2  -4   4 5421.04  322.02
  -2  -4   4 5900.61  287.28
  -2   4   5  473.50   64.84
  -2   4   5  413.12   58.92
  -2   4   5  289.63   60.05
  -2  -4   5  458.80   79.08
  -2  -4   5  292.58   48.56
  -2   6   1 7971.96  319.85
  -2   6   1 8068.59  363.97
  -2   6   1 7475.31  330.18
  -2  -6   1 7578.61  267.85
  -2  -6   1 7289.66  265.52
  -2  -6   1 8467.22  326.73
  -2  -6   1 7803.63  419.29
  -2   6   2 6971.38  312.67
  -2   6   2 7079.65  352.37
  -2   6   2 7311.52  314.37
  -2  -6   2 6502.17  278.83
  -2  -6   2 6747.09  348.64
  -2  -6   2 7210.10  322.68
  -2   6   3 4500.78  214.80
  -2   6   3 4332.86  264.05
  -2   6   3 4372.71  201.81
  -2  -6   3 4059.41  204.84
  -2  -6   3 4595.61  238.98
  -2  -6   3 4379.56  243.26
  -2   6   4 1752.70  133.72
  -2   6   4 1650.69  141.07
  -2   6   4 1716.79  130.81
  -2  -6   4 1256.65  111.96
  -2  -6   4 1504.43  119.83
  -2  -6   4 1585.01  117.85
  -2   8   1 3998.52  187.60
  -2   8   1 4010.20  225.83
  -2   8   1 3689.64  193.20
  -2  -8   1 3914.22  193.87
  -2   8   2 3707.45  222.49
  -2   8   2 3801.50  254.04
  -2   8   2 3931.27  185.20
  -2  -8   2 3824.39  252.94
  -2  -8   2 3614.82  223.74
  -2   8   3 2217.31  134.21
  -2   8   3 2492.94  167.68
  -2   8   3 2555.85  176.62
  -2  -8   3 2609.21  166.43
  -2  -8   3 2398.48  187.20
  -2   8   4  653.45   75.42
  -2   8   4  732.59   93.34
  -2  -8   4  857.71   93.69
  -2  10   1 1007.12  101.84
  -2  10   1 1004.80  100.29
  -2 -10   1 1175.45  107.68
  -2  10   2 1480.15  151.10
  -2  10   2 1397.06  137.33
  -2 -10   2 1582.81  135.36
  -2  10   3  651.69  103.40
  -2  10   3  732.90  102.03
  -2 -10   3  728.13   88.17
  -2 -10   3  707.57  114.16
  -1 -11  -2 1276.32  122.15
  -1  11  -1 1052.72  116.02
  -1 -11  -1  835.32   77.58
  -1 -11  -1  882.27   97.88
  -1  11   0 1350.03  121.07
  -1 -11   0 1304.94  118.37
  -1 -11   0 1178.90  109.67
  -1   9  -3  957.12   98.63
  -1  -9  -3  927.87  101.75
  -1   9  -2 2187.39  118.75
  -1   9  -2 2376.07  159.93
  -1  -9  -2 2490.83  179.77
  -1   9  -1 3722.39  192.56
  -1   9  -1 4210.44  250.29
  -1   9  -1 4163.84  233.38
  -1  -9  -1 4097.74  204.55
  -1  -9  -1 4296.94  245.10
  -1   9   0 2066.67  107.80
  -1   9   0 2438.72  147.85
  -1   9   0 2191.97  155.79
  -1  -9   0 2063.14  140.89
  -1  -9   0 2264.73  147.44
  -1   7  -4  997.04   97.87
  -1  -7  -4  937.68   99.43
  -1   7  -3 2104.05  130.86
  -1  -7  -3 2152.74  152.09
  -1   7  -2 2622.68  150.41
  -1   7  -2 2352.22  117.02
  -1  -7  -2 2653.96  176.21
  -1  -7  -2 2417.63  113.20
  -1   7  -116150.93  618.81
  -1   7  -117260.17  734.52
  -1  -7  -114334.29  608.07
  -1  -7  -117210.89  718.73
  -1  -7  -117515.74  667.01
  -1   7   0 3804.51  166.69
  -1   7   0 3903.76  214.23
  -1   7   0 3976.44  194.91
  -1  -7   0 3384.29  146.24
  -1  -7   0 3978.10  194.99
  -1  -7   0 3881.78  222.52
  -1   5  -5 1050.50  105.56
  -1  -5  -5 1033.03   98.02
  -1   5  -4 1809.48  120.21
  -1   5  -3 3501.56  193.29
  -1   5  -3 3225.80  143.78
  -1   5  -2 9472.81  370.73
  -1   5  -2 8753.89  338.63
  -1   5  -2 7868.76  329.95
  -1  -5  -2 8863.05  397.02
  -1  -5  -2 9079.68  323.92
  -1   5  -116832.62  630.80
  -1   5  -119639.69  671.02
  -1   5  -116188.99  625.58
  -1   5  -117646.83  783.24
  -1  -5  -117674.62  653.37
  -1  -5  -116818.47  723.04
  -1  -5  -118750.83  674.86
  -1   5   0 8257.45  275.93
  -1   5   0 7638.96  334.22
  -1   5   0 7549.01  308.38
  -1  -5   0 7888.06  422.14
  -1  -5   0 8851.34  360.91
  -1   3  -5 1143.31  102.69
  -1  -3  -5 1133.12  102.68
  -1  -3  -5 1181.69  100.46
  -1   3  -4 2579.66  165.00
  -1   3  -4 2125.43  126.12
  -1  -3  -4 2337.86  148.98
  -1  -3  -4 2214.30  148.99
  -1   3  -3 5033.80  258.23
  -1   3  -3 4816.73  195.54
  -1  -3  -3 4762.72  274.94
  -1  -3  -3 4932.63  316.18
  -1  -3  -220306.44  785.70
  -1   3  -220295.04  725.21
  -1   3  -219527.91  695.93
  -1  -3  -220493.25  845.01
  -1  -3  -219289.04  738.87
  -1  -3  -116429.29  626.26
  -1   3  -117716.51  639.40
  -1   3  -116823.99  681.16
  -1   3  -116505.50  583.79
  -1   3  -116346.65  566.05
  -1   3  -117206.69  652.23
  -1  -3  -117224.85  620.38
  -1  -3  -117166.33  622.06
  -1  -3  -118391.00  651.45
  -1   3   021890.22  748.72
  -1   3   020895.95  829.52
  -1   3   021179.01  805.18
  -1   3   021827.55  757.98
  -1   3   021019.69  783.61
  -1  -3   020724.95  681.55
  -1  -3   022853.13  772.24
  -1  -3   021144.49  843.81
  -1  -3   022289.01  760.01
  -1   1  -5 2209.41  166.70
  -1  -1  -5 2573.92  175.89
  -1  -1  -5 2216.18  127.23
  -1   1  -4 2861.26  160.85
  -1  -1  -4 2695.64  141.99
  -1  -1  -4 2643.99  156.64
  -1   1  -3 5776.56  272.57
  -1   1  -3 5917.95  246.39
  -1   1  -3 5037.40  226.70
  -1  -1  -3 5957.72  311.91
  -1  -1  -3 6011.03  257.35
  -1  -1  -3 5218.61  202.31
  -1  -1  -210690.15  428.56
  -1  -1  -2 9640.96  346.57
  -1   1  -210004.94  468.55
  -1   1  -210267.79  397.84
  -1   1  -2 9934.81  438.76
  -1   1  -210200.78  427.02
  -1  -1  -2 9980.06  495.59
  -1  -1  -2 9994.61  413.64
  -1  -1  -210440.82  409.08
  -1   1   013766.32  472.04
  -1   1   013826.33  476.63
  -1   1   013865.86  500.30
  -1   1   013420.18  456.50
  -1   1   012840.77  471.11
  -1  -1   013919.98  423.21
  -1  -1   011872.14  488.96
  -1  -1   013242.00  447.13
  -1  -1   013813.45  473.93
  -1   1   112973.11  454.61
  -1   1   113235.81  457.27
  -1   1   114271.37  531.76
  -1   1   112640.99  434.53
  -1   1   112470.28  492.22
  -1  -1   112813.82  461.18
  -1  -1   112463.19  418.12
  -1  -1   113513.74  473.31
  -1  -1   113657.14  522.20
  -1   1   211929.17  467.19
  -1   1   210868.62  417.87
  -1   1   210927.55  558.02
  -1   1   211354.40  400.36
  -1   1   211374.67  499.16
  -1  -1   211890.10  475.90
  -1  -1   211051.62  444.14
  -1  -1   211066.25  431.67
  -1  -1   212285.03  456.44
  -1  -1   212027.69  563.49
  -1   1   312042.54  466.46
  -1   1   311538.61  396.17
  -1   1   311969.83  476.43
  -1  -1   312626.01  525.44
  -1  -1   311460.65  469.43
  -1  -1   311699.73  478.16
  -1   1   4 4698.31  306.35
  -1   1   4 5124.93  250.92
  -1  -1   4 4756.24  226.32
  -1  -1   4 4708.75  200.46
  -1  -1   4 4565.25  235.68
  -1   1   5 1810.70  146.99
  -1   1   5 1829.05  131.39
  -1  -1   5 1788.35  147.79
  -1   3   120629.64  774.04
  -1  -3   120975.30 1006.82
  -1   3   121827.17  781.16
  -1  -3   121097.92  759.75
  -1   3   121575.11  863.94
  -1   3   121759.03  736.67
  -1   3   123515.88  783.52
  -1   3   120380.50  829.18
  -1  -3   121315.35  758.32
  -1  -3   121524.60  793.24
  -1  -3   123341.14  871.07
  -1  -3   122522.82  910.30
  -1  -3   2 6825.74  288.88
  -1   3   2 7647.95  341.32
  -1   3   2 7578.42  372.41
  -1   3   2 7745.85  308.92
  -1  -3   2 7723.74  330.34
  -1  -3   2 7445.84  390.65
  -1  -3   2 7328.96  339.31
  -1   3   3 7449.56  360.15
  -1   3   3 7543.19  306.65
  -1  -3   3 7218.49  421.59
  -1  -3   3 7666.84  309.23
  -1   3   4 3541.46  226.24
  -1   3   4 3846.91  201.19
  -1  -3   4 3601.30  208.67
  -1  -3   4 3346.57  205.30
  -1   3   5 3026.74  195.69
  -1  -3   5 3386.40  217.94
  -1   3   5 3014.63  191.35
  -1   5   1 9159.63  394.33
  -1   5   1 9456.87  365.29
  -1   5   1 9115.43  366.97
  -1   5   110106.06  436.23
  -1  -5   1 9945.52  371.22
  -1  -5   1 9161.89  341.53
  -1  -5   110061.39  396.42
  -1  -5   1 9504.43  419.58
  -1   5   2 5497.87  301.81
  -1   5   2 5874.04  244.50
  -1   5   2 5666.06  239.73
  -1  -5   2 5582.58  229.30
  -1  -5   2 4567.25  217.93
  -1  -5   2 5875.43  309.35
  -1  -5   2 5656.63  278.40
  -1   5   3 6093.41  296.60
  -1   5   3 5676.25  291.53
  -1   5   3 5798.26  259.38
  -1  -5   3 5636.28  268.31
  -1  -5   3 5552.85  290.16
  -1  -5   3 5708.70  262.28
  -1   5   4 2633.06  168.81
  -1   5   4 2589.61  162.25
  -1  -5   4 2520.04  138.80
  -1  -5   4 2528.55  166.40
  -1  -5   4 2646.51  170.51
  -1  -5   5 1201.79  143.45
  -1  -5   5 1763.00  164.71
  -1   5   5 1454.64  136.95
  -1   5   5 1624.98  124.83
  -1  -5   5 1690.97  140.18
  -1   7   1 3502.15  166.25
  -1   7   1 3590.01  167.22
  -1  -7   1 3307.60  135.97
  -1  -7   1 3537.28  213.66
  -1  -7   1 3602.04  233.10
  -1   7   2 3941.18  199.07
  -1   7   2 4308.92  269.56
  -1   7   2 4044.62  208.51
  -1  -7   2 3914.59  168.89
  -1  -7   2 4158.31  246.41
  -1  -7   2 3979.44  227.94
  -1   7   3 3636.30  202.18
  -1   7   3 4264.54  234.98
  -1  -7   3 3667.21  185.25
  -1  -7   3 3907.53  209.26
  -1  -7   3 3992.25  289.13
  -1   7   4 1741.91  141.48
  -1   7   4 1682.59  166.69
  -1  -7   4 1381.57  117.37
  -1  -7   4 1902.97  158.37
  -1  -9   1 2645.80  151.99
  -1   9   1 2602.15  122.11
  -1   9   1 2711.92  168.61
  -1   9   1 2811.61  179.67
  -1  -9   1 2823.67  173.12
  -1   9   2 1375.87  102.83
  -1   9   2 1401.60  121.65
  -1   9   2 1413.61  110.64
  -1  -9   2 1545.35  134.57
  -1   9   3 1282.72  115.56
  -1   9   3 1391.62  158.17
  -1   9   3 1708.40  141.86
  -1  -9   3 1573.44  127.06
  -1  11   1 1538.66  140.74
  -1  11   1 1519.26  142.25
  -1 -11   1 1417.56  134.77
  -1  11   2  430.33   70.99
  -1  11   2  487.13   84.40
  -1 -11   2  419.84   77.90
  -1 -11   2  412.97   69.48
   0 -12   0 1014.46  104.05
   0 -12   0 1242.47  130.82
   0  10  -3  491.55   72.03
   0 -10  -3  477.86   67.18
   0  10  -2 1339.91  122.40
   0  10  -2 1108.24  112.20
   0 -10  -2 1254.45  115.96
   0 -10  -1 2737.39  165.67
   0  10  -1 2774.68  185.54
   0  10  -1 2592.01  180.30
   0 -10  -1 2411.69  150.47
   0 -10   0 1897.94  134.29
   0 -10   0 1775.20  144.84
   0   8  -4 1405.40  115.61
   0  -8  -4 1700.01  130.07
   0   8  -3 1277.59   96.36
   0  -8  -3 1555.48  114.24
   0   8  -2 2179.99  143.02
   0   8  -2 1970.71  112.97
   0  -8  -2 2300.69  177.66
   0  -8  -2 2139.35  111.40
   0   8  -1 2799.00  171.85
   0   8  -1 2404.10  176.26
   0  -8  -1 2526.24  160.16
   0  -8  -1 2463.68  136.71
   0  -8   012112.93  526.91
   0  -8   012436.72  492.57
   0   6  -4 2725.98  199.50
   0  -6  -4 2652.89  184.72
   0   6  -3 3021.05  161.94
   0   6  -3 2427.02  134.69
   0  -6  -3 3067.73  179.43
   0   6  -2 4418.03  215.68
   0   6  -2 3945.39  189.88
   0  -6  -2 4204.03  229.57
   0  -6  -2 4013.35  162.49
   0   6  -1 5008.00  204.08
   0   6  -1 5089.61  232.04
   0   6  -1 5393.78  286.40
   0  -6  -1 4748.59  246.37
   0  -6  -1 5609.56  292.56
   0  -6  -1 5182.78  225.35
   0  -6   022419.01  800.71
   0  -6   024064.08  864.11
   0   4  -5 1412.40  130.94
   0  -4  -5 1529.96  122.72
   0   4  -4 2730.87  167.52
   0   4  -4 2428.32  134.38
   0  -4  -4 2816.51  170.15
   0  -4  -4 2833.07  187.45
   0  -4  -3 3804.18  200.30
   0   4  -3 3950.46  226.06
   0   4  -3 3584.42  161.17
   0   4  -2 8864.67  351.36
   0   4  -2 8393.59  353.05
   0   4  -2 7543.92  318.98
   0  -4  -2 9370.86  409.55
   0   4  -120828.63  746.41
   0   4  -119586.31  706.41
   0   4  -121472.95  727.67
   0  -4  -120436.05  750.71
   0  -4  -119114.16  771.34
   0  -4  -122176.48  804.22
   0  -4   020616.28  714.06
   0  -4   021539.12  774.20
   0  -4   021108.01  854.42
   0  -4   022611.11  836.29
   0  -4   021509.48  750.01
   0   2  -5 1601.73  120.44
   0  -2  -5 1663.10  107.58
   0   2  -4 4479.34  210.46
   0   2  -4 4186.23  187.46
   0  -2  -4 4475.56  246.28
   0  -2  -4 4471.88  244.53
   0   2  -3 5447.32  281.49
   0   2  -3 5419.06  238.38
   0  -2  -3 5218.17  288.66
   0  -2  -3 5610.33  256.98
   0  -2  -2 9646.14  410.95
   0   2  -2 9058.39  387.54
   0   2  -2 9838.67  436.63
   0   2  -2 9693.46  404.57
   0  -2  -2 9950.54  475.08
   0   2  -2 9234.36  374.29
   0  -2  -2 9532.38  394.47
   0   2  -123487.46  756.97
   0   2  -123558.86  812.60
   0   2  -124588.19  890.05
   0  -2  -123956.79  842.10
   0  -2  -123223.13  812.44
   0  -2  -122930.40  777.39
   0  -2  -125363.88  785.17
   0  -2   058377.15 1945.13
   0   0  -5 1707.58  123.91
   0   0  -5 1380.74  107.73
   0   0  -4 6922.81  302.36
   0   0  -4 6776.57  300.88
   0   0  -3 5843.25  278.35
   0   0  -3 5483.50  242.04
   0   0  -3 4846.18  223.14
   0   0  -2 8655.53  416.51
   0   0  -2 9183.76  374.85
   0   0  -2 9211.38  341.45
   0   0  -2 9153.43  334.51
   0   0  -2 9068.76  347.95
   0   0  -1 9691.78  323.71
   0   0  -1 8921.14  383.20
   0   0  -1 9001.14  369.35
   0   0  -1 8486.69  334.19
   0   0   1 9180.16  314.67
   0   0   1 9281.34  389.22
   0   0   1 9663.47  370.59
   0   0   1 9777.71  376.25
   0   0   1 8888.33  350.57
   0   0   2 9027.06  368.40
   0   0   2 9735.66  416.87
   0   0   2 8933.23  335.34
   0   0   2 9141.52  384.65
   0   0   2 8636.49  333.93
   0   0   3 5818.51  336.05
   0   0   3 5524.31  225.89
   0   0   4 7117.20  343.03
   0   0   4 6046.66  283.56
   0   0   4 7020.48  317.09
   0   0   5 1791.20  137.27
   0   0   5 1742.23  130.37
   0   2   058970.43 1935.47
   0   2   060791.93 1943.31
   0   2   124823.52  873.19
   0   2   124078.51  808.65
   0   2   121621.42  839.00
   0   2   122787.93  815.28
   0  -2   122794.89  823.65
   0   2   122502.90  861.85
   0  -2   124362.96  811.75
   0  -2   123120.37  809.42
   0  -2   124318.02  919.65
   0  -2   123213.32  903.33
   0  -2   123291.86  837.45
   0  -2   2 9813.43  377.42
   0  -2   2 9545.11  386.86
   0  -2   2 9434.27  370.01
   0  -2   2 9386.71  434.02
   0   2   2 9256.14  410.96
   0   2   210083.51  436.49
   0   2   2 9652.03  393.91
   0   2   3 5351.09  284.97
   0   2   3 5416.50  235.72
   0  -2   3 4419.64  194.99
   0  -2   3 5593.42  286.87
   0  -2   3 5242.21  230.97
   0  -2   3 5468.33  277.15
   0   2   4 4435.87  240.67
   0  -2   4 4318.78  237.85
   0  -2   4 4379.40  236.73
   0  -2   4 4769.40  257.40
   0   2   5 1626.76  133.93
   0  -2   5 1662.07  124.19
   0   4   020953.83  695.73
   0   4   019510.92  715.46
   0   4   022003.35  779.10
   0   4   021566.20  790.36
   0   4   021261.75  779.07
   0   4   119914.08  730.25
   0   4   119850.47  721.69
   0   4   119645.07  744.16
   0   4   118232.60  736.55
   0  -4   119778.99  726.87
   0  -4   120435.37  722.20
   0  -4   119205.59  700.53
   0   4   2 8888.90  382.98
   0   4   2 8766.33  360.93
   0   4   2 8624.87  346.17
   0  -4   2 9227.32  420.60
   0  -4   2 8680.88  407.60
   0  -4   2 9062.36  431.34
   0  -4   3 3807.60  210.62
   0  -4   3 3482.22  178.56
   0  -4   3 3739.99  239.48
   0   4   3 3927.65  207.63
   0   4   3 3679.76  191.61
   0   4   4 2835.20  201.64
   0   4   4 3083.19  162.82
   0  -4   4 3107.16  192.29
   0  -4   4 2823.88  165.62
   0  -4   4 3075.43  169.54
   0   4   5 1479.05  146.55
   0   4   5 1207.00  102.60
   0  -4   5 1355.46  132.85
   0  -4   5 1164.47  100.14
   0   6   023529.23  827.71
   0   6   025247.18  929.50
   0   6   022961.66  842.73
   0   6   1 4938.26  205.75
   0   6   1 5037.71  242.69
   0   6   1 4347.28  246.07
   0   6   1 5177.53  221.65
   0  -6   1 4740.66  199.52
   0  -6   1 5391.38  230.96
   0  -6   1 5282.41  242.96
   0   6   2 3963.88  189.56
   0   6   2 4374.26  212.77
   0  -6   2 3916.76  202.99
   0  -6   2 4170.56  237.24
   0  -6   2 4184.88  221.12
   0   6   3 2770.41  158.59
   0   6   3 2817.18  181.27
   0  -6   3 2715.71  162.15
   0  -6   3 2701.96  155.60
   0  -6   3 2914.49  189.04
   0   6   4 2580.06  196.31
   0   6   4 2682.84  181.30
   0  -6   4 2410.42  171.25
   0  -6   4 2670.82  185.98
   0  -6   4 2754.09  169.86
   0   6   4 2505.07  160.84
   0   8   011737.67  423.99
   0   8   012344.95  488.99
   0   8   012753.95  551.95
   0   8   1 2434.11  119.09
   0   8   1 2624.82  166.81
   0   8   1 2625.58  147.36
   0  -8   1 2384.10  115.95
   0  -8   1 2499.65  130.83
   0  -8   1 2727.77  165.18
   0   8   2 2142.37  128.82
   0   8   2 2237.82  170.70
   0  -8   2 2014.14  110.09
   0  -8   2 2178.40  167.28
   0  -8   2 2480.27  135.67
   0   8   3 1062.41   83.30
   0   8   3 1271.40  113.43
   0  -8   3 1089.69   97.59
   0   8   3 1212.26   95.11
   0  -8   3 1323.37  116.09
   0  -8   3 1390.60  130.34
   0   8   4 1122.80  116.68
   0   8   4 1606.31  144.73
   0   8   4 1320.87  119.95
   0  -8   4 1510.74  150.15
   0  10   0 1825.83  129.11
   0  10   1 2435.94  189.83
   0  10   1 2559.37  174.22
   0 -10   1 2302.11  152.35
   0 -10   1 2355.29  188.84
   0  10   2 1358.63  128.52
   0  10   2 1348.73  102.36
   0 -10   2 1283.42  127.77
   0 -10   2 1369.21  143.82
   0  10   3  607.07   82.93
   0 -10   3  437.62   70.08
   0 -10   3  355.02   58.37
   0  12   0 1046.46  116.05
   0  12   0 1076.27  102.30
   1  11  -2  591.69   81.92
   1 -11  -2  387.04   69.76
   1  11  -1 1388.04  124.48
   1  11  -1 1297.70  129.15
   1 -11  -1 1407.35  144.04
   1 -11  -1 1272.23  128.10
   1   9  -3 1661.27  120.79
   1  -9  -3 1394.36  127.43
   1   9  -2 1579.33  113.77
   1   9  -2 1404.13  101.14
   1  -9  -2 1527.92  122.40
   1   9  -1 2688.56  193.78
   1   9  -1 2309.81  165.60
   1  -9  -1 2558.98  162.57
   1  -9  -1 2635.63  167.61
   1   7  -4 1839.33  142.87
   1  -7  -4 1695.84  155.29
   1   7  -3 4179.87  224.46
   1   7  -3 3588.92  188.39
   1  -7  -3 4174.18  232.68
   1   7  -2 4133.02  234.86
   1   7  -2 4072.60  203.44
   1  -7  -2 4122.05  229.19
   1  -7  -2 4045.36  166.74
   1   7  -1 3945.23  205.51
   1  -7  -1 3534.11  228.74
   1  -7  -1 3875.27  179.05
   1  -5  -5 1527.70  128.68
   1   5  -5 1754.55  156.46
   1   5  -4 2408.06  153.20
   1   5  -4 2166.28  116.41
   1  -5  -4 2980.25  199.18
   1   5  -3 5739.45  274.36
   1   5  -3 5335.45  257.30
   1   5  -2 5468.96  285.41
   1   5  -2 5592.85  243.50
   1  -5  -2 5983.90  295.38
   1  -5  -2 5806.82  242.71
   1   5  -1 9924.74  450.23
   1  -5  -1 9294.97  403.00
   1  -5  -110245.18  495.12
   1  -5  -110205.43  427.09
   1   3  -5 3092.26  193.42
   1  -3  -5 3352.78  203.94
   1  -3  -5 3340.66  201.79
   1   3  -4 3970.42  185.46
   1   3  -4 3498.18  177.65
   1  -3  -4 3754.87  207.56
   1  -3  -4 3855.53  223.01
   1   3  -3 8014.01  331.72
   1   3  -3 7124.39  297.75
   1  -3  -3 8175.88  336.35
   1  -3  -3 7666.45  334.84
   1   3  -2 6680.67  287.59
   1   3  -2 7721.70  318.73
   1   3  -2 7044.47  302.79
   1  -3  -2 7163.66  314.97
   1  -3  -2 8040.54  257.43
   1  -3  -2 7418.64  252.70
   1  -3  -123402.79  820.05
   1   3  -121529.75  870.75
   1   3  -122336.16  822.37
   1   3  -121759.41  800.20
   1   3  -121558.53  786.70
   1  -3  -122530.79  805.96
   1  -3  -121474.12  811.96
   1  -3  -121743.49  774.93
   1   1  -5 1606.10  127.69
   1  -1  -5 1823.53  124.51
   1  -1  -5 1693.98  111.46
   1   1  -5 1653.37  137.38
   1   1  -4 4912.26  249.25
   1   1  -4 4515.24  220.11
   1  -1  -4 4905.56  266.29
   1  -1  -4 4863.45  230.14
   1   1  -311856.57  500.22
   1   1  -311666.49  472.64
   1   1  -310443.65  400.18
   1  -1  -313050.36  508.76
   1  -1  -311350.34  510.77
   1  -1  -310870.86  438.16
   1   1  -211488.98  447.84
   1   1  -212098.69  470.89
   1   1  -211064.24  467.58
   1   1  -212128.31  442.26
   1   1  -211752.12  534.41
   1  -1  -211553.19  513.20
   1  -1  -211386.83  456.27
   1  -1  -211257.93  413.92
   1  -1  -210783.35  524.80
   1   1  -113635.08  503.91
   1   1  -111681.30  509.30
   1   1  -111905.99  449.18
   1   1  -113020.13  451.21
   1   1  -113019.99  533.27
   1  -1  -113957.24  542.10
   1  -1  -113066.23  537.84
   1  -1  -112398.61  489.55
   1  -1  -112879.74  449.12
   1   1   011871.36  424.26
   1   1   012329.08  463.11
   1   1   013878.30  453.12
   1   1   013914.41  510.80
   1   1   013344.51  431.44
   1  -1   012933.63  475.87
   1  -1   013485.46  442.06
   1  -1   012949.89  478.09
   1  -1   013469.11  444.24
   1  -1   199999.00 3151.82
   1  -1   193132.02 3177.21
   1   1   211231.67  441.75
   1   1   210094.34  386.76
   1   1   210869.28  361.30
   1  -1   210856.44  448.61
   1  -1   210227.82  396.42
   1  -1   210821.75  395.26
   1   1   3 6255.97  297.78
   1   1   3 5834.45  216.43
   1   1   3 5838.39  223.05
   1  -1   3 5880.58  295.54
   1  -1   3 5137.63  210.58
   1  -1   3 5811.30  236.15
   1  -1   3 5735.70  250.78
   1   1   4 2627.74  176.12
   1   1   4 2786.46  150.00
   1  -1   4 2398.53  143.39
   1  -1   4 2515.92  146.49
   1   1   5 2235.90  165.50
   1   1   5 2444.23  144.72
   1  -1   5 2391.66  189.52
   1  -1   5 2329.94  163.25
   1   3   020626.60  676.38
   1   3   022136.80  768.05
   1   3   020923.71  772.35
   1   3   022063.96  751.64
   1   3   021675.51  780.48
   1  -3   020553.92  722.99
   1  -3   021762.45  768.69
   1  -3   020729.52  755.27
   1  -3   021296.05  777.72
   1  -3   021715.97  713.09
   1   3   117715.26  665.03
   1  -3   116296.67  628.58
   1   3   116819.17  621.73
   1   3   118149.78  656.91
   1   3   117832.65  607.34
   1   3   117515.97  608.54
   1  -3   117547.10  777.20
   1  -3   118063.99  726.42
   1  -3   117573.34  590.67
   1  -3   118775.35  630.69
   1   3   221869.02  786.51
   1  -3   221046.25  821.90
   1  -3   221284.65  837.29
   1  -3   222446.84  813.68
   1   3   3 4927.55  212.84
   1  -3   3 5064.41  248.17
   1  -3   3 4080.91  202.63
   1  -3   3 4653.11  198.08
   1   3   4 2321.21  149.18
   1   3   4 2427.75  145.52
   1  -3   4 2096.39  154.73
   1  -3   4 2253.66  157.79
   1  -3   4 2398.30  166.73
   1   3   5 1027.58   88.72
   1   3   5 1126.80   93.34
   1  -3   5 1116.47  106.55
   1  -3   5 1222.90  116.86
   1   5   0 7758.84  268.27
   1   5   0 8223.31  367.49
   1  -5   0 7385.00  302.73
   1  -5   0 8122.00  343.21
   1  -5   0 8391.02  341.61
   1   5   116618.15  639.94
   1   5   117513.77  691.64
   1   5   116439.87  646.62
   1   5   118464.92  658.23
   1  -5   116926.76  620.46
   1  -5   117540.04  671.19
   1  -5   118791.04  840.30
   1   5   2 8945.51  379.26
   1   5   2 8974.81  372.19
   1   5   2 8217.16  297.55
   1  -5   2 9366.05  404.75
   1  -5   2 9569.24  434.50
   1  -5   2 9058.31  470.99
   1   5   3 3504.87  187.81
   1   5   3 3410.28  209.41
   1   5   3 3272.51  162.57
   1  -5   3 3270.88  192.19
   1  -5   3 3402.27  196.92
   1   5   4 1384.20  102.77
   1   5   4 1598.92  129.38
   1   5   4 1490.73  107.23
   1  -5   4 1462.31  118.63
   1  -5   4 1513.65  126.08
   1   5   5  885.83   80.82
   1   5   5  915.44  105.36
   1  -5   5 1101.59  120.32
   1  -5   5  794.23   67.17
   1  -5   5 1078.13  101.09
   1   7   0 3361.83  130.84
   1   7   0 3629.97  207.74
   1   7   0 3662.26  184.91
   1  -7   0 3659.24  183.82
   1  -7   0 3728.98  227.76
   1   7   116164.84  579.70
   1   7   117738.56  715.44
   1   7   116301.96  676.57
   1  -7   117337.79  648.98
   1  -7   116846.31  719.37
   1   7   2 2310.02  117.44
   1   7   2 2433.78  158.20
   1  -7   2 2370.76  127.30
   1  -7   2 2694.32  171.49
   1   7   3 1844.51  157.09
   1   7   3 2268.29  150.45
   1  -7   3 1912.99  125.50
   1  -7   3 2078.47  120.07
   1   7   4  699.94   86.00
   1   7   4  917.14  104.17
   1  -7   4  801.78   80.82
   1  -7   4  796.88   85.40
   1  -7   4  925.64   96.25
   1   9   0 2221.07  178.09
   1  -9   0 2163.61  126.71
   1  -9   0 2363.23  150.19
   1   9   1 4555.60  241.61
   1  -9   1 4501.52  231.55
   1  -9   1 4207.70  221.30
   1   9   1 4203.87  249.69
   1   9   2 2545.60  182.47
   1  -9   2 2274.36  132.47
   1  -9   2 2530.63  180.34
   1   9   3  937.53  114.77
   1  -9   3  930.94   95.74
   1  -9   3  838.56   86.48
   1  11   0 1243.04  113.92
   1  11   0 1232.92  127.25
   1 -11   0 1320.08   98.95
   1 -11   0 1249.03  109.70
   1  11   1  825.44   95.30
   1  11   1  709.99   77.19
   1 -11   1  691.16   73.95
   1 -11   1  951.36  102.65
   1  11   2 1327.08  146.50
   1  11   2 1167.81  114.62
   1 -11   2 1384.23  135.77
   1 -11   2 1405.71  152.59
   2  10  -3  715.56   85.37
   2 -10  -3  885.62  112.50
   2  10  -2 1327.93  119.21
   2 -10  -2 1491.53  114.65
   2  10  -1 1205.24  104.52
   2  10  -1 1099.21  105.58
   2 -10  -1 1159.94  105.22
   2 -10  -1  947.92   82.84
   2   8  -4  743.11   85.45
   2  -8  -4  730.95   85.42
   2   8  -3 2361.33  137.11
   2   8  -3 2113.18  134.07
   2  -8  -3 2517.28  210.21
   2   8  -2 4107.56  205.17
   2   8  -2 3973.62  216.65
   2  -8  -2 4060.36  229.85
   2  -8  -2 3693.55  191.26
   2   8  -1 3660.25  217.19
   2   8  -1 3864.39  220.27
   2  -8  -1 3896.15  213.25
   2  -8  -1 3870.40  192.30
   2   6  -4 1508.42  123.17
   2   6  -4 1449.01   95.12
   2  -6  -4 1666.77  149.29
   2   6  -3 4453.48  212.78
   2   6  -3 4384.05  217.75
   2   6  -2 6922.10  307.78
   2   6  -2 7134.61  330.39
   2  -6  -2 7110.93  384.59
   2  -6  -2 7020.01  291.06
   2   6  -1 8183.57  358.77
   2   6  -1 8435.58  378.84
   2  -6  -1 8485.75  356.36
   2  -6  -1 8340.93  354.64
   2   4  -5  391.79   60.57
   2  -4  -5  581.19   72.07
   2  -4  -4 5934.72  298.37
   2   4  -4 5940.40  289.69
   2   4  -4 5291.27  243.99
   2   4  -3 5366.78  258.32
   2   4  -3 5021.69  252.21
   2  -4  -3 5499.30  253.06
   2   4  -210578.61  446.97
   2   4  -210893.91  452.96
   2  -4  -211549.60  509.22
   2  -4  -210518.06  421.40
   2  -4  -210667.60  392.48
   2   4  -1 8035.35  356.64
   2   4  -1 8146.97  363.96
   2   4  -1 7249.06  463.57
   2  -4  -1 7970.62  368.32
   2  -4  -1 8499.54  341.21
   2  -4  -1 8276.53  387.67
   2  -4  -1 8416.90  356.44
   2   2  -5  704.95   80.33
   2   2  -5  624.41   63.04
   2  -2  -5  747.77   75.42
   2  -2  -5  723.62   73.61
   2   2  -4 5060.25  243.70
   2   2  -4 5204.81  263.06
   2  -2  -4 5350.69  246.24
   2  -2  -4 5284.11  286.50
   2   2  -3 7904.46  338.83
   2   2  -3 7760.03  347.06
   2  -2  -3 8085.63  351.58
   2  -2  -3 8297.80  390.25
   2  -2  -3 6664.89  266.34
   2   2  -214169.92  552.11
   2   2  -214080.37  698.21
   2   2  -214108.88  601.57
   2   2  -213798.21  524.21
   2  -2  -214314.45  537.06
   2  -2  -214794.67  633.59
   2  -2  -214017.57  487.68
   2  -2  -214629.25  519.47
   2   2  -116742.00  587.64
   2   2  -117865.75  639.46
   2   2  -118703.87  665.51
   2   2  -116986.83  639.53
   2   2  -118032.30  623.53
   2  -2  -117979.06  660.40
   2  -2  -117989.38  715.28
   2  -2  -117076.67  615.65
   2  -2  -118227.52  604.57
   2  -2  -118687.61  643.06
   2   0  -5 1641.06  119.79
   2   0  -5 1617.63  116.28
   2   0  -4 2553.71  130.83
   2   0  -4 2823.47  156.34
   2   0  -310665.61  448.73
   2   0  -311689.79  532.01
   2   0  -310145.53  433.90
   2   0  -222015.98  894.96
   2   0  -222334.24  775.99
   2   0  -221898.19  799.13
   2   0  -125114.10  868.53
   2   0  -123668.22  805.85
   2   0  -124893.90  874.03
   2   0  -125663.51  906.01
   2   0  -124072.36  868.59
   2   0   012872.28  412.75
   2   0   013117.36  412.86
   2   0   013100.49  532.81
   2   0   012616.30  441.19
   2   0   127668.48  986.83
   2   0   125172.32  907.07
   2   0   125590.84  851.92
   2   0   126178.78  885.23
   2   0   241678.37 1527.50
   2   0   239806.34 1356.83
   2   0   239976.50 1341.23
   2   0   240363.77 1416.62
   2   0   3 5302.48  273.60
   2   0   3 4381.88  221.69
   2   0   3 5006.01  206.62
   2   0   3 5204.49  217.24
   2   0   4 3171.67  175.93
   2   0   4 2876.00  134.78
   2   0   4 3237.29  164.62
   2   0   5 1196.56  121.16
   2   2   030333.63 1022.02
   2   2   028767.67  956.13
   2   2   028537.33  985.61
   2   2   030178.65 1032.57
   2  -2   029982.42 1057.00
   2  -2   031277.30 1014.15
   2  -2   029492.42 1010.99
   2  -2   029694.42 1037.71
   2  -2   030475.13 1006.85
   2   2   1 9742.11  413.78
   2   2   110336.50  385.73
   2   2   110118.54  344.27
   2   2   1 9985.43  403.01
   2   2   1 9595.04  373.83
   2  -2   1 9524.79  361.01
   2  -2   1 9254.63  395.23
   2  -2   214456.39  587.10
   2   2   215439.37  580.81
   2   2   214258.78  626.70
   2   2   213886.99  475.62
   2   2   214291.42  532.33
   2  -2   214989.32  585.24
   2  -2   215377.54  571.29
   2   2   310007.39  404.88
   2   2   3 9711.66  401.19
   2  -2   3 8031.20  323.43
   2  -2   3 9557.70  380.41
   2  -2   3 9973.79  435.30
   2   2   4 2749.33  165.15
   2  -2   4 2534.13  159.66
   2  -2   4 2415.58  159.49
   2  -2   4 2663.24  140.35
   2   2   5 1088.62   86.57
   2   2   5  911.27   76.95
   2  -2   5  932.09  134.58
   2  -4   024432.07  864.46
   2  -4   024573.49  883.10
   2  -4   024390.29  864.25
   2  -4   024384.03  859.21
   2   4   023512.59  887.79
   2   4   023094.07  890.33
   2   4   023595.68  842.94
   2   4   023107.39  830.50
   2   4   1 7217.23  291.15
   2   4   1 8143.06  349.81
   2   4   1 7623.27  289.92
   2  -4   1 7177.70  279.49
   2  -4   1 7752.67  279.99
   2  -4   1 7948.84  377.97
   2   4   2 6942.84  327.02
   2   4   2 7643.34  343.79
   2   4   2 6717.43  249.56
   2   4   2 7326.33  293.17
   2  -4   2 7498.15  373.21
   2  -4   2 7536.00  336.53
   2  -4   2 7432.60  369.18
   2   4   3 9386.44  415.93
   2   4   3 9646.98  420.76
   2   4   3 9874.63  379.26
   2  -4   3 9675.98  468.00
   2  -4   310016.15  462.19
   2   4   4 1945.18  116.52
   2   4   4 1814.73  111.00
   2  -4   4 1815.25  139.24
   2  -4   4 1692.10  130.36
   2  -4   4 1973.76  142.38
   2   4   5  837.56   80.04
   2  -4   5  721.85   96.76
   2  -4   5  784.84   86.71
   2   6   0 5923.39  353.44
   2  -6   0 6723.64  294.89
   2  -6   0 6435.48  297.24
   2   6   1 4821.15  208.66
   2   6   1 5044.10  264.65
   2  -6   1 5124.49  285.92
   2   6   2 9925.36  432.29
   2   6   211123.97  486.76
   2  -6   210775.36  464.61
   2  -6   2 9971.65  497.51
   2   6   3 2592.29  186.07
   2   6   3 2845.79  165.55
   2   6   3 2923.40  151.34
   2  -6   3 2710.72  175.82
   2  -6   3 2668.81  170.39
   2  -6   3 2825.27  187.48
   2   6   4 1228.58  104.89
   2   6   4 1413.80  132.03
   2  -6   4 1345.44  128.36
   2  -6   4 1331.59  111.32
   2   8   0 3512.13  200.56
   2   8   0 3074.41  199.58
   2  -8   0 3234.38  182.73
   2  -8   0 3474.73  205.62
   2   8   1 3121.30  168.42
   2   8   1 2930.89  164.20
   2  -8   1 2782.14  185.61
   2  -8   1 3034.09  161.52
   2   8   2 4939.01  236.83
   2   8   2 5831.01  316.70
   2  -8   2 5700.14  267.78
   2  -8   2 6166.36  337.95
   2   8   3 1156.83   89.68
   2   8   3 1410.61  122.29
   2   8   3 1285.81   97.03
   2  -8   3 1315.47  101.80
   2  -8   3 1305.32  110.98
   2  -8   3 1347.49  116.67
   2   8   4  598.31   80.04
   2  -8   4  611.88   85.93
   2  -8   4  647.90   88.52
   2  -8   4  715.48   91.14
   2  10   0 2940.57  182.18
   2  10   0 2945.14  188.05
   2 -10   0 2932.24  202.11
   2 -10   0 2742.02  200.14
   2  10   1 1276.63  104.58
   2  10   1 1192.50  104.36
   2 -10   1 1148.31   83.05
   2 -10   1 1245.28  109.60
   2  10   2  908.09   98.90
   2  10   2  703.75   76.85
   2 -10   2  926.59   97.99
   2  10   3 1501.79  123.33
   2 -10   3 1397.75  124.94
   3  11  -2  447.84   81.73
   3  11  -2  456.80   80.83
   3 -11  -2  627.00   88.99
   3  11  -1  980.09  114.31
   3 -11  -1  739.54   85.02
   3 -11  -1  829.77   87.38
   3   9  -3 1553.65  129.48
   3   9  -3 1255.55  100.47
   3   9  -2 2008.18  138.12
   3   9  -2 2135.14  161.37
   3  -9  -2 2014.83  138.27
   3   9  -1 2576.69  157.31
   3   9  -1 2774.71  178.80
   3  -9  -1 2780.17  170.30
   3  -9  -1 2556.45  147.42
   3   7  -4 1397.05  105.48
   3   7  -4 1170.27   93.49
   3  -7  -4 1388.79  136.81
   3   7  -3 1254.06  101.87
   3   7  -3 1183.16   96.37
   3  -7  -3 1250.42  129.01
   3   7  -2 5999.37  290.84
   3   7  -2 5808.90  271.34
   3  -7  -2 5547.55  284.07
   3  -7  -2 5345.71  260.58
   3   7  -1 5883.51  260.20
   3   7  -1 5932.42  315.29
   3  -7  -1 5751.03  295.74
   3  -7  -1 5796.21  258.29
   3   5  -5 1091.95   94.26
   3  -5  -5 1112.22  103.94
   3   5  -4 1466.98  122.50
   3   5  -4 1444.36  109.29
   3  -5  -4 1623.80  126.20
   3   5  -3 5301.25  258.69
   3   5  -3 5309.37  219.89
   3  -5  -3 5442.57  292.52
   3  -5  -3 4784.47  185.02
   3   5  -2 7345.11  305.50
   3  -5  -2 6901.73  346.81
   3  -5  -2 6788.86  291.79
   3  -5  -2 6523.37  247.79
   3   5  -1 9838.84  428.65
   3   5  -110381.40  426.13
   3  -5  -1 9738.39  430.25
   3  -5  -110321.56  432.91
   3   3  -5 1521.64  124.69
   3   3  -5 1391.43  108.62
   3  -3  -5 1454.07  121.03
   3  -3  -5 1638.95  126.79
   3   3  -4 2216.81  142.36
   3   3  -4 2097.03  131.49
   3  -3  -4 2169.91  151.16
   3  -3  -4 2148.83  150.12
   3   3  -311070.87  428.76
   3   3  -310029.00  425.97
   3  -3  -311196.99  468.70
   3  -3  -3 9997.91  367.26
   3  -3  -3 9339.49  373.46
   3   3  -2 7484.02  332.20
   3   3  -2 8415.83  358.36
   3   3  -2 8689.54  354.30
   3  -3  -2 8846.78  380.10
   3  -3  -2 8457.17  339.47
   3  -3  -2 8052.42  347.96
   3   3  -115595.47  549.89
   3   3  -116003.50  594.00
   3   3  -116684.96  637.01
   3  -3  -116099.08  677.68
   3  -3  -115548.36  617.39
   3  -3  -116354.99  579.63
   3   1  -5 2013.30  144.19
   3   1  -5 2062.84  147.30
   3  -1  -5 2163.09  148.95
   3  -1  -5 2284.72  157.86
   3   1  -4 3024.48  188.02
   3   1  -4 3385.23  180.76
   3  -1  -4 3607.75  189.44
   3  -1  -4 3650.63  208.23
   3   1  -3 4677.42  275.19
   3   1  -3 5203.89  218.08
   3  -1  -3 4625.02  206.64
   3  -1  -3 4789.83  235.43
   3  -1  -3 3908.76  164.68
   3   1  -216464.70  657.67
   3   1  -217703.09  662.18
   3   1  -215502.12  595.79
   3  -1  -217003.73  669.57
   3  -1  -216516.30  624.66
   3   1  -124579.73  799.60
   3   1  -123956.37  801.46
   3   1  -124826.08  807.73
   3   1  -122043.71  834.78
   3  -1  -124216.87  872.36
   3  -1  -125098.69  904.27
   3  -1  -124442.24  788.49
   3   1   026711.51  931.37
   3   1   026394.96  914.96
   3   1   026472.82  897.10
   3   1   029061.68 1074.97
   3   1   027795.61  947.58
   3   1   027277.01  949.06
   3   1   028096.07  921.22
   3  -1   028913.87  977.36
   3  -1   028217.81  914.55
   3  -1   027877.73  976.83
   3  -1   025649.63  961.94
   3  -1   027868.96  935.36
   3  -1   027940.32  932.82
   3   1   114717.75  544.51
   3   1   114403.52  559.39
   3   1   113798.81  546.02
   3   1   114746.78  577.63
   3  -1   115649.97  563.39
   3  -1   114630.10  509.57
   3  -1   113757.80  469.28
   3  -1   114376.91  472.89
   3   1   214498.65  582.80
   3   1   213955.08  525.63
   3   1   214646.92  497.47
   3   1   214563.90  521.74
   3  -1   214691.38  581.90
   3  -1   213354.72  481.19
   3  -1   214402.59  539.61
   3  -1   215038.26  554.38
   3   1   3 9431.67  360.35
   3   1   3 9031.04  341.65
   3  -1   310003.72  430.07
   3  -1   3 8081.09  326.57
   3  -1   3 9530.27  364.43
   3   1   4 3039.57  155.84
   3   1   4 2913.47  161.38
   3  -1   4 3211.83  203.10
   3  -1   4 2844.60  145.09
   3  -1   4 3027.61  181.96
   3   1   5 1161.16  117.36
   3  -1   5 1276.49  135.55
   3  -1   5 1006.88   97.31
   3   3   010549.39  362.49
   3   3   010942.67  441.35
   3   3   011862.00  465.91
   3   3   011020.25  416.88
   3  -3   011509.71  477.60
   3  -3   011472.08  443.01
   3  -3   011248.44  431.85
   3  -3   011627.09  398.20
   3   3   128386.61  956.45
   3   3   129019.67 1017.57
   3   3   125249.05  962.41
   3   3   126052.37 1062.78
   3   3   127346.95 1099.06
   3   3   127963.04 1056.48
   3  -3   128602.67  998.03
   3  -3   128552.97  908.95
   3  -3   126543.33  964.27
   3  -3   126716.60  972.73
   3   3   2 5759.21  276.41
   3   3   2 5353.92  204.44
   3   3   2 5277.82  218.08
   3  -3   2 5935.04  270.03
   3  -3   2 5673.79  265.00
   3   3   3 3235.36  177.70
   3  -3   3 3148.78  223.04
   3  -3   3 3177.13  165.99
   3   3   4 4750.31  233.23
   3   3   4 4730.74  229.60
   3  -3   4 4877.23  281.08
   3  -3   4 4746.52  256.39
   3  -3   4 4816.82  264.54
   3   3   5  733.38   91.86
   3  -3   5  851.40  100.66
   3  -3   5  641.14   82.44
   3   5   0 8585.27  418.44
   3   5   0 8774.97  356.09
   3  -5   0 8884.30  359.28
   3  -5   0 8289.81  381.88
   3   5   111387.28  428.35
   3   5   110888.31  395.56
   3   5   111734.87  491.56
   3   5   1 9779.85  459.24
   3   5   112043.87  495.34
   3  -5   111459.92  421.08
   3  -5   111895.57  513.78
   3   5   2 5102.91  236.99
   3   5   2 5174.30  267.84
   3   5   2 4133.23  171.62
   3  -5   2 5200.44  272.53
   3   5   3 3295.03  182.61
   3   5   3 3846.86  225.68
   3  -5   3 3506.46  204.93
   3  -5   3 3317.64  188.45
   3  -5   3 3404.19  203.73
   3   5   4 2589.72  174.29
   3   5   4 2613.55  171.61
   3  -5   4 2480.67  188.50
   3  -5   4 2621.78  184.98
   3   5   5  555.37   72.44
   3   5   5  507.25   76.51
   3  -5   5  670.06   82.58
   3  -5   5  420.14   60.00
   3  -5   5  530.85   74.43
   3   7   0 6283.80  298.47
   3  -7   0 6708.81  291.51
   3  -7   0 6941.22  350.20
   3   7   1 2789.12  108.66
   3   7   1 3231.04  176.01
   3  -7   1 2975.04  142.06
   3  -7   1 3186.68  168.15
   3   7   2 5040.78  259.66
   3   7   2 4772.16  232.91
   3  -7   2 5099.67  273.77
   3   7   3 3438.56  217.71
   3   7   3 4272.16  239.88
   3   7   3 3638.69  179.21
   3  -7   3 3943.16  219.96
   3  -7   3 4024.56  241.42
   3  -7   3 4095.07  217.42
   3   7   4  644.44   70.22
   3   7   4  757.73   86.92
   3  -7   4  784.53  100.46
   3  -7   4  638.47   81.67
   3  -7   4  650.08   93.57
   3   9   0 2138.75  140.37
   3   9   0 2075.18  136.78
   3  -9   0 2087.35  142.81
   3  -9   0 2139.80  142.24
   3   9   1 3086.96  171.10
   3  -9   1 2828.64  169.28
   3  -9   1 3057.25  236.49
   3   9   2 1484.75  123.37
   3  -9   2 1322.03  105.29
   3  -9   2 1375.28  137.34
   3   9   3 1111.57  104.02
   3  -9   3  950.73   88.90
   3  -9   3  939.34   96.33
   3  -9   3  975.93  102.53
   3  11   0  580.40   73.99
   3 -11   0  506.32   77.18
   3  11   1 1650.26  129.62
   3  11   1 1460.05  105.55
   3 -11   1 1591.32  153.34
   4  10  -2 1712.84  153.36
   4  10  -2 1894.89  162.26
   4 -10  -2 2046.82  161.96
   4  10  -1 1257.93  111.18
   4  10  -1 1209.67  122.85
   4 -10  -1 1279.32  100.00
   4 -10  -1 1076.12   91.34
   4   8  -4 1036.01  112.82
   4  -8  -4 1378.11  142.59
   4   8  -3 1599.10  127.70
   4   8  -3 1621.37  141.73
   4  -8  -3 1743.32  145.66
   4   8  -2 1528.08  112.20
   4   8  -2 1618.56  116.55
   4  -8  -2 1678.52  128.77
   4  -8  -2 1414.08   98.96
   4   8  -1 4775.29  246.51
   4   8  -1 5240.64  300.54
   4  -8  -1 4681.47  259.64
   4   6  -4 2211.52  143.57
   4   6  -4 1975.53  126.14
   4  -6  -4 2225.62  173.12
   4   6  -3 3290.42  180.61
   4   6  -3 3289.96  189.69
   4  -6  -3 3455.19  220.03
   4   6  -2 3284.65  168.99
   4   6  -2 3239.80  186.40
   4  -6  -2 3135.96  194.80
   4  -6  -2 3203.39  157.17
   4  -6  -1 8218.93  367.42
   4  -6  -1 8003.71  372.08
   4   6  -1 7783.41  355.32
   4   6  -1 7729.27  411.48
   4   4  -5 1039.39  126.76
   4   4  -5 1021.05   85.33
   4  -4  -5 1026.77   96.16
   4   4  -4 2396.09  155.52
   4   4  -4 2822.94  171.33
   4  -4  -4 2570.93  167.17
   4   4  -3 5242.25  243.49
   4   4  -3 5419.70  275.48
   4  -4  -3 5405.61  287.33
   4  -4  -3 5158.41  222.03
   4   4  -211800.17  483.95
   4   4  -211558.96  502.81
   4  -4  -212402.04  577.80
   4  -4  -212337.64  497.23
   4  -4  -210998.17  441.76
   4   4  -1 8661.04  367.41
   4   4  -1 9375.45  399.69
   4  -4  -1 8837.30  350.13
   4  -4  -1 9389.78  414.78
   4  -4  -1 9336.27  411.15
   4   2  -5 1207.48  103.59
   4   2  -5 1138.48  101.52
   4  -2  -5 1107.51   98.87
   4  -2  -5 1330.06  115.21
   4   2  -4 3835.79  190.00
   4   2  -4 3737.28  202.50
   4  -2  -4 3687.26  212.76
   4  -2  -4 3687.92  230.38
   4   2  -3 6541.44  332.50
   4  -2  -3 6572.37  301.29
   4  -2  -3 6984.31  317.43
   4   2  -211600.05  433.68
   4   2  -210881.56  446.63
   4  -2  -212014.50  518.10
   4  -2  -210663.48  457.87
   4   2  -114032.55  499.89
   4   2  -113762.41  489.49
   4   2  -113296.89  507.96
   4  -2  -114601.68  618.23
   4  -2  -114491.29  518.15
   4  -2  -113840.33  522.93
   4   0  -5  701.18   74.26
   4   0  -5  877.05   98.99
   4   0  -4 5673.67  298.25
   4   0  -4 5528.82  305.97
   4   0  -3 7747.70  329.07
   4   0  -3 7740.33  342.92
   4   0  -2 4858.02  203.14
   4   0  -2 5212.09  247.42
   4   0  -130988.36 1092.45
   4   0  -129633.41  993.38
   4   0  -133612.27 1093.26
   4   0  -130655.94 1066.81
   4   0  -132667.71 1106.39
   4   0   018401.58  663.61
   4   0   018271.19  724.20
   4   0   019457.26  752.35
   4   0   118895.38  719.89
   4   0   118539.41  686.12
   4   0   118721.96  703.86
   4   0   118088.08  682.72
   4   0   118689.13  676.80
   4   0   119743.41  667.00
   4   0   2 5505.64  263.20
   4   0   2 5159.10  200.25
   4   0   2 5277.09  215.43
   4   0   2 5239.33  225.21
   4   0   2 5559.39  229.26
   4   0   2 5283.09  208.77
   4   0   312848.57  516.26
   4   0   311634.29  560.13
   4   0   312006.97  474.68
   4   0   4 3535.35  201.58
   4   0   4 3237.97  178.47
   4   0   4 3455.77  177.67
   4   0   5  680.03   82.20
   4   2   014529.71  550.95
   4   2   014561.38  533.56
   4   2   015553.32  591.59
   4   2   014562.90  569.70
   4   2   014523.71  589.00
   4  -2   015300.22  570.08
   4  -2   015194.53  536.01
   4  -2   015612.41  578.50
   4  -2   014292.62  564.73
   4  -2   015883.01  550.69
   4  -2   015634.89  535.83
   4   2   111282.81  421.47
   4   2   110323.83  434.75
   4   2   110714.13  406.77
   4   2   111143.18  447.11
   4   2   110847.92  461.35
   4  -2   111083.38  386.07
   4  -2   111673.21  478.45
   4  -2   111502.38  400.89
   4   2   213509.96  499.18
   4   2   212714.92  530.05
   4   2   212350.50  476.36
   4   2   212577.19  426.93
   4  -2   213117.20  520.06
   4   2   3 5670.53  254.88
   4   2   3 5208.82  203.28
   4   2   3 4594.44  212.45
   4  -2   3 6147.49  308.22
   4  -2   3 5353.68  276.99
   4   2   4 1780.05  132.92
   4  -2   4 1894.55  167.70
   4  -2   4 1740.42  122.08
   4  -2   4 1996.90  137.48
   4   2   5 1415.93  153.43
   4  -2   5 1583.37  148.45
   4   4   0 9816.64  333.57
   4   4   0 9922.16  456.57
   4  -4   0 9974.57  407.06
   4  -4   010833.28  400.69
   4  -4   010318.50  414.31
   4   4   1 6063.69  248.83
   4   4   1 5928.67  267.67
   4   4   1 5891.55  257.61
   4   4   1 5576.36  241.01
   4  -4   1 6251.79  241.86
   4  -4   1 6364.67  262.25
   4   4   211871.37  457.28
   4   4   212641.57  503.93
   4   4   210501.51  445.09
   4  -4   213253.91  513.17
   4   4   3 2950.06  164.61
   4   4   3 3200.43  174.93
   4  -4   3 3040.83  190.56
   4  -4   3 3229.20  155.47
   4  -4   3 3224.63  199.57
   4   4   4 1133.38   85.34
   4  -4   4 1116.35  127.37
   4  -4   4 1167.95  106.52
   4   4   5 1119.61  118.56
   4  -4   5 1707.13  147.62
   4  -4   5 1229.13  105.70
   4   6   0 5710.88  286.08
   4  -6   0 5785.14  248.11
   4  -6   0 6460.13  330.10
   4   6   1 5130.26  202.65
   4   6   1 5007.68  193.61
   4   6   1 6253.40  287.04
   4   6   1 5797.44  229.49
   4  -6   1 5797.87  245.83
   4  -6   1 6046.78  307.05
   4   6   2 2878.61  177.13
   4   6   2 3161.82  168.54
   4   6   2 3148.22  149.68
   4  -6   2 3165.05  185.03
   4   6   3 3855.84  220.47
   4   6   3 4074.63  234.85
   4  -6   3 4374.12  259.89
   4  -6   3 4126.80  192.82
   4   6   4 1130.27   81.07
   4   6   4 1525.03  123.55
   4  -6   4 1363.48  130.18
   4  -6   4 1093.13  132.52
   4  -6   4 1425.79  116.69
   4   8   0 3420.71  176.65
   4  -8   0 3340.64  175.58
   4  -8   0 3247.10  200.05
   4   8   1 2919.82  169.54
   4   8   1 2794.33  151.82
   4  -8   1 2762.97  161.12
   4  -8   1 3045.71  200.44
   4   8   2 1788.45  134.67
   4  -8   2 1711.84  132.10
   4   8   3 2254.97  147.27
   4  -8   3 2072.48  164.70
   4  -8   3 2372.03  144.06
   4  -8   3 2269.65  150.03
   4  10   0 1432.08  105.07
   4 -10   0 1126.44   82.98
   4 -10   0 1479.37  130.03
   4  10   1  863.08   94.93
   4  10   1  668.64   77.70
   4 -10   1  769.34  101.74
   4  10   2 1778.19  147.35
   4 -10   2 2066.91  157.80
   5  11  -1 1172.54  114.09
   5 -11  -1 1005.95   84.41
   5 -11  -1  820.91   82.56
   5   9  -3  851.27  105.27
   5   9  -3  755.43   99.59
   5  -9  -3  977.56  101.81
   5   9  -2 1815.29  141.28
   5   9  -2 1917.12  164.98
   5  -9  -2 1892.21  176.31
   5   9  -1 1856.39  148.56
   5   9  -1 2046.54  171.26
   5  -9  -1 2189.67  147.95
   5  -9  -1 2072.06  137.48
   5   7  -4  245.74   53.15
   5   7  -4  319.43   60.74
   5  -7  -4  356.92   64.97
   5   7  -3 3087.76  187.64
   5   7  -3 3081.48  200.62
   5   7  -2 3760.90  183.98
   5   7  -2 3376.26  219.12
   5  -7  -2 3821.50  215.54
   5  -7  -2 3700.72  178.73
   5   7  -1 2422.27  162.48
   5   7  -1 2652.98  168.99
   5  -7  -1 2331.58  153.29
   5  -7  -1 2555.43  151.49
   5   5  -4 1222.12   89.44
   5   5  -4 1329.67   99.18
   5  -5  -4 1355.73  127.96
   5   5  -3 3245.05  162.67
   5   5  -3 3420.41  200.06
   5  -5  -3 3339.14  232.33
   5  -5  -3 2956.99  138.80
   5   5  -2 6846.02  306.72
   5   5  -2 6758.16  347.12
   5  -5  -2 7782.82  390.80
   5  -5  -2 7133.27  339.60
   5   5  -1 8188.74  363.67
   5  -5  -1 8373.47  354.29
   5  -5  -1 7924.44  370.44
   5   3  -5  849.62   83.45
   5   3  -5  919.90   89.14
   5  -3  -5  955.96  100.26
   5   3  -4 2698.30  159.11
   5   3  -4 2724.34  175.10
   5  -3  -4 2752.69  200.05
   5   3  -3 3490.97  166.11
   5   3  -3 3739.58  206.11
   5  -3  -3 3637.37  230.75
   5  -3  -3 3477.71  154.25
   5   3  -212244.60  497.54
   5   3  -212949.33  508.20
   5  -3  -213965.50  604.33
   5  -3  -212770.84  525.41
   5   3  -114142.00  552.72
   5   3  -116068.91  567.40
   5   3  -115656.24  588.12
   5  -3  -115311.06  691.03
   5  -3  -116149.75  616.04
   5   1  -5 1164.48  116.10
   5   1  -5 1424.79  126.92
   5  -1  -5 1195.44   92.74
   5  -1  -5 1307.43  127.67
   5   1  -4 1634.06  106.60
   5   1  -4 1579.04  137.55
   5  -1  -4 1594.06  108.83
   5  -1  -4 1663.35  127.49
   5   1  -3 7393.55  371.58
   5   1  -3 7678.23  362.71
   5  -1  -3 7708.74  309.81
   5  -1  -3 8383.27  385.19
   5   1  -212473.79  479.19
   5   1  -211773.07  514.68
   5  -1  -212129.12  431.42
   5  -1  -211948.07  545.13
   5   1  -1 9390.97  411.55
   5   1  -110550.79  394.02
   5   1  -1 9804.15  406.52
   5  -1  -110593.55  440.11
   5   1   021533.61  891.91
   5   1   022851.11  807.53
   5   1   023140.96  756.97
   5   1   023801.31  874.60
   5   1   023229.88  786.75
   5  -1   023496.46  768.56
   5  -1   023646.37  829.92
   5  -1   023012.29  854.94
   5  -1   023228.96  777.84
   5   1   1 9169.74  360.04
   5   1   1 9122.27  370.56
   5   1   110062.66  379.74
   5   1   1 8327.36  411.61
   5   1   1 8933.08  351.80
   5  -1   1 9005.77  366.72
   5  -1   1 8963.57  342.81
   5  -1   1 9467.29  340.51
   5  -1   1 9489.21  407.84
   5  -1   1 8981.06  340.77
   5   1   2 7161.78  308.80
   5   1   2 6436.74  276.46
   5   1   2 7012.66  268.46
   5  -1   2 6955.81  248.50
   5  -1   2 6521.89  244.87
   5  -1   2 7229.67  297.25
   5  -1   2 7273.23  311.20
   5   1   3 3185.69  159.73
   5   1   3 3029.76  147.80
   5  -1   3 3251.03  215.18
   5  -1   3 2584.52   95.12
   5  -1   3 2950.97  182.16
   5   1   4 4801.45  292.36
   5  -1   4 5210.51  293.32
   5  -1   4 4710.10  231.14
   5   1   5  721.71   96.67
   5  -1   5  804.52   96.64
   5   3   0 9582.02  355.04
   5   3   010274.67  480.36
   5  -3   0 9866.72  391.20
   5  -3   010491.59  404.33
   5  -3   010287.20  390.98
   5   3   1 7180.65  280.61
   5   3   1 6747.60  283.51
   5   3   1 6881.53  289.72
   5  -3   1 6824.61  313.81
   5  -3   1 7053.08  265.56
   5  -3   1 7406.14  341.29
   5   3   2 4629.46  215.83
   5   3   2 4837.02  201.93
   5   3   2 4127.63  178.56
   5   3   2 3919.20  183.92
   5  -3   2 4646.62  208.95
   5   3   3 6665.55  284.07
   5   3   3 6145.10  254.42
   5  -3   3 6853.46  329.06
   5  -3   3 6500.66  277.82
   5   3   4 1745.24  152.14
   5  -3   4 1857.59  165.77
   5  -3   4 1719.84  133.53
   5  -3   4 1747.76  118.83
   5   3   5  506.25   73.59
   5  -3   5  623.94   76.39
   5   5   0 8148.85  366.56
   5   5   0 9629.85  424.55
   5  -5   0 8659.83  374.76
   5  -5   0 9021.02  401.26
   5   5   1 4732.97  178.70
   5   5   1 4456.67  178.39
   5   5   1 5101.92  259.31
   5  -5   1 4928.44  181.89
   5  -5   1 4896.78  208.93
   5   5   2 3259.24  165.28
   5   5   2 3414.21  175.32
   5  -5   2 3385.89  179.16
   5   5   3 3107.79  176.62
   5   5   3 3198.67  195.13
   5  -5   3 3266.96  200.89
   5  -5   3 3167.73  169.41
   5  -5   3 3190.37  197.52
   5   5   4 1754.59  120.06
   5   5   4 1947.31  148.53
   5  -5   4 1860.98  167.38
   5  -5   4 1818.72  135.81
   5   7   0 6147.48  282.64
   5   7   0 6524.17  352.26
   5  -7   0 6586.30  289.99
   5  -7   0 6643.94  306.75
   5   7   1 2855.29  183.48
   5  -7   1 2757.24  148.78
   5  -7   1 2940.48  175.85
   5   7   2 2546.85  168.93
   5  -7   2 2423.93  169.18
   5   7   3  563.61   64.30
   5  -7   3  638.55   82.40
   5  -7   3  630.50   88.28
   5  -7   3  756.28   86.79
   5   7   4 2026.22  180.47
   5  -7   4 2100.80  181.12
   5  -7   4 1763.49  128.73
   5   9   0 2359.14  153.51
   5   9   0 2414.50  190.41
   5  -9   0 2463.55  140.80
   5  -9   0 2486.18  171.78
   5   9   1 1494.09  111.29
   5  -9   1 1423.82  106.40
   5   9   2 1096.39   96.00
   5  -9   2  786.63  114.10
   5   9   3  932.69  103.35
   5  -9   3  709.45   82.72
   5  -9   3  708.97   91.93
   5  -9   3  716.67   82.47
   5  11   0  623.61   77.37
   5  11   0  594.62   97.11
   5 -11   0  739.46   91.34
   6  10  -2  295.91   45.57
   6  10  -2  283.58   60.35
   6  10  -1 1908.01  158.20
   6 -10  -1 1673.28  140.02
   6 -10  -1 1681.29  149.51
   6   8  -3  435.92   65.81
   6   8  -3  618.69   92.93
   6  -8  -3  493.16   74.77
   6   8  -2 1905.74  142.90
   6   8  -2 2084.59  168.92
   6  -8  -2 1926.29  142.26
   6  -8  -2 1814.21  119.52
   6   8  -1 2969.81  193.84
   6   8  -1 3050.64  225.43
   6  -8  -1 2801.78  167.00
   6  -8  -1 2871.41  163.46
   6   6  -4 1124.95   99.39
   6   6  -4 1488.80  124.14
   6  -6  -4 1421.29  118.96
   6   6  -3 1084.52   96.04
   6   6  -3 1138.86  118.29
   6  -6  -3 1134.70   93.08
   6   6  -2 3739.14  223.44
   6   6  -2 3965.82  220.74
   6  -6  -2 3987.89  225.78
   6  -6  -2 3923.42  219.05
   6   6  -1 5730.50  267.72
   6   6  -1 5874.60  293.54
   6  -6  -1 5776.31  286.14
   6  -6  -1 5777.97  292.71
   6   4  -4 1798.59  126.39
   6   4  -4 2111.48  169.07
   6  -4  -4 2077.56  173.59
   6   4  -3 3950.35  190.82
   6   4  -3 4269.95  227.57
   6  -4  -3 3974.20  230.68
   6  -4  -3 3637.88  186.07
   6   4  -2 2076.56  122.62
   6   4  -2 1879.40  120.61
   6  -4  -2 2333.87  141.43
   6  -4  -2 2147.64  121.11
   6   4  -113104.75  490.34
   6   4  -114544.87  615.08
   6  -4  -113712.85  635.20
   6  -4  -113066.81  605.44
   6   2  -5 1580.92  120.60
   6  -2  -5 1517.36  132.17
   6   2  -4 2639.30  150.52
   6   2  -4 2772.25  186.15
   6  -2  -4 2867.57  201.06
   6   2  -3 3378.41  175.04
   6   2  -3 3545.90  227.61
   6  -2  -3 3772.35  213.21
   6  -2  -3 3223.30  188.98
   6   2  -2 4640.52  202.63
   6   2  -2 5053.78  215.75
   6  -2  -2 4908.19  271.44
   6  -2  -2 4787.40  217.28
   6   2  -113234.32  527.78
   6   2  -114027.22  510.62
   6   2  -114875.94  579.48
   6  -2  -114541.11  650.50
   6   0  -5 1440.08  137.50
   6   0  -4 2995.99  146.75
   6   0  -4 3270.30  226.57
   6   0  -3 2269.69  137.98
   6   0  -3 2668.04  155.58
   6   0  -2 9900.24  341.25
   6   0  -210528.98  428.71
   6   0  -113787.04  612.75
   6   0   0 9948.65  326.67
   6   0   0 9110.14  317.15
   6   0   010617.83  402.54
   6   0   116493.88  677.86
   6   0   117518.24  675.00
   6   0   116429.68  593.68
   6   0   117433.54  615.50
   6   0   2 5376.93  217.30
   6   0   2 4601.51  186.21
   6   0   2 4896.81  291.97
   6   0   3 3410.02  183.70
   6   0   3 3050.27  144.02
   6   0   3 3416.26  175.91
   6   0   3 3169.76  136.62
   6   0   4  654.40   73.97
   6   0   5 1944.22  160.48
   6   2   011798.96  464.23
   6   2   012086.86  447.53
   6   2   012053.16  436.37
   6   2   013280.02  520.35
   6  -2   011966.35  428.28
   6  -2   012950.27  492.17
   6  -2   012273.45  582.29
   6   2   110673.07  412.14
   6   2   1 9957.51  469.60
   6   2   110916.87  388.32
   6  -2   1 9913.74  385.20
   6  -2   110407.68  395.22
   6  -2   110113.60  548.58
   6  -2   110299.79  397.34
   6   2   2 4382.50  222.65
   6   2   2 4618.07  223.71
   6  -2   2 4712.91  207.75
   6   2   3 2896.87  163.59
   6   2   3 2515.08  142.60
   6  -2   3 2940.05  187.09
   6  -2   3 2481.82  144.60
   6   2   4 1582.87  142.29
   6  -2   4 1805.97  160.23
   6  -2   4 1433.69   94.67
   6   4   0 8940.83  368.51
   6   4   010346.77  435.44
   6   4   011198.69  446.41
   6  -4   0 9642.14  397.42
   6  -4   010582.21  430.62
   6  -4   010634.33  444.89
   6   4   1 6999.01  282.26
   6   4   1 6020.24  266.26
   6   4   1 7397.63  311.15
   6  -4   1 6948.37  275.13
   6  -4   1 7565.47  329.32
   6   4   2 2901.45  210.17
   6   4   2 3065.12  183.85
   6  -4   2 3194.72  185.89
   6   4   3 1936.13  140.60
   6   4   3 2160.14  145.48
   6  -4   3 2240.96  156.37
   6  -4   3 2068.54  135.14
   6   4   4 1542.31  119.39
   6   4   4 2026.10  141.13
   6  -4   4 2110.53  156.71
   6  -4   4 1768.47  136.60
   6   6   0 4401.71  241.42
   6   6   0 4789.64  250.67
   6  -6   0 4372.08  251.09
   6   6   1 6000.41  264.76
   6  -6   1 5363.47  241.50
   6  -6   1 6008.41  309.76
   6   6   2 2060.36  121.67
   6   6   2 2429.17  138.36
   6  -6   2 2307.67  140.66
   6   6   3 1019.51   83.69
   6   6   3 1318.02  108.83
   6  -6   3 1413.96  122.70
   6  -6   3 1115.14  104.33
   6  -6   3 1240.44  106.11
   6   6   4  438.47   71.65
   6  -6   4  340.73   63.96
   6  -6   4  342.85   80.45
   6  -6   4  418.18   58.04
   6   8   0 2013.95  125.43
   6   8   0 2319.84  180.88
   6  -8   0 1885.53  111.08
   6  -8   0 2297.55  142.97
   6   8   1 3185.21  159.40
   6  -8   1 3363.80  210.17
   6   8   2 1108.49  101.05
   6  -8   2 1282.05  117.04
   6   8   3  729.24   91.92
   6  -8   3  631.31   88.01
   6  -8   3  548.53   83.46
   6  10   0 1459.90  111.74
   6  10   0 1526.57  142.50
   6 -10   0 1515.08  129.75
   6  10   1  908.88   84.49
   6 -10   1  847.50  102.18
   7   9  -2  898.80   87.15
   7   9  -2  776.39  116.18
   7  -9  -2 1002.75  102.67
   7   9  -1  373.15   80.01
   7  -9  -1  483.28   56.26
   7  -9  -1  372.09   63.88
   7   7  -3 1394.40  108.40
   7   7  -3 1661.60  132.68
   7  -7  -3 1783.22  167.94
   7   7  -2 1187.67  103.26
   7   7  -2 1171.13  118.78
   7  -7  -2 1353.83  119.70
   7  -7  -2 1273.62   97.26
   7   7  -1 3034.35  191.87
   7   7  -1 3185.89  194.93
   7  -7  -1 3252.85  194.31
   7  -7  -1 3366.23  214.65
   7   5  -4 2009.14  156.16
   7  -5  -4 1969.85  159.96
   7   5  -3 2523.47  153.00
   7   5  -3 3010.06  206.08
   7  -5  -3 2916.13  223.46
   7  -5  -3 2701.29  168.32
   7   5  -2 3356.68  165.64
   7   5  -2 3682.74  218.86
   7  -5  -2 3372.30  222.90
   7  -5  -2 3365.31  203.52
   7   5  -1 1976.57  110.21
   7   5  -1 1923.92  118.17
   7  -5  -1 1839.86  116.64
   7  -5  -1 2003.37  140.02
   7   3  -4 2723.52  200.03
   7  -3  -4 2889.39  191.65
   7   3  -3 4411.46  233.86
   7   3  -3 4424.67  252.68
   7  -3  -3 4988.26  269.33
   7  -3  -3 4225.85  235.42
   7   3  -2 5825.62  275.49
   7   3  -2 6491.87  272.84
   7  -3  -2 7143.11  378.50
   7  -3  -2 6698.52  311.73
   7   3  -1 1173.54   60.40
   7   3  -1 1281.43   92.48
   7  -3  -1 1299.66   87.28
   7  -3  -1 1238.40   82.01
   7   1  -4 3027.06  208.19
   7  -1  -4 3347.48  196.64
   7   1  -3 4905.63  213.90
   7   1  -3 5893.85  272.31
   7  -1  -3 4974.53  286.40
   7   1  -2 4674.14  193.82
   7   1  -2 5132.84  233.73
   7  -1  -2 5176.91  275.08
   7   1  -1 7181.28  299.73
   7  -1  -1 7304.36  308.98
   7   1   0 9444.84  325.29
   7   1   0 9631.00  335.33
   7   1   010078.29  480.14
   7   1   0 9266.88  367.15
   7  -1   010157.37  422.33
   7  -1   0 9924.95  418.10
   7  -1   0 8827.69  393.26
   7   1   1 6789.16  329.86
   7   1   1 8426.95  394.80
   7   1   1 8169.72  323.40
   7  -1   1 7031.74  286.87
   7  -1   1 8033.67  341.74
   7  -1   1 6937.96  317.55
   7  -1   1 7831.10  365.66
   7   1   2 7806.32  300.07
   7   1   2 7585.65  329.74
   7  -1   2 7635.32  289.31
   7  -1   2 7698.20  350.46
   7  -1   2 7321.16  292.33
   7   1   3 2584.79  154.79
   7   1   3 2249.90  111.04
   7   1   3 2552.13  147.82
   7  -1   3 2589.39  165.46
   7  -1   3 2510.02  147.69
   7   1   4 1113.66  125.88
   7  -1   4 1197.88  127.13
   7   3   013461.95  505.33
   7   3   011999.16  505.74
   7   3   014824.17  615.81
   7  -3   012482.08  488.81
   7  -3   014035.07  592.12
   7  -3   014041.51  590.54
   7   3   1 8030.95  307.65
   7   3   1 7693.80  392.14
   7  -3   1 7366.86  286.43
   7  -3   1 8229.79  363.30
   7   3   2 4634.23  228.34
   7   3   2 4771.44  208.15
   7   3   2 5376.72  242.49
   7   3   2 5010.50  236.49
   7  -3   2 5103.90  244.63
   7   3   3 1552.78  105.50
   7  -3   3 2001.35  155.17
   7  -3   3 1601.68  112.45
   7   3   4  934.88   99.78
   7  -3   4 1143.02  119.92
   7   5   0 6308.11  261.71
   7   5   0 7371.77  331.16
   7   5   0 7767.71  368.95
   7  -5   0 7139.40  327.06
   7  -5   0 7465.97  419.72
   7   5   1 4201.53  217.70
   7   5   1 4646.08  228.75
   7  -5   1 4425.42  193.57
   7  -5   1 4946.93  234.25
   7   5   2 3549.03  190.55
   7   5   2 3769.84  223.41
   7  -5   2 3626.16  199.09
   7   5   3 1027.27   88.49
   7   5   3 1290.60  107.24
   7  -5   3 1396.21  118.68
   7  -5   3 1144.01   97.57
   7  -5   3 1195.16   90.94
   7   5   4  390.75   77.37
   7   5   4  570.25   74.74
   7  -5   4  774.19   97.54
   7  -5   4  560.29   74.61
   7   7   0 2864.76  162.53
   7   7   0 2758.68  198.30
   7  -7   0 2747.27  132.69
   7  -7   0 2791.46  181.85
   7   7   1 2472.74  156.75
   7   7   1 2675.70  181.26
   7  -7   1 2540.47  166.05
   7   7   2 2743.59  188.28
   7  -7   2 2713.94  198.67
   7   7   3  998.69  101.61
   7  -7   3 1035.60  108.14
   7  -7   3 1019.75   98.00
   7  -7   3  753.89   83.18
   7   9   0 1849.31  132.97
   7   9   0 1941.80  155.69
   7  -9   0 1969.63  168.98
   7   9   1 1130.25   93.35
   7   9   1 1234.09  130.07
   7  -9   1 1201.49  139.05
   7   9   2  939.61   82.98
   7  -9   2  973.02   98.57
   8   8  -2 1435.65  147.01
   8  -8  -2 1240.57  109.64
   8  -8  -2 1222.62  104.02
   8   8  -1 1318.85  122.34
   8   8  -1 1542.78  128.54
   8  -8  -1 1216.62  106.63
   8  -8  -1 1459.83  120.47
   8   6  -3 2148.52  172.18
   8  -6  -3 2103.11  172.50
   8   6  -2 2318.09  140.27
   8   6  -2 2541.38  191.81
   8  -6  -2 3002.23  205.04
   8  -6  -2 2742.84  170.46
   8   6  -1 2801.83  161.79
   8   6  -1 3228.90  202.49
   8  -6  -1 3338.05  188.38
   8  -6  -1 2877.91  203.43
   8   4  -4  742.52   84.19
   8  -4  -4  727.44   88.12
   8   4  -3 3325.65  203.51
   8  -4  -3 3424.18  206.45
   8  -4  -3 3215.61  178.93
   8   4  -2 4649.70  215.40
   8   4  -2 5194.52  271.94
   8  -4  -2 5078.44  276.56
   8  -4  -2 5804.71  291.13
   8   4  -1 6707.81  323.03
   8  -4  -1 6085.96  270.27
   8   2  -4 1189.02  121.55
   8  -2  -4 1309.03  121.38
   8   2  -3 4503.83  234.80
   8  -2  -3 4253.55  239.68
   8  -2  -3 4049.12  225.18
   8   2  -2 6644.82  314.16
   8  -2  -2 6483.24  355.02
   8  -2  -2 6577.24  344.90
   8   2  -1 7644.90  333.59
   8  -2  -1 7045.50  359.13
   8  -2  -1 7686.37  340.78
   8   0  -4 1987.16  156.86
   8   0  -3 4722.13  263.37
   8   0  -2 6577.54  312.27
   8   0  -1 7071.91  335.67
   8   0   0 7122.02  313.28
   8   0   0 6743.25  288.50
   8   0   0 5608.19  251.69
   8   0   1 3388.73  137.21
   8   0   1 4181.21  204.74
   8   0   1 4380.90  221.96
   8   0   1 3706.60  160.37
   8   0   2 4829.54  231.63
   8   0   3 3217.81  198.97
   8   0   3 3398.23  208.05
   8   0   4 1117.13  128.96
   8   2   0 2164.69   90.91
   8   2   0 1947.27   99.25
   8   2   0 2410.94  129.67
   8  -2   0 2367.62  141.25
   8  -2   0 2465.86  139.37
   8   2   1 7340.71  295.20
   8   2   1 7456.09  297.03
   8  -2   1 6918.79  299.30
   8   2   2 4231.79  201.33
   8   2   2 4219.15  208.34
   8   2   2 3979.23  206.69
   8   2   2 3915.88  193.65
   8  -2   2 4181.39  200.44
   8   2   3 2767.87  173.29
   8   2   3 2444.25  139.96
   8   2   3 2587.42  123.30
   8  -2   3 2861.68  173.55
   8  -2   3 2617.96  159.96
   8  -2   4  572.72   89.06
   8  -2   4  644.40   75.23
   8   4   0  653.82   53.80
   8   4   0  642.66   72.04
   8  -4   0  642.44   71.49
   8  -4   0  623.41   78.72
   8   4   1 7347.02  321.50
   8   4   1 7410.76  314.48
   8   4   1 7617.31  389.43
   8  -4   1 6913.06  298.04
   8  -4   1 7903.07  369.65
   8   4   2 2741.34  156.40
   8   4   2 3205.85  179.22
   8   4   2 3193.99  196.64
   8   4   2 3124.61  173.71
   8  -4   2 3061.18  172.12
   8   4   3 1574.63   95.45
   8   4   3 2056.77  148.64
   8   4   3 1785.74  120.32
   8  -4   3 1883.11  143.35
   8   4   4  227.84   47.27
   8   4   4  428.68   75.94
   8  -4   4  570.89   69.90
   8  -4   4  374.49   63.82
   8   6   0 2160.03  131.79
   8   6   0 2293.35  167.04
   8  -6   0 2271.36  127.88
   8  -6   0 2476.90  163.46
   8   6   1 2252.37  132.60
   8   6   1 2311.24  171.49
   8  -6   1 2395.75  157.19
   8   6   2 2039.61  132.16
   8   6   2 2142.86  159.35
   8  -6   2 2007.65  134.69
   8   6   3 1391.09  104.01
   8  -6   3 1335.90   96.77
   8   8   0 1176.41   96.43
   8   8   0 1385.52  117.99
   8  -8   0 1262.40  128.30
   8   8   1  994.99   88.49
   8   8   1 1236.35  123.44
   8  -8   1 1144.57  115.27
   8   8   2  954.23   79.97
   8   8   2 1004.28  106.40
   8  -8   2  972.96  103.37
   9   7  -2 1564.61  151.31
   9  -7  -2 1609.77  124.51
   9  -7  -2 1401.21  113.50
   9   7  -1 1649.43  128.72
   9  -7  -1 1381.23   96.21
   9  -7  -1 1436.53  127.90
   9   5  -3 1123.28  127.49
   9  -5  -3 1171.12  111.60
   9   5  -2 2889.58  197.70
   9  -5  -2 2729.82  164.68
   9  -5  -2 2661.01  170.09
   9   5  -1 3677.30  206.89
   9  -5  -1 3056.78  202.36
   9  -5  -1 3678.85  227.80
   9   3  -4 1045.78   94.55
   9  -3  -4  923.24  115.97
   9   3  -3 1570.83  143.64
   9  -3  -3 1674.10  131.72
   9  -3  -3 1302.14  111.81
   9   3  -2 4271.47  242.67
   9  -3  -2 3752.34  212.42
   9  -3  -2 3749.26  229.39
   9   3  -1 5948.97  296.88
   9  -3  -1 5703.02  284.76
   9  -3  -1 5909.50  278.45
   9   1  -4 1683.24  146.87
   9  -1  -4 1631.77  145.29
   9  -1  -4 1417.91  119.21
   9   1  -3 2337.56  182.95
   9  -1  -3 2299.50  150.23
   9   1  -2 4548.73  262.41
   9  -1  -2 4924.81  249.02
   9   1  -1 5270.56  273.04
   9  -1  -1 5156.27  251.22
   9  -1  -1 5097.37  299.14
   9  -1   0 6992.25  303.08
   9  -1   0 6766.88  353.58
   9   1   1 3460.94  168.48
   9   1   1 3603.51  186.08
   9   1   1 3728.47  206.03
   9  -1   1 3474.23  196.96
   9  -1   1 3505.72  169.13
   9   1   2 1966.24  106.52
   9   1   2 2176.90  129.79
   9   1   3 2057.90  170.69
   9   1   3 2066.77  114.05
   9  -1   3 2125.58  167.34
   9  -1   3 1990.03  135.72
   9  -1   4  857.90  119.05
   9   3   0 5526.64  238.70
   9   3   0 6265.84  257.52
   9  -3   0 5808.86  299.95
   9  -3   0 6193.11  347.37
   9   3   1 1404.36   82.98
   9   3   1 1187.85  105.65
   9  -3   1 1104.06   82.73
   9  -3   1 1236.60  112.59
   9   3   2 4054.67  225.37
   9   3   2 4206.51  203.11
   9   3   2 3906.00  196.25
   9   3   2 4126.73  214.87
   9  -3   2 4376.00  221.11
   9   3   3 1211.11  106.50
   9   3   3 1389.33  121.65
   9  -3   3 1441.18  120.79
   9   5   0 3535.46  187.78
   9  -5   0 3808.56  193.59
   9  -5   0 4214.68  212.84
   9   5   1 1075.62   85.73
   9   5   1 1041.79   85.40
   9  -5   1 1205.90  110.59
   9   5   2 1974.25  114.88
   9   5   2 2034.90  172.01
   9   5   2 1919.62  109.50
   9  -5   2 2009.59  129.05
   9   5   3  933.31   86.88
   9   5   3  954.05   95.04
   9  -5   3  874.11   79.59
   9   7   0 1822.74  147.47
   9   7   0 2540.48  160.67
   9  -7   0 2297.22  160.85
   9   7   1 1271.12  105.91
   9   7   1 1547.28  109.00
   9  -7   1 1584.73  144.03
   9   7   2  402.39   57.82
   9   7   2  418.40   72.75
   9  -7   2  465.17   68.95
  10   6  -2 1223.83  112.32
  10  -6  -2 1137.16  110.79
  10   6  -1 1711.40  133.34
  10  -6  -1 1684.04  137.63
  10  -6  -1 1897.67  160.47
  10   4  -3  935.52  107.21
  10  -4  -3 1053.94  120.62
  10  -4  -3  809.70   95.54
  10   4  -2 2307.11  175.95
  10  -4  -2 1920.41  156.84
  10  -4  -2 1926.03  155.08
  10   4  -1 2418.63  171.37
  10  -4  -1 2463.84  166.46
  10  -4  -1 2347.07  171.55
  10   2  -3 1632.99  157.84
  10  -2  -3 1767.72  136.71
  10  -2  -3 1686.05  136.42
  10   2  -2 2778.07  205.75
  10  -2  -2 2806.20  193.53
  10  -2  -2 3075.05  228.03
  10   2  -1 3525.23  215.86
  10  -2  -1 3574.24  219.03
  10   0  -3 2830.12  197.46
  10   0  -2 3316.39  219.42
  10   0  -1 4180.59  212.96
  10   0   0 2675.50  171.04
  10   0   0 2751.92  184.72
  10   0   1 4310.27  237.31
  10   0   1 4854.35  223.70
  10   0   2 2227.37  181.84
  10   0   3  598.50   79.12
  10   0   3  484.34   60.76
  10   2   0 3534.29  210.19
  10  -2   0 3753.44  216.22
  10  -2   0 3856.85  233.40
  10   2   1 3747.43  227.78
  10   2   1 3855.86  195.37
  10  -2   1 3375.83  189.54
  10  -2   1 3602.39  202.35
  10   2   2 1502.10  115.45
  10   2   2 1387.00   89.07
  10   2   2 1530.44  114.31
  10  -2   2 1580.80  112.05
  10   2   3 1021.37  107.92
  10   2   3 1176.12   81.65
  10   2   3 1037.35   98.50
  10  -2   3 1146.36  110.28
  10  -2   3  897.99   93.35
  10   4   0 3388.31  177.41
  10  -4   0 3157.73  167.29
  10   4   1 3040.45  185.72
  10  -4   1 2874.56  183.21
  10   4   2 1047.45   80.88
  10   4   2  960.55   89.92
  10  -4   2 1134.89  109.35
  10   4   3 1197.04  113.01
  10  -4   3 1171.11  104.62
  10   6   0 1125.05  110.99
  10  -6   0 1033.02  116.68
  10   6   1 1879.53  149.01
  10  -6   1 1848.75  144.22
  10   6   2  837.73   92.16
  10  -6   2  870.40   83.31
  10   8   0  655.76  100.17
  10  -8   0  401.12   74.01
  11   5  -2  962.92  113.68
  11  -5  -2  979.58  113.77
  11   5  -1 1665.89  134.27
  11  -5  -1 1515.20  128.14
  11  -5  -1 1824.57  152.57
  11   3  -3 1547.14  142.07
  11  -3  -3 1666.60  141.65
  11  -3  -3 1536.59  145.49
  11   3  -2 1215.45  111.83
  11  -3  -2 1293.82  122.89
  11  -3  -2 1106.90  121.40
  11   3  -1 2701.89  173.87
  11  -3  -1 2742.15  186.15
  11  -3  -1 2994.94  216.12
  11   1  -3  626.83   87.53
  11  -1  -3  574.97  100.12
  11   1  -2 2647.40  206.09
  11  -1  -2 2926.14  217.06
  11  -1  -2 2683.25  193.51
  11   1  -1 3007.68  198.52
  11  -1  -1 3066.42  203.80
  11  -1  -1 3356.70  200.98
  11   1   0 2922.94  175.33
  11   1   0 3074.85  183.54
  11  -1   0 3139.64  172.29
  11  -1   0 3010.15  194.62
  11   1   1 1112.64   70.56
  11   1   1 1112.89   94.65
  11  -1   1 1136.30  108.28
  11   1   2 1870.96  138.43
  11   1   3  731.05   92.50
  11   1   3  649.19   72.35
  11  -1   3  690.68   92.35
  11  -1   3  793.88   81.06
  11   3   0 2083.52  145.83
  11  -3   0 1936.02  144.06
  11  -3   0 1984.73  156.93
  11   3   1 1840.41  126.84
  11   3   1 2093.67  149.54
  11  -3   1 2034.19  153.16
  11   3   2 1208.97  110.77
  11  -3   2 1286.69  109.78
  11   5   0 1328.83  119.38
  11  -5   0 1604.94  135.67
  11   5   1 1050.94  109.43
  11  -5   1 1017.60   98.52
  11   5   2  749.42   82.51
  11   5   2  620.67   68.12
  11  -5   2  850.47  116.61
  12   4  -1  533.93   88.31
  12  -4  -1  552.44   69.66
  12  -4  -1  566.96   86.18
  12   2  -2 1263.73  152.23
  12  -2  -2 1262.94  124.93
  12  -2  -2 1264.58  120.13
  12   2  -1 1169.14  113.15
  12  -2  -1 1144.60  105.76
  12  -2  -1 1525.41  137.54
  12   0  -2  757.84   93.86
  12   0  -2  843.85  101.26
  12   0  -1 2330.60  181.78
  12   0  -1 2468.56  181.69
  12   0   0 2239.06  159.08
  12   0   0 2596.54  182.26
  12   0   1 1954.31  162.92
  12   0   2  211.28   54.56
  12   2   0 2182.39  148.28
  12   2   0 2125.60  192.44
  12  -2   0 1894.77  139.45
  12  -2   0 2427.33  185.68
  12   2   1 1236.68  105.38
  12   2   1 1351.48  113.36
  12  -2   1 1308.22  122.34
  12   2   2  645.43   82.52
  12   2   2  607.03   76.80
  12  -2   2  798.71   84.19
  12   4   0 1699.53  131.49
  12  -4   0 1987.44  174.69
  12   4   1  818.36   94.72
  12   4   1  970.34   92.15
  12  -4   1 1041.23  102.42
  13   1  -1  809.25   95.87
  13   1  -1  883.48  106.02
  13  -1  -1  747.14   93.11
  13  -1  -1  810.11  102.11
  13   1   0  859.16   90.06
  13   1   0 1101.07  108.68
  13  -1   0 1117.24  123.15
  13   1   1 1322.76  106.19
  13  -1   1 1096.88  123.67
  13   3   0  311.81   63.30
  13   3   0  356.44   67.67
  13  -3   0  342.08   57.23

;
_shelx_hkl_checksum              79252
loop_
_space_group_symop_operation_xyz
'x, y, z'
'x, -y, z'
'x+1/2, y+1/2, z'
'x+1/2, -y+1/2, z'
loop_
_atom_site_label
_atom_site_type_symbol
_atom_site_fract_x
_atom_site_fract_y
_atom_site_fract_z
_atom_site_U_iso_or_equiv
_atom_site_adp_type
_atom_site_occupancy
_atom_site_site_symmetry_order
_atom_site_calc_flag
_atom_site_refinement_flags_posn
_atom_site_refinement_flags_adp
_atom_site_refinement_flags_occupancy
_atom_site_disorder_assembly
_atom_site_disorder_group
Br1 Br 0.60183(2) 0.5000 0.41858(2) 0.02458(12) Uani 1 2 d S T P . .
N1 N -0.0756(6) 0.5000 1.2195(13) 0.0336(10) Uani 1 2 d S T P . .
C1 C 0.1669(5) 0.5000 0.9353(14) 0.0231(9) Uani 1 2 d S T P . .
C2 C 0.2309(4) 0.3574(4) 0.8553(9) 0.0236(6) Uani 1 1 d . . . . .
H2 H 0.189(5) 0.262(7) 0.940(13) 0.028(12) Uiso 1 1 d . . . . .
C3 C 0.3597(4) 0.3578(4) 0.6954(9) 0.0241(6) Uani 1 1 d . . . . .
H3 H 0.401(6) 0.265(7) 0.651(14) 0.033(13) Uiso 1 1 d . . . . .
C4 C 0.4217(5) 0.5000 0.6184(12) 0.0216(8) Uani 1 2 d S T P . .
C5 C 0.0318(6) 0.5000 1.0955(15) 0.0274(10) Uani 1 2 d S T P . .
loop_
_atom_site_aniso_label
_atom_site_aniso_U_11
_atom_site_aniso_U_22
_atom_site_aniso_U_33
_atom_site_aniso_U_23
_atom_site_aniso_U_13
_atom_site_aniso_U_12
Br1 0.02208(18) 0.02669(18) 0.02511(18) 0.000 0.00412(12) 0.000
N1 0.031(2) 0.034(2) 0.036(2) 0.000 0.0065(19) 0.000
C1 0.022(2) 0.025(2) 0.022(2) 0.000 -0.0004(18) 0.000
C2 0.0224(15) 0.0215(13) 0.0270(15) 0.0020(12) 0.0017(12) -0.0017(12)
C3 0.0244(16) 0.0214(14) 0.0266(15) -0.0012(12) 0.0015(12) 0.0005(12)
C4 0.0186(19) 0.026(2) 0.021(2) 0.000 0.0024(15) 0.000
C5 0.025(2) 0.028(2) 0.029(3) 0.000 -0.001(2) 0.000
loop_
_atom_type_symbol
_atom_type_description
_atom_type_scat_dispersion_real
_atom_type_scat_dispersion_imag
_atom_type_scat_source
C C 0.0033 0.0016 'International Tables Vol C Tables 4.2.6.8 and 6.1.1.4'
H H 0.0000 0.0000 'International Tables Vol C Tables 4.2.6.8 and 6.1.1.4'
N N 0.0061 0.0033 'International Tables Vol C Tables 4.2.6.8 and 6.1.1.4'
Br Br -0.2901 2.4595 'International Tables Vol C Tables 4.2.6.8 and 6.1.1.4'
loop_
_geom_angle_atom_site_label_1
_geom_angle_atom_site_label_2
_geom_angle_atom_site_label_3
_geom_angle
_geom_angle_site_symmetry_1
_geom_angle_site_symmetry_3
_geom_angle_publ_flag
C2 C1 C2 120.7(5) . 2_565 ?
C2 C1 C5 119.7(2) . . ?
C2 C1 C5 119.7(2) 2_565 . ?
C3 C2 C1 119.5(3) . . ?
C3 C2 H2 122(3) . . ?
C1 C2 H2 118(3) . . ?
C4 C3 C2 119.0(3) . . ?
C4 C3 H3 122(4) . . ?
C2 C3 H3 119(4) . . ?
C3 C4 C3 122.2(5) . 2_565 ?
C3 C4 Br1 118.9(2) . . ?
C3 C4 Br1 118.9(2) 2_565 . ?
N1 C5 C1 179.4(7) . . ?
loop_
_geom_bond_atom_site_label_1
_geom_bond_atom_site_label_2
_geom_bond_distance
_geom_bond_site_symmetry_2
_geom_bond_publ_flag
Br1 C4 1.899(5) . ?
N1 C5 1.141(8) . ?
C1 C2 1.399(4) . ?
C1 C2 1.399(4) 2_565 ?
C1 C5 1.444(8) . ?
C2 C3 1.390(5) . ?
C2 H2 0.97(6) . ?
C3 C4 1.384(4) . ?
C3 H3 0.90(6) . ?
C4 C3 1.384(4) 2_565 ?
loop_
_geom_torsion_atom_site_label_1
_geom_torsion_atom_site_label_2
_geom_torsion_atom_site_label_3
_geom_torsion_atom_site_label_4
_geom_torsion
_geom_torsion_site_symmetry_1
_geom_torsion_site_symmetry_2
_geom_torsion_site_symmetry_3
_geom_torsion_site_symmetry_4
_geom_torsion_publ_flag
C2 C1 C2 C3 0.2(8) 2_565 . . . ?
C5 C1 C2 C3 178.8(5) . . . . ?
C1 C2 C3 C4 -0.1(6) . . . . ?
C2 C3 C4 C3 0.0(7) . . . 2_565 ?
C2 C3 C4 Br1 177.1(3) . . . . ?
