#------------------------------------------------------------------------------
#$Date: 2021-02-05 01:31:17 +0200 (Fri, 05 Feb 2021) $
#$Revision: 261764 $
#$URL: file:///home/coder/svn-repositories/cod/cif/7/15/78/7157813.cif $
#------------------------------------------------------------------------------
#
# This file is available in the Crystallography Open Database (COD),
# http://www.crystallography.net/
#
# All data on this site have been placed in the public domain by the
# contributors.
#
data_7157813
loop_
_publ_author_name
'Ichikawa, Yuki'
'Hiramatsu, Michiaki'
'Mita, Yusuke'
'Makishima, Makoto'
'Matsumoto, Yotaro'
'Masumoto, Yui'
'Muranaka, Atsuya'
'Uchiyama, Masanobu'
'Hashimoto, Yuichi'
'Ishikawa, Minoru'
_publ_section_title
;
 <i>meta</i>-Non-flat substituents: a novel molecular design to improve
 aqueous solubility in small molecule drug discovery.
;
_journal_issue                   2
_journal_name_full               'Organic &amp; biomolecular chemistry'
_journal_page_first              446
_journal_page_last               456
_journal_paper_doi               10.1039/d0ob02083d
_journal_volume                  19
_journal_year                    2021
_chemical_formula_moiety         'C7 H4 Br N'
_chemical_formula_sum            'C7 H4 Br N'
_chemical_formula_weight         182.02
_chemical_melting_point          38
_chemical_name_systematic        3-Bromobenzonitrile
_space_group_crystal_system      monoclinic
_space_group_IT_number           14
_space_group_name_Hall           '-P 2yn'
_space_group_name_H-M_alt        'P 1 21/n 1'
_atom_sites_solution_hydrogens   difmap
_atom_sites_solution_primary     direct
_atom_sites_solution_secondary   difmap
_audit_creation_method           SHELXL-2014
_audit_update_record
;
2018-03-08 deposited with the CCDC.	2020-11-27 downloaded from the CCDC.
;
_cell_angle_alpha                90
_cell_angle_beta                 93.257(3)
_cell_angle_gamma                90
_cell_formula_units_Z            4
_cell_length_a                   7.5162(4)
_cell_length_b                   3.9503(2)
_cell_length_c                   22.2292(13)
_cell_measurement_reflns_used    17150
_cell_measurement_temperature    90
_cell_measurement_theta_max      31.020
_cell_measurement_theta_min      1.835
_cell_volume                     658.95(6)
_computing_cell_refinement       HKL2000
_computing_data_collection       CrystalClear
_computing_data_reduction        HKL2000
_computing_molecular_graphics    SV
_computing_publication_material  'SHELXL-2014 (Sheldrick, 2014)'
_computing_structure_refinement  'SHELXL-2014 (Sheldrick, 2014)'
_computing_structure_solution    SHELXS-97
_diffrn_ambient_temperature      90
_diffrn_detector_area_resol_mean 7.31
_diffrn_measured_fraction_theta_full 1.000
_diffrn_measured_fraction_theta_max 0.999
_diffrn_measurement_device_type  'Rigaku AFC-8 with Saturn70 CCD'
_diffrn_measurement_method       \w-scan
_diffrn_radiation_type           MoK\a
_diffrn_radiation_wavelength     0.71073
_diffrn_reflns_av_R_equivalents  0.0654
_diffrn_reflns_av_unetI/netI     0.0299
_diffrn_reflns_Laue_measured_fraction_full 1.000
_diffrn_reflns_Laue_measured_fraction_max 0.999
_diffrn_reflns_limit_h_max       10
_diffrn_reflns_limit_h_min       -10
_diffrn_reflns_limit_k_max       5
_diffrn_reflns_limit_k_min       -5
_diffrn_reflns_limit_l_max       32
_diffrn_reflns_limit_l_min       -32
_diffrn_reflns_number            15786
_diffrn_reflns_point_group_measured_fraction_full 1.000
_diffrn_reflns_point_group_measured_fraction_max 0.999
_diffrn_reflns_theta_full        25.242
_diffrn_reflns_theta_max         31.020
_diffrn_reflns_theta_min         1.835
_diffrn_source                   'Fine-focus rotating anode'
_exptl_absorpt_coefficient_mu    6.133
_exptl_absorpt_correction_T_max  0.65834
_exptl_absorpt_correction_T_min  0.56823
_exptl_absorpt_correction_type   multi-scan
_exptl_absorpt_process_details
;
 MULABS - Empirical Correction for Absorption Anisotropy.
 R.H. Blessing, Acta Cryst. (1995), A51, 33-38.
;
_exptl_crystal_colour            colourless
_exptl_crystal_density_diffrn    1.835
_exptl_crystal_description       needle
_exptl_crystal_F_000             352
_exptl_crystal_recrystallization_method 'Re-crystallisation from solvent'
_exptl_crystal_size_max          0.120
_exptl_crystal_size_mid          0.020
_exptl_crystal_size_min          0.020
_refine_diff_density_max         0.535
_refine_diff_density_min         -0.952
_refine_diff_density_rms         0.107
_refine_ls_extinction_method     none
_refine_ls_goodness_of_fit_ref   1.058
_refine_ls_hydrogen_treatment    constr
_refine_ls_matrix_type           full
_refine_ls_number_parameters     82
_refine_ls_number_reflns         2107
_refine_ls_number_restraints     0
_refine_ls_restrained_S_all      1.058
_refine_ls_R_factor_all          0.0447
_refine_ls_R_factor_gt           0.0343
_refine_ls_shift/su_max          0.000
_refine_ls_shift/su_mean         0.000
_refine_ls_structure_factor_coef Fsqd
_refine_ls_weighting_details
'w=1/[\s^2^(Fo^2^)+(0.0446P)^2^+0.5480P] where P=(Fo^2^+2Fc^2^)/3'
_refine_ls_weighting_scheme      calc
_refine_ls_wR_factor_gt          0.0860
_refine_ls_wR_factor_ref         0.0918
_reflns_Friedel_coverage         0.000
_reflns_number_gt                1696
_reflns_number_total             2107
_reflns_threshold_expression     'I > 2\s(I)'
_cod_data_source_file            d0ob02083d2.cif
_cod_data_source_block           CY015
_cod_depositor_comments
'Adding full bibliography for 7157808--7157819.cif.'
_cod_original_sg_symbol_H-M      'P 21/n'
_cod_database_code               7157813
_shelx_space_group_comment
;
The symmetry employed for this shelxl refinement is uniquely defined
by the following loop, which should always be used as a source of
symmetry information in preference to the above space-group names.
They are only intended as comments.
;
_shelx_estimated_absorpt_t_min   0.527
_shelx_estimated_absorpt_t_max   0.887
_shelxl_version_number           2014-3
_shelx_res_file
;
TITL 141204_CY015
CELL 0.71073 7.5162 3.9503 22.2292 90 93.2568 90
ZERR 4 0.0004 0.0002 0.0013 0 0.0027 0
LATT 1
SYMM 1/2-x, 1/2+y, 1/2-z
SFAC C H Br N
UNIT 28 16 4 4
L.S. 10
FMAP 2
PLAN 10
BOND $H
CONF
TEMP -183
ACTA
SIZE 0.12 0.02 0.02
WGHT    0.044600    0.548000
FVAR       2.04859
BR1   3    0.578503    0.738317    0.208378    11.00000    0.02254    0.02807 =
         0.03161   -0.00306   -0.00355   -0.00049
N1    4    0.287734    0.047326   -0.033881    11.00000    0.02308    0.03719 =
         0.03662   -0.00142   -0.00315    0.00063
C1    1    0.254673    0.352517    0.067702    11.00000    0.02006    0.02457 =
         0.02834    0.00246   -0.00183    0.00007
C2    1    0.405197    0.440672    0.104496    11.00000    0.01796    0.02277 =
         0.03063    0.00133    0.00015    0.00056
AFIX  43
H2    2    0.521847    0.386655    0.093185    11.00000   -1.20000
AFIX   0
C3    1    0.378406    0.608697    0.157753    11.00000    0.01907    0.02186 =
         0.02908    0.00073   -0.00318   -0.00039
C4    1    0.208775    0.691091    0.175228    11.00000    0.02366    0.02670 =
         0.02856    0.00175    0.00247    0.00267
AFIX  43
H4    2    0.193936    0.807825    0.211970    11.00000   -1.20000
AFIX   0
C5    1    0.061382    0.599961    0.138095    11.00000    0.01744    0.03196 =
         0.03827    0.00259    0.00198    0.00290
AFIX  43
H5    2   -0.055019    0.654501    0.149587    11.00000   -1.20000
AFIX   0
C6    1    0.083032    0.430678    0.084615    11.00000    0.01842    0.03020 =
         0.03439    0.00488   -0.00324   -0.00067
AFIX  43
H6    2   -0.018031    0.367770    0.059489    11.00000   -1.20000
AFIX   0
C7    1    0.276203    0.180163    0.011128    11.00000    0.02042    0.02749 =
         0.03335    0.00231   -0.00326    0.00018
HKLF 4

REM  141204_CY015
REM R1 =  0.0343 for    1696 Fo > 4sig(Fo)  and  0.0447 for all    2107 data
REM     82 parameters refined using      0 restraints

END

WGHT      0.0446      0.5475

REM Highest difference peak  0.535,  deepest hole -0.952,  1-sigma level  0.107
Q1    1   0.4812  0.7452  0.2496  11.00000  0.05    0.53
Q2    1   0.5719  0.7179  0.2473  11.00000  0.05    0.52
Q3    1   0.6680  0.5504  0.2433  11.00000  0.05    0.48
Q4    1   0.5066  0.5473  0.1752  11.00000  0.05    0.42
Q5    1   0.4993  0.9163  0.1714  11.00000  0.05    0.42
Q6    1   0.4973  0.7600  0.1607  11.00000  0.05    0.41
Q7    1   0.6498  0.8001  0.1636  11.00000  0.05    0.41
Q8    1   0.6578  0.7600  0.2560  11.00000  0.05    0.40
Q9    1   0.5193  0.8835  0.2513  11.00000  0.05    0.40
Q10   1   0.6542  0.8858  0.2506  11.00000  0.05    0.38
;
_shelx_res_checksum              36877
_shelx_hkl_file
;
  10   0  -1   35.62   74.90
 -10   0   1   41.33   74.34
  10   0  -1  -49.28   60.90
 -10   0   2 1960.57  198.70
  10   0  -2 2227.15  241.61
  10   0  -2 2077.71  221.05
  10   0  -3   92.16   74.51
  10   0  -3  181.84   82.77
 -10   0   3   18.48   73.99
  10   0  -4 1899.02  213.77
 -10   0   4 2395.17  222.21
  10   0  -4 2119.74  188.21
  10   0  -5   85.66   82.94
 -10   0   5   91.30   91.23
  10   0  -5   40.80   80.37
 -10   0   6 1942.38  209.79
  10   0  -6 1714.45  181.77
  10   0  -6 1548.62  184.90
  10   0  -7   66.95   64.35
  10   0  -7   90.78   75.94
 -10   0   7   36.50   85.31
  10   0  -8  802.20  132.10
 -10   0   8  977.56  144.78
  10   0  -8  717.99  111.64
 -10   0   9  129.91   84.25
  10   0  -9   48.76   75.16
  10   0  -9  -32.34   54.69
  10   0 -10   -0.80   64.16
  10   0 -10   15.12   62.08
 -10   0  10  -17.12   63.02
  10   0 -11  -25.60   58.08
 -10   0  11  116.06   74.15
  10   0 -11  143.51   69.34
  10   0 -12   63.74   60.50
  10   0 -12   69.37   69.23
 -10   0  12   47.54   77.98
 -10   0  13  -39.26   71.60
 -10   0  14   36.15   62.81
  10   0 -14   -4.19   60.95
 -10   1   1  193.79   63.56
 -10   1   1  185.98   84.67
 -10  -1   1  237.91  101.37
  10   1  -1  406.28   85.12
  10  -1  -1  276.83   86.52
  10   1  -1  220.73   83.56
 -10  -1   2 1453.44  205.30
  10  -1  -2 1921.73  181.41
  10   1  -2 1444.15  182.49
 -10   1   2 1585.20  151.95
  10  -1  -2 1503.72  177.38
  10   1  -2 1694.89  173.27
 -10   1   2 1641.66  192.93
 -10  -1   3  255.90  104.00
  10   1  -3  151.75   65.32
  10  -1  -3  171.07   80.99
  10   1  -3  255.90   75.03
 -10   1   3  251.06   80.86
 -10   1   3   83.28   56.85
  10  -1  -3  205.17   74.22
 -10   1   4   66.77   66.06
  10  -1  -4   86.95   74.09
  10   1  -4   64.40   63.62
 -10   1   4   90.42   51.21
  10   1  -4   18.32   54.30
  10  -1  -4   27.62   55.45
 -10  -1   4  -36.83   89.93
 -10   1   5   71.66   64.29
  10  -1  -5  -44.43   59.36
 -10  -1   5   69.26   90.91
  10   1  -5   76.40   69.65
  10  -1  -5  -62.59   53.93
  10   1  -5   -5.93   58.84
 -10   1   6  231.55   78.24
 -10  -1   6  307.04  109.61
  10  -1  -6  274.89   79.01
  10   1  -6  269.81   75.70
  10  -1  -6  368.25   83.25
  10   1  -6  302.71   92.21
 -10   1   7   45.90   86.42
  10  -1  -7  -41.44   60.62
  10   1  -7   35.01   62.38
  10  -1  -7   87.49   64.96
  10  -1  -7   93.25   49.45
  10   1  -7  129.84   75.85
 -10  -1   7   34.29   81.96
  10  -1  -8  495.39   95.32
  10   1  -8  428.32  100.79
 -10  -1   8  487.71  140.39
 -10   1   8  567.08  110.94
  10  -1  -8  392.77  106.75
  10   1  -8  460.44   95.26
 -10  -1   9   56.36   82.44
 -10   1   9   92.22   91.07
  10  -1  -9   42.03   75.79
  10   1  -9  188.59   65.52
  10  -1  -9   75.15   76.47
  10   1  -9   60.94   65.37
  10   1 -10  501.67  105.08
  10  -1 -10  354.89   98.54
 -10  -1  10  489.09  118.50
 -10   1  10  799.68  128.45
  10   1 -10  552.59  102.22
  10  -1 -10  400.41  100.10
  10  -1 -11  271.00   75.58
  10   1 -11  149.46   78.43
 -10  -1  11  208.62   99.01
 -10   1  11  138.70  102.61
  10   1 -11  191.33   83.41
  10  -1 -11  165.89   76.00
  10  -1 -12 1318.54  182.27
 -10  -1  12 1426.83  194.20
  10   1 -12 1380.65  176.69
 -10   1  12 1796.26  211.22
  10  -1 -12 1259.50  168.98
 -10   1  13 -116.96   85.52
 -10  -1  13   80.59   86.87
  10  -1 -13   37.50   57.72
  10   1 -13   72.68   58.89
 -10   2   1   99.85   81.02
  10  -2  -1   60.17   58.88
  10  -2  -1   52.16   57.63
  10   2  -1   25.56   52.65
  10   2  -1   66.98   80.91
 -10  -2   1  -57.97   91.29
  10   2  -1  129.55   80.32
 -10   2   1   64.48   59.43
 -10  -2   2  876.57  156.05
  10   2  -2  845.65  123.08
  10  -2  -2 1095.88  133.30
 -10   2   2  809.91  132.93
  10   2  -2  815.32  109.99
  10  -2  -2  955.80  139.09
  10   2  -2  754.94  138.99
 -10   2   2  990.36  172.03
  10  -2  -3  180.11   74.35
 -10  -2   3  205.21  102.83
  10   2  -3  174.19   68.85
  10   2  -3  222.47   77.99
  10   2  -3  242.82   83.69
 -10   2   3  223.69   88.41
  10  -2  -3   85.40   69.60
  10   2  -4  948.07  157.70
  10  -2  -4 1341.46  173.23
  10  -2  -4 1120.60  137.51
 -10  -2   4 1325.37  198.21
  10   2  -4  945.07  124.06
  10  -2  -4 1201.53  144.66
  10   2  -4 1257.73  148.96
 -10   2   4 1262.06  188.15
 -10   2   5  157.46  102.65
 -10  -2   5  124.60   96.28
  10   2  -5  266.46   65.97
  10  -2  -5  176.68   72.19
  10  -2  -5  254.72   71.28
  10   2  -5  174.09   81.40
  10   2  -5  293.97   86.27
  10  -2  -5  237.35   65.33
 -10  -2   6  832.03  170.98
  10  -2  -6  808.84  120.01
  10   2  -6  910.08  153.04
  10  -2  -6 1128.74  145.53
  10   2  -6  979.25  125.53
  10   2  -6  942.11  122.37
  10  -2  -6  863.03  133.02
  10   2  -7  166.47   68.34
  10  -2  -7  161.19   66.97
  10   2  -7  143.18   72.20
  10  -2  -7  243.83   72.65
  10  -2  -7  153.82   54.77
 -10  -2   7  164.85  106.30
   9   0  -1 1499.18  145.41
  -9   0   1 1576.97  178.68
  -9   0   1 1179.34  107.05
   9   0  -1 1501.14  154.39
  -9   0   2   58.95   44.44
   9   0  -2  145.00   68.29
  -9   0   2   54.12   77.43
   9   0  -2   85.03   84.12
  -9   0   3 4612.44  362.10
   9   0  -3 4159.39  309.26
  -9   0   3 3826.34  209.52
   9   0  -3 4135.80  313.95
   9   0  -4   64.01   68.41
  -9   0   4   75.59   83.82
  -9   0   4    7.47   45.64
  -9   0   5 1640.42  190.72
   9   0  -5 1767.17  206.56
   9   0  -5 1721.88  208.41
   9   0  -6   82.06   63.58
  -9   0   6   29.84   76.95
   9   0  -6   60.69   62.64
   9   0  -7   42.77   57.39
  -9   0   7   63.54   74.35
   9   0  -7   13.98   63.87
   9   0  -8   48.98   66.95
  -9   0   8  -75.04   65.85
   9   0  -8    9.83   64.39
   9   0  -9  568.20  103.86
  -9   0   9  689.24  132.55
   9   0  -9  642.79  109.96
   9   0 -10   73.10   74.43
  -9   0  10  -30.61   76.10
   9   0 -10  -95.38   77.17
   9   0 -11 2145.05  246.28
  -9   0  11 2355.99  245.91
   9   0 -11 1967.66  195.88
  -9   0  12  -46.46   67.28
   9   0 -12   28.94   65.97
   9   0 -12  -78.90   67.95
   9   0 -13 3909.58  334.50
  -9   0  13 4235.23  369.21
   9   0 -13 3792.27  335.34
   9   0 -14    7.46   59.96
  -9   0  14  -44.52   61.30
  -9   0  14   72.00   60.83
   9   0 -14  -73.33   61.09
   9   0 -15 1316.29  185.00
  -9   0  15 1238.92  172.46
   9   0 -15 1201.26  157.63
  -9   0  16  -57.68   69.60
  -9   0  16  -31.72   69.43
   9   0 -16   32.40   69.03
   9   0 -16  -31.26   69.53
  -9   0  17   70.16   53.34
   9   0 -17   77.71   61.63
   9   0 -18   10.43   66.13
   9   0 -19   14.80   67.02
  -9   1   1  -19.63   41.27
  -9  -1   1   32.41   90.31
  -9   1   1   20.27   61.11
   9   1  -1   65.31   52.84
   9  -1  -1  -74.28   54.74
   9  -1  -1   14.74   61.18
   9   1  -1   74.11   40.62
  -9   1   2   13.30   64.29
  -9   1   2   55.99   48.42
   9  -1  -2   -2.47   64.41
   9  -1  -2  -20.92   45.02
  -9  -1   2   25.28   86.45
   9   1  -2   36.09   63.29
   9   1  -3  826.91  130.03
  -9   1   3 1104.59  140.54
   9  -1  -3  892.25  118.05
   9  -1  -3 1028.12  136.29
  -9  -1   3  827.19  149.29
   9   1  -3  711.43   76.86
   9  -1  -4   84.51   64.80
  -9   1   4   73.88   80.42
  -9  -1   4  120.77   79.15
   9   1  -4   13.30   64.34
   9   1  -4  127.87   74.66
   9  -1  -4   22.56   48.13
   9   1  -4   89.86   43.17
   9  -1  -4   35.05   65.54
   9   1  -5 1877.45  172.35
   9  -1  -5 1995.09  194.66
   9  -1  -5 1817.09  147.72
   9  -1  -5 1666.88  177.62
   9   1  -5 1910.05  160.42
  -9   1   5 2042.30  196.50
   9   1  -5 1830.31  183.48
  -9  -1   5 1837.47  231.12
   9   1  -6   93.33   82.31
   9  -1  -6  199.74   73.88
  -9  -1   6  121.05   81.44
   9   1  -6  181.79   53.33
   9  -1  -6  140.27   62.10
   9   1  -6  185.09   62.06
   9  -1  -6  134.22   54.94
  -9   1   6   94.16   93.37
  -9   1   7 3717.90  315.58
   9   1  -7 3522.91  257.10
   9  -1  -7 3363.62  282.08
   9  -1  -7 3860.88  274.53
   9   1  -7 3062.49  291.48
   9  -1  -7 2774.51  219.29
  -9  -1   7 3299.38  369.99
   9  -1  -8   20.93   45.84
   9   1  -8   14.92   69.19
  -9   1   8   95.78   83.99
   9   1  -8   24.97   68.82
  -9  -1   8   13.97   88.10
   9  -1  -8   91.76   71.84
   9  -1  -8  144.29   77.09
  -9  -1   9 3060.77  254.31
  -9  -1   9 3386.03  341.84
   9  -1  -9 3833.97  350.07
   9  -1  -9 3786.86  301.21
   9   1  -9 3161.72  281.97
  -9   1   9 3856.13  325.22
   9  -1  -9 3037.07  217.44
   9   1  -9 3814.81  268.92
  -9  -1  10  138.37   96.00
   9  -1 -10   40.12   74.95
  -9  -1  10   55.54   63.97
   9  -1 -10   67.56   49.87
   9   1 -10   33.87   60.22
   9   1 -10  -81.90   78.67
   9  -1 -10  173.67   79.22
  -9   1  10   22.30   85.18
   9  -1 -11  689.83  113.18
  -9  -1  11  809.82  150.78
  -9  -1  11  641.88  105.22
   9   1 -11  725.28  120.20
   9  -1 -11  787.48  124.50
   9  -1 -11  703.95  127.50
  -9   1  11  905.10  153.29
   9   1 -11  655.31  118.67
  -9   1  12  224.14   89.48
   9  -1 -12  121.18   79.50
   9   1 -12  145.12   88.29
  -9  -1  12  212.79   98.91
   9  -1 -12  156.74   63.40
  -9  -1  12  117.63   65.46
   9  -1 -12  188.29   67.71
   9  -1 -13   26.31   51.75
  -9   1  13   75.17   73.73
  -9  -1  13   29.97   63.71
   9   1 -13   64.68   61.02
  -9  -1  13   59.92   85.20
   9  -1 -13   98.72   82.66
   9  -1 -13  -54.28   61.87
   9  -1 -14  188.38   72.18
   9   1 -14   53.49   60.30
   9  -1 -14  100.04   62.08
   9   1 -14  228.56  100.53
  -9  -1  14   58.36   91.64
   9  -1 -14  101.27   54.15
  -9   1  14  124.03   80.74
  -9   1  15  262.66   91.12
   9  -1 -15  268.08   96.04
   9  -1 -15  132.63   88.52
   9   1 -15  297.34   84.05
   9  -1 -15  134.21   59.77
   9   1 -15  265.93   88.14
  -9   1  16  -24.21   64.34
   9   1 -16   44.74   74.92
   9  -1 -16  -13.67   80.26
  -9  -1  16   30.03   57.38
  -9  -1  16  -12.97   82.96
   9   1 -16  -28.15   73.63
   9  -1 -16    6.13   54.34
   9  -1 -16   10.51   63.35
  -9  -1  17 1297.62  163.79
   9  -1 -17 1493.03  172.95
   9   1 -17 1515.83  194.83
   9  -1 -17 1689.95  180.16
  -9   1  17 1567.84  192.43
  -9  -1  17 1196.42  162.17
   9   1 -17 1556.66  190.55
   9  -1 -17  981.25  123.03
  -9   1  18  -65.00   67.89
  -9  -1  18   49.60   67.65
  -9  -1  18   35.63   69.42
   9  -1 -18  -25.63   66.27
   9   1 -18  -67.98   67.41
   9  -1 -18   -2.31   67.83
   9   1 -18  -10.70   68.99
  -9   2   1 3824.55  316.12
   9   2  -1 3286.20  277.59
   9   2  -1 3278.99  310.21
   9  -2  -1 4091.39  309.74
   9   2  -1 4063.35  360.70
  -9  -2   1 3592.99  374.30
   9  -2  -1 4290.19  361.17
   9   2  -2  524.92  134.11
   9   2  -2  192.76   81.91
   9  -2  -2  126.72   66.90
  -9  -2   2   66.26  111.08
  -9   2   2  184.26   83.50
   9   2  -2  360.80  114.41
   9  -2  -2  207.05   80.36
   9  -2  -2  168.15   73.02
   9   2  -3 1917.86  216.85
   9   2  -3 2065.70  194.17
   9  -2  -3 2133.44  220.18
  -9   2   3 2192.18  224.80
   9   2  -3 1872.85  171.48
  -9  -2   3 2225.02  296.95
   9  -2  -3 1829.82  167.74
   9  -2  -3 2323.82  229.41
   9   2  -4  169.93   82.03
   9  -2  -4   66.68   66.46
   9  -2  -4  194.01   73.95
   9  -2  -4   67.79   65.19
   9   2  -4  151.49   66.08
  -9   2   4  110.14   85.75
  -9  -2   4   97.25   92.73
   9   2  -4  148.68   83.35
   9   2  -5  638.86  114.29
  -9  -2   5  558.31  124.83
   9   2  -5  685.08  104.59
   9   2  -5  781.59  102.82
   9  -2  -5  774.83  116.78
   9  -2  -5  867.79  123.43
  -9   2   5  621.37  119.42
   9  -2  -5  675.55  113.65
  -9   2   6  157.11   88.94
   9  -2  -6   63.42   61.53
   9   2  -6  245.59   80.04
   9  -2  -6  150.70   63.93
   9   2  -6   89.62   57.41
   9   2  -6  244.01   68.70
  -9  -2   6  171.47  105.64
   9  -2  -7  133.23   68.41
   9   2  -7   77.30   62.55
   9  -2  -7  198.52   70.03
  -9   2   7   93.53   91.66
   9   2  -7  136.30   70.02
   9   2  -7  113.13   66.88
   9  -2  -7  115.42   63.69
  -9  -2   7   22.32   78.29
  -9  -2   8   91.37   93.16
  -9   2   8  191.25  101.89
   9   2  -8  184.71   73.05
   9  -2  -8   74.31   71.97
   9   2  -8  269.93   72.90
   9  -2  -8  163.14   71.93
   9  -2  -8  160.35   72.48
   9   2  -8  197.79   71.90
   9   2  -9  986.85  133.89
   9   2  -9  916.89  138.88
  -9  -2   9  485.18  131.13
   9  -2  -9  883.06  139.10
  -9   2   9  945.45  157.82
   9   2  -9  964.29  131.01
   9  -2  -9 1018.62  144.65
   9  -2  -9  906.15  108.36
  -9  -2  10  238.95   91.26
   9  -2 -10  243.96   82.97
   9  -2 -10  272.38   81.17
   9  -2 -10  229.96   82.45
   9   2 -10  208.03   85.29
  -9   2  10  189.90   96.72
   9   2 -10  155.77   66.46
  -9   2  11 1176.53  186.95
   9  -2 -11 1097.94  154.13
   9  -2 -11  976.66  133.81
   9   2 -11  984.34  142.07
  -9  -2  11 1055.09  156.88
   9   2 -11 1302.67  165.03
   9  -2 -11 1103.91  167.18
   9  -2 -12   72.27   66.55
   9   2 -12  103.47   76.69
  -9  -2  12  -48.04   92.73
  -9   2  12   -0.29   93.58
   9  -2 -12  121.67   63.37
  -9  -2  12  211.32   85.45
   9  -2 -12   80.58   64.68
   9   2 -12   83.28   81.08
  -9  -2  13 1428.24  198.02
  -9   2  13 1814.60  232.72
   9  -2 -13 1320.15  185.17
   9   2 -13 1615.40  188.05
  -9  -2  13 1418.33  202.23
   9  -2 -13 1643.18  187.19
   9   2 -13 1586.47  165.80
   9  -2 -14   -9.23   61.08
   9  -2 -14   28.99   69.64
  -9  -2  14   45.92   88.46
  -9  -2  14   53.34   75.92
   9   2 -14   38.80   69.72
   9  -2 -14   -2.56   73.87
  -9   2  14   83.04   97.89
   9   2 -15  551.22  104.53
   9  -2 -15  344.64   79.69
  -9  -2  15  609.71  137.77
  -9   2  15  594.96  142.85
   9  -2 -15  624.45  117.44
  -9  -2  15  605.81  104.46
   9   3  -1  157.70   67.19
   9  -3  -1  267.65   89.38
   9   3  -1  140.67   86.39
  -9   3   1  140.60   85.63
  -9  -3   1  126.96  102.98
   9   3  -1  253.08   89.09
   9  -3  -1  208.03   75.32
   9  -3  -1  214.17   60.27
   9   3  -2   24.14   63.77
   9   3  -2   55.99   75.70
   9  -3  -2   14.57   71.93
   9  -3  -2   85.49   59.08
  -9   3   2    1.66   64.40
   9   3  -2   64.66   59.87
   9  -3  -2   85.01   50.79
  -9  -3   2   72.90  106.94
   9  -3  -3  232.73   78.81
  -9  -3   3  209.10  102.20
  -9   3   3  216.99   88.33
   9  -3  -3  299.51   70.05
   9   3  -3  262.80   86.66
   9   3  -3  287.26   83.56
   9  -3  -3  361.82   99.63
   9   3  -3  233.05   85.85
   9  -3  -4    8.40   62.16
  -9   3   4   92.28   98.10
   9   3  -4  115.23   84.02
   9  -3  -4   69.27   55.87
   9   3  -4  140.23   75.05
   9  -3  -4   30.13   55.93
   9   3  -4  128.63   72.78
  -9  -3   4   64.70  105.76
   9   3  -5 1730.95  202.62
  -9  -3   5 1100.03  150.54
   9   3  -5 1516.38  162.09
  -9   3   5 1492.45  224.78
   9  -3  -5 1761.69  166.47
   9  -3  -5 1417.23  174.01
   9   3  -5 1492.39  183.55
  -9   3   6   56.81   97.58
   9   3  -6  174.86   71.87
  -9  -3   6  112.34  109.35
   9   3  -6  303.16   94.61
   9  -3  -6  121.71   72.27
   9  -3  -6  254.90   81.12
   9  -3  -7 1483.09  192.10
   9   3  -7 1712.43  184.36
   9   3  -7 1662.39  179.11
  -9  -3   7 1402.00  200.02
   9   3  -7 1608.06  170.25
   9  -3  -7 1535.98  175.41
   9  -3  -8   84.59   73.88
  -9  -3   8  -19.72   82.68
   9  -3  -8   46.89   58.26
   9   3  -8  117.77   68.53
   9   3  -8  185.08   71.98
  -8   0   1   48.56   52.35
   8   0  -1  177.34   68.92
  -8   0   1  102.64   72.89
   8   0  -1   92.33   74.69
   8   0  -1   19.79   29.50
   8   0  -2  501.39   85.87
   8   0  -2  515.27   53.09
  -8   0   2  539.20   92.25
   8   0  -2  585.52   85.56
  -8   0   2  459.31   55.38
  -8   0   3  123.96   61.63
   8   0  -3    2.27   34.86
   8   0  -3  -16.44   57.03
  -8   0   3   -3.55   33.68
  -8   0   4 1001.33  114.46
   8   0  -4  672.79  115.54
   8   0  -4  862.74   72.76
   8   0  -4 1003.98  120.60
   8   0  -5   85.65   63.44
   8   0  -5   59.85   35.29
   8   0  -5  -19.08   52.21
  -8   0   5   35.83   62.09
  -8   0   6 5528.71  326.86
   8   0  -6 4500.61  258.71
  -8   0   6 4278.05  293.12
   8   0  -6 5492.28  367.22
   8   0  -6 5380.55  391.50
  -8   0   7   32.46   42.94
   8   0  -7  102.53   67.34
   8   0  -7   50.42   72.53
  -8   0   7  110.19   75.90
   8   0  -7  -22.33   38.60
  -8   0   8 3209.40  268.77
   8   0  -8 3224.38  208.25
   8   0  -8 3102.84  274.24
   8   0  -8 3934.42  312.25
  -8   0   8 3920.94  321.18
   8   0  -9   32.90   63.78
   8   0  -9  -18.96   36.91
   8   0  -9   73.53   67.57
  -8   0   9   17.81   71.83
  -8   0  10 3866.55  341.71
   8   0 -10 3797.84  322.26
   8   0 -10 3340.82  246.74
   8   0 -10 3812.38  285.41
   8   0 -11  -46.27   65.84
  -8   0  11   52.04   76.01
   8   0 -11   19.40   70.78
   8   0 -12 2872.27  267.33
   8   0 -12 2357.29  215.38
  -8   0  12 3034.82  309.31
   8   0 -12 3070.04  270.46
  -8   0  12 2547.07  236.50
   8   0 -13  -24.55   65.97
  -8   0  13  -16.12   67.22
   8   0 -13    5.01   67.57
  -8   0  13   38.00   67.44
   8   0 -14   26.05   62.70
  -8   0  14   39.54   66.86
  -8   0  14  101.53   54.01
   8   0 -14  -18.90   63.70
   8   0 -14   64.86   42.19
   8   0 -15  -11.30   62.24
   8   0 -15  -92.98   61.54
   8   0 -15   25.66   62.79
  -8   0  15  -22.42   62.52
  -8   0  16   87.38   58.66
   8   0 -16  164.21   80.06
  -8   0  16  198.75   77.50
   8   0 -16  161.10   68.58
   8   0 -17   73.31   76.28
  -8   0  17    6.74   60.92
   8   0 -17   20.36   64.92
  -8   0  17  128.17   73.99
   8   0 -18 1985.53  215.60
  -8   0  18 1813.26  196.74
   8   0 -18 1758.16  170.68
  -8   0  18 1660.41  187.16
  -8   0  19   29.08   66.55
   8   0 -19  -29.27   71.06
   8   0 -19    1.58   71.87
  -8   0  20  211.08   81.57
  -8   0  20  258.53   89.16
   8   0 -20  352.87   84.75
  -8   0  21   38.85   67.37
   8   0 -21   27.03   58.38
   8   0 -22  986.90  135.38
  -8   0  22  474.25  116.39
   8   0 -22  843.78  143.71
   8   0 -23   47.80   59.94
  -8   0  23   -8.32   54.93
   8   0 -23   38.67   77.62
  -8  -1   1  204.39  111.75
   8  -1  -1  303.99  110.92
  -8   1   1   96.93   78.74
   8   1  -1  436.77  112.70
   8   1  -1  546.19  129.53
  -8  -1   1   44.85   37.92
   8   1  -1  272.99   73.38
   8  -1  -1  125.99   64.62
   8  -1  -2 6643.68  386.02
   8  -1  -2 6457.09  356.40
  -8  -1   2 5078.01  317.40
   8  -1  -2 5873.22  316.74
   8   1  -2 6534.86  482.09
   8   1  -2 7157.03  416.96
  -8  -1   2 6707.62  550.08
  -8   1   2 6653.99  417.26
   8   1  -3  319.16   93.03
  -8  -1   3  584.51  108.58
   8  -1  -3  502.05   94.17
   8   1  -3  459.43  103.36
   8   1  -3  427.74   73.23
   8  -1  -3  386.27   69.57
   8  -1  -3  430.00   94.72
  -8   1   3  373.00  112.06
   8  -1  -4 5730.40  312.63
   8  -1  -4 6006.59  415.18
  -8   1   4 6793.69  448.10
  -8  -1   4 5674.85  428.69
   8   1  -4 5364.55  421.82
   8   1  -4 5664.01  382.41
   8  -1  -4 6511.61  376.49
   8   1  -4 5996.26  344.43
   8   1  -5  186.15   73.02
  -8  -1   5  102.15   98.14
   8  -1  -5   80.16   75.41
  -8   1   5   50.85   70.11
   8  -1  -5   43.34   74.72
   8   1  -5  204.08   72.83
   8  -1  -5   10.86   54.50
   8   1  -5   56.69   49.78
   8   1  -6 2121.94  191.16
   8  -1  -6 2230.40  211.93
  -8   1   6 2318.69  224.82
   8   1  -6 1884.75  160.71
   8  -1  -6 1949.27  158.53
   8  -1  -6 2147.64  174.84
  -8  -1   6 1881.21  214.75
   8   1  -7   52.72   55.22
   8  -1  -7   41.15   57.10
  -8  -1   7   78.26  108.74
   8  -1  -7   49.91   49.76
   8   1  -7  -24.64   43.33
   8  -1  -7  -31.77   53.75
  -8  -1   7   83.74   61.58
  -8   1   7   65.40   77.51
   8  -1  -8  425.56   86.88
   8   1  -8  249.05   95.27
  -8  -1   8  411.70  107.08
  -8  -1   8  223.51   75.10
   8   1  -8  290.03   62.81
   8  -1  -8  174.21   75.14
  -8   1   8  359.72  101.68
  -8  -1   9   51.58   65.98
   8  -1  -9   14.04   59.91
   8   1  -9   39.89   54.52
   8  -1  -9  -24.33   54.91
   8   1  -9   83.65   69.71
  -8  -1   9   67.63   92.50
   8  -1  -9    0.07   52.06
  -8   1   9   39.79   68.20
   8  -1 -10  430.13   93.00
  -8   1  10  576.93  104.09
   8  -1 -10  530.87  100.97
  -8  -1  10  582.16  128.34
  -8  -1  10  463.29   95.43
   8   1 -10  502.95  104.23
   8  -1 -10  541.67   94.85
   8  -1 -11   11.07   61.41
  -8  -1  11    0.29   64.79
   8   1 -11   33.79   63.82
  -8  -1  11    6.03   64.08
  -8   1  11  -32.67   63.60
   8  -1 -11   28.34   64.76
   8   1 -11  -39.73   63.37
  -8  -1  12 1231.60  166.54
   8   1 -12 1528.72  149.22
   8  -1 -12 1287.46  151.69
   8   1 -12 1354.31  159.52
  -8   1  12 1729.36  189.40
  -8  -1  12 1444.54  203.79
   8  -1 -12 1462.94  178.47
  -8  -1  13   45.90   63.25
  -8   1  13  -43.51   51.46
   8   1 -13   10.05   64.61
   8  -1 -13   65.62   68.34
   8  -1 -13   62.58   55.80
   8  -1 -13  -42.28   65.76
  -8   1  13   38.11   85.52
   8   1 -13   55.32   58.20
  -8  -1  13   92.19   97.52
  -8   1  14 2923.68  261.85
  -8  -1  14 2980.76  286.19
   8   1 -14 2974.00  255.31
  -8   1  14 1885.28  186.17
   8  -1 -14 2643.67  245.45
   8  -1 -14 2291.36  194.48
   8  -1 -14 2374.11  247.57
   8   1 -14 2496.82  226.85
  -8  -1  15  220.76   94.72
   8  -1 -15  201.89   95.02
   8  -1 -15  199.68   77.87
  -8   1  15   78.91   63.82
  -8   1  15  292.40  100.30
   8   1 -15  244.84   84.50
   8   1 -15  234.76   78.29
   8  -1 -15  190.92   66.29
   8   1 -16 1963.08  217.11
   8  -1 -16 1485.64  132.13
   8  -1 -16 2105.72  194.30
  -8   1  16 1650.93  180.40
   8  -1 -16 2048.31  227.93
   8   1 -16 2045.03  223.30
  -8  -1  16 1760.00  213.56
  -8  -1  16 1890.50  215.59
  -8   1  16 2127.47  218.89
  -8   1  17  -14.75   57.70
  -8   1  17  -25.46   82.18
   8  -1 -17   17.86   48.96
  -8  -1  17   -2.58   64.92
   8  -1 -17   37.65   65.73
   8  -1 -17  102.41   83.61
   8   1 -17   51.41   63.49
   8   1 -17   26.72   62.48
  -8  -1  17    5.99   75.35
  -8  -1  18  580.22  100.71
  -8   1  18  388.78   89.10
   8   1 -18  588.22  119.32
   8  -1 -18  467.44   86.80
   8  -1 -18  595.25  107.97
  -8   1  18  770.84  142.73
   8   1 -18  550.45  108.88
   8  -1 -18  767.97  112.48
   8  -1 -19   96.92   73.41
   8   1 -19   16.08   71.29
   8   1 -19   26.14   66.13
  -8   1  19  -21.37   79.99
   8  -1 -19  -55.16   63.23
  -8  -1  19   23.72   65.40
   8  -1 -19   61.96   55.98
  -8  -1  19  -23.61   63.68
  -8   1  19  -86.84   55.35
   8  -1 -20   56.65   55.36
   8   1 -20  146.49   80.99
   8   1 -20   90.26   57.26
  -8  -1  20   70.24   67.31
   8  -1 -20   82.07   68.61
   8  -1 -21   11.04   71.88
   8   1 -21  -42.92   72.52
   8  -1 -21   74.47   70.82
  -8   1  21  -23.17   70.57
   8   1 -21  -85.73   70.96
  -8  -1  21    0.79   70.65
   8   1 -22   29.75   80.71
   8  -1 -22   43.91   56.01
   8   1 -22  116.15   59.51
   8  -2  -1  275.84   77.43
  -8   2   1  180.34   82.65
   8   2  -1  336.63   75.46
   8  -2  -1  265.14   74.47
   8   2  -1  349.40   81.27
  -8  -2   1  253.51  111.32
   8  -2  -1  199.99   61.55
   8   2  -2  223.61   73.66
   8   2  -2  285.22   80.78
   8   2  -2  401.62   67.44
   8  -2  -2  373.92   68.59
   8  -2  -2  489.68   83.62
  -8  -2   2  404.04  114.65
  -8   2   2  460.10  102.43
   8  -2  -3  283.37   66.80
  -8  -2   3  222.73  100.76
   8   2  -3  283.43   65.41
   8   2  -3  228.35   73.42
   8   2  -3  150.99   55.25
   8  -2  -3  324.92   70.19
   8  -2  -3  124.60   56.69
  -8   2   3  215.11   86.38
   8  -2  -4  745.87  102.30
  -8   2   4  878.04  127.58
   8  -2  -4  965.07  112.97
  -8  -2   4  845.46  146.98
   8   2  -4  732.97  114.94
   8   2  -4  765.24  107.05
   8   2  -4  949.94  122.91
   8  -2  -4  806.22   91.08
   8   2  -5   11.31   56.48
  -8  -2   5  -23.02   81.53
   8   2  -5   76.47   68.63
   8  -2  -5   61.63   53.97
   8   2  -5   -5.48   54.78
   8  -2  -5   41.87   61.60
  -8   2   5   47.52   85.38
   8  -2  -5   24.42   66.19
  -8   2   6 1970.60  222.55
   8   2  -6 1790.37  154.94
   8   2  -6 1970.70  184.83
   8  -2  -6 1801.57  171.98
   8  -2  -6 1950.59  179.61
  -8  -2   6 1626.42  227.51
   8   2  -6 1625.34  168.46
   8  -2  -6 1603.88  163.52
   8   2  -7  161.73   59.84
  -8  -2   7   66.63   77.16
   8   2  -7  154.73   73.12
   8  -2  -7   41.12   66.49
   8  -2  -7   62.91   56.96
   8   2  -7  143.00   74.02
   8  -2  -7  124.25   67.37
  -8   2   7   48.79   83.64
   8  -2  -8 4305.82  342.31
   8  -2  -8 3875.53  352.96
   8   2  -8 3504.40  341.41
   8  -2  -8 4247.72  294.28
  -8  -2   8 3564.96  325.80
  -8   2   8 4304.25  425.67
   8   2  -8 3865.18  281.49
  -8   2   9  132.33   86.14
   8  -2  -9   64.55   52.42
   8   2  -9  113.09   66.68
  -8  -2   9   65.03   78.61
   8  -2  -9   90.29   60.83
   8   2  -9   45.18   66.38
   8  -2  -9    7.06   66.46
  -8  -2   9   60.14   83.47
   8  -2 -10 2138.19  212.30
   8  -2 -10 2116.67  207.50
  -8  -2  10 2137.69  218.54
   8  -2 -10 2235.05  200.51
   8   2 -10 1926.37  184.70
  -8   2  10 2147.45  255.05
   8   2 -10 2338.76  223.62
  -8  -2  10 1928.05  233.77
   8  -2 -11  -17.72   60.35
  -8   2  11  -42.11   58.80
   8   2 -11   25.83   60.08
   8  -2 -11   38.56   60.42
  -8  -2  11 -145.78   63.37
   8   2 -11   33.90   58.60
   8  -2 -11  -24.00   60.63
  -8  -2  11  -60.29   59.49
   8  -2 -12  932.31  124.32
  -8  -2  12  813.97  153.26
  -8   2  12 1207.14  170.65
   8  -2 -12  881.29  121.11
   8   2 -12  897.58  119.86
  -8  -2  12  940.13  132.12
   8   2 -12 1009.85  134.30
   8  -2 -12  972.83  137.92
  -8  -2  13   84.83   72.47
   8  -2 -13   66.15   68.87
  -8   2  13  163.65   88.52
   8  -2 -13   12.33   58.87
  -8  -2  13  149.87   89.74
   8  -2 -13   71.50   67.53
   8   2 -13  191.28   75.09
   8   2 -13   62.97   68.74
  -8  -2  14   -9.38   61.05
   8   2 -14  -68.10   48.40
   8  -2 -14  -27.57   55.22
  -8  -2  14  137.95   89.52
   8   2 -14  -38.35   58.37
   8  -2 -14  130.62   67.62
   8  -2 -14  -26.31   52.11
  -8   2  14  111.67   86.28
   8  -2 -15  -12.33   58.34
  -8   2  15  -34.76   56.50
   8   2 -15  -68.58   56.38
  -8  -2  15  -26.91   61.79
   8  -2 -15   21.83   58.06
   8  -2 -15    4.75   57.67
  -8  -2  15  -76.13   56.95
   8   2 -15   55.80   57.62
   8   2 -16   24.46   62.39
   8  -2 -16   11.53   62.96
  -8   2  16  -51.28   61.30
   8  -2 -16   18.50   62.41
  -8  -2  16  -13.29   67.02
   8   2 -17  -75.48   62.33
   8   2 -17    9.20   51.93
  -8  -2  17  106.44   67.58
   8  -2 -17  -20.71   58.75
  -8   2  17   56.95   81.42
   8  -2 -17  -26.87   61.07
   8  -2 -18  372.61   89.00
   8  -2 -18  317.24   84.44
  -8   2  18  497.97  112.22
   8   2 -18  266.87   88.63
   8   2 -18  121.82   71.82
  -8  -2  18  384.90   96.06
  -8  -2  19  -87.47   70.98
   8   2 -19  -31.02   70.59
   8   2 -19   88.16   71.54
   8  -2 -19   -6.14   71.49
  -8   2  19   28.06   70.87
   8  -2 -19    3.45   72.67
  -8  -2  20  990.55  163.35
   8  -2 -20  714.57  117.44
  -8   2  20 1178.88  161.67
   8  -3  -1  333.97   86.54
  -8   3   1  204.72   82.70
   8   3  -1  494.11  106.71
   8   3  -1  357.52   97.78
  -8  -3   1  218.49   96.06
   8   3  -1  324.89   96.15
   8  -3  -1  269.44   80.09
   8  -3  -1  167.30   55.22
  -8  -3   2 2407.22  264.32
   8  -3  -2 3214.00  253.78
  -8   3   2 2719.80  257.78
   8  -3  -2 3049.94  270.64
   8   3  -2 2928.07  250.55
   8   3  -2 2770.60  249.96
   8   3  -2 2855.02  269.25
   8  -3  -2 2668.03  211.61
  -8  -3   3  120.69   95.84
   8  -3  -3  167.71   55.76
   8  -3  -3   28.83   66.93
  -8   3   3  203.30   83.63
   8   3  -3  316.11   98.43
   8   3  -3  411.21  116.50
   8   3  -3  266.41   87.22
   8  -3  -3  157.31   72.29
   8   3  -4 2417.70  261.26
   8  -3  -4 2531.56  260.61
  -8   3   4 2418.46  239.23
   8   3  -4 2419.95  220.92
   8  -3  -4 2525.57  233.43
  -8  -3   4 2300.82  254.90
   8  -3  -4 2581.21  214.67
   8   3  -5  228.61   72.05
  -8  -3   5  153.84   89.81
   8  -3  -5  297.31   68.32
   8  -3  -5  211.94   83.91
   8   3  -5  277.07   85.87
   8  -3  -5  172.40   75.81
   8   3  -5  260.48   88.60
  -8   3   5  235.88   93.62
  -8   3   6  734.72  120.18
   8  -3  -6  709.80  127.42
   8  -3  -6  880.95  118.60
   8  -3  -6  951.37  135.84
  -8  -3   6  880.26  154.70
   8   3  -6  814.33  123.37
   8   3  -6  828.58  122.28
   8   3  -7   30.26   60.45
   8  -3  -7   -3.24   58.18
   8   3  -7   65.02   52.75
   8  -3  -7  122.55   69.85
   8   3  -7   36.01   73.06
  -8   3   7  -13.76   76.87
  -8  -3   7  150.58   96.19
   8  -3  -8   -8.04   73.63
   8   3  -8   42.17   70.47
  -8   3   8  -47.45   78.23
   8   3  -8   98.15   56.74
  -8  -3   8  -11.91  106.69
   8  -3  -8   87.85   65.66
   8   3  -9   59.05   80.89
   8   3  -9   31.54   66.52
  -8   3   9  112.29   74.70
   8   3  -9   28.86   62.13
   8  -3  -9   76.46   63.64
   8  -3  -9   28.13   61.56
  -8  -3   9   50.97   87.21
  -8   3  10  130.68   84.56
   8   3 -10  190.44   75.48
   8   3 -10  273.08   84.82
   8  -3 -10  214.09   81.65
   8   3 -10  351.24   85.77
  -8  -3  10  109.12  100.26
   8  -3 -10  253.15   79.98
   8  -3 -11  127.76   69.73
  -8   3  11   83.82   92.36
   8  -3 -11   82.46   78.82
   8   3 -11   29.20   57.38
  -8  -3  11   21.43   89.15
   8   3 -11   25.82   64.86
   8   3 -11   87.35   70.92
   8   3 -12  256.11   86.40
  -8  -3  12  440.95  125.60
   8  -3 -12  499.36  100.26
   8  -3 -12  298.38   94.94
   8  -3 -13   55.64   62.98
   8   3 -13    9.90   59.31
   8   3 -13  -28.42   53.49
   8  -3 -13   14.31   58.54
  -8  -3  13  -19.95   98.50
  -8  -3  14  723.65  125.02
   8  -3 -14  776.05  123.00
   8  -3 -14  774.33  124.46
  -8  -3  14  835.27  139.80
   8   3 -14  991.67  143.88
  -8   3  15  -31.18   92.54
  -8  -3  15  -26.89   74.60
   8  -3 -15   26.46   61.55
   8  -3 -15   56.63   76.10
  -8  -3  15   -7.18   76.64
  -7   0   1 2073.17  119.63
  -7   0   1 2446.83  196.19
   7   0  -1 2392.29  163.62
   7   0  -1 2187.24  143.00
   7   0  -1 2286.61  173.99
   7   0  -2    3.50   27.67
   7   0  -2   57.27   48.48
   7   0  -2    8.29   50.50
  -7   0   2   11.59   56.68
  -7   0   3 5894.13  385.22
   7   0  -3 6138.52  368.41
   7   0  -3 6067.65  377.64
   7   0  -3 5520.34  286.48
  -7   0   4  116.74   70.13
   7   0  -4   26.61   58.14
   7   0  -4  106.10   45.54
  -7   0   4   94.63   51.14
   7   0  -510068.06  491.40
   7   0  -510374.29  558.30
   7   0  -511020.84  582.97
  -7   0   5 9620.94  547.79
  -7   0   510668.71  580.40
   7   0  -6   -6.46   62.66
  -7   0   6   51.27   70.18
   7   0  -6   61.61   67.76
   7   0  -6   61.31   45.28
   7   0  -7 6707.90  418.63
   7   0  -7 5949.69  342.64
  -7   0   7 5906.64  408.71
  -7   0   7 6185.65  381.30
   7   0  -7 6720.60  413.95
  -7   0   8    8.08   48.58
   7   0  -8   22.03   41.54
   7   0  -8   36.90   37.63
   7   0  -8   56.01   49.97
  -7   0   8  104.76   69.05
   7   0  -9 4129.46  267.15
  -7   0   9 3969.83  289.76
   7   0  -9 4249.14  327.60
   7   0  -9 4341.77  383.18
  -7   0   9 4191.11  307.02
  -7   0  10  -11.22   56.98
   7   0 -10  -31.83   57.85
   7   0 -10   36.01   57.37
  -7   0  10  -28.71   57.07
   7   0 -10  -33.47   55.34
  -7   0  11   90.02   48.44
   7   0 -11  -49.18   62.31
   7   0 -11   88.84   45.82
   7   0 -11   14.43   60.13
  -7   0  11   37.59   67.32
   7   0 -12   27.72   47.76
   7   0 -12   34.90   56.32
  -7   0  12   31.49   68.75
   7   0 -12   64.87   63.10
  -7   0  12  -66.38   51.24
   7   0 -13 4367.86  375.58
   7   0 -13 3326.96  289.88
  -7   0  13 4597.40  343.30
   7   0 -13 3946.92  310.68
   7   0 -14   55.34   58.47
   7   0 -14    8.16   41.68
   7   0 -14  -37.75   52.72
  -7   0  14   14.14   66.25
  -7   0  14  -12.50   57.11
   7   0 -15 1854.49  180.89
   7   0 -15 2407.53  227.85
  -7   0  15 2334.48  226.13
   7   0 -15 2514.87  256.92
  -7   0  16   28.47   64.69
   7   0 -16   23.87   76.67
   7   0 -16    0.51   38.83
   7   0 -16   34.01   56.52
  -7   0  16  178.99   95.68
  -7   0  17 2823.29  248.79
   7   0 -17 2193.38  163.29
  -7   0  17 2633.32  238.90
   7   0 -17 2796.90  252.92
   7   0 -17 2753.57  248.78
   7   0 -18  -26.53   81.32
  -7   0  18   32.08   83.20
   7   0 -18  -76.04   82.01
   7   0 -18   -5.39   82.21
  -7   0  19 1776.28  194.26
   7   0 -19 1593.04  147.75
   7   0 -19 2041.21  224.40
   7   0 -19 1848.90  214.11
  -7   0  19 1738.66  179.38
   7   0 -20   42.17   65.52
   7   0 -20  -75.30   66.74
  -7   0  20   42.10   65.18
  -7   0  20   28.61   67.25
   7   0 -20  -48.61   65.97
   7   0 -21 1163.87  151.29
   7   0 -21  761.50  103.27
   7   0 -21 1015.93  123.96
  -7   0  21  829.04  136.73
  -7   0  21  987.24  124.97
   7   0 -22   30.08   69.69
  -7   0  22  -67.42   69.42
  -7   0  22  -29.59   71.45
   7   0 -22    4.68   70.07
   7   0 -22  -73.82   71.26
   7   0 -23   98.12   80.41
   7   0 -23   14.24   68.67
  -7   0  23  -34.00   71.56
   7   0 -24  -88.18   68.46
   7   0 -24    2.19   69.99
  -7   0  25  405.50  110.95
   7   0 -25  433.47   97.53
   7   0 -25  479.23  112.10
  -7  -1   1 3467.86  288.83
   7   1  -1 3214.81  191.28
   7   1  -1 3144.53  211.39
   7  -1  -1 3204.54  229.70
  -7  -1   1 2865.82  187.71
   7   1  -1 3101.81  262.20
   7  -1  -1 2916.95  123.03
   7  -1  -1 2890.14  171.46
   7  -1  -1 3215.38  217.97
  -7   1   1 3332.16  272.07
   7   1  -2 1138.74  134.68
   7  -1  -2  918.56   50.42
  -7  -1   2  959.84  126.08
  -7  -1   2  856.54   82.26
  -7   1   2 1164.40  147.77
   7  -1  -2  969.68  111.57
   7   1  -2 1022.74   94.50
   7  -1  -2 1108.20   97.77
   7   1  -2 1131.58  122.98
   7  -1  -2  933.85  107.48
   7   1  -3 2607.43  169.68
   7   1  -3 2776.25  190.78
   7   1  -3 3107.79  259.16
   7  -1  -3 2403.24  173.03
   7  -1  -3 3046.37  210.56
  -7  -1   3 2665.90  252.03
   7  -1  -3 2603.70  201.90
  -7   1   3 2982.50  259.29
   7  -1  -4  190.74   65.95
  -7   1   4   74.49   31.71
   7  -1  -4   73.60   63.05
   7   1  -4   67.87   48.97
   7   1  -4  207.08   77.73
  -7  -1   4   14.97   72.34
  -7   1   4  133.63   76.70
   7  -1  -4   38.71   46.41
   7  -1  -5  289.86   61.19
  -7   1   5  237.56   69.68
  -7  -1   5  119.32   80.37
   7  -1  -5  153.37   46.18
   7   1  -5  152.62   65.04
   7   1  -5  279.74   62.55
  -7  -1   5  175.15   28.53
  -7  -1   6   46.29   26.11
   7  -1  -6   68.52   44.58
  -7  -1   6    8.50   69.35
   7   1  -6  -58.54   57.54
  -7   1   6   51.11   60.42
   7  -1  -6   85.62   57.18
   7  -1  -6   28.43   49.44
   7   1  -6   55.14   53.49
   7   1  -7 2128.11  171.40
  -7  -1   7 2026.83  232.32
   7  -1  -7 2344.11  187.01
  -7   1   7 2295.43  207.45
   7  -1  -7 2087.32  156.09
  -7  -1   7 2151.42  183.11
   7  -1  -7 2531.17  216.46
   7   1  -7 1951.16  200.39
  -7   1   7 1887.37  144.20
  -7  -1   8   51.20   73.94
  -7   1   8   91.41   74.76
  -7  -1   8  -55.10   43.98
   7  -1  -8   46.78   57.85
  -7   1   8   35.94   33.02
   7   1  -8   31.78   58.32
   7  -1  -8   57.75   53.26
   7   1  -8   34.27   54.89
   7  -1  -8  -15.23   39.34
   7  -1  -9 7584.97  505.93
   7   1  -9 6708.18  437.12
  -7  -1   9 6685.51  441.24
   7  -1  -9 6873.23  418.72
   7  -1  -9 7631.40  483.69
  -7   1   9 6390.50  402.25
  -7  -1   9 7089.91  554.89
  -7   1   9 7673.29  509.87
   7   1  -9 7704.49  445.40
   7   1  -9 6288.02  295.55
   7   1 -10  662.46   89.78
  -7  -1  10  686.20  129.71
   7  -1 -10  543.10   88.05
  -7   1  10  449.15   82.63
   7   1 -10  658.39   99.10
  -7  -1  10  764.82  100.19
   7  -1 -10  664.09   98.69
   7  -1 -10  745.78  107.94
  -7   1  10  621.79  128.64
   7   1 -11 5754.99  381.81
  -7  -1  11 5574.43  512.75
  -7   1  11 4596.06  351.41
   7  -1 -11 6300.45  455.62
   7  -1 -11 6258.87  419.48
   7  -1 -11 5954.42  359.51
  -7  -1  11 5756.71  393.48
   7   1 -11 5449.11  366.56
   7  -1 -12   97.62   66.01
  -7  -1  12  165.55   66.67
  -7   1  12  -26.42   48.08
   7  -1 -12  119.85   55.01
   7  -1 -12  154.81   58.43
   7   1 -12   98.63   60.35
  -7  -1  12  132.04   81.28
   7   1 -12  147.75   63.10
   7  -1 -13 4851.12  335.96
  -7  -1  13 4340.92  381.08
  -7  -1  13 4246.03  329.19
   7   1 -13 4418.03  332.34
   7   1 -13 4709.14  323.73
   7  -1 -13 3867.50  283.35
   7  -1 -13 4492.23  301.27
   7  -1 -14   23.41   52.01
   7   1 -14  -34.47   56.90
   7  -1 -14   32.00   60.21
  -7  -1  14  107.04   69.80
   7   1 -14    5.34   65.51
  -7  -1  14   42.24   60.34
  -7   1  14   65.82   86.46
  -7   1  14    7.70   47.80
   7   1 -15  377.19   69.54
   7   1 -15  271.80   69.87
  -7  -1  15  316.21   93.83
  -7   1  15  279.55   76.95
   7  -1 -15  454.77   85.04
   7  -1 -15  374.20   84.17
  -7  -1  15  380.96   97.97
   7  -1 -15  433.52   86.12
  -7   1  15  358.33  112.90
   7  -1 -16   93.04   62.21
   7   1 -16  102.03   62.13
   7  -1 -16  102.72   66.96
  -7   1  16  112.05   78.76
  -7  -1  16  181.93   77.20
   7   1 -16  110.28   61.92
   7  -1 -16   71.61   71.83
  -7  -1  16   73.18   68.09
   7  -1 -17   69.66   69.81
  -7  -1  17   46.63   78.33
   7   1 -17   48.78   65.65
  -7  -1  17   16.32   62.99
   7  -1 -17   24.35   67.56
   7  -1 -17   57.34   60.49
   7   1 -17  -16.93   62.11
  -7   1  17   19.18   78.98
   7  -1 -18  183.88   91.95
  -7  -1  18  257.75   86.50
   7  -1 -18  161.34   68.18
   7   1 -18  308.34   85.95
   7  -1 -18  269.95   83.11
  -7   1  18  185.92   77.53
  -7  -1  18  222.26   77.46
  -7  -1  19 1082.38  132.80
  -7  -1  19  961.75  155.51
   7   1 -19 1077.89  142.78
  -7   1  19  696.04   95.49
   7  -1 -19 1030.03  112.12
   7  -1 -19  789.42  134.35
  -7   1  19  990.16  131.55
   7  -1 -19  820.74  106.09
   7   1 -19 1049.38  131.77
   7  -1 -20    9.39   63.60
  -7  -1  20  -29.03   67.77
  -7   1  20 -119.91   64.00
   7   1 -20  -82.69   64.23
  -7  -1  20  -48.16   63.79
   7   1 -20  -71.84   65.33
  -7   1  20  -54.08   64.90
   7  -1 -20   25.31   64.09
   7  -1 -20   31.87   65.35
  -7   1  21 1106.51  119.62
   7  -1 -21  892.69  110.58
   7  -1 -21  927.00  120.75
   7   1 -21 1109.26  149.09
  -7  -1  21 1125.89  182.54
   7   1 -21 1291.12  162.03
   7  -1 -21 1146.99  151.62
   7   1 -22   60.36   74.18
  -7   1  22  128.27   72.85
   7  -1 -22   26.62   65.22
   7  -1 -22  100.01   64.34
   7   1 -22   69.11   79.44
   7  -1 -22  145.58   70.40
   7  -1 -23 1375.03  151.31
   7  -1 -23 1354.73  145.20
  -7  -1  23 1371.92  194.84
   7   1 -23 1339.39  169.39
   7   1 -23 1763.74  193.22
   7  -1 -23 1587.92  168.45
  -7   1  23 1419.20  163.03
  -7   1  23 1322.16  161.64
   7  -1 -24  -24.65   75.12
   7  -1 -24 -106.86   73.74
   7   1 -24   49.50   73.90
  -7  -1  24  -71.35   73.41
   7  -1 -24   10.04   73.54
   7   1 -24  -31.67   74.70
   7   1 -25  747.48  124.13
   7  -1 -25  311.40   85.18
   7   1 -25  584.44  106.14
  -7  -1  25  619.30  127.06
  -7  -2   1 2628.30  272.75
   7   2  -1 2659.09  193.71
   7  -2  -1 2773.90  198.47
   7  -2  -1 3148.10  203.24
   7   2  -1 2365.88  231.14
   7  -2  -1 2393.68  179.91
  -7   2   1 2648.48  214.43
   7   2  -1 2718.89  209.15
  -7   2   2  252.19   74.36
   7  -2  -2  340.72   71.75
  -7  -2   2  146.59   77.28
   7   2  -2  247.21   71.56
   7  -2  -2  278.86   69.45
   7  -2  -2  206.16   55.40
   7   2  -2  403.31   76.20
   7   2  -2  217.44   65.16
  -7   2   3 4586.55  351.07
   7  -2  -3 4799.27  292.54
   7  -2  -3 4555.80  282.25
   7   2  -3 4210.15  279.06
   7   2  -3 4312.41  307.28
  -7  -2   3 4156.81  356.37
   7  -2  -3 4385.68  244.26
   7   2  -3 3587.30  271.49
   7  -2  -4  102.01   52.83
   7  -2  -4   63.26   54.01
   7  -2  -4  103.22   56.56
   7   2  -4  232.57   90.52
  -7  -2   4  163.26   79.14
  -7   2   4  101.16   84.15
   7   2  -4  134.43   71.81
   7   2  -4  301.11   96.75
  -7  -2   5 4504.23  396.49
   7   2  -5 4978.42  306.90
   7  -2  -5 5151.20  309.37
   7  -2  -5 5829.46  325.23
   7  -2  -5 5445.54  329.65
   7   2  -5 4645.81  348.83
  -7   2   5 5299.06  433.84
  -7  -2   6  928.76  146.84
   7   2  -6 1311.17  138.87
  -7   2   6  970.37  150.08
   7  -2  -6 1290.47  109.76
   7   2  -6 1101.67  121.14
   7  -2  -6 1228.53  133.27
   7  -2  -6 1145.07  125.97
  -7   2   7 4626.31  426.19
   7  -2  -7 4493.03  281.67
   7  -2  -7 5011.23  320.62
  -7  -2   7 3627.14  379.06
   7  -2  -7 4802.66  365.78
   7   2  -7 4639.03  297.58
   7   2  -7 4049.48  325.01
  -7  -2   7 4769.87  340.13
  -7  -2   8  269.45   78.00
   7  -2  -8  355.22   75.59
   7  -2  -8  289.86   68.95
   7   2  -8  379.52   73.76
   7  -2  -8  214.96   66.23
  -7  -2   8  145.86   92.67
  -7   2   8  265.39  102.17
   7   2  -8  298.35   79.57
   7  -2  -9 1122.62  139.78
   7  -2  -9 1431.92  132.57
  -7  -2   9 1011.20  120.64
   7  -2  -9 1157.23  124.63
  -7   2   9 1155.66  167.41
  -7  -2   9  948.19  150.74
   7   2  -9 1202.50  118.33
   7   2  -9 1039.07  135.91
   7   2 -10   58.92   58.06
  -7   2  10  -73.95   57.89
   7  -2 -10    9.27   60.15
  -7  -2  10  -76.54   63.02
  -7  -2  10   10.71   58.69
   7   2 -10  -43.61   59.44
   7  -2 -10   37.58   59.65
   7  -2 -10   29.91   59.76
   7  -2 -11   73.22   57.05
   7   2 -11  120.06   60.86
   7  -2 -11   66.55   64.85
   7  -2 -11  -24.92   52.43
   7   2 -11  134.85   72.15
  -7   2  11   83.25   67.49
  -7  -2  11   63.60   48.85
  -7  -2  11   23.37   66.14
  -7   2  12  152.38   81.51
   7  -2 -12    1.91   60.08
  -7  -2  12    2.04   77.14
   7  -2 -12  141.25   70.48
   7   2 -12  184.88   58.58
   7  -2 -12   66.85   49.85
   7   2 -12  143.34   70.61
   7   2 -13   33.65   63.80
   7  -2 -13  118.26   56.24
   7  -2 -13   67.33   62.71
   7  -2 -13   67.96   55.19
  -7   2  13  128.59   71.21
   7   2 -13  182.33   83.06
  -7  -2  13  149.86   74.19
  -7   2  14  -79.39   71.13
  -7  -2  14  -51.58   78.84
   7   2 -14  -49.26   71.45
  -7  -2  14   57.53   71.87
   7  -2 -14 -105.24   74.13
   7   2 -14   14.87   72.75
   7  -2 -14    9.98   73.21
   7  -2 -14   24.66   73.03
   7   2 -15 3584.86  278.07
  -7  -2  15 2965.33  271.28
   7  -2 -15 2962.19  243.72
  -7   2  15 3525.42  339.16
  -7  -2  15 3221.65  289.26
   7  -2 -15 3137.16  286.07
   7   2 -15 3291.49  256.03
  -7  -2  16   33.77   71.01
   7   2 -16  -13.03   50.04
  -7   2  16   57.08   81.31
   7  -2 -16   98.91   62.52
  -7   2  16  -65.16   64.08
   7  -2 -16   24.01   60.11
   7  -2 -16   19.14   60.44
   7   2 -17 3056.10  234.14
  -7   2  17 3205.07  304.54
   7   2 -17 3394.64  262.32
  -7  -2  17 3043.10  283.23
  -7   2  17 2071.12  211.67
   7  -2 -17 3220.15  258.98
   7  -2 -17 3159.88  268.73
   7  -2 -17 2763.93  209.96
   7  -2 -18   21.35   72.30
  -7  -2  18  -15.47   78.07
   7   2 -18  -25.08   71.99
  -7   2  18 -171.93   71.25
  -7   2  18  -49.39   71.51
  -7  -2  18   28.07   71.54
   7  -2 -18   -0.51   73.35
   7   2 -18   17.74   71.48
   7  -2 -19  655.39  112.24
  -7  -2  19 1024.18  151.68
   7  -2 -19  978.83  145.66
  -7   2  19  913.27  134.92
   7   2 -19  721.00  113.69
   7   2 -19  644.10  119.42
  -7   2  20   49.14   81.35
   7  -2 -20   19.44   75.88
   7  -2 -20  124.91   75.14
   7   2 -20  194.61   72.04
  -7  -2  20  198.62   83.68
   7   2 -20   93.51   63.13
  -7   2  20   70.30   62.29
  -7  -2  21   62.53   67.88
   7   2 -21  176.60   74.10
   7  -2 -21  222.18   84.66
   7   2 -21  171.35   64.88
  -7   2  21  145.20   61.20
   7  -2 -21   29.57   70.61
  -7   2  21   30.80   80.55
   7   2 -22   24.06   65.12
   7  -2 -22  -25.42   65.31
   7  -2 -22  -43.17   67.08
  -7   2  22  -38.06   65.25
  -7   2  22  -62.12   65.19
  -7  -2  22   32.33   64.94
   7   2 -22    9.39   64.91
  -7   2  23   63.83   66.62
   7  -2 -23   17.28   73.16
  -7   3   1 3590.01  294.27
   7  -3  -1 4453.03  319.03
   7  -3  -1 3955.12  258.82
   7   3  -1 4306.32  318.85
  -7  -3   1 3530.87  331.87
   7   3  -1 3778.82  294.11
   7  -3  -1 4246.07  298.95
   7   3  -1 4145.96  379.27
   7   3  -2  303.41   81.96
   7   3  -2  109.93   76.91
   7  -3  -2  191.24   64.45
  -7  -3   2   63.49   89.05
   7  -3  -2  152.23   51.63
  -7   3   2  132.86   75.54
   7  -3  -2  168.37   67.98
   7   3  -2  234.98  107.09
   7   3  -3  908.75  118.50
   7   3  -3  842.90  140.43
   7  -3  -3  925.76  108.35
   7  -3  -3  971.46  113.74
  -7  -3   3  695.49  126.56
  -7   3   3  799.50  118.66
   7   3  -3  693.86   97.47
   7  -3  -3  881.58  114.24
   7  -3  -4   14.15   42.32
   7   3  -4   33.80   62.40
  -7  -3   4  -27.22   73.59
   7   3  -4   61.04   55.60
  -7   3   4  162.80   65.62
   7  -3  -4  -75.51   62.20
   7  -3  -4  -97.01   60.73
   7   3  -4    7.84   64.03
   7   3  -5  850.57  109.98
  -7  -3   5  649.00  133.00
   7   3  -5  761.59  107.76
   7  -3  -5  806.53  108.30
   7  -3  -5  786.23  109.48
   7   3  -5  588.15   86.63
   7  -3  -5  623.98   99.38
  -7   3   5  684.08  114.98
   7   3  -6  144.85   63.75
   7  -3  -6   57.95   54.26
  -7  -3   6  121.31  100.72
   7  -3  -6   56.26   71.01
   7   3  -6  179.77   60.94
   7   3  -6  101.48   62.00
  -7   3   6   97.03  101.93
   7  -3  -6  197.45   57.90
  -7  -3   7  242.52  105.90
   7   3  -7  269.88   74.29
   7  -3  -7  279.88   60.08
   7   3  -7  305.66   62.80
   7  -3  -7  400.50   73.45
   7  -3  -7  278.37   72.74
  -7   3   7  329.87  100.67
   7   3  -7  284.93   78.86
   7  -3  -8  168.75   67.55
   7   3  -8  120.32   58.28
   7   3  -8   97.80   66.50
  -7   3   8  -14.20   84.12
   7   3  -8  198.33   52.06
   7  -3  -8  185.08   61.94
   7  -3  -8  167.73   57.15
  -7  -3   8  196.94  103.78
  -7  -3   9  992.79  153.29
  -7   3   9 1103.88  148.19
   7  -3  -9  993.56  126.69
   7   3  -9 1066.33  137.10
   7   3  -9 1146.28  143.33
   7  -3  -9 1141.79  137.14
   7   3  -9 1086.20  116.11
   7   3 -10  175.33   59.02
  -7   3  10  141.95  111.02
   7   3 -10   82.73   73.28
   7  -3 -10  161.65   70.41
  -7  -3  10  241.33  102.84
   7  -3 -10  233.79   65.27
  -7  -3  11 2139.58  209.52
   7  -3 -11 2324.90  229.29
   7  -3 -11 2288.72  228.45
  -7   3  11 2250.60  255.47
  -7  -3  11 2453.86  243.68
   7   3 -12  165.38   70.00
   7   3 -12   -1.53   72.48
   7  -3 -12   43.27   70.84
  -7   3  12   60.79   96.61
   7  -3 -12   81.87   75.37
  -7  -3  12  133.32   86.18
  -7  -3  12   14.83   82.05
   7  -3 -13 2267.35  212.10
  -7  -3  13 2042.63  209.83
   7   3 -13 2153.33  213.82
  -7   3  13 2029.25  253.64
   7  -3 -13 1960.16  209.00
  -7  -3  13 2704.05  241.37
  -7   3  14   89.49   82.18
   7   3 -14   92.52   52.49
  -7  -3  14   40.54   75.83
   7  -3 -14  102.48   68.30
   7   3 -14   16.32   55.69
  -7  -3  14   45.19   76.09
   7  -3 -14   52.86   63.69
   7   3 -15  472.19   87.25
  -7  -3  15  323.39   95.07
  -7   3  15  276.38  121.83
  -7  -3  15  477.14  111.70
   7  -3 -15  204.01   89.19
   7  -3 -15  225.64   88.80
   7   3 -16   33.70   70.48
  -7   3  16   75.43   89.92
  -7  -3  16   44.00   73.24
   7  -3 -16   55.27   72.63
   7  -3 -16  -22.43   65.19
   7  -3 -17  -16.36   61.00
   7   3 -17  -46.15   59.94
   7  -3 -17  -56.27   61.39
  -7   3  17   26.08   59.63
  -7  -3  17   11.65   60.32
  -7   3  18  -47.99   79.78
   7  -3 -18   56.82   68.26
   7   3 -18   81.44   71.34
   7  -3 -18    0.07   60.67
  -7  -3  18   60.00   79.88
   7  -3 -19  320.64   96.24
   7  -3 -19  426.63   85.49
  -7   3  19  344.92   96.78
   7   4  -1  833.33  109.64
  -7  -4   1  482.47  149.98
  -7   4   1  609.58  124.30
   7  -4  -1  858.97  124.49
   7   4  -1 1033.87  137.99
  -7   4   2   79.44   93.21
   7   4  -2  379.91  115.30
   7  -4  -2  259.60   84.08
   7   4  -2  350.52   77.05
  -7  -4   2   43.41   83.77
  -7   4   3 1092.57  151.20
   7   4  -3 1070.23  133.94
   7   4  -3 1494.29  157.42
  -7  -4   3 1117.08  194.13
   7  -4  -3 1224.91  156.97
   7   4  -4  167.92   78.58
  -7  -4   4  174.54   97.63
   7   4  -4  204.64  100.63
  -7   4   4   66.61   81.96
   7  -4  -4  -29.26   66.80
   7   4  -5 1817.98  176.70
   7   4  -5 1155.46  142.46
  -7   4   5 1255.23  177.34
  -7  -4   5 1439.27  207.79
   7  -4  -5 1470.02  163.29
   7  -4  -6   68.36   75.09
   7   4  -6   18.63   77.17
  -7  -4   6   59.03   76.75
  -7   4   6  -53.39   74.41
   7   4  -6   69.57   76.51
   7   4  -7  443.68   80.48
  -7  -4   7  319.46  120.30
   7  -4  -7  445.60  101.59
  -7   4   7  423.28  107.62
   7   4  -7  654.08  106.94
   7   4  -8   -3.36   58.37
  -7   4   8  -19.09   80.64
  -7  -4   8 1225.90  279.70
   7  -4  -8   31.35   67.95
  -7   4   9  122.15   87.80
   7   4  -9  221.65   74.98
   7   4  -9   62.31   65.20
  -7  -4   9  140.09   93.09
   7  -4  -9  162.92   70.64
   7   4 -10  515.16  108.09
   7   4 -10  645.67  123.02
  -7  -4  10  386.74  122.79
   7   4 -11   31.85   71.67
  -7  -4  11   61.79   81.72
   6   0  -1   53.94   25.49
   6   0  -1  164.68   31.57
   6   0  -1  332.42   56.20
   6   0  -1  306.09   80.88
  -6   0   1  252.66   96.38
   6   0  -217917.14  765.96
  -6   0   218620.61  860.77
   6   0  -214859.98  656.30
   6   0  -219062.75  905.73
   6   0  -216718.48  692.45
   6   0  -3  265.20   67.80
  -6   0   3   98.17   49.20
   6   0  -3  140.77   47.45
   6   0  -3  186.13   64.84
  -6   0   3  204.95   74.30
   6   0  -3   57.73   27.24
   6   0  -4 5576.87  293.79
   6   0  -4 5551.02  275.61
   6   0  -4 6505.01  370.55
  -6   0   4 5693.72  350.70
  -6   0   5   12.12   55.92
   6   0  -5   24.86   31.08
  -6   0   5   58.93   33.92
   6   0  -5   89.04   43.58
   6   0  -5   46.76   49.43
   6   0  -6  988.66  112.92
   6   0  -6 1094.74  115.57
  -6   0   6  961.05   95.31
  -6   0   6  963.18   89.36
  -6   0   7   -5.79   35.63
   6   0  -7   12.90   46.50
   6   0  -7   94.25   48.56
   6   0  -7   21.06   34.86
  -6   0   7   -1.59   43.30
   6   0  -8 3205.03  227.60
  -6   0   8 3369.58  226.00
   6   0  -8 3340.44  259.19
   6   0  -8 3343.44  275.49
  -6   0   8 2985.02  244.73
  -6   0   9   64.10   60.25
   6   0  -9  -51.78   44.39
   6   0  -9   44.97   32.17
  -6   0   9  -10.10   43.05
   6   0  -9   38.62   53.37
   6   0 -10 7624.91  533.57
  -6   0  10 7830.17  427.55
  -6   0  10 7484.69  469.63
   6   0 -10 7644.20  444.47
   6   0 -10 7853.33  551.21
   6   0 -11  -11.23   46.60
   6   0 -11  -11.02   47.26
   6   0 -11    1.77   45.31
  -6   0  11  -27.87   46.74
  -6   0  11  -24.26   46.00
   6   0 -12 7740.03  469.91
   6   0 -12 6308.02  412.43
   6   0 -12 6724.67  406.34
  -6   0  12 7378.66  403.59
  -6   0  12 5877.39  418.47
  -6   0  13  -48.72   54.39
   6   0 -13  112.84   66.37
   6   0 -13   50.90   43.61
   6   0 -13   22.62   50.41
  -6   0  13  -34.95   47.97
   6   0 -14 6813.20  461.07
   6   0 -14 7590.43  472.37
   6   0 -14 7609.15  515.99
  -6   0  14 7706.54  468.11
  -6   0  15   36.37   59.19
   6   0 -15  -23.07   70.94
   6   0 -15   24.13   53.61
   6   0 -15  -22.98   59.66
  -6   0  16 1231.61  168.37
   6   0 -16 1313.82  129.86
   6   0 -16 1007.32  118.40
   6   0 -16 1465.12  146.81
  -6   0  16 1135.45  131.64
   6   0 -17  -36.71   56.16
   6   0 -17   -8.52   55.70
  -6   0  17   72.79   57.33
  -6   0  17 -119.85   55.34
   6   0 -18  297.75   87.00
  -6   0  18  464.30   89.44
   6   0 -18  411.08   65.51
   6   0 -18  292.72   79.25
  -6   0  19   30.08   58.23
   6   0 -19   14.54   56.65
   6   0 -19   13.34   46.44
   6   0 -19   81.11   75.11
  -6   0  20  767.40   99.71
   6   0 -20  717.44  104.54
   6   0 -20  553.62   89.51
   6   0 -20  785.34  110.75
  -6   0  21   20.24   77.30
   6   0 -21  -24.91   74.59
   6   0 -21    4.61   75.99
   6   0 -21  -49.51   75.53
  -6   0  22  675.02   97.67
   6   0 -22  856.78  126.85
   6   0 -22  630.24   87.87
   6   0 -22  867.74  122.47
   6   0 -23  -63.19   75.44
   6   0 -23  -56.32   76.82
   6   0 -23    1.30   76.28
   6   0 -24 1183.49  149.14
   6   0 -24 1011.02  117.28
   6   0 -24 1522.08  162.13
   6   0 -25  -53.87   75.90
   6   0 -25   17.06   77.04
   6   0 -25 -126.38   76.54
   6   0 -26  557.14   99.28
   6   0 -26  497.11   95.04
   6   0 -26  622.03  111.79
   6   0 -27  -44.96   71.76
   6   0 -27  -95.92   72.52
   6   0 -27  -82.53   72.11
  -6   1   1   52.77   57.10
   6  -1  -1  125.82   47.71
   6   1  -1  173.07   61.68
   6  -1  -1   74.17   39.71
   6  -1  -1   63.67   18.22
  -6  -1   1  150.33   61.03
   6  -1  -1  107.38   41.10
   6   1  -1  102.51   49.83
  -6  -1   1   73.60   25.60
   6  -1  -1   52.75   13.32
   6  -1  -2 1327.29  110.34
   6   1  -2 1195.00  100.22
   6  -1  -2 1310.04   99.71
   6   1  -2 1153.13   78.57
   6   1  -2 1240.74  138.83
  -6  -1   2  989.71   71.41
  -6  -1   2 1245.68  160.74
  -6  -1   2 1025.18   78.12
  -6   1   2 1273.47  125.03
   6  -1  -2 1099.71   95.98
  -6   1   3  394.24   39.31
   6   1  -3  378.80   73.20
  -6  -1   3  323.46   38.66
  -6  -1   3  368.31   54.71
   6  -1  -3  432.04   59.28
  -6  -1   3  371.76   74.32
  -6  -1   3  297.17   41.32
   6  -1  -3  468.85   63.42
   6   1  -3  382.96   63.51
  -6   1   3  373.41   79.77
   6  -1  -3  453.25   65.96
   6   1  -411475.83  569.23
  -6   1   4 9834.34  415.31
   6  -1  -411099.83  581.62
  -6  -1   410495.09  434.17
  -6   1   411685.13  584.41
   6   1  -411292.72  565.65
   6  -1  -410588.92  506.58
  -6  -1   410147.61  510.09
  -6  -1   4 9116.79  459.10
  -6  -1   410969.01  728.76
   6  -1  -410638.47  528.62
  -6   1   5  100.92   34.93
   6  -1  -5   31.01   25.92
   6  -1  -5  149.08   54.00
   6   1  -5  147.80   54.81
  -6  -1   5  279.32   66.74
  -6   1   5  131.82   61.35
  -6  -1   5   83.69   23.88
  -6  -1   5   88.44   72.29
   6  -1  -5  132.44   44.00
   6  -1  -5  132.38   57.52
   6   1  -5  192.08   55.63
   6   1  -616815.25  956.44
   6  -1  -616134.77  715.63
  -6   1   616471.75  866.25
  -6  -1   615100.85  795.88
  -6  -1   615030.41  942.91
   6   1  -615452.64  656.93
  -6   1   615000.34  711.47
   6  -1  -617748.17  855.59
   6  -1  -617196.13  767.83
   6  -1  -7  113.27   49.41
  -6  -1   7  100.89   75.54
   6   1  -7  154.06   66.59
  -6   1   7  129.69   58.63
   6   1  -7  103.43   27.16
   6   1  -7  119.89   47.86
   6  -1  -7  102.46   43.09
  -6  -1   7   78.16   59.83
  -6  -1   7   66.64   24.05
   6  -1  -7  177.53   64.33
   6  -1  -7   58.08   27.40
   6  -1  -8 8022.14  483.96
  -6   1   8 8982.69  539.25
   6   1  -8 6702.90  317.63
  -6  -1   8 7833.62  580.83
   6  -1  -8 8317.82  539.65
   6   1  -8 7989.29  501.44
   6   1  -8 7714.61  456.82
   6  -1  -8 9241.69  551.40
  -6  -1   8 8408.37  482.44
   6  -1  -9  122.37   63.40
  -6  -1   9  187.34   80.47
   6   1  -9   48.61   44.78
   6   1  -9   26.65   58.58
  -6  -1   9  148.88   50.69
   6  -1  -9  133.43   44.06
  -6   1   9   71.33   44.10
  -6  -1   9   68.60   27.46
  -6   1   9  162.63   61.61
   6  -1  -9   51.25   52.51
   6  -1 -10 3643.73  302.86
   6  -1 -10 4568.78  295.99
  -6  -1  10 3960.24  318.06
   6   1 -10 3693.88  267.46
   6  -1 -10 3937.22  292.19
  -6   1  10 4606.99  334.42
   6   1 -10 4227.51  288.55
  -6  -1  10 3785.13  348.68
   6  -1 -11   95.59   50.35
  -6   1  11  117.58   67.16
   6   1 -11  224.78   68.94
  -6   1  11   92.07   48.50
   6   1 -11   79.94   47.95
  -6  -1  11  123.68   53.64
  -6  -1  11  152.14   78.09
   6  -1 -11   84.55   62.30
   6   1 -11   96.90   28.12
   6  -1 -11  170.61   61.50
  -6   1  12  122.37   69.13
   6  -1 -12  138.40   51.85
  -6  -1  12   78.16   64.59
   6   1 -12   67.94   29.65
   6   1 -12   65.44   42.84
   6  -1 -12  120.53   51.81
  -6  -1  12   59.41   37.00
   6  -1 -12  108.81   44.20
  -6   1  13   20.12   48.83
  -6  -1  13  -34.65   57.42
   6  -1 -13   10.67   44.81
   6   1 -13   22.19   31.06
   6  -1 -13   -7.99   49.04
   6   1 -13   39.88   48.83
  -6   1  13   81.68   73.77
   6  -1 -13   94.40   49.47
  -6  -1  13  -12.49   47.51
   6   1 -13   62.53   50.84
  -6  -1  14  785.23  107.70
   6  -1 -14 1024.36  134.82
  -6  -1  14  866.75  129.44
  -6   1  14  885.89  126.03
  -6   1  14  824.83  136.48
   6   1 -14  942.00   97.83
   6   1 -14  903.28  115.37
   6   1 -14  698.58   81.77
   6  -1 -14  853.75   96.37
   6  -1 -14  970.13  118.29
   6  -1 -15  -16.02   50.25
   6  -1 -15   30.47   45.32
  -6   1  15  -28.80   63.87
  -6  -1  15   31.52   52.01
   6   1 -15  -11.75   30.80
   6   1 -15   19.16   63.32
  -6   1  15   13.89   55.64
   6  -1 -15  -35.73   58.10
  -6  -1  15    1.24   58.73
   6   1 -15   18.26   56.60
  -6   1  16 2283.99  222.90
  -6   1  16 2854.12  261.67
  -6  -1  16 2282.23  233.17
   6  -1 -16 2362.31  197.33
   6  -1 -16 2650.02  206.34
   6  -1 -16 2246.68  204.50
   6   1 -16 1959.38  163.60
   6   1 -16 2687.98  216.30
  -6  -1  16 2684.99  261.17
   6   1 -16 2669.04  257.87
  -6  -1  17   57.84   63.56
  -6   1  17    3.68   59.91
   6   1 -17   20.40   48.73
   6   1 -17   51.53   36.87
   6  -1 -17  100.98   54.90
   6   1 -17   39.12   66.41
   6  -1 -17   45.74   43.12
  -6  -1  17   77.50   67.58
   6  -1 -17   91.91   66.36
   6  -1 -18 3809.49  312.51
  -6   1  18 4126.40  336.87
   6   1 -18 4443.45  278.89
  -6  -1  18 4338.97  358.54
  -6   1  18 4331.04  311.90
   6   1 -18 4039.19  306.77
   6   1 -18 3095.22  183.15
  -6  -1  18 3707.26  305.19
   6  -1 -18 3481.66  246.92
   6  -1 -18 3920.90  238.26
  -6   1  19   36.70   57.99
  -6  -1  19  -25.27   57.18
  -6   1  19  -41.31   57.44
   6  -1 -19  -50.85   57.04
   6  -1 -19 -102.54   58.92
  -6  -1  19   16.99   61.85
   6   1 -19   12.43   58.23
   6  -1 -19  -18.32   57.56
   6   1 -19   23.24   57.64
   6  -1 -20 1310.82  150.23
   6  -1 -20 1457.73  141.96
   6  -1 -20 1169.89  150.65
  -6   1  20 1741.65  163.70
  -6  -1  20 1461.88  190.64
   6   1 -20 1473.52  147.18
  -6   1  20 1235.52  164.72
  -6  -1  20 1168.02  137.86
   6   1 -20 1239.58  152.23
  -6   1  21    3.77   66.41
   6   1 -21  195.35   79.25
   6  -1 -21   23.46   62.22
   6  -1 -21   54.98   55.20
   6   1 -21  100.83   65.43
   6  -1 -21   70.45   74.53
  -6  -1  21  111.89   71.20
  -6   1  21  143.00   81.13
   6   1 -22  883.27  124.07
   6   1 -22 1038.42  129.72
   6  -1 -22  762.80  133.33
   6  -1 -22  753.16  115.18
  -6   1  22  618.51  130.00
   6  -1 -22  650.10  116.59
   6  -1 -23   64.72   74.22
   6  -1 -23  -22.76   53.97
   6  -1 -23  -41.30   51.33
   6   1 -23  -17.54   65.18
  -6   1  23   50.82   54.89
  -6  -1  23   75.89   72.62
  -6   1  23   15.81   70.74
   6   1 -23   14.98   62.42
   6   1 -24   77.96   63.78
   6  -1 -24   38.35   61.07
   6  -1 -24   69.81   75.52
  -6  -1  24  175.70   76.22
   6   1 -24  175.39  110.11
  -6   1  24   67.64   60.17
  -6   1  24   75.42   78.93
   6  -1 -24  119.64   57.07
   6  -1 -25   59.29   71.77
   6  -1 -25   62.52   45.85
   6   1 -25   22.31   61.72
  -6  -1  25  107.20   78.97
  -6   1  25   16.22   73.60
   6   1 -25   42.73   67.96
   6  -1 -25   48.00   59.05
   6   1 -26   22.52   62.79
  -6  -1  26   35.63   82.43
   6  -1 -26  114.90   82.31
  -6   1  26   69.01   84.58
   6  -1 -26   26.72   68.04
   6  -1 -27  -23.66   71.29
   6   1 -27  -59.96   69.88
   6   1 -27  -18.06   69.62
  -6   1  27  -36.06   69.91
   6   2  -1  182.24   48.95
   6   2  -1  100.04   51.96
   6  -2  -1  346.36   75.89
   6   2  -1  134.24   58.40
   6  -2  -1  156.52   58.77
  -6   2   1   97.63   66.50
  -6  -2   1  131.92   88.56
   6  -2  -1  253.78   55.92
   6  -2  -2 8832.51  443.40
   6   2  -2 7816.50  440.98
   6   2  -2 7117.71  445.62
  -6  -2   2 7934.93  613.88
   6   2  -2 7153.70  386.89
   6  -2  -2 8124.97  430.43
  -6   2   2 7787.76  456.81
   6  -2  -2 7813.44  433.51
   6  -2  -3 3564.52  226.30
   6   2  -3 3514.86  249.42
  -6   2   3 3520.08  284.20
   6   2  -3 3643.97  229.09
   6   2  -3 3070.84  233.56
   6  -2  -3 3619.90  220.42
   6  -2  -3 3736.07  227.21
  -6  -2   3 3360.39  313.01
  -6  -2   4 8289.12  619.71
   6  -2  -4 8939.10  443.77
   6  -2  -4 8504.26  447.49
  -6   2   4 9069.76  570.17
   6   2  -4 8761.59  467.57
   6   2  -4 7675.68  385.77
   6   2  -4 7674.96  456.89
   6  -2  -4 9070.72  458.73
   6  -2  -5  175.61   56.70
   6   2  -5  183.42   68.37
  -6   2   5   77.62   82.54
   6  -2  -5  141.91   62.33
   6  -2  -5  124.51   61.71
  -6  -2   5  192.65   92.00
   6   2  -5  198.50   55.72
  -6   2   6  191.50   76.11
  -6  -2   6   25.33   84.25
   6   2  -6   83.87   46.71
   6  -2  -6  -36.68   47.84
   6   2  -6   54.77   54.63
   6  -2  -6   68.25   52.20
   6  -2  -6   12.59   44.78
  -6  -2   7  264.52   94.38
   6   2  -7  229.84   59.23
   6  -2  -7  278.88   54.38
   6  -2  -7  215.84   65.91
   6   2  -7  248.96   52.19
   6  -2  -7  197.19   67.19
  -6   2   7  344.09   79.84
   6  -2  -8  617.12   77.76
   6  -2  -8  643.76   97.58
  -6  -2   8  506.65  120.03
  -6   2   8  409.02   61.16
  -6   2   8  561.06   97.38
  -6  -2   8  621.75   86.95
   6   2  -8  531.93   66.24
   6   2  -8  550.81   89.12
   6  -2  -8  750.84   97.78
   6  -2  -9  126.92   56.84
  -6  -2   9   48.68   55.04
   6   2  -9   -3.95   46.10
  -6   2   9   29.96   60.48
   6   2  -9    8.94   66.45
  -6  -2   9   70.21   68.11
   6  -2  -9   12.81   38.12
  -6   2   9   -4.12   40.20
  -6  -2  10 5168.64  360.22
  -6   2  10 3837.55  273.31
   6   2 -10 5644.55  312.32
  -6   2  10 5462.60  400.70
   6  -2 -10 5487.05  318.43
   6  -2 -10 5210.08  340.84
  -6  -2  10 4610.92  394.79
   6  -2 -10 5470.19  386.19
   6   2 -10 4873.21  335.57
   6   2 -11  145.93   67.56
   6  -2 -11  101.07   63.31
  -6  -2  11  235.43   68.50
   6  -2 -11  108.59   69.23
  -6   2  11   58.20   51.44
  -6   2  11  150.46   74.21
  -6  -2  11  193.47   79.62
   6  -2 -11  189.14   55.95
   6   2 -11  146.68   55.89
   6   2 -12 5429.26  304.47
   6   2 -12 4183.45  299.32
   6  -2 -12 5420.28  335.21
  -6  -2  12 4840.62  388.08
  -6   2  12 5381.23  394.12
   6  -2 -12 5100.79  369.11
  -6  -2  12 5567.37  363.80
   6  -2 -12 5305.56  407.79
  -6   2  12 4088.30  300.27
   6  -2 -13  -37.91   65.77
   6  -2 -13   59.52   66.82
  -6  -2  13  -24.63   64.59
  -6  -2  13  -46.36   70.72
   6   2 -13  -56.45   65.17
  -6   2  13  -74.23   64.34
  -6   2  13   23.58   63.71
   6   2 -13  -10.85   64.44
  -6  -2  14 5063.32  346.68
   6  -2 -14 5443.77  353.67
   6   2 -14 4886.46  326.42
  -6   2  14 5824.45  444.79
  -6   2  14 4100.17  307.19
   6  -2 -14 5634.27  396.83
   6   2 -14 5850.46  358.58
   6  -2 -14 5353.18  355.64
  -6  -2  14 5881.20  377.49
  -6   2  15   74.13   85.43
  -6  -2  15  213.66   73.60
   6  -2 -15  170.06   71.83
   6   2 -15  119.05   63.91
   6  -2 -15   98.52   59.99
  -6  -2  15  100.08   72.45
   6   2 -15  184.12   75.57
   6  -2 -15  140.67   58.34
   6   2 -16  599.89   98.74
   6  -2 -16  440.49   91.18
  -6  -2  16  522.94   90.37
   6  -2 -16  530.31   89.52
  -6   2  16  380.38   92.16
  -6  -2  16  496.07   99.71
   6  -2 -16  600.67  104.10
   6   2 -16  705.36  108.24
  -6   2  16  536.32  115.32
   6  -2 -17   30.97   66.07
  -6   2  17   -3.08   50.35
   6  -2 -17  -99.05   57.35
  -6   2  17  -60.17   82.61
   6   2 -17   -4.95   58.69
  -6  -2  17   81.49   65.25
   6   2 -17   70.89   68.82
  -6  -2  17   57.13   55.10
   6   2 -18   50.22   74.08
   6  -2 -18  114.74   66.61
  -6  -2  18  -26.25   38.69
  -6   2  18   50.48   62.99
   6   2 -18    5.38   51.63
  -6  -2  18   53.00   59.86
  -6   2  18   55.15   81.30
   6  -2 -18   37.54   69.59
   6  -2 -18   16.06   49.60
   6   2 -19  122.83   55.75
   6  -2 -19  -85.36   59.46
  -6   2  19    8.22   59.90
   6   2 -19  101.33   74.27
  -6   2  19   38.54   74.51
  -6  -2  19  -18.40   67.26
   6  -2 -19   15.52   67.48
   6   2 -20   31.36   54.14
   6  -2 -20   68.96   82.20
  -6   2  20   72.50   74.35
   6  -2 -20  233.13   75.08
  -6  -2  20  225.65   75.79
   6   2 -20  136.01   74.33
  -6   2  20   97.20   65.33
   6  -2 -21  -11.85   69.46
  -6   2  21 -105.85   69.12
  -6   2  21  -26.49   68.85
   6  -2 -21  -14.28   71.16
   6   2 -21  -54.25   69.21
   6   2 -21  -24.64   68.45
   6  -2 -22  719.31  112.59
   6  -2 -22  601.14  120.96
  -6   2  22  583.46  125.27
   6   2 -22  542.49   95.51
  -6  -2  22  833.86  130.32
   6   2 -22  644.19  106.72
  -6   2  22  589.77  110.69
  -6  -2  23  -14.28   77.13
   6   2 -23  -29.08   77.61
  -6   2  23   43.82   77.64
   6  -2 -23   70.70   77.71
   6   2 -23   19.94   76.52
  -6   2  23  -78.00   77.50
   6  -2 -24  580.80   98.28
  -6   2  24  574.10   99.22
   6  -2 -24  790.95  110.14
   6   2 -24  619.58  106.86
  -6   2  24  517.55  108.39
   6   2 -24  597.71   95.97
  -6  -2  24  869.73  131.21
  -6   2  25   91.26   70.73
   6   2 -25   46.09   59.14
   6   2 -25   94.39   71.36
  -6   2  25   13.87   62.78
  -6  -2  25   25.47   78.33
   6  -2 -25   -0.66   69.24
   6  -2 -25   54.86   63.42
   6  -3  -1   37.15   67.13
   6   3  -1  121.67   59.42
   6   3  -1   85.33   50.98
   6  -3  -1   15.82   37.87
  -6  -3   1   -2.51   68.42
   6  -3  -1  105.86   55.47
   6   3  -1   37.15   66.60
  -6   3   1   70.12   63.56
  -6   3   2 1255.58  128.35
   6  -3  -2 1041.92  117.30
  -6  -3   2 1135.08  145.51
   6   3  -2 1096.15  144.53
   6  -3  -2 1171.56  132.96
   6  -3  -2 1140.89  102.42
   6   3  -2 1006.07  121.82
  -6  -3   3  242.33   92.20
   6  -3  -3  133.38   48.49
  -6   3   3  181.16   74.69
   6  -3  -3  185.89   60.49
   6   3  -3  215.48   84.35
   6   3  -3  156.08   69.30
   6   3  -3  278.51   88.37
   6  -3  -3  182.99   72.44
   6  -3  -4 1458.16  178.15
  -6   3   4 1558.96  158.32
  -6  -3   4 1121.62  159.69
   6  -3  -4 1564.37  167.03
   6   3  -4 1579.88  187.39
   6  -3  -4 1514.66  142.84
   6   3  -4 1514.95  144.48
   6   3  -4 1273.03  133.31
   6   3  -5  243.82   93.82
   6   3  -5  318.96   75.76
   6  -3  -5  285.87   69.44
   6   3  -5  315.88   92.69
  -6   3   5  281.33   86.17
  -6  -3   5  347.59  108.83
   6  -3  -5  192.04   58.97
   6  -3  -5  304.47   62.15
  -6   3   6 3790.13  294.75
  -6  -3   6 3523.30  302.90
   6  -3  -6 3773.92  297.16
   6   3  -6 3589.40  264.01
   6  -3  -6 3715.71  285.47
   6   3  -6 3770.62  224.06
   6  -3  -6 3708.62  253.97
   6   3  -6 3678.35  260.24
   6  -3  -7 1207.28  159.97
   6   3  -7 1312.08  174.69
   6   3  -7 1165.44  119.12
  -6   3   7 1596.70  191.04
   6  -3  -7 1285.23  145.81
   6  -3  -7 1443.67  130.67
  -6  -3   7 1698.12  179.68
   6   3  -7 1386.68  143.31
   6  -3  -8 6087.49  381.76
   6  -3  -8 6688.19  515.40
  -6  -3   8 5753.81  387.65
   6   3  -8 6424.15  350.13
   6  -3  -8 5956.80  294.92
  -6   3   8 6870.65  502.27
   6   3  -8 6242.07  389.84
   6  -3  -9   30.71   39.70
   6  -3  -9   83.41   49.84
   6   3  -9   66.99   54.25
  -6   3   9   -5.38   84.94
   6  -3  -9   37.95   69.14
  -6  -3   9   32.69   78.94
   6   3  -9   54.97   57.90
  -6  -3   9   26.84   80.28
   6   3 -10 1804.23  146.58
   6  -3 -10 2162.04  194.30
  -6   3  10 1845.71  217.39
   6  -3 -10 1866.38  222.92
  -6  -3  10 1894.71  196.70
  -6  -3  10 2404.38  195.70
   6   3 -10 1870.75  174.24
   6   3 -11  217.39   56.51
  -6  -3  11  253.40   77.04
  -6   3  11  156.65   95.09
   6  -3 -11  291.06   80.73
   6   3 -11  220.41   60.26
  -6  -3  11  315.17   84.78
   6  -3 -11  272.17   79.49
  -6   3  12  -20.27   58.54
   6   3 -12   28.74   59.20
   6   3 -12  -85.88   59.76
   6  -3 -12  -43.06   59.28
   6  -3 -12   23.30   60.52
  -6  -3  12   82.18   63.50
  -6  -3  12  -50.39   59.81
   6   3 -13   73.49   60.88
  -6  -3  13   66.84   61.12
   6  -3 -13   73.68   58.11
  -6  -3  13  -53.97   56.88
   6  -3 -13   20.90   55.95
   6   3 -13   33.56   52.30
  -6   3  13   11.91   82.59
  -6  -3  14  190.77   79.17
   6   3 -14  245.36   62.16
   6  -3 -14  409.59   83.56
   6  -3 -14  216.79   86.21
   6   3 -14  342.46   78.44
  -6   3  14  255.19   99.23
  -6  -3  14  116.63   81.11
   6   3 -15   43.28   51.77
   6   3 -15   75.45   72.09
   6  -3 -15  -51.79   64.93
  -6  -3  15   67.28   68.87
  -6  -3  15  146.23   67.54
  -6   3  15  -74.58   84.94
   6  -3 -15   32.94   63.32
  -6  -3  16 1276.84  138.05
   6   3 -16 1168.96  134.69
   6  -3 -16 1351.88  169.57
   6  -3 -16 1670.32  158.51
  -6   3  16 1564.96  204.19
  -6  -3  16 1633.68  193.00
   6  -3 -17   83.76   74.38
   6  -3 -17   97.33   71.30
  -6  -3  17  -33.04   73.34
   6   3 -17   26.53   63.64
  -6   3  17    5.40   76.57
   6   3 -18 1019.40  115.65
  -6  -3  18 1283.27  173.60
   6  -3 -18 1090.35  152.60
  -6   3  18 1018.77  170.14
   6  -3 -18  989.08  135.70
   6  -3 -19  122.84   82.86
  -6  -3  19   95.13   79.97
   6   3 -19  -30.47   57.20
   6  -3 -19  -29.96   62.77
  -6   3  19  -67.19   74.30
   6  -3 -20  713.33  146.95
   6   3 -20  872.02  118.21
  -6   3  20  932.82  146.68
   6  -3 -20  708.74  119.02
  -6  -3  21  -50.96   78.39
   6   3 -21  139.82   66.86
  -6   3  21  -27.83   69.39
   6  -3 -21    4.43   82.43
   6  -3 -21  108.98   71.42
  -6   4   1  430.11  100.16
   6   4  -1  703.20  108.23
   6   4  -1  838.30  136.44
  -6  -4   1  455.84  103.26
  -6   4   2 1953.09  195.26
   6   4  -2 2263.47  218.42
  -6  -4   2 1705.19  179.95
   6   4  -2 1847.39  159.98
   6   4  -3  105.27   57.12
  -6   4   3   56.02   74.69
  -6  -4   3   93.51   98.15
   6   4  -3  313.90   98.07
   6   4  -4  859.00  131.48
   6   4  -4  678.97   86.71
   6  -4  -4  801.65  140.55
  -6  -4   4  699.22  130.41
  -6   4   4  707.19  123.80
   6   4  -5  -15.13   56.86
  -6   4   5   31.25   54.89
   6  -4  -5   29.11   55.24
  -6  -4   5  -39.96   57.69
  -6   4   6  121.29   87.18
   6   4  -6  186.11   83.80
  -6  -4   6  260.18   99.98
   6  -4  -6  119.81   69.09
   6   4  -6   95.11   55.71
  -6   4   7  123.88   82.19
   6  -4  -7   85.31   76.03
   6   4  -7  183.36   67.65
  -6  -4   7   16.47  103.01
   6   4  -8   82.42   63.09
  -6   4   8   28.37   87.78
   6   4  -8   75.09   57.77
  -6  -4   8  105.03  106.52
   6  -4  -8  -33.61   69.13
   6  -4  -9  197.93   83.43
   6   4  -9  346.80   81.51
  -6   4   9  196.53   96.72
   6   4  -9  185.92   83.97
  -6  -4   9  247.95   88.95
   6   4 -10 1075.16  132.08
  -6  -4  10 1147.39  160.69
   6   4 -10 1068.17  143.78
  -6   4  10  941.54  157.61
   6  -4 -10  974.21  151.59
  -6   4  11  150.44  110.72
   6   4 -11  445.48   83.66
   6   4 -11  325.65   96.34
  -6  -4  11  429.99  102.79
   6  -4 -11  321.13   92.06
  -6   4  12 1610.21  215.57
   6  -4 -12 1395.36  150.93
   6   4 -12 2368.01  239.14
   6   4 -12 1684.40  167.56
   6  -4 -12 1799.60  204.16
  -6  -4  12 1903.85  213.06
   6  -4 -13    1.51   58.40
   6   4 -13   76.78   68.02
   6  -4 -13   47.54   68.88
   6   4 -13   66.66   63.25
  -6  -4  13   38.04   66.85
  -6   4  13  -20.46   92.27
   6  -4 -14  447.41   82.73
   6   4 -14  790.42  104.54
   6  -4 -14  658.17  121.58
  -6   4  14  618.51  127.49
  -6   4  15  -44.75   61.86
   6  -4 -15  -85.35   63.62
   6   4 -15   19.12   62.42
  -5   0   1 4758.85  257.72
   5   0  -1 5198.47  266.06
   5   0  -1 4433.92  252.07
   5   0  -1 4399.99  211.22
  -5   0   1 4903.99  269.27
   5   0  -2   57.79   30.15
   5   0  -2   93.95   34.40
  -5   0   2   37.05   27.06
  -5   0   2    5.48   25.42
  -5   0   2   38.17   42.79
   5   0  -2   21.60   25.97
   5   0  -3 1822.74  108.39
   5   0  -3 1897.95  131.88
  -5   0   3 1563.52  163.87
   5   0  -3 2069.31  177.05
  -5   0   3 1709.38  121.96
  -5   0   3 1977.63  131.94
   5   0  -4  -24.47   32.97
  -5   0   4    6.68   20.83
  -5   0   4   10.06   37.35
   5   0  -4   26.15   27.02
   5   0  -4    8.07   23.34
  -5   0   4   -3.85   25.76
   5   0  -4  -13.37   38.63
   5   0  -5 7596.01  423.53
   5   0  -5 6638.89  361.02
  -5   0   5 8132.29  392.69
  -5   0   5 7683.49  402.26
   5   0  -5 7847.77  411.06
   5   0  -5 7670.16  369.35
  -5   0   5 7158.87  374.01
  -5   0   6   -4.46   17.25
  -5   0   6  121.06   49.50
   5   0  -6   40.23   31.31
   5   0  -6   22.67   30.77
  -5   0   6   22.57   32.16
   5   0  -6   20.12   41.18
   5   0  -718227.41  857.22
   5   0  -717457.84  781.82
  -5   0   715082.62  658.61
   5   0  -716131.39  789.98
  -5   0   716915.81  742.80
  -5   0   716369.92  767.48
   5   0  -8  -25.70   43.52
  -5   0   8   -9.18   44.66
   5   0  -8   25.77   28.59
   5   0  -8   21.62   40.61
  -5   0   8   20.10   30.76
   5   0  -912524.97  680.43
  -5   0   911785.71  589.91
   5   0  -911065.07  579.81
   5   0  -912025.85  625.85
   5   0 -10   39.21   47.24
  -5   0  10  -34.80   47.40
   5   0 -10    7.94   45.84
   5   0 -10  -13.61   47.84
   5   0 -11 7191.01  420.31
  -5   0  11 7190.12  457.62
   5   0 -11 8140.07  490.36
   5   0 -11 7420.01  479.08
  -5   0  11 7330.71  431.82
   5   0 -12   -7.51   37.93
  -5   0  12  -69.97   39.08
   5   0 -12   -9.80   39.07
   5   0 -12  -23.46   38.61
  -5   0  13  773.83   94.22
  -5   0  13 1058.58  106.71
   5   0 -13  899.98  105.92
   5   0 -13 1103.92  126.30
   5   0 -13  767.50   79.31
   5   0 -14  -12.58   33.34
   5   0 -14   70.38   49.03
  -5   0  14  -80.68   53.25
   5   0 -14   68.07   56.15
   5   0 -15  -15.66   55.25
   5   0 -15  -77.09   56.05
   5   0 -15   41.05   55.27
   5   0 -16   16.88   63.72
   5   0 -16  -26.76   64.41
  -5   0  16   62.31   65.45
   5   0 -16  -26.79   63.42
  -5   0  17   89.30   57.77
  -5   0  17   83.71   51.89
   5   0 -17   40.39   58.18
   5   0 -17   72.06   49.87
   5   0 -17   -7.35   47.03
   5   0 -18   57.43   59.26
  -5   0  18 -101.50   60.96
  -5   0  18  -11.42   58.30
   5   0 -18   25.04   59.63
   5   0 -18  -31.33   58.62
   5   0 -19 8413.79  482.43
   5   0 -19 8829.44  578.92
   5   0 -19 7666.53  462.16
  -5   0  19 9842.54  646.59
  -5   0  20  -85.64   63.55
   5   0 -20  -21.68   64.89
  -5   0  20    8.26   66.55
   5   0 -20  -67.62   64.63
   5   0 -20    1.66   63.81
   5   0 -21 4057.95  288.97
  -5   0  21 4981.98  379.32
   5   0 -21 4224.05  297.95
   5   0 -21 4125.58  297.87
   5   0 -22   29.59   61.72
   5   0 -22 -107.15   61.05
   5   0 -22  -26.04   61.92
  -5   0  22   -9.89   63.64
  -5   0  22   22.36   60.85
   5   0 -23 2148.60  201.78
   5   0 -23 1755.34  181.01
   5   0 -23 1776.30  161.50
  -5   0  23 2150.62  228.98
   5   0 -24   -6.82   61.64
   5   0 -24  -85.78   62.06
   5   0 -24  -25.25   62.25
  -5   0  24 -126.58   61.47
   5   0 -25  393.81   89.57
   5   0 -25  546.74   96.91
  -5   0  25  323.42  107.58
   5   0 -25  419.31   74.19
   5   0 -26   13.13   46.55
  -5   0  26  -34.87   46.18
   5   0 -26   16.08   46.31
  -5   0  27  133.94   91.78
   5   0 -27   87.10   74.47
   5   0 -27   31.89   54.28
   5   0 -27   49.02   68.69
   5   0 -28  -57.25   65.51
  -5   0  28    8.23   65.28
   5   0 -28   -0.86   65.27
   5   0 -28 -106.43   65.45
   5   0 -29  532.52   96.96
   5   0 -29  401.00   88.50
  -5   0  29  318.35  110.21
   5   0 -29  322.96   85.26
   5   1  -127401.42 1107.64
   5  -1  -126050.64 1083.70
  -5  -1   126090.00 1105.30
   5   1  -127280.51 1367.28
   5  -1  -126503.93 1050.20
   5   1  -126756.53 1024.34
  -5  -1   127354.14 1347.81
  -5   1   129043.08 1379.87
   5  -1  -127533.21 1161.44
  -5  -1   126411.64 1032.50
  -5  -1   2  432.47   45.94
   5  -1  -2  545.58   60.11
  -5  -1   2  526.14   91.84
   5  -1  -2  564.78   71.38
   5   1  -2  626.44   70.87
  -5   1   2  655.70   91.24
  -5  -1   2  494.20   61.12
  -5  -1   2  539.53   45.99
   5   1  -2  571.11   81.99
   5  -1  -2  451.19   61.03
   5   1  -316884.57  841.33
   5  -1  -316287.13  665.63
  -5  -1   315181.29  702.95
  -5  -1   315291.52  821.94
   5  -1  -314690.15  686.19
  -5  -1   314812.23  598.84
   5   1  -315284.90  649.25
  -5   1   315560.91  580.24
  -5   1   315915.85  845.23
   5  -1  -313757.43  589.35
  -5  -1   315188.14  597.83
   5  -1  -314919.96  652.70
   5  -1  -4  857.58   59.41
   5  -1  -4 1038.04   87.91
  -5  -1   4 1048.01   63.61
   5   1  -4 1178.00  103.59
   5  -1  -4 1111.02   75.30
  -5  -1   4  948.36   96.47
  -5   1   4  901.99   77.32
   5   1  -4 1367.93  137.16
  -5  -1   4 1043.04  136.55
  -5   1   4 1187.53  114.40
  -5  -1   4  983.19   72.88
   5  -1  -4 1083.39   90.80
   5   1  -5 9692.87  375.26
  -5  -1   510384.61  563.06
  -5  -1   5 9370.30  391.13
   5  -1  -5 8586.01  394.01
   5  -1  -510498.34  440.62
   5  -1  -511032.28  500.32
   5   1  -510330.23  622.20
  -5   1   511010.31  571.47
   5   1  -510020.33  430.36
  -5  -1   510371.00  599.21
   5   1  -6  215.46   25.86
  -5   1   6  187.29   51.09
   5   1  -6  171.08   48.90
   5  -1  -6  213.68   52.39
  -5  -1   6  192.04   70.29
  -5  -1   6  194.29   28.92
   5  -1  -6  149.52   38.07
  -5  -1   6  194.95   42.94
   5   1  -6  198.71   43.52
   5  -1  -6  145.32   36.34
   5   1  -7 1435.62  112.77
   5  -1  -7 1581.80  120.44
   5   1  -7 1699.09  175.65
  -5  -1   7 1681.41  172.32
  -5  -1   7 1473.57   93.56
   5  -1  -7 1278.42   93.65
  -5  -1   7 1404.95  125.93
   5  -1  -7 1864.05  155.21
   5   1  -7 1486.29   88.05
  -5   1   7 1645.33  146.35
   5  -1  -7 1697.56  139.35
   5   1  -8   -4.59   19.73
   5   1  -8   43.03   39.93
  -5  -1   8   71.57   60.65
  -5   1   8   13.98   35.77
   5  -1  -8   13.27   37.00
   5  -1  -8   24.16   27.38
   5  -1  -8   74.10   42.74
  -5  -1   8   14.96   20.46
   5  -1  -8    9.30   36.01
  -5   1   8   10.65   35.24
   5  -1  -9  580.08   83.67
   5  -1  -9  637.65   62.46
  -5   1   9  604.57   99.59
   5   1  -9  537.13   77.85
  -5  -1   9  573.62  102.05
   5  -1  -9  633.63   80.54
  -5  -1   9  435.72   45.13
   5   1  -9  481.81   51.42
  -5   1   9  425.37   68.23
   5   1  -9  660.98   84.99
   5   1 -10   11.78   39.03
  -5   1  10   -4.33   41.31
   5  -1 -10    0.73   36.94
  -5  -1  10  -12.58   39.89
  -5  -1  10    3.44   48.90
  -5  -1  10    9.19   17.99
   5   1 -10   49.97   40.89
   5  -1 -10   22.17   37.96
   5  -1 -10  -13.54   44.81
   5   1 -10  -16.92   21.12
  -5   1  10   -1.14   43.16
  -5   1  11 3926.69  308.05
   5   1 -11 3597.92  310.78
  -5  -1  11 2783.03  195.39
   5   1 -11 3806.00  312.92
   5  -1 -11 3730.10  281.48
   5  -1 -11 3822.65  311.53
   5  -1 -11 3607.85  274.02
  -5  -1  11 3376.50  285.27
  -5  -1  11 3769.27  252.65
   5   1 -11 3517.62  219.03
  -5   1  11 3278.26  261.33
   5   1 -12  207.45   39.46
  -5   1  12  248.04   61.43
   5   1 -12  370.22   64.67
  -5   1  12  276.47   78.59
  -5  -1  12  306.60   62.82
   5  -1 -12  193.16   49.93
  -5  -1  12  203.94   37.79
   5  -1 -12  210.64   59.29
   5   1 -12  292.73   59.45
  -5  -1  12  249.52   64.05
   5  -1 -12  254.18   55.89
  -5  -1  13 4159.62  282.81
   5  -1 -13 4029.84  257.84
   5   1 -13 3557.94  229.10
   5   1 -13 3980.32  285.75
  -5  -1  13 3711.15  307.55
   5  -1 -13 3854.83  290.86
  -5   1  13 3730.05  304.34
  -5   1  13 3682.59  320.42
   5   1 -13 3849.91  261.00
   5  -1 -13 3999.16  304.14
   5   1 -14  401.59   53.04
  -5   1  14  527.95   83.56
  -5  -1  14  535.92   94.63
  -5  -1  14  414.14   81.42
  -5   1  14  565.92   98.41
   5   1 -14  473.65   72.53
   5   1 -14  520.55   68.56
   5  -1 -14  524.95   65.85
   5  -1 -14  414.13   82.55
   5  -1 -14  517.42   73.25
   5   1 -15 9234.58  563.90
  -5   1  1510470.74  578.91
   5  -1 -15 9449.99  605.94
   5   1 -15 7835.57  460.85
  -5  -1  15 9067.86  565.60
   5  -1 -15 9380.15  506.32
   5   1 -15 9488.98  544.52
   5  -1 -15 8499.15  525.79
  -5   1  15 9563.77  556.60
   5   1 -16    4.14   59.31
   5   1 -16   67.21   54.50
   5  -1 -16   27.75   49.10
  -5  -1  16   70.65   49.77
  -5   1  16   64.87   55.62
  -5   1  16   64.07   64.64
   5  -1 -16  114.17   41.60
   5  -1 -16   38.52   52.56
   5   1 -16   88.42   42.21
  -5  -1  16  132.00   61.75
   5  -1 -17 2982.39  221.40
   5   1 -17 2980.08  245.87
  -5   1  17 3261.14  292.51
   5   1 -17 2850.44  224.13
   5   1 -17 2596.27  186.52
  -5  -1  17 3206.03  260.65
   5  -1 -17 3293.12  222.75
   5  -1 -17 2850.96  301.78
  -5   1  17 3437.63  253.27
  -5  -1  17 3082.56  256.77
  -5  -1  18  405.67   85.54
  -5   1  18  435.35   89.58
   5   1 -18  303.21   55.22
   5   1 -18  333.19   76.25
   5   1 -18  421.04   63.53
   5  -1 -18  381.77   65.16
   5  -1 -18  559.09   94.92
   5  -1 -18  403.40   74.65
  -5   1  18  329.20   78.43
   5   1 -19 1824.19  173.41
   5   1 -19 1938.99  160.08
  -5  -1  19 1779.58  169.76
   5   1 -19 1758.15  138.95
  -5   1  19 1874.39  187.56
   5  -1 -19 2058.07  216.27
   5  -1 -19 1697.39  151.84
   5  -1 -19 1938.36  160.99
  -5   1  19 1952.40  200.98
  -5  -1  19 2143.87  205.56
   5  -1 -20    2.66   61.24
  -5   1  20   40.12   72.09
  -5   1  20  153.90   60.44
   5   1 -20   64.54   46.41
  -5  -1  20   78.18   49.21
   5   1 -20   26.41   57.71
   5   1 -20   78.40   55.05
   5  -1 -20   90.73   52.77
   5  -1 -20  -10.20   60.96
  -5   1  21   39.65   59.36
   5  -1 -21  -17.06   56.13
   5   1 -21   63.93   35.16
  -5   1  21  -20.09   69.71
   5  -1 -21   22.48   72.39
   5   1 -21   17.56   63.49
   5  -1 -21    6.80   51.41
   5   1 -21  -18.91   54.64
  -5  -1  22   69.23   74.73
   5   1 -22  174.05   64.15
  -5   1  22  173.64   81.43
   5   1 -22   38.65   47.60
  -5   1  22  166.33   61.40
   5  -1 -22   74.94   51.37
   5  -1 -22  137.76   59.48
   5  -1 -22  -20.09   55.68
   5   1 -22   45.52   63.96
  -5   1  23 1117.01  118.09
   5  -1 -23 1334.55  135.28
   5   1 -23 1228.56  136.19
  -5   1  23 1137.82  154.26
  -5  -1  23 1394.67  178.57
   5  -1 -23 1131.50  147.25
   5  -1 -23 1293.28  171.85
   5   1 -23  989.34  108.77
   5   1 -23 1240.16  145.15
   5  -1 -24   32.28   61.39
   5   1 -24   -8.03   59.37
  -5   1  24  -51.20   60.47
  -5  -1  24   80.38   59.61
   5  -1 -24   11.40   59.87
  -5   1  24 -154.67   59.69
   5   1 -24  -84.51   59.50
   5   1 -24  -58.01   59.87
   5  -1 -24 -126.43   59.75
   5  -1 -25 2397.70  222.13
   5   1 -25 2176.43  197.84
   5  -1 -25 2117.97  202.96
  -5   1  25 1907.19  249.49
   5  -1 -25 2171.66  184.08
  -5  -1  25 2211.37  236.49
   5   1 -25 2479.42  209.30
   5   1 -26   78.94   76.44
  -5  -1  26  -11.71   77.71
   5  -1 -26   30.65   66.20
  -5   1  26  121.23   87.42
   5  -1 -26   63.46   64.25
   5  -1 -26  100.84   68.37
   5   1 -26   69.68   67.84
  -5  -1  27  764.65  148.01
   5   1 -27  773.60  121.58
  -5   1  27  443.14  119.48
   5  -1 -27  871.04  120.21
   5   1 -27  694.64  106.32
   5  -1 -27  707.43  118.03
  -5  -1  28  -29.94   66.67
   5  -1 -28  173.36   66.95
  -5   1  28   -2.50   66.70
   5   1 -28  -43.01   66.66
   5  -1 -28  -23.27   67.86
   5  -2  -1 1814.80  136.58
   5  -2  -1 1826.35  136.67
  -5  -2   1 1755.17  224.57
   5   2  -1 1341.16  104.47
   5   2  -1 1521.27  139.95
   5  -2  -1 1942.23  140.71
  -5   2   1 1702.66  150.80
   5   2  -1 1704.74  157.90
   5  -2  -2   72.38   38.74
   5  -2  -2  135.70   49.43
   5   2  -2   82.70   44.78
   5   2  -2  127.90   40.46
  -5  -2   2  170.88   59.41
  -5   2   2    9.78   49.56
   5   2  -2   66.99   45.21
   5  -2  -2  203.22   62.75
   5  -2  -3  227.93   60.18
   5  -2  -3  236.29   53.49
   5   2  -3  200.22   49.24
   5   2  -3  212.24   54.95
  -5   2   3  265.66   72.15
   5  -2  -3  237.86   41.65
  -5  -2   3  114.15   59.29
   5   2  -3  183.23   45.59
   5  -2  -4  278.90   23.58
   5   2  -4  193.98   43.82
  -5  -2   4  324.39   60.66
   5   2  -4  322.55   64.72
  -5   2   4  411.03   76.37
   5  -2  -4  312.58   50.43
   5  -2  -4  297.67   59.71
   5  -2  -4  290.99   45.81
  -5  -2   4  253.09   69.97
   5  -2  -5 6977.86  299.51
  -5  -2   5 6994.15  566.89
  -5   2   5 7322.23  487.12
   5  -2  -5 6733.50  404.23
   5  -2  -5 6758.99  444.94
   5   2  -5 6144.50  405.52
  -5  -2   5 6755.32  372.84
  -5   2   5 5598.48  274.44
   5   2  -5 6195.81  319.81
  -5   2   6   26.62   63.06
   5  -2  -6   46.71   42.58
   5  -2  -6   10.79   21.72
  -5   2   6   20.85   31.71
   5   2  -6   16.26   46.50
   5   2  -6    7.19   38.23
   5  -2  -6   78.41   52.90
  -5  -2   6   37.42   54.75
  -5  -2   6   39.05   70.28
   5  -2  -6   36.30   37.10
   5  -2  -7 8836.77  524.48
   5  -2  -7 8598.32  479.69
   5   2  -7 7497.28  387.15
  -5  -2   7 7781.73  598.79
   5   2  -7 7649.84  437.07
   5  -2  -7 6932.77  305.40
  -5  -2   7 8591.93  468.50
  -5   2   7 7314.92  419.75
   5  -2  -7 8829.50  389.00
  -5   2   7 9135.16  523.99
  -5  -2   8  547.32  113.58
   5   2  -8  613.03   70.31
   5   2  -8  586.37   85.49
  -5   2   8  476.81   66.40
  -5   2   8  593.00   93.16
  -5  -2   8  639.70   81.24
   5  -2  -8  570.07   84.27
   5  -2  -8  660.28   88.75
   5  -2  -8  462.29   61.68
  -5   2   9 8518.81  589.33
  -5  -2   9 7841.24  546.45
   5  -2  -9 8053.60  512.45
  -5   2   9 6700.04  451.03
  -5  -2   9 8055.90  418.80
   5  -2  -9 7901.34  474.67
   5   2  -9 6847.41  470.55
   5   2  -9 7470.74  441.94
   5  -2  -9 8071.37  393.26
   5  -2 -10   -6.66   55.63
   5   2 -10  -21.41   43.17
  -5   2  10   65.33   53.05
   5  -2 -10   33.63   37.57
   5   2 -10   74.79   51.22
  -5  -2  10   80.03   62.18
  -5   2  10   66.03   50.28
   5  -2 -10  169.82   60.25
  -5  -2  11 6007.74  348.92
  -5   2  11 6012.94  440.17
   5  -2 -11 6014.66  409.24
   5  -2 -11 5724.90  404.17
   5   2 -11 5373.98  310.53
  -5   2  11 5458.30  363.06
   5   2 -11 5419.62  289.92
  -5  -2  11 5658.32  425.56
   5  -2 -11 5968.12  318.79
  -5  -2  12  -19.09   60.95
   5   2 -12   40.49   47.07
   5  -2 -12  -42.49   51.30
   5   2 -12   -3.39   41.14
  -5  -2  12   10.98   57.70
  -5   2  12    5.68   63.87
   5  -2 -12   67.43   56.71
  -5   2  12  -40.46   51.64
   5  -2 -12   16.13   37.04
   5   2 -13 1088.59  131.30
  -5  -2  13 1259.48  136.50
   5   2 -13  975.36   96.75
  -5   2  13 1338.77  156.81
   5  -2 -13 1144.82  120.54
  -5  -2  13 1105.75  131.57
   5  -2 -13 1139.71  154.60
   5  -2 -13 1204.11  116.98
  -5  -2  14  234.02   69.33
   5   2 -14  352.32   79.64
  -5   2  14  208.19   84.85
   5   2 -14  318.53   61.13
   5  -2 -14  279.97   53.00
   5  -2 -14  265.93   71.36
   5  -2 -14  250.40   73.04
  -5  -2  14  314.16   79.86
  -5   2  15   33.48   79.87
   5  -2 -15   46.17   57.70
   5   2 -15   78.99   54.81
   5  -2 -15    6.22   43.81
   5  -2 -15  -10.59   51.58
  -5  -2  15   34.09   44.07
  -5  -2  15   98.18   75.11
  -5   2  15  -25.40   58.91
   5   2 -15  -16.33   45.68
  -5  -2  16   68.73   49.36
   5   2 -16  -15.62   58.48
   5  -2 -16  -34.27   57.48
  -5   2  16   70.08   71.65
  -5   2  16   44.54   77.03
  -5  -2  16   59.52   69.03
   5   2 -16   87.57   56.15
   5  -2 -16   50.52   60.48
  -5  -2  17 2037.03  231.50
  -5   2  17 1764.56  196.02
   5  -2 -17 1588.06  167.74
   5  -2 -17 1759.28  179.91
   5  -2 -17 1807.38  145.12
   5   2 -17 1683.86  167.07
  -5  -2  17 1415.76  131.24
   5   2 -17 1844.53  181.34
  -5   2  17 2371.94  261.71
   5  -2 -18  -59.31   70.32
   5  -2 -18  -51.14   72.39
   5   2 -18    4.74   69.69
  -5   2  18   69.67   68.89
  -5  -2  18  -31.32   72.58
   5  -2 -18  -63.54   70.92
  -5   2  18  -72.24   69.11
   5   2 -18  -32.97   68.84
  -5  -2  18   31.79   69.20
   5  -2 -19 2136.15  189.18
   5  -2 -19 1789.70  180.60
  -5   2  19 1847.93  216.43
  -5   2  19 1860.28  200.80
  -5  -2  19 2505.49  227.80
   5   2 -19 2229.09  191.11
   5  -2 -19 1968.30  161.87
   5   2 -19 1988.84  179.72
   5   2 -20  -63.37   68.17
   5  -2 -20 -112.15   69.67
  -5   2  20   -9.73   68.58
   5  -2 -20  -36.09   70.86
   5   2 -20 -103.34   69.23
   5   2 -21 2406.94  201.55
  -5  -2  21 2164.20  231.50
   5  -2 -21 2204.53  224.70
   5  -2 -21 2627.93  225.01
  -5   2  21 2130.18  251.43
   5   2 -21 2457.04  217.53
  -5   2  21 2265.84  226.35
   5  -2 -22  799.91  130.94
   5  -2 -22 1074.33  131.35
   5   2 -22  986.45  144.84
  -5   2  22  939.71  130.60
  -5   2  22  780.48  146.44
  -5  -2  22  963.79  155.48
  -5   2  23 1372.18  172.01
   5   2 -23 1489.46  159.18
   5  -2 -23 1752.06  202.29
   5  -2 -23 1746.54  170.17
   5   2 -23 1964.87  180.96
  -5  -2  23 1662.36  206.74
  -5   2  23 1407.22  184.96
   5  -2 -24   24.31   68.33
   5  -2 -24   36.05   69.96
  -5  -2  24  -49.21   67.67
   5   2 -24  -68.90   66.87
   5   2 -24   10.08   68.10
  -5   2  24  -58.29   67.99
  -5   2  24 -100.55   67.87
   5  -2 -25   54.45   76.23
   5   2 -25   71.73   65.28
  -5   2  25  193.48   84.36
  -5   2  25   73.76   58.51
   5  -2 -25  161.00   74.93
   5   2 -25   67.26   57.70
   5   2 -26   78.44   69.96
   5   2 -26  -22.12   58.80
  -5   2  26  127.10  100.26
   5  -2 -26    7.03   60.37
   5  -2 -26   56.92   71.82
   5  -2 -27   17.23   78.07
  -5   2  27  -18.86   76.37
  -5   3   1 6092.66  359.84
   5   3  -1 5886.65  390.30
  -5  -3   1 5675.72  432.98
   5   3  -1 6220.80  348.50
   5  -3  -1 6154.87  394.69
   5  -3  -1 5989.77  396.31
   5  -3  -1 6149.29  314.76
   5   3  -1 6309.16  379.53
   5  -3  -2  365.88   80.53
  -5   3   2  377.71   81.96
  -5  -3   2  505.71  101.44
   5   3  -2  585.10  121.78
   5  -3  -2  362.82   55.03
   5  -3  -2  413.75   72.69
   5   3  -2  557.91  106.10
   5   3  -2  618.36  107.34
   5  -3  -3 7163.33  462.77
  -5  -3   3 7439.53  477.24
  -5   3   3 6900.64  395.27
   5   3  -3 6363.30  401.29
   5   3  -3 7007.81  439.10
   5  -3  -3 7153.18  430.88
   5  -3  -3 7063.00  406.45
   5   3  -3 7406.34  387.85
   5   3  -4  628.32  102.61
   5   3  -4  616.06  109.53
   5  -3  -4  508.47   76.87
  -5   3   4  468.39   86.78
   5  -3  -4  589.40   94.27
  -5  -3   4  445.48  109.18
   5  -3  -4  446.25   69.31
   5   3  -4  665.04  131.00
   5   3  -5 5141.26  345.58
   5  -3  -5 5440.73  418.81
   5   3  -5 5155.63  334.28
  -5  -3   5 5205.73  462.81
   5  -3  -5 5223.60  311.92
  -5   3   5 5082.30  364.98
   5  -3  -5 5241.81  341.73
   5   3  -5 5408.64  337.16
   5   3  -6   10.81   53.41
   5  -3  -6   24.30   36.15
  -5  -3   6   71.71   84.57
  -5   3   6  -24.03   30.90
   5   3  -6   72.11   50.63
   5  -3  -6  -25.78   37.34
  -5   3   6   42.12   81.75
   5   3  -6   52.00   50.67
   5  -3  -6   88.08   67.75
   5  -3  -7  363.11   58.73
   5  -3  -7  465.16   87.26
   5  -3  -7  310.33   63.64
   5   3  -7  361.28   66.06
  -5  -3   7  390.79   89.29
  -5   3   7  358.67   90.53
  -5   3   7  298.89   53.81
   5   3  -7  360.38   67.78
   5  -3  -8  -86.63   54.22
   5  -3  -8    0.15   56.33
   5   3  -8   21.58   54.56
   5   3  -8  -12.71   55.20
   5  -3  -8   36.59   55.21
  -5  -3   8    0.89   56.17
  -5  -3   8   -3.92   54.91
  -5   3   8  -34.80   53.59
   5   3  -9    7.86   48.29
  -5   3   9    1.77   33.19
   5  -3  -9    5.23   34.53
  -5   3   9  141.57   73.59
  -5  -3   9   -5.52   66.90
   5   3  -9   37.30   52.21
   5  -3  -9   53.92   44.71
   5  -3  -9   20.09   56.49
  -5  -3   9   16.36   70.64
   5   3 -10  -62.63   44.68
   5  -3 -10   66.25   44.00
  -5  -3  10  -35.23   44.81
  -5   3  10  -43.89   43.75
  -5  -3  10  -43.33   45.86
   5  -3 -10   14.40   46.27
   5  -3 -10  -18.33   45.23
   5   3 -10    1.94   44.43
   5  -3 -11 2608.53  263.07
   5   3 -11 2036.42  179.11
   5  -3 -11 2099.21  194.56
  -5  -3  11 2805.22  238.84
  -5   3  11 2197.04  248.93
   5   3 -11 2047.78  152.78
  -5  -3  11 2301.16  187.46
  -5  -3  12   74.06   61.27
   5   3 -12   78.94   59.06
  -5   3  12 -107.53   72.54
   5  -3 -12   40.37   71.22
  -5  -3  12   48.66   71.65
   5  -3 -12   62.34   51.68
   5   3 -12  -26.30   46.56
   5  -3 -13 3079.47  278.83
   5   3 -13 2724.35  176.82
  -5  -3  13 2906.51  213.58
  -5   3  13 3062.75  282.53
  -5   3  13 2516.87  214.20
   5   3 -13 2841.32  223.00
   5  -3 -13 3424.26  266.37
  -5   3  14  -46.62   43.71
  -5  -3  14   68.72   44.87
   5  -3 -14  -33.05   43.71
  -5  -3  14  -73.36   44.45
   5  -3 -14  -46.67   45.27
   5   3 -14   -2.08   44.07
   5  -3 -15 2734.34  256.55
  -5   3  15 2690.95  272.87
  -5  -3  15 2648.79  211.79
  -5   3  15 1981.55  195.52
   5   3 -15 2551.40  167.75
   5   3 -15 2485.47  212.27
   5  -3 -16   64.64   78.18
  -5  -3  16    2.88   72.95
  -5   3  16  -18.71   71.51
   5  -3 -16   93.93   73.41
  -5   3  16   35.08   56.14
   5   3 -16  -14.57   58.71
  -5  -3  16   30.59   51.86
   5  -3 -17 1671.31  171.42
   5  -3 -17 1837.48  189.66
  -5  -3  17 2231.10  261.08
   5   3 -17 1538.01  162.84
  -5   3  17 1737.05  210.11
  -5   3  17 1370.64  164.22
  -5   3  18  314.12   78.65
  -5   3  18  289.68   93.89
   5  -3 -18  269.62   83.37
   5  -3 -18  278.76   84.10
  -5  -3  18  447.92  111.10
   5   3 -18  425.48   88.24
  -5   3  19  209.07   89.00
   5  -3 -19  301.68   84.18
   5  -3 -19  259.58   76.11
   5   3 -19  149.77   64.52
  -5  -3  19  167.18   86.20
   5   3 -20   60.91   62.46
  -5   3  20  128.78   61.25
  -5   3  20   67.00   75.70
   5  -3 -20   96.53   68.17
   5  -3 -20  201.65   72.51
   5  -3 -21  158.39   72.78
  -5   3  21   68.07   58.37
   5   3 -21   26.64   71.93
  -5   3  21   62.74   63.09
  -5  -3  21   89.99   74.63
   5  -3 -21   50.13   66.87
  -5  -3  22  -53.72   57.42
   5   3 -22  -41.62   56.62
  -5   3  22   -5.49   57.61
   5  -3 -22  -37.18   58.78
  -5   3  22   30.34   57.68
   5  -3 -22   19.23   58.40
   5  -3 -23  150.19   77.85
  -5  -3  23   -7.24   81.94
   5   3 -23  112.21   82.79
   5  -3 -23   67.28   65.39
  -5   3  23  -21.53   63.31
  -5   4   1  590.70  108.73
   5   4  -1  561.92   76.26
  -5  -4   1  570.52  123.91
   5   4  -2   39.61   42.74
  -5  -4   2   -2.93   93.89
  -5   4   2   80.62   67.51
   5   4  -2  -38.05   71.04
   5   4  -3   98.81   49.48
   5   4  -3  262.31   80.92
  -5  -4   3   63.59   96.25
  -5   4   3   80.49   74.62
   5   4  -4  233.27   81.72
  -5  -4   4  296.11  105.14
  -5   4   4  286.84   71.28
   5  -4  -4  243.67   82.73
   5   4  -4  258.14   61.39
  -5   4   5  588.51   94.61
  -5  -4   5  515.94  108.06
   5  -4  -5  591.71  106.38
   5   4  -5  635.44  111.52
   5  -4  -6   -3.34   79.77
   5   4  -6  -60.81   81.32
   5   4  -6  113.71   81.89
  -5  -4   6  -35.31   81.02
  -5   4   6  -57.45   79.18
   5  -4  -7 2602.70  258.45
   5   4  -7 2727.48  245.77
  -5   4   7 2181.24  202.88
  -5  -4   7 2422.49  257.68
   5   4  -7 2652.10  211.17
   5   4  -8  551.60  113.36
   5  -4  -8  445.80  112.56
  -5   4   8  432.26   97.33
  -5  -4   8  494.01  104.01
   5  -4  -8  427.22   66.45
   5   4  -8  510.03   99.54
  -5  -4   9 2614.32  206.10
  -5   4   9 2580.69  248.05
   5   4  -9 2901.41  235.51
   5   4  -9 3217.63  277.63
   5  -4  -9 2997.23  273.13
   5  -4  -9 2478.79  199.01
   5   4 -10   18.91   62.63
   5  -4 -10   28.42   61.63
   5   4 -10  -36.78   62.10
  -5  -4  10 -107.36   61.87
   5  -4 -10   -7.11   60.58
  -5   4  10    7.19   60.73
   5   4 -11  959.69  127.28
   5  -4 -11 1076.21  175.78
  -5   4  11 1165.08  153.01
   5   4 -11 1578.09  166.89
   5  -4 -11  993.18  102.09
  -5  -4  11  928.56  142.23
   5  -4 -12  150.15   63.56
   5   4 -12  146.94   74.90
  -5   4  12  164.12  100.07
   5  -4 -12  224.06  109.62
  -5  -4  12  184.02   73.16
  -5  -4  13  342.43   80.65
   5  -4 -13  405.62   75.17
   5  -4 -13  438.54   91.21
  -5   4  13  228.82  107.17
   5   4 -13  545.29   92.94
   5   4 -14   52.78   67.14
  -5   4  14  -15.00   66.81
   5  -4 -14  -61.97   66.10
  -5  -4  14  -71.81   68.47
   5  -4 -14   33.82   68.80
  -5   4  15  -31.25   85.67
   5  -4 -15   57.18   73.57
   5  -4 -15   40.98   59.79
  -5  -4  15  102.88   94.62
   5   4 -15  106.30   66.02
   5  -4 -16   50.52   63.43
   5   4 -16   55.04   63.53
  -5   4  16   11.50   78.77
  -5  -4  16  110.88   86.76
   5  -4 -16   56.08   56.67
   5  -4 -17  721.32  122.50
   5   4 -17  562.48   97.79
  -5  -4  17  508.96  119.43
  -5   4  17  478.61  116.35
   5  -4 -17  389.46   97.37
  -5   4  18   81.91   78.71
   5  -4 -18  -21.15   61.31
   5   4 -18   13.53   64.18
   5   5  -1  773.22  134.72
  -5  -5   1  744.23  130.91
   5  -5  -1  615.92  109.26
  -5   5   1  308.92   98.41
   5  -5  -2  368.67   93.86
  -5  -5   2  267.78  131.90
  -5   5   2   81.68   75.48
   5   5  -2  306.82  115.64
   5   5  -3 1416.72  174.21
   5  -5  -3 1430.22  193.04
  -5   5   3 1037.95  133.83
  -5  -5   3 1230.98  153.90
  -5  -5   4  114.09   91.99
  -5   5   4  -22.54   79.70
   5  -5  -4  103.99   88.08
  -5   5   5  657.41  127.60
   5  -5  -5  458.57  116.60
  -5  -5   5  656.97  113.74
  -5  -5   6   12.46   76.60
   5  -5  -6   18.11   72.57
   4   0  -1   24.90   19.43
  -4   0   1    2.19   17.91
   4   0  -1  -42.08   31.90
   4   0  -1    9.16   22.33
   4   0  -1   72.65   35.28
  -4   0   1   -1.75   21.47
  -4   0   1    4.86   38.11
   4   0  -229794.09 1074.92
  -4   0   230719.11 1230.05
  -4   0   233583.54 1308.55
   4   0  -229793.12 1155.12
   4   0  -230157.10 1144.88
   4   0  -235074.81 1258.65
  -4   0   229205.88 1120.86
   4   0  -3   73.60   37.24
  -4   0   3   36.50   44.99
   4   0  -3  142.39   42.84
   4   0  -3   47.44   26.08
  -4   0   3   36.17   23.60
  -4   0   3   77.48   29.27
   4   0  -3   45.52   29.35
   4   0  -412426.92  568.62
  -4   0   411732.55  536.95
   4   0  -410648.29  470.21
   4   0  -410861.63  478.06
  -4   0   410937.65  500.56
  -4   0   411534.53  507.11
   4   0  -411452.28  487.19
   4   0  -5  -18.26   35.80
   4   0  -5  -32.29   34.91
  -4   0   5  -12.10   35.58
   4   0  -5   12.02   36.00
  -4   0   5  -13.34   35.62
  -4   0   5   15.25   35.88
   4   0  -5   -7.59   36.40
  -4   0   615249.62  698.95
  -4   0   616724.54  667.43
  -4   0   617173.76  729.93
   4   0  -616626.37  790.57
   4   0  -617628.83  734.70
   4   0  -618412.60  823.00
   4   0  -7  -13.99   34.97
   4   0  -7  -52.55   35.45
  -4   0   7   38.61   35.00
  -4   0   7    3.28   35.30
   4   0  -7    6.28   35.85
   4   0  -7   34.58   34.16
   4   0  -817440.90  738.16
   4   0  -815703.37  733.94
   4   0  -816194.52  750.13
  -4   0   815527.44  710.69
  -4   0   812980.63  627.46
  -4   0   9   -7.75   39.85
   4   0  -9   -1.92   40.20
  -4   0   9  -20.25   38.19
   4   0  -9   67.46   38.58
   4   0  -9    1.61   39.86
   4   0 -10  151.74   35.66
  -4   0  10  154.16   42.37
   4   0 -10  132.38   42.76
  -4   0  10  137.02   39.62
   4   0 -10  116.56   39.00
  -4   0  10  134.36   43.35
   4   0 -11  -32.45   28.04
  -4   0  11    2.50   28.04
   4   0 -11   34.85   27.27
   4   0 -11   -9.42   27.82
   4   0 -12  357.47   59.31
   4   0 -12  313.48   71.56
  -4   0  12  309.11   50.31
  -4   0  12  377.20   54.76
   4   0 -12  345.10   53.56
   4   0 -13   -7.94   32.05
  -4   0  13   28.80   31.68
   4   0 -13  -33.61   32.36
   4   0 -13  -16.85   31.82
   4   0 -14 6533.85  457.15
  -4   0  14 6604.17  459.81
  -4   0  14 7212.34  372.54
   4   0 -14 7099.01  454.59
   4   0 -14 6380.01  389.88
   4   0 -15  -49.83   43.87
   4   0 -15  -26.84   44.42
  -4   0  15  -50.97   43.42
  -4   0  15  -31.35   45.08
   4   0 -15  -35.75   43.98
   4   0 -1624862.74 1243.18
   4   0 -1622133.42 1086.32
   4   0 -1625013.01 1351.63
  -4   0  1627284.12 1351.16
  -4   0  1625772.64 1056.80
   4   0 -17    6.59   63.26
  -4   0  17  -73.38   65.63
   4   0 -17  -58.64   64.07
  -4   0  17  -42.74   62.71
   4   0 -17   15.77   63.73
  -4   0  18 6192.16  434.31
   4   0 -18 5908.13  312.01
   4   0 -18 4879.70  320.94
   4   0 -18 5725.06  361.28
  -4   0  18 5386.84  312.17
   4   0 -19    4.88   51.74
  -4   0  19  -57.38   50.99
  -4   0  19   -6.21   53.74
   4   0 -19  -93.06   51.90
   4   0 -19  -35.15   51.36
  -4   0  20  464.05  103.89
   4   0 -20  474.90   71.76
   4   0 -20  342.75   69.79
  -4   0  20  573.43   77.99
   4   0 -20  455.28   80.70
  -4   0  21    6.68   51.22
   4   0 -21   16.55   51.52
  -4   0  21  -34.37   54.09
   4   0 -21  -78.23   51.74
   4   0 -21  -10.03   51.85
  -4   0  22  -54.53   66.53
   4   0 -22   12.09   59.29
   4   0 -22   17.76   54.96
   4   0 -22   37.41   59.52
  -4   0  22    6.74   41.40
   4   0 -23  -23.93   62.25
  -4   0  23   -0.14   61.88
   4   0 -23   11.62   62.16
   4   0 -23    0.58   62.17
   4   0 -24  234.87   61.88
  -4   0  24  239.94   85.69
   4   0 -24  139.86   70.22
   4   0 -24  317.36   77.12
   4   0 -25   36.53   61.19
   4   0 -25  -11.42   61.11
   4   0 -25  -49.24   61.44
   4   0 -26 1514.84  152.01
   4   0 -26 1543.92  168.02
   4   0 -26 1557.25  159.35
  -4   0  26 1795.83  222.74
   4   0 -27  -64.89   63.16
  -4   0  27 -117.28   62.92
   4   0 -27  -65.03   62.53
   4   0 -27   25.35   62.65
   4   0 -28  334.37   87.67
   4   0 -28  441.57   90.31
  -4   0  28  537.11  116.99
   4   0 -28  440.86   94.50
   4   0 -29  -60.92   62.94
   4   0 -29   -0.71   62.25
   4   0 -29  -60.81   62.09
  -4   0  29   14.81   62.68
   4   0 -30  826.87  108.91
   4   0 -30  927.85  128.68
  -4   0  30  760.27  158.46
   4   0 -30  893.52  122.52
   4   1  -1  220.72   48.54
  -4  -1   1  214.75   28.21
   4  -1  -1  174.51   29.96
  -4  -1   1  133.70   20.48
   4  -1  -1  203.82   38.83
   4  -1  -1  167.13   40.30
  -4  -1   1  219.83   54.43
   4   1  -1  174.03   43.46
  -4   1   1  217.90   45.94
  -4  -1   2 9194.86  381.10
   4   1  -2 9330.01  545.42
   4   1  -2 8701.55  458.09
  -4  -1   2 9130.19  399.81
   4  -1  -210209.01  424.03
  -4   1   2 9532.22  545.71
   4  -1  -210310.46  493.45
   4  -1  -2 9341.02  366.84
   4  -1  -2 9546.14  480.96
  -4  -1   2 9551.95  362.93
  -4  -1   210017.37  530.19
  -4   1   2 8630.75  340.82
   4   1  -3  415.61   50.92
  -4  -1   3  465.82   50.92
   4  -1  -3  505.29   49.22
   4   1  -3  490.16   67.09
  -4   1   3  401.77   64.20
  -4  -1   3  358.24   35.84
   4  -1  -3  414.75   50.03
   4  -1  -3  441.46   32.75
   4  -1  -3  515.33   70.06
  -4   1   3  480.83   57.91
  -4   1   3  374.78   39.44
  -4  -1   3  422.55   30.71
  -4  -1   3  420.91   62.94
   4   1  -4  190.35   40.21
  -4  -1   4  200.40   35.35
   4   1  -4  220.94   46.22
  -4   1   4  142.65   33.83
   4  -1  -4  166.54   25.84
  -4  -1   4  222.89   48.08
   4  -1  -4  189.62   40.40
   4  -1  -4  193.83   41.51
  -4   1   4  118.27   45.51
   4  -1  -4  212.69   37.84
  -4  -1   4  212.26   23.38
  -4   1   4  140.51   28.94
   4   1  -5  174.14   44.48
  -4   1   5  116.17   29.37
  -4   1   5  160.39   42.14
   4  -1  -5  221.77   37.47
  -4  -1   5  183.68   23.85
  -4   1   5  127.94   36.66
   4   1  -5  128.46   17.12
   4   1  -5  120.11   33.76
   4  -1  -5  196.01   36.25
   4  -1  -5  153.23   40.99
  -4  -1   5  143.78   53.10
  -4   1   6 2395.26  187.36
  -4   1   6 2777.20  200.74
   4  -1  -6 2900.21  185.93
   4   1  -6 2344.66  114.68
   4   1  -6 2306.05  236.53
   4   1  -6 2423.04  151.98
  -4   1   6 2382.43  158.68
  -4  -1   6 2605.70  136.09
   4  -1  -6 2740.12  148.40
   4  -1  -6 2197.92  131.04
   4  -1  -6 2666.69  151.90
  -4  -1   6 2475.23  217.19
  -4  -1   6 2706.76  164.85
  -4   1   7   48.57   36.82
   4   1  -7   65.87   41.39
   4  -1  -7   93.34   38.80
   4  -1  -7   58.11   23.92
   4  -1  -7   26.79   31.54
  -4  -1   7   33.50   52.93
   4   1  -7   30.71   30.64
   4  -1  -7   43.32   35.63
   4   1  -7   38.85   16.45
  -4  -1   7   40.83   19.89
   4  -1  -8 6963.78  426.94
   4   1  -8 7402.54  360.11
   4  -1  -8 8368.72  481.78
  -4   1   8 7594.05  459.38
   4   1  -8 6957.86  328.10
  -4  -1   8 6767.75  298.88
   4   1  -8 7713.15  493.05
   4  -1  -8 7379.99  474.00
  -4  -1   8 7073.57  481.59
  -4  -1   8 6753.65  384.39
  -4   1   8 7035.90  390.20
  -4   1   9   43.85   37.44
   4  -1  -9   32.81   33.69
   4   1  -9   57.93   38.40
   4   1  -9   44.70   22.42
  -4  -1   9   18.74   50.86
  -4  -1   9   17.89   23.27
   4  -1  -9   -0.07   29.48
   4   1  -9    1.96   28.13
  -4   1   9   -1.72   34.48
   4  -1  -9   65.11   42.25
  -4  -1  1012020.95  582.03
   4   1 -1014711.76  793.74
   4   1 -1013400.47  663.76
  -4   1  1014070.92  702.91
  -4  -1  1013430.13  763.99
   4  -1 -1015427.99  705.70
   4   1 -1013503.64  640.18
   4  -1 -1014477.40  782.39
  -4   1  1015551.24  716.32
  -4  -1  1013466.36  668.86
   4  -1 -1013610.71  671.34
   4   1 -11   -4.07   38.37
  -4   1  11 -124.85   53.96
   4  -1 -11   92.89   46.45
   4   1 -11   -3.89   25.34
   4   1 -11  -10.71   37.34
  -4  -1  11   46.35   47.29
  -4   1  11   33.96   46.40
  -4  -1  11    7.83   48.01
   4  -1 -11  -23.10   38.76
  -4   1  1219887.40 1011.91
   4  -1 -1221889.66 1047.13
   4  -1 -1221110.82 1004.69
   4   1 -1218593.29  925.87
   4   1 -1220287.37 1000.94
   4   1 -1218911.91  904.65
  -4  -1  1219736.14 1094.43
  -4   1  1222457.96  997.06
  -4  -1  1221110.02  951.27
   4   1 -13  339.98   52.65
  -4   1  13  246.56   63.25
  -4  -1  13  140.82   36.00
   4  -1 -13  343.46   60.20
   4   1 -13  238.76   54.54
   4   1 -13  296.68   41.62
  -4  -1  13  330.08   67.52
  -4   1  13  250.02   54.61
  -4  -1  13  297.52   59.66
   4  -1 -13  327.02   61.83
   4  -1 -13  184.84   56.05
   4   1 -14 5172.65  313.38
  -4   1  14 5935.34  378.92
  -4  -1  14 5568.80  387.57
   4   1 -14 5848.31  406.52
  -4  -1  14 6162.31  372.86
   4   1 -14 5183.91  269.22
  -4   1  14 6047.36  396.92
   4  -1 -14 5635.85  432.76
   4  -1 -14 5773.91  399.77
   4  -1 -14 6181.48  399.69
   4   1 -15 1467.46  126.87
   4   1 -15 1155.31  101.86
   4   1 -15 1427.85  136.82
  -4   1  15 1704.25  159.06
  -4   1  15 1472.21  139.54
  -4  -1  15 1660.64  164.08
   4  -1 -15 1374.43  156.66
   4  -1 -15 1555.35  155.07
   4  -1 -15 1384.53  118.39
  -4  -1  15 1355.13  143.03
  -4   1  16  -60.61   52.70
  -4   1  16   52.60   46.61
   4   1 -16  -17.76   34.87
   4  -1 -16   12.12   39.90
   4   1 -16  101.98   49.19
  -4  -1  16  -29.38   36.38
   4  -1 -16   60.13   55.94
   4  -1 -16   15.51   52.90
  -4  -1  16  -55.82   59.11
  -4  -1  17  403.44   70.77
   4   1 -17  482.42   75.35
  -4   1  17  422.47   74.21
   4   1 -17  435.94   68.07
   4  -1 -17  601.98   88.60
   4   1 -17  332.77   60.14
  -4   1  17  463.40   92.30
   4  -1 -17  516.09   68.80
  -4  -1  17  506.37   96.59
   4  -1 -17  439.58   79.82
   4   1 -18  709.25   80.59
  -4   1  18  902.90  120.11
   4  -1 -18  833.25   96.70
   4   1 -18  704.24   78.15
   4   1 -18  904.72  104.26
  -4   1  18  859.74  103.54
   4  -1 -18  910.78  123.11
   4  -1 -18  765.28   96.27
  -4  -1  18  746.50   88.66
   4  -1 -19  618.17   92.72
   4   1 -19  687.78   87.84
   4  -1 -19  622.01   76.85
   4   1 -19  628.87   80.62
   4   1 -19  619.90   86.14
  -4   1  19  757.05  106.85
  -4  -1  19  605.92   74.48
  -4   1  19  724.83   96.05
   4  -1 -19  506.38   93.29
  -4  -1  20 5833.19  309.82
   4  -1 -20 6790.82  359.17
   4  -1 -20 6619.79  418.01
   4  -1 -20 6542.75  436.72
   4   1 -20 6000.46  369.43
  -4   1  20 7280.76  521.72
   4   1 -20 6102.89  366.51
  -4   1  20 6325.22  312.81
   4   1 -20 6078.07  421.44
   4   1 -21  151.33   65.68
  -4   1  21  255.27   61.35
  -4   1  21  190.37   87.27
  -4  -1  21  192.57   76.10
   4  -1 -21  173.33   70.94
   4   1 -21  300.82   71.13
   4  -1 -21  277.40   57.90
   4   1 -21  355.94   62.17
   4  -1 -21  148.51   62.94
   4   1 -22 2751.99  219.52
   4  -1 -22 2728.69  196.24
   4  -1 -22 2643.95  241.64
  -4   1  22 2600.44  204.78
   4  -1 -22 2884.02  212.75
   4   1 -22 2404.73  183.99
   4   1 -22 2502.25  176.56
  -4   1  22 2829.45  271.14
   4   1 -23   -8.49   60.25
  -4   1  23  -52.41   73.26
  -4   1  23    9.79   51.41
   4  -1 -23   13.31   56.61
   4  -1 -23   21.84   63.01
   4   1 -23  114.45   60.82
   4   1 -23   -2.55   45.86
   4  -1 -23    5.93   60.83
   4  -1 -24 1135.40  144.18
  -4   1  24  968.59  180.94
   4  -1 -24 1200.98  130.98
   4  -1 -24 1241.00  132.56
  -4   1  24  977.78  107.41
   4   1 -24 1240.50  137.53
   4   1 -24 1089.13  138.72
   4   1 -24 1143.71  123.45
   4   1 -25    6.57   54.55
   4   1 -25  -38.37   54.76
   4  -1 -25   -3.13   56.22
   4   1 -25   41.98   55.49
  -4   1  25  -48.02   55.16
   4  -1 -25  -30.91   55.10
   4  -1 -25  -54.02   55.68
   4   1 -26  583.50  112.98
   4   1 -26  428.74   78.47
   4  -1 -26  495.30   74.14
   4   1 -26  376.81   81.49
  -4   1  26  438.50  121.89
   4  -1 -26  550.15  110.66
   4  -1 -26  538.62   97.66
   4   1 -27  -50.24   55.84
  -4  -1  27  -19.28   55.96
   4   1 -27   -4.53   55.08
   4  -1 -27    8.95   56.17
   4  -1 -27   23.25   55.32
   4   1 -27   36.41   54.90
   4  -1 -27    1.52   56.37
  -4   1  27  -68.21   55.63
   4   1 -28  149.19   66.53
   4  -1 -28   28.18   62.50
   4   1 -28   12.98   61.03
   4   1 -28   84.04   55.53
  -4   1  28  -48.77   86.46
   4  -1 -28  176.58   73.95
   4   1 -29    7.22   77.90
   4   1 -29   50.01   78.89
   4   1 -29  -52.24   77.72
   4  -1 -29    2.75   79.60
   4  -1 -29  -69.96   79.41
  -4   1  29   17.38   78.76
   4   1 -30  114.60   71.38
   4   1 -30  109.77   61.37
   4  -1 -30  -13.32   75.74
   4   2  -1  945.94   94.73
   4   2  -1 1102.28   80.22
   4  -2  -1 1259.67  108.13
   4   2  -1 1058.26   98.49
  -4   2   1  893.20   51.52
   4  -2  -1 1210.47   98.28
  -4   2   1  969.15   50.27
  -4   2   1 1224.49  102.22
  -4  -2   1 1314.47  155.16
   4  -2  -1 1108.83   98.70
   4   2  -210176.06  586.07
   4  -2  -211173.07  553.57
   4  -2  -211454.65  538.72
  -4   2   211291.37  507.99
   4   2  -2 9644.40  473.46
  -4  -2   211559.21  618.79
   4  -2  -211114.14  552.89
   4   2  -210334.96  518.75
  -4   2   2 9255.23  387.28
   4   2  -3   80.02   36.80
  -4   2   3    0.43   51.73
   4  -2  -3   14.85   25.95
  -4  -2   3   91.30   55.03
   4   2  -3  114.68   36.75
   4  -2  -3   17.86   15.54
   4  -2  -3   66.57   47.12
   4  -2  -3   26.40   32.04
   4  -2  -416571.78  765.44
  -4  -2   415433.04  686.89
   4  -2  -416814.28  682.42
  -4   2   414129.77  627.52
   4   2  -415062.52  728.56
   4   2  -415600.53  710.27
  -4   2   415755.12  722.07
  -4   2   415963.49  808.85
   4  -2  -415104.53  554.92
   4  -2  -416693.29  764.26
  -4  -2   415142.65  770.37
  -4   2   5  503.30   51.91
   4   2  -5  571.12   52.88
   4   2  -5  582.02   71.92
   4  -2  -5  658.23   78.54
   4  -2  -5  711.34   74.88
  -4  -2   5  844.43   85.47
   4  -2  -5  512.65   42.34
  -4  -2   5  705.28  107.07
  -4   2   5  719.79   94.11
   4   2  -613449.74  576.68
   4  -2  -615492.92  603.32
   4  -2  -615496.71  731.51
   4  -2  -615545.36  784.78
   4   2  -612870.00  718.09
  -4   2   615011.01  812.67
  -4  -2   615427.09  741.10
  -4  -2   614840.71  762.05
   4  -2  -613887.42  532.63
  -4   2   614125.92  618.93
  -4   2   613219.78  603.45
  -4   2   7  345.34   47.30
  -4  -2   7  414.40   77.73
  -4   2   7  405.25   67.67
   4  -2  -7  396.80   67.10
   4   2  -7  284.35   54.22
   4   2  -7  396.28   49.05
  -4   2   7  305.41   47.45
   4  -2  -7  439.84   48.14
   4  -2  -7  324.23   39.22
  -4  -2   7  362.27   57.18
   4  -2  -7  432.80   72.61
  -4  -2   8 3776.07  270.29
  -4   2   8 3969.68  236.20
   4   2  -8 3408.70  223.27
   4  -2  -8 4582.58  360.66
   4   2  -8 3558.57  301.23
  -4   2   8 3304.68  221.09
  -4   2   8 3798.17  332.09
   4  -2  -8 4301.00  282.99
   4  -2  -8 4290.46  241.02
   4   2  -9  796.25   85.10
  -4   2   9 1009.16  122.06
   4  -2  -9  831.98  106.39
  -4  -2   9  787.59   98.42
  -4   2   9  769.61   83.53
   4   2  -9  862.97   71.91
   4  -2  -9  821.64  119.23
   4  -2 -10 2032.81  228.10
  -4  -2  10 2152.74  153.81
  -4   2  10 1753.69  155.00
   4   2 -10 1752.27  170.60
  -4   2  10 2013.91  198.42
   4  -2 -10 2019.01  161.41
   4   2 -10 1737.48  109.85
  -4  -2  10 1856.31  157.78
   4  -2 -11 1941.29  197.79
  -4   2  11 1193.41   92.70
   4   2 -11 1607.18  145.95
   4   2 -11 1398.14   82.57
   4   2 -11 1688.28  105.76
  -4   2  11 1983.81  192.21
  -4  -2  11 1784.93  149.28
   4  -2 -11 1968.67  166.85
   4   2 -11 1494.31   68.26
  -4  -2  11 1915.68  154.48
   4   2 -12 3517.88  260.78
  -4   2  12 4177.20  326.05
  -4  -2  12 4016.21  291.81
   4   2 -12 3451.35  282.96
  -4   2  12 3753.67  270.45
  -4  -2  12 4087.26  256.05
   4  -2 -12 4103.95  213.09
   4   2 -12 3177.12  188.33
   4  -2 -12 4091.50  411.10
   4  -2 -12 4372.53  327.83
   4   2 -13  790.93   80.56
   4   2 -13  817.81   96.78
  -4  -2  13  834.57  102.85
  -4   2  13  921.17  134.48
  -4   2  13  781.74  109.60
  -4  -2  13  944.09  108.49
   4  -2 -13  767.96   86.27
   4  -2 -13  911.11  117.02
   4  -2 -13  865.86  105.96
   4   2 -13  628.62   54.57
   4   2 -14 4448.92  268.91
   4  -2 -14 4810.40  372.35
  -4   2  14 5080.27  405.97
   4   2 -14 4064.17  287.55
   4   2 -14 3585.11  227.60
  -4   2  14 4609.20  353.84
   4  -2 -14 4691.54  257.06
   4  -2 -14 5038.28  321.46
  -4  -2  14 4504.39  299.94
  -4  -2  14 5209.69  343.91
   4  -2 -15  323.35   73.97
  -4  -2  15  448.27   84.69
  -4   2  15  338.65   65.51
   4   2 -15  312.54   69.79
   4   2 -15  240.23   41.45
  -4   2  15  317.02   87.25
   4  -2 -15  179.43   60.89
   4   2 -15  341.01   58.68
   4  -2 -15  350.19   57.82
   4   2 -16 4813.22  253.91
  -4  -2  16 5784.78  300.48
   4   2 -16 5890.92  332.53
   4  -2 -16 6087.17  413.43
  -4   2  16 7161.55  475.97
   4   2 -16 5386.30  354.02
  -4   2  16 6149.11  449.99
  -4  -2  16 6876.64  426.29
   4  -2 -16 6418.09  494.53
  -4  -2  17  355.15   48.26
   4   2 -17  417.91   74.97
   4   2 -17  262.23   61.40
   4   2 -17  234.56   42.01
  -4   2  17  354.54   70.21
  -4   2  17  273.72   87.72
   4  -2 -17  426.82   65.68
   4  -2 -17  456.13   93.63
  -4  -2  17  427.31  105.44
   4  -2 -17  305.60   81.37
   4   2 -18 2892.60  182.51
  -4  -2  18 3477.74  205.89
   4  -2 -18 4297.21  382.79
  -4   2  18 3988.09  332.08
   4   2 -18 3649.57  304.30
  -4   2  18 3841.25  289.77
   4  -2 -18 3620.87  203.05
   4  -2 -18 4089.85  302.78
   4   2 -18 3406.90  284.41
   4   2 -19  157.49   46.40
  -4  -2  19  262.25   98.25
   4  -2 -19  187.79   78.17
  -4   2  19  105.53   70.43
   4  -2 -19  183.00   49.43
   4   2 -19  105.79   73.03
   4  -2 -19  224.46   80.98
   4   2 -19  253.37   73.06
  -4   2  19  261.76   70.30
  -4  -2  20 2059.12  220.48
   4   2 -20 1776.70  179.29
   4  -2 -20 1726.82  136.53
   4  -2 -20 1779.27  196.97
   4  -2 -20 1994.28  189.22
   4   2 -20 1357.07  119.50
   4   2 -20 2019.35  171.63
  -4   2  20 1593.58  191.54
  -4   2  20 2193.62  206.80
   4   2 -21  111.54   60.61
   4  -2 -21    1.68   61.09
   4  -2 -21   50.18   76.53
  -4   2  21  -12.86   62.96
   4   2 -21   60.34   50.38
  -4  -2  21   55.63   80.49
   4  -2 -22  -74.57   58.42
  -4   2  22   39.16   53.16
  -4  -2  22    9.03   78.11
   4  -2 -22   40.44   58.55
  -4   2  22   59.62   65.16
   4   2 -22   32.48   66.93
   4   2 -22   26.43   47.28
   4  -2 -23  228.84   73.20
   4   2 -23  158.25   63.85
  -4   2  23  219.29   77.92
  -4  -2  23  171.58   95.83
   4  -2 -23  248.47   76.39
  -4   2  23  141.01   64.54
   4   2 -23  207.57   71.64
  -4  -2  24  718.93  148.76
   4   2 -24  538.53  102.00
   4   2 -24  574.74   85.60
  -4   2  24  567.88  105.33
   4  -2 -24  568.21  108.17
   4  -2 -24  695.38  110.96
   4  -2 -25  192.32   93.18
   4   2 -25  141.28   75.01
  -4   2  25  168.12   90.26
  -4  -2  25  129.68   96.37
   4  -2 -25  160.41   72.02
   4   2 -25  148.21   74.46
  -4  -2  26  498.79  112.56
   4   2 -26  601.49  115.79
   4   2 -26  418.17   85.49
   4  -2 -26  349.09  100.72
   4  -2 -26  619.05  112.36
  -4   2  26  282.63  123.93
   4  -2 -27  -77.92   66.40
   4   2 -27   52.11   65.10
  -4   2  27  -83.14   65.74
  -4  -2  27  -57.76   65.99
   4  -2 -27  -53.54   66.80
   4   2 -28  813.11  144.28
  -4   2  28  647.73  125.80
  -4  -2  28  559.76  121.71
   4  -2 -28  753.88  146.50
   4  -2 -28  539.61  125.72
   4   3  -1  344.35   58.04
   4   3  -1  527.24   79.02
   4   3  -1  584.14   73.14
   4  -3  -1  448.28   55.35
  -4   3   1  383.23   82.66
   4  -3  -1  571.12   64.85
  -4  -3   1  567.78   94.79
  -4   3   1  335.90   46.82
   4  -3  -1  486.79   79.19
   4   3  -2 2589.11  178.86
   4   3  -2 2228.35  167.86
  -4   3   2 2662.95  215.23
  -4  -3   2 2563.10  244.90
   4  -3  -2 2303.74  173.70
   4  -3  -2 2697.97  177.15
   4  -3  -2 2643.96  198.27
   4   3  -2 2329.97  176.53
  -4   3   2 2178.53  147.52
   4  -3  -3  142.05   40.03
  -4  -3   3  112.79   62.41
   4  -3  -3  164.49   36.21
   4   3  -3  199.36   53.23
  -4   3   3  126.08   34.33
   4   3  -3  164.21   50.92
   4   3  -3  152.56   56.26
  -4   3   3   76.56   64.26
   4  -3  -3  148.62   50.65
   4  -3  -4 1545.23  122.55
   4   3  -4 1396.87  124.22
   4   3  -4 1536.50  140.23
  -4  -3   4 1380.68  151.48
   4  -3  -4 1421.65  116.80
   4  -3  -4 1741.59  163.50
  -4   3   4 1635.64  144.87
   4   3  -4 1714.61  132.29
   4   3  -5  237.29   59.53
   4   3  -5  271.85   66.05
   4   3  -5  258.70   58.36
  -4   3   5  174.81   72.57
  -4   3   5  208.75   48.95
  -4  -3   5  289.38   68.77
   4  -3  -5  291.25   65.60
   4  -3  -5  272.95   44.20
   4  -3  -5  265.62   42.08
   4   3  -6  628.31   73.73
  -4   3   6  498.46   76.62
  -4  -3   6  607.39   97.90
   4  -3  -6  742.08   99.48
  -4   3   6  637.23  104.74
   4  -3  -6  748.26   74.94
   4  -3  -6  643.73   79.40
   4   3  -6  601.76   63.93
   4   3  -7  459.81   87.72
   4   3  -7  471.84   67.69
   4  -3  -7  493.95   56.41
  -4  -3   7  724.06   96.50
  -4  -3   7  407.54   78.46
  -4   3   7  580.66   95.58
   4  -3  -7  518.83   80.73
   4  -3  -7  514.45   95.13
   4  -3  -8 8670.27  469.77
   4   3  -8 7880.19  419.55
   4   3  -8 8502.64  426.27
  -4   3   8 9058.02  563.09
  -4  -3   8 7844.35  459.39
  -4  -3   8 9654.68  534.40
   4  -3  -8 7505.22  374.46
   4  -3  -8 9258.65  569.24
  -4   3   9  683.21   91.38
  -4   3   9  712.08  112.76
   4  -3  -9  858.60  121.86
  -4  -3   9  867.82  122.74
  -4  -3   9  677.09  110.78
   4   3  -9  645.46   98.56
   4  -3  -9  775.67   86.55
   4   3  -9  760.30   87.14
   4  -3  -9  677.31   59.74
   4   3 -10 7798.20  407.85
  -4   3  10 7795.88  457.04
  -4   3  10 8412.17  514.39
  -4  -3  10 9026.20  495.05
  -4  -3  10 7412.75  483.86
   4  -3 -10 7249.78  327.32
   4   3 -10 8012.47  494.33
   4  -3 -10 8999.96  586.58
   4  -3 -10 7503.22  435.18
   4   3 -11  188.67   64.71
  -4  -3  11  292.22   66.23
   4   3 -11  270.14   49.35
  -4   3  11  272.76   71.76
  -4   3  11  305.99   85.86
  -4  -3  11  269.13   71.78
   4  -3 -11  351.03   66.77
   4  -3 -11  379.59   94.05
   4  -3 -12 2663.27  249.01
   4  -3 -12 2488.82  173.07
  -4  -3  12 2235.66  185.27
  -4   3  12 2563.59  233.27
  -4  -3  12 3122.42  245.36
   4   3 -12 2276.89  140.15
   4   3 -12 2396.54  190.66
   4  -3 -13 1136.26  111.61
   4   3 -13  974.88   95.78
   4   3 -13 1042.43   79.95
  -4  -3  13 1008.51  105.93
   4  -3 -13 1095.59  142.12
  -4  -3  13 1053.86  148.47
  -4   3  13 1094.35  136.60
  -4  -3  14 1826.22  191.24
  -4  -3  14 1236.16  137.57
  -4   3  14 1534.68  172.37
   4  -3 -14 1399.59  131.11
   4   3 -14 1457.70  133.01
   4   3 -14 1242.42  100.85
   4  -3 -14 1556.05  193.24
  -4   3  14 1425.55  171.34
  -4   3  15  -66.57   64.35
  -4   3  15   68.45   69.31
   4   3 -15   89.38   61.48
   4  -3 -15   64.17   65.21
   4  -3 -15    2.68   75.04
  -4  -3  15   12.01   37.57
  -4  -3  15   66.29   70.90
   4   3 -16  168.42   63.50
  -4  -3  16  107.27   43.79
  -4   3  16   79.78   63.96
  -4   3  16   67.16   78.59
  -4  -3  16  304.64   89.69
   4  -3 -16  126.84   86.57
   4  -3 -16  248.17   74.00
   4  -3 -17  -69.97   66.14
   4   3 -17  -26.84   58.62
   4  -3 -17  171.71   77.42
  -4   3  17  -14.73   68.35
   4   3 -18  842.32  105.97
  -4   3  18  607.06  126.96
  -4   3  18  763.65  129.24
  -4  -3  18  898.35  153.23
   4  -3 -18  686.50  101.63
   4  -3 -18  922.30  123.22
   4  -3 -19  171.68   72.96
   4   3 -19  302.29   75.81
   4  -3 -19  103.33   81.28
  -4   3  19  206.97   89.18
  -4  -3  19  188.34   75.77
  -4   3  20  615.76  117.93
   4  -3 -20  764.84  119.88
  -4  -3  20  908.41  146.98
   4  -3 -20  725.54  123.85
   4   3 -20  618.77   99.97
  -4   3  21  -29.81   56.55
  -4   3  21   26.20   56.62
   4  -3 -21   45.37   57.79
  -4  -3  21   96.68   56.27
   4  -3 -21  -29.40   56.72
   4   3 -21  -79.34   55.74
   4   3 -22 1515.23  176.13
  -4   3  22 1128.36  168.41
   4  -3 -22 1577.99  158.24
  -4   3  22 1308.68  180.24
   4  -3 -22 1463.34  173.61
  -4  -3  22 1892.37  241.76
   4  -3 -23    7.86   73.54
  -4   3  23  129.99   84.57
  -4  -3  23   64.43   97.29
   4  -3 -23   75.70   80.80
   4   3 -23  -95.14   65.26
   4   3 -24 1860.71  188.72
  -4   3  24 1419.30  168.52
  -4  -3  24 1750.15  216.78
   4  -3 -24 1476.04  181.86
   4  -3 -24 1597.92  173.20
   4  -3 -25   -8.48   71.57
  -4   3  25   62.98   70.63
  -4   3  25 -103.12   70.60
  -4  -3  25  -74.00   70.43
   4   4  -1  192.59   81.42
   4   4  -1   61.50   43.77
  -4  -4   1  -14.24   87.75
   4  -4  -1   49.81   65.84
  -4   4   1   67.60   62.83
   4   4  -2 1634.97  159.85
  -4   4   2 1313.00  146.55
  -4  -4   2 1568.72  142.94
   4   4  -2 1266.48  113.60
   4  -4  -2 1660.81  177.11
  -4   4   3 -138.06   66.33
   4   4  -3   93.92   67.08
   4   4  -3  454.35  158.70
  -4  -4   3  120.51  102.07
   4  -4  -3   -6.74   70.24
  -4  -4   4 4331.63  343.00
   4  -4  -4 4755.38  374.12
  -4   4   4 4706.98  349.96
   4   4  -4 4685.91  265.16
   4   4  -4 5753.88  333.56
   4  -4  -5  667.09  106.58
   4   4  -5  774.72  132.85
  -4   4   5  501.12  110.42
  -4  -4   5  569.25  111.86
  -4   4   6 4588.07  311.78
  -4  -4   6 4425.47  348.59
   4   4  -6 4963.42  298.88
   4  -4  -6 4250.78  253.61
   4  -4  -6 5486.10  412.08
   4   4  -6 5284.91  367.57
   4   4  -7 1203.78  128.23
  -4  -4   7 1132.41  143.38
  -4   4   7 1301.66  157.54
   4   4  -7 1241.96  144.79
   4  -4  -7 1059.82  114.44
   4  -4  -7 1130.81  161.42
  -4  -4   8 1034.66  143.85
   4   4  -8 1358.31  155.78
  -4   4   8 1231.77  176.57
   4   4  -8 1070.74  123.90
   4  -4  -8 1077.68  139.00
   4  -4  -8  994.02  126.51
   4  -4  -9   65.29   46.30
   4   4  -9   47.13   61.28
   4   4  -9  -36.19   65.54
  -4   4   9  -32.19   49.52
  -4   4   9   -8.35   75.82
   4  -4  -9   89.02   68.65
  -4  -4   9  -42.01   64.75
   4   4 -10   60.28   54.99
   4   4 -10  -43.21   58.66
  -4   4  10   79.31   95.23
   4  -4 -10  -52.24   40.57
  -4  -4  10   50.29   61.14
   4  -4 -10   17.42   65.67
  -4   4  11   -8.46   59.47
   4  -4 -11  -11.13   57.56
   4  -4 -11   20.14   59.54
  -4  -4  11   -1.05   57.70
   4   4 -11  -37.54   58.67
  -4   4  11   31.29   58.18
  -4   4  12  373.41   80.13
   4   4 -12  517.37   96.05
   4  -4 -12  500.55   82.71
   4  -4 -12  554.61  107.23
  -4  -4  12  539.31   85.64
  -4   4  12  541.31  109.75
  -4   4  13  -90.38   65.67
  -4   4  13   32.26   64.45
  -4  -4  13 -108.60   66.17
   4   4 -13  -54.32   64.55
  -4  -4  13   -8.08   63.32
   4  -4 -13   43.34   63.45
   4  -4 -13   12.96   66.58
   4  -4 -14 1416.97  138.61
   4   4 -14 1741.11  168.31
  -4   4  14 1454.64  163.03
  -4   4  14 1429.34  187.87
  -4  -4  14 1816.88  200.85
   4  -4 -14 1616.02  229.93
   4  -4 -15   76.88   66.11
  -4  -4  15  332.76  102.57
   4  -4 -15   89.54   87.44
   4   4 -15  218.63   92.45
  -4   4  15  164.14   92.70
   4  -4 -16  494.46   97.67
   4  -4 -16  585.15  137.91
   4   4 -16  678.35  112.18
  -4   4  16  558.81  111.80
  -4   4  16  630.18  117.15
   4   4 -17   90.42   76.38
  -4   4  17  141.95   87.84
  -4   4  17  133.62   63.83
   4  -4 -17  210.85   95.27
   4  -4 -17  156.86   64.81
  -4  -4  17  177.64   87.42
  -4   4  18  646.86  114.48
   4  -4 -18  670.51  123.03
   4   4 -18  950.77  120.14
  -4   4  18 1021.22  144.95
   4  -4 -18  803.85  122.32
  -4  -4  18  960.40  156.40
   4   4 -19   78.93   67.87
   4  -4 -19  -60.28   67.76
  -4  -4  19   31.54   86.66
  -4   4  19   -3.79   76.65
   4  -4 -19   17.40   83.55
  -4  -4  20  505.69  132.00
   4  -4 -20  470.74  129.13
   4  -4 -20  372.14   78.93
   4   4 -20  516.25   86.01
  -4   4  20  275.56   97.59
   4   5  -1  252.61   97.26
  -4  -5   1  111.32   90.49
  -4   5   1  148.80   81.37
  -4  -5   2 1152.92  146.87
   4   5  -2 1484.27  167.30
  -4   5   2  965.66  143.98
   4  -5  -2 1484.40  172.63
   4   5  -3  284.71   89.36
  -4   5   3  322.19   95.03
   4  -5  -3  501.80  118.98
  -4  -5   3  448.81  105.89
   4   5  -4   67.22   73.70
  -4  -5   4   21.03   79.97
  -4   5   4  -46.79   74.98
   4  -5  -4  173.39   80.53
  -4   5   5  -66.36   73.79
   4  -5  -5   67.25   73.13
  -4  -5   5  -79.41   72.91
   4   5  -5  -82.44   74.50
   4   5  -6  300.86   96.49
  -4   5   6  139.00   94.22
   4  -5  -6  108.36   70.97
  -4  -5   6  241.74   98.98
   4   5  -7   -5.07   76.24
  -4  -5   7   11.13   74.47
  -4   5   7   -2.21   74.48
   4  -5  -7   16.02   65.40
   4   5  -8  594.58  103.96
  -4  -5   8  523.30  114.76
  -4   5   8  408.70  117.95
   4  -5  -8  430.30  109.69
  -4  -5   9  308.09   86.68
   4   5  -9  423.44   95.14
  -4   5   9  268.57  116.29
   4  -5  -9  399.04  100.98
   4   5 -10 1249.83  152.44
   4  -5 -10 1259.56  164.39
  -4  -5  10  757.90  115.67
   4  -5 -11  302.34   92.41
   3   0  -113274.19  608.39
   3   0  -113110.72  692.82
   3   0  -113241.67  557.43
  -3   0   115142.97  629.10
  -3   0   111606.61  521.76
  -3   0   113260.44  590.83
  -3   0   114852.15  544.75
   3   0  -112354.09  484.73
   3   0  -2   22.57   23.36
  -3   0   2  -15.48   21.01
   3   0  -2   17.00   27.68
   3   0  -2   16.41   18.80
   3   0  -2    3.91   16.59
   3   0  -2  -17.58   19.40
  -3   0   2   32.13   20.75
  -3   0   2   34.35   20.49
  -3   0   2   40.00   37.31
  -3   0   2   -9.00   18.21
  -3   0   352874.10 2088.04
   3   0  -351129.96 1825.68
   3   0  -357140.54 1957.40
   3   0  -352585.31 2003.31
   3   0  -351525.48 1875.89
   3   0  -352958.30 2031.58
  -3   0   354605.80 1902.91
  -3   0   353961.73 1930.75
  -3   0   358573.97 2025.22
  -3   0   4   20.68   24.10
   3   0  -4  -22.89   24.12
   3   0  -4  -19.40   24.40
   3   0  -4    3.72   24.19
  -3   0   4    2.67   23.96
  -3   0   4   -7.58   24.21
   3   0  -5 8046.79  407.68
   3   0  -5 8631.87  540.12
   3   0  -5 8458.08  351.62
   3   0  -5 9079.11  461.99
   3   0  -5 8304.88  396.16
  -3   0   5 8533.99  399.82
  -3   0   5 8859.42  357.99
  -3   0   5 8761.21  397.25
  -3   0   5 9481.28  500.16
   3   0  -6   22.18   28.12
   3   0  -6    0.28   24.97
   3   0  -6   12.00   20.48
   3   0  -6  -15.89   20.53
  -3   0   6  -27.70   26.33
  -3   0   6   72.15   31.10
  -3   0   6    2.20   23.66
  -3   0   7 1323.76  146.04
  -3   0   7 1268.22  112.66
   3   0  -7 1394.78  123.61
   3   0  -7 1067.65   83.41
   3   0  -7 1325.83   81.48
   3   0  -7 1433.25  106.18
  -3   0   7 1400.54  106.66
  -3   0   7 1526.55   98.26
  -3   0   7 1146.82  111.91
   3   0  -8   31.07   23.76
  -3   0   8   14.42   24.39
   3   0  -8    2.95   24.08
   3   0  -8  -30.85   24.49
   3   0  -8   -9.69   24.59
  -3   0   8  -54.92   24.18
  -3   0   8    6.84   24.36
  -3   0   8  -24.44   23.26
   3   0  -8    2.94   24.04
  -3   0   917022.94  784.11
   3   0  -914101.74  661.33
   3   0  -918283.99  741.98
   3   0  -914887.01  768.05
   3   0  -916797.50  753.30
   3   0  -917794.89  856.41
  -3   0   915203.17  767.58
  -3   0   914411.09  702.49
  -3   0   915539.07  641.46
  -3   0  10  -10.43   40.57
  -3   0  10    6.68   20.87
   3   0 -10   20.06   17.48
   3   0 -10    5.62   30.49
   3   0 -10    1.17   30.96
   3   0 -10   -2.35   31.82
  -3   0  10  -11.91   28.35
   3   0 -1120157.56  889.76
  -3   0  1121350.74  920.35
   3   0 -1121136.02  991.12
   3   0 -1116730.78  797.42
   3   0 -1119838.42 1042.63
  -3   0  1118826.88  818.15
  -3   0  1118136.39  837.59
   3   0 -12    9.12   26.35
   3   0 -12  -46.14   26.31
   3   0 -12  -19.05   25.95
   3   0 -12    0.95   26.38
  -3   0  12  -29.43   25.92
  -3   0  12  -35.09   26.56
   3   0 -1321122.09 1135.53
   3   0 -1318656.71  962.14
   3   0 -1314650.49  776.04
   3   0 -1317509.39  970.01
  -3   0  1320279.84  976.12
  -3   0  14   -4.08   36.03
  -3   0  14   -8.68   34.87
   3   0 -14  -19.47   34.91
   3   0 -14  -18.28   35.40
   3   0 -14   24.99   35.41
   3   0 -14  -16.29   35.67
   3   0 -15 5755.76  323.73
   3   0 -15 6846.44  461.13
   3   0 -15 6471.55  410.27
   3   0 -15 5686.05  335.95
  -3   0  15 7140.93  447.54
  -3   0  15 6962.42  331.27
  -3   0  16   51.62   40.03
   3   0 -16   16.30   47.21
   3   0 -16  -24.70   35.38
   3   0 -16    7.05   50.81
  -3   0  16   27.92   54.19
   3   0 -17  -24.57   37.61
   3   0 -17   39.59   40.40
   3   0 -17   -2.91   45.40
  -3   0  17   14.65   55.44
  -3   0  17   38.81   38.13
   3   0 -18   11.49   43.91
   3   0 -18   11.64   41.93
   3   0 -18   81.02   49.44
  -3   0  18   -3.88   60.42
  -3   0  18  -27.80   37.85
   3   0 -19  308.25   66.02
  -3   0  19  288.62   81.03
   3   0 -19  360.28   66.64
   3   0 -19  308.41   75.70
   3   0 -20   19.95   53.83
   3   0 -20    7.28   54.04
   3   0 -20   26.39   53.35
  -3   0  20   23.16   53.37
  -3   0  20  -35.32   56.61
   3   0 -21 3239.45  239.17
  -3   0  21 3483.36  302.72
   3   0 -21 2957.22  211.88
   3   0 -21 3109.20  284.80
  -3   0  21 3398.34  192.32
   3   0 -22  -90.02   52.23
  -3   0  22  -52.23   51.87
  -3   0  22   84.97   55.07
   3   0 -22   24.97   51.51
   3   0 -22  -75.95   52.18
   3   0 -23 2145.29  170.26
   3   0 -23 2363.09  193.72
   3   0 -23 2113.22  181.83
  -3   0  23 2915.09  258.20
  -3   0  24  -34.68   50.26
   3   0 -24 -101.24   49.66
   3   0 -24  -99.82   50.27
   3   0 -24  -64.43   50.57
   3   0 -25 3010.90  262.57
   3   0 -25 2975.24  209.30
   3   0 -25 2871.43  267.86
  -3   0  25 3706.84  337.34
   3   0 -26  -15.61   53.71
   3   0 -26    7.60   52.58
  -3   0  26   21.35   53.38
   3   0 -26  -87.15   53.17
  -3   0  27 1809.79  225.95
   3   0 -27 1444.33  134.43
   3   0 -27 1704.39  185.38
   3   0 -27 1633.54  155.92
   3   0 -28  -62.09   48.39
   3   0 -28  -77.39   49.51
   3   0 -28  -67.05   48.85
  -3   0  28  -79.21   49.20
   3   0 -29  245.93   71.76
   3   0 -29  284.70   86.39
   3   0 -29  394.09   84.37
  -3   0  29  151.75   94.85
   3   0 -30  -10.22   51.29
   3   0 -30  -48.81   51.67
   3   0 -30   -7.48   52.49
  -3   0  30   42.45   52.11
   3   0 -31  -21.22   59.18
   3   0 -31   35.85   69.60
  -3  -1   1   98.44   34.38
   3  -1  -1  103.31   26.48
   3   1  -1   73.77   32.60
   3   1  -1   88.66   20.94
   3   1  -1   33.38   20.53
   3   1  -1   88.17   30.73
  -3   1   1  112.42   24.85
  -3   1   1   84.68   25.87
  -3   1   1   99.67   20.19
  -3  -1   1   49.64   25.21
  -3  -1   1   64.56   34.44
  -3  -1   1   64.51   16.35
  -3  -1   1   62.86   19.06
   3  -1  -1   85.17   11.36
   3  -1  -1   43.39   21.09
   3  -1  -1  119.80   32.89
   3  -1  -1   73.55   21.72
  -3   1   1  127.41   33.68
   3  -1  -2  213.10   36.36
   3   1  -2  178.04   30.71
   3   1  -2  157.65   42.21
   3   1  -2  276.25   38.03
  -3   1   2  223.61   36.67
  -3   1   2  294.34   41.39
  -3   1   2  263.37   38.98
  -3   1   2  225.38   31.71
  -3  -1   2  215.71   41.80
  -3  -1   2  270.85   53.63
  -3  -1   2  271.67   19.21
  -3  -1   2  242.27   31.15
   3  -1  -2  264.02   33.00
   3  -1  -2  283.63   23.06
   3  -1  -2  333.49   48.31
   3  -1  -2  265.91   36.12
  -3  -1   2  273.88   18.94
  -3  -1   2  217.64   43.09
   3   1  -2  281.39   46.34
   3   1  -320952.59  973.61
   3   1  -316835.97  886.07
   3   1  -318123.85  722.08
  -3   1   322036.36  839.40
  -3   1   318096.31  710.21
  -3   1   321606.70  829.98
  -3   1   320651.78  962.02
  -3   1   322347.63  823.07
  -3  -1   319103.76  634.34
  -3  -1   319615.95  837.93
   3  -1  -321630.82  768.53
   3  -1  -320691.05  774.09
   3  -1  -320010.95  864.44
   3  -1  -319874.28  820.95
   3  -1  -320333.28  710.55
  -3  -1   320215.86  964.65
   3   1  -317667.85  792.02
  -3   1   4  990.14   91.27
  -3   1   4 1029.39   90.66
  -3   1   4  974.37   90.60
   3   1  -4 1026.33   93.95
   3   1  -4  864.60   72.66
  -3   1   4  909.96  107.77
  -3  -1   4  796.83   86.60
  -3  -1   4  778.93   66.96
  -3  -1   4  958.07   99.05
  -3  -1   4 1054.80   52.05
  -3  -1   4  900.61   73.88
   3  -1  -4 1090.96   69.71
   3  -1  -4  926.12   62.59
   3  -1  -4  939.61   90.88
   3  -1  -4 1014.23   87.17
   3  -1  -4  840.69   84.34
   3   1  -4  726.34  112.49
   3   1  -4  842.49   69.03
   3   1  -4  838.83   36.73
  -3   1   524051.35  994.59
   3  -1  -522986.70  941.96
   3   1  -521329.39 1030.49
   3   1  -518835.40  938.08
  -3   1   520008.62  829.39
  -3  -1   521337.47  907.03
   3  -1  -524306.73  845.54
   3  -1  -522298.21  894.36
   3  -1  -523335.83  871.44
   3   1  -518074.24  849.66
  -3   1   522478.13  971.83
  -3   1   522869.56 1009.74
  -3   1   523643.59  946.91
  -3  -1   520098.00 1661.77
  -3  -1   522294.02 1056.62
  -3  -1   522664.34  798.47
   3  -1  -521694.87  847.26
   3   1  -6 4406.41  198.35
   3   1  -6 4613.26  256.30
  -3   1   6 5352.02  280.92
   3   1  -6 4308.92  230.37
  -3   1   6 4830.06  250.78
   3  -1  -6 4862.07  212.07
   3  -1  -6 4619.91  261.34
   3   1  -6 4728.95  317.50
  -3   1   6 5446.88  306.89
  -3  -1   6 4686.25  273.65
  -3  -1   6 4598.38  224.53
   3  -1  -6 5855.71  275.89
   3  -1  -6 5094.69  292.64
  -3  -1   6 4855.85  277.37
  -3  -1   6 5126.05  305.49
  -3   1   6 5332.02  306.27
  -3   1   734488.45 1399.07
  -3  -1   735887.65 1298.45
  -3  -1   733014.42 1349.49
   3   1  -737009.16 1546.34
   3   1  -733042.48 1261.47
   3   1  -734835.77 1323.84
  -3   1   735195.85 1319.98
  -3   1   739335.59 1518.17
  -3  -1   737825.51 1619.10
   3  -1  -737264.68 1475.13
   3  -1  -736921.81 1365.02
   3   1  -729683.75 1325.35
   3   1  -8   40.46   35.95
   3   1  -8   45.03   18.80
   3   1  -8   43.27   32.27
  -3   1   8   20.22   20.58
  -3   1   8   49.87   31.23
  -3   1   8   11.18   32.32
  -3  -1   8   60.93   37.78
  -3  -1   8   -6.22   21.50
  -3  -1   8   25.68   19.26
   3  -1  -8   24.25   26.23
   3  -1  -8   29.35   38.02
   3  -1  -8   30.83   34.01
  -3  -1   8   -3.91   38.66
   3  -1  -8   16.40   23.45
   3   1  -917533.93  876.05
   3   1  -915839.67  681.01
   3   1  -916269.88  712.00
  -3   1   919507.87  858.78
  -3  -1   918709.33  787.42
  -3  -1   919128.05  968.13
   3  -1  -920261.48 1041.57
   3  -1  -915574.42  680.97
   3  -1  -918681.38  888.18
   3  -1  -919611.98  761.33
  -3  -1   916647.15  768.44
  -3   1   915563.78  765.92
   3   1 -10   90.16   37.06
   3   1 -10   84.08   26.75
   3   1 -10  108.32   24.57
  -3   1  10   68.60   24.80
  -3   1  10  125.58   41.48
  -3  -1  10  125.80   46.74
  -3  -1  10   75.37   27.36
   3  -1 -10  161.43   40.75
   3  -1 -10  141.85   42.67
   3  -1 -10  124.51   34.40
   3   1 -10   92.79   31.83
  -3  -1  10  113.61   41.79
   3   1 -11 1012.88   87.39
   3   1 -11  880.03   64.35
   3   1 -11  959.52   71.96
  -3   1  11  851.34   78.67
  -3   1  11 1114.07  100.72
  -3   1  11 1027.18  105.90
  -3  -1  11 1133.02  110.51
  -3  -1  11  634.16   94.82
   3  -1 -11 1370.09  112.98
   3  -1 -11 1251.78  122.85
   3  -1 -11  930.65  123.16
   3   1 -11  977.48   85.99
  -3  -1  12  173.64   43.17
   3   1 -12  102.95   30.66
  -3  -1  12   74.91   27.31
   3   1 -12  161.69   42.70
   3   1 -12  125.99   40.37
   3   1 -12  109.18   26.62
  -3   1  12  123.94   31.10
  -3   1  12  113.80   39.12
  -3  -1  12  195.09   50.50
   3  -1 -12  166.56   44.32
   3  -1 -12  133.17   51.61
   3  -1 -12  136.10   45.95
  -3   1  13 2258.79  177.20
   3  -1 -13 2042.66  173.18
   3   1 -13 1614.12  116.53
   3   1 -13 2010.74  166.31
   3   1 -13 1754.40  107.00
   3   1 -13 2228.05  178.35
  -3   1  13 1757.92  178.09
  -3  -1  13 2306.35  163.12
   3  -1 -13 2358.80  191.73
   3  -1 -13 2543.33  203.08
   3  -1 -14 1260.03  112.46
   3   1 -14  924.72  108.83
   3   1 -14 1077.50  107.44
   3   1 -14 1088.60   87.47
  -3   1  14 1054.65  109.40
  -3   1  14 1000.68  108.32
  -3  -1  14 1012.10  105.71
   3  -1 -14 1213.14  148.86
   3  -1 -14 1062.00  126.48
   3  -1 -15 3335.26  226.15
   3   1 -15 3182.81  237.32
   3   1 -15 2599.27  139.75
   3   1 -15 2533.63  155.28
  -3   1  15 3107.07  220.87
  -3  -1  15 2773.44  221.86
   3  -1 -15 3264.74  266.27
   3  -1 -15 3344.32  239.21
   3   1 -15 3050.18  237.57
   3   1 -16   18.55   19.91
  -3   1  16  -45.99   32.96
   3   1 -16   31.55   36.39
   3   1 -16   -2.01   38.77
   3   1 -16   -8.93   39.43
  -3   1  16  -41.49   45.84
  -3  -1  16   33.66   54.57
   3  -1 -16   21.36   29.07
   3  -1 -16  -11.21   54.01
   3  -1 -16   48.84   49.71
   3  -1 -17 8469.48  451.39
   3   1 -17 8785.82  489.87
   3   1 -17 7404.19  381.24
   3   1 -17 8402.55  443.22
  -3   1  17 9637.20  596.89
  -3   1  17 8523.64  493.46
  -3  -1  17 8182.95  397.35
   3  -1 -17 8168.78  504.46
   3  -1 -17 9101.01  537.39
   3   1 -18   30.90   46.64
  -3  -1  18   -4.68   47.73
   3  -1 -18   20.08   46.78
   3   1 -18  -28.19   46.35
   3   1 -18  -75.09   45.85
  -3   1  18   -5.49   45.83
   3  -1 -18  -40.58   46.26
   3  -1 -18  -10.85   46.51
   3  -1 -19 4741.69  354.20
  -3   1  19 4659.64  318.63
   3   1 -19 4483.42  290.43
   3   1 -19 4262.10  250.44
   3   1 -19 4312.39  331.90
  -3   1  19 5324.66  398.36
  -3  -1  19 4651.72  385.89
  -3  -1  19 4195.80  222.93
   3  -1 -19 4506.91  253.60
   3  -1 -19 4960.15  330.24
   3   1 -20  -20.80   47.35
   3  -1 -20  -93.07   48.23
  -3  -1  20   -9.91   47.92
   3  -1 -20  -46.41   48.06
   3   1 -20   11.57   47.94
   3   1 -20  -28.18   48.31
  -3   1  20   45.76   47.54
  -3   1  20  -90.39   47.63
   3  -1 -20  105.72   48.40
   3  -1 -21 2503.37  171.92
   3   1 -21 2553.88  213.29
   3   1 -21 2643.97  186.01
   3   1 -21 2385.52  185.48
  -3   1  21 2621.12  267.24
  -3   1  21 2426.26  191.51
  -3  -1  21 2733.84  260.50
   3  -1 -21 2575.04  207.68
   3  -1 -21 3056.23  249.92
   3  -1 -22  211.03   65.17
   3   1 -22  112.13   56.38
   3   1 -22  161.32   65.71
   3   1 -22  179.84   61.79
  -3   1  22   26.40   43.99
  -3  -1  22   45.96   69.65
   3  -1 -22   73.88   50.79
   3  -1 -22  138.93   79.82
   3   1 -23  546.92   94.36
   3   1 -23  836.62  118.61
   3   1 -23  564.74   99.63
  -3   1  23  800.38  146.93
  -3   1  23  659.54   82.90
  -3  -1  23  578.29  130.92
   3  -1 -23  736.91   80.74
   3  -1 -23  677.28  106.66
   3  -1 -23  718.34  106.77
   3  -1 -24  -32.75   61.45
  -3   1  24   28.42   60.54
   3   1 -24    6.07   59.86
   3   1 -24   34.96   60.75
   3   1 -24  -57.92   61.25
  -3  -1  24   13.37   61.27
   3  -1 -24  -58.21   60.79
   3  -1 -24   -3.88   60.99
   3   1 -25   67.23   66.38
   3   1 -25    0.00   63.37
   3   1 -25   24.05   53.46
  -3   1  25   42.00   77.06
   3  -1 -25   12.16   43.92
   3  -1 -25    2.87   70.05
   3  -1 -25   54.83   58.53
   3  -1 -26 -145.93   69.78
   3   1 -26  -14.93   70.27
   3   1 -26   77.95   69.72
   3   1 -26  -19.24   68.66
  -3   1  26  -75.87   69.59
  -3  -1  26   21.80   70.53
   3  -1 -26  -19.91   69.50
   3  -1 -26  141.32   70.70
   3  -1 -27  605.97  105.68
   3   1 -27  673.03  114.40
   3   1 -27  401.27   75.23
   3   1 -27  553.94   95.58
  -3   1  27  626.76  128.82
   3  -1 -27  467.31   82.91
   3  -1 -27  472.52   93.38
   3  -1 -28  -21.67   65.30
   3   1 -28  -22.28   64.78
   3  -1 -28  -37.65   65.65
   3  -1 -28   29.74   66.82
   3   1 -28  -66.32   65.74
   3   1 -28   10.01   66.21
  -3   1  28  -76.13   65.69
  -3  -1  28    8.55   66.61
   3   1 -29 1011.29  128.21
   3   1 -29  704.95  103.37
   3   1 -29  667.71  122.02
  -3   1  29  830.02  148.27
  -3  -1  29  642.24  141.26
   3  -1 -29  687.24  123.15
   3  -1 -29  748.66  132.34
   3   1 -30  -34.19   72.46
   3   1 -30  -61.30   71.46
   3   1 -30   29.28   72.88
  -3   1  30   22.88   72.43
  -3  -1  30  -58.51   73.45
   3  -1 -30   25.10   72.24
   3  -1 -30   22.79   73.76
   3  -2  -139943.36 1474.29
   3   2  -136619.52 1440.27
  -3   2   140831.98 1544.08
   3   2  -133409.67 1561.38
   3   2  -139059.17 1444.08
  -3   2   134425.86 1398.50
  -3   2   137971.93 1539.87
  -3  -2   141066.67 1980.81
   3  -2  -141536.52 1555.19
   3  -2  -139454.20 1464.06
   3  -2  -2   38.51   17.79
   3  -2  -2   40.89   28.07
  -3   2   2   29.31   21.66
   3   2  -2  187.52   45.23
   3   2  -2   99.39   37.35
  -3   2   2   34.82   24.09
  -3   2   2   30.12   22.52
  -3   2   2   69.94   38.98
  -3  -2   2  218.16   60.53
  -3  -2   2   84.89   25.99
   3  -2  -2   23.80   27.06
   3  -2  -2   44.76   40.62
   3   2  -2  204.19   37.79
  -3  -2   3 6479.42  301.35
   3  -2  -3 8398.26  469.47
  -3  -2   3 7757.20  347.35
   3   2  -3 7303.83  333.85
   3   2  -3 7577.61  432.26
  -3   2   3 8056.86  366.41
  -3   2   3 8576.86  455.51
  -3   2   3 7610.86  378.28
  -3  -2   3 8201.81  519.46
   3  -2  -3 7316.12  311.35
   3  -2  -3 8516.91  437.71
   3  -2  -4  426.82   39.06
   3   2  -4  465.99   51.10
  -3   2   4  574.14   80.18
  -3   2   4  431.73   43.91
  -3   2   4  466.33   61.63
  -3  -2   4  569.49   64.54
  -3  -2   4  602.33   68.76
  -3  -2   4  401.98   39.36
   3  -2  -4  554.31   52.35
   3  -2  -4  539.83   68.11
   3  -2  -4  602.12   69.36
   3  -2  -5 3893.25  197.18
  -3  -2   5 2938.16  213.63
  -3   2   5 3707.51  277.25
   3   2  -5 3454.96  243.32
   3   2  -5 3376.31  176.30
  -3   2   5 3780.24  198.26
  -3  -2   5 3953.90  194.19
  -3  -2   5 3491.13  262.78
   3  -2  -5 3581.56  176.41
   3  -2  -5 3707.61  277.22
   3  -2  -5 3928.78  261.17
  -3   2   6  486.79   68.78
  -3  -2   6  356.29   56.70
   3  -2  -6  349.15   39.31
   3  -2  -6  387.95   60.66
   3  -2  -6  389.13   66.64
  -3   2   6  363.75   40.61
  -3  -2   6  441.45   60.77
  -3   2   6  301.85   48.27
  -3  -2   6  398.92   54.08
   3   2  -6  454.20   42.86
   3   2  -6  451.05   62.62
  -3   2   7  771.47   60.62
   3   2  -7  838.55   87.57
  -3  -2   7  674.42   96.74
   3  -2  -7  837.71   65.87
  -3  -2   7 1036.53   85.25
   3  -2  -7  858.66  107.09
   3   2  -7  776.00   66.87
  -3   2   7  843.88   94.87
  -3  -2   7  897.88   96.75
   3  -2  -7  906.50  104.22
  -3   2   7  810.12   85.70
  -3  -2   8   65.55   27.38
   3  -2  -8   37.24   36.12
   3   2  -8   17.19   38.81
  -3   2   8   18.56   40.06
   3   2  -8   33.52   13.40
   3   2  -8    8.77   12.40
   3   2  -8   65.01   30.41
  -3  -2   8   29.64   42.03
  -3  -2   8   41.67   44.49
   3  -2  -8   36.90   19.14
   3  -2  -8   58.14   43.94
   3   2  -9 6741.61  378.35
   3  -2  -9 8036.90  516.18
  -3  -2   9 7066.00  410.64
  -3   2   9 6534.08  311.10
   3   2  -9 6063.02  280.56
   3   2  -9 7054.68  256.96
   3   2  -9 7062.29  330.41
  -3   2   9 7708.25  416.51
  -3   2   9 7914.38  427.89
  -3  -2   9 7800.23  375.65
  -3  -2   9 6428.73  362.63
   3  -2  -9 7646.44  426.98
  -3  -2  10 2693.59  184.51
  -3   2  10 2347.97  130.63
   3   2 -10 2633.59  222.03
   3   2 -10 2311.65  130.83
   3   2 -10 2461.19  111.37
   3   2 -10 2589.36  169.80
  -3   2  10 3000.63  197.86
  -3   2  10 2900.75  215.33
  -3  -2  10 2934.22  173.83
   3  -2 -10 2846.71  156.81
   3  -2 -10 3069.31  252.18
   3  -2 -10 3018.61  196.38
  -3  -2  1111343.19  582.19
   3   2 -1111577.13  649.75
   3   2 -1112279.59  557.66
   3   2 -1110879.22  489.94
  -3   2  1113974.62  674.19
  -3   2  1113090.10  688.71
  -3  -2  1114252.07  640.89
   3  -2 -1113529.65  549.49
   3  -2 -1113251.87  800.40
   3  -2 -1113676.01  625.10
   3  -2 -12  298.77   82.78
  -3   2  12  384.09   69.55
   3   2 -12  363.01   47.76
   3   2 -12  343.82   43.54
   3   2 -12  243.53   62.40
  -3   2  12  231.03   36.91
  -3   2  12  300.58   67.47
  -3  -2  12  398.34   66.24
  -3  -2  12  304.97   49.75
   3  -2 -12  328.97   43.72
   3  -2 -12  371.96   70.04
   3   2 -13 8144.01  413.14
   3  -2 -13 9826.94  429.02
  -3  -2  13 8746.94  406.41
   3  -2 -13 9246.79  532.23
   3   2 -13 7725.68  472.86
   3   2 -13 7420.60  353.26
  -3   2  13 7884.08  573.39
  -3  -2  13 7646.47  473.20
   3  -2 -13 9866.47  642.26
  -3   2  14   10.22   51.25
   3   2 -14  -26.83   54.31
   3   2 -14   13.84   24.87
   3  -2 -14   -7.82   18.61
   3   2 -14   38.58   32.10
   3   2 -14   -6.56   36.31
  -3   2  14   93.93   54.40
  -3  -2  14   81.93   53.33
  -3  -2  14  -15.47   32.59
   3  -2 -14   40.85   61.20
   3  -2 -14   -1.54   50.02
  -3   2  15 4469.35  339.84
  -3  -2  15 3813.74  225.74
   3  -2 -15 4535.56  300.76
   3   2 -15 4145.45  322.96
   3   2 -15 4549.76  272.56
   3   2 -15 3656.10  214.47
  -3   2  15 4366.57  317.65
  -3  -2  15 4394.48  333.53
   3  -2 -15 4632.57  314.35
   3   2 -16    8.87   36.74
   3   2 -16   62.66   41.87
   3  -2 -16    4.95   66.85
  -3  -2  16   41.86   27.72
  -3   2  16   89.99   64.05
   3   2 -16   51.41   55.84
  -3   2  16   28.77   49.46
  -3  -2  16   18.62   56.73
   3  -2 -16   52.67   29.43
   3  -2 -16   37.41   57.06
   3  -2 -17 1041.11  135.91
  -3  -2  17  823.99   71.93
   3   2 -17  889.06   99.16
   3   2 -17  939.63   89.34
   3   2 -17  722.82   78.39
  -3   2  17  848.25  110.85
  -3   2  17  949.12  110.70
  -3  -2  17 1064.53  130.25
   3  -2 -17  924.80   84.57
   3  -2 -17  784.74   93.26
   3  -2 -18    5.82   34.17
  -3  -2  18   31.75   22.84
   3   2 -18  -25.23   46.66
   3   2 -18   45.32   42.64
  -3   2  18 -108.30   44.37
   3   2 -18  -25.17   50.85
  -3  -2  18   -0.78   53.67
   3  -2 -18   75.13   64.97
  -3   2  18   44.77   50.97
   3  -2 -18    6.16   55.12
   3   2 -19  215.99   74.93
   3  -2 -19  107.12   78.25
  -3  -2  19   50.60   66.68
   3  -2 -19  130.66   36.84
   3   2 -19  164.36   54.70
  -3   2  19   51.45   56.51
   3   2 -19  218.27   49.94
   3  -2 -19  148.92   62.01
  -3   2  19  133.05   52.06
   3  -2 -20   34.88   66.65
   3   2 -20   41.26   64.97
   3   2 -20   57.18   66.17
  -3   2  20  -52.50   65.60
  -3   2  20  -64.95   65.74
  -3  -2  20   24.85   65.57
   3   2 -20  -55.05   65.85
   3  -2 -20  -20.80   66.51
  -3  -2  21 1490.64  182.26
   3  -2 -21 1561.15  141.76
   3   2 -21 1453.25  146.00
   3   2 -21 1228.02  108.44
   3   2 -21 1016.84  102.73
  -3   2  21 1384.04  145.76
  -3   2  21 1289.67  158.08
   3  -2 -21 1296.86  146.29
  -3  -2  22  134.19   81.73
   3   2 -22   86.45   75.73
   3   2 -22   -1.97   47.11
   3  -2 -22  120.58   63.54
   3   2 -22   69.77   50.03
  -3   2  22  147.95   64.53
   3  -2 -22   99.78   86.73
  -3   2  23 1813.40  180.00
   3   2 -23 1946.65  202.59
   3  -2 -23 2028.97  199.61
   3   2 -23 1831.91  160.45
   3   2 -23 1839.06  142.75
  -3   2  23 1900.56  212.72
  -3  -2  23 2165.08  237.84
   3  -2 -23 2001.36  198.11
   3  -2 -24   94.10   73.38
  -3   2  24  139.67   64.53
   3   2 -24   77.05   72.40
   3  -2 -24   99.40   83.50
   3   2 -24  153.73   64.17
   3   2 -24   22.88   56.31
  -3   2  24   23.71   78.10
  -3  -2  24  125.18   84.74
  -3   2  25 1574.08  154.39
   3   2 -25 1687.22  178.37
   3   2 -25 1266.19  156.99
   3   2 -25 1462.46  147.05
  -3   2  25 1864.46  203.06
  -3  -2  25 1664.47  222.88
   3  -2 -25 1625.51  178.80
   3  -2 -25 1775.19  196.01
   3   2 -26   24.58   60.20
   3  -2 -26   32.05   60.65
   3   2 -26   16.32   77.82
  -3  -2  26  -16.14   80.39
   3  -2 -26   17.88   68.68
  -3  -2  27  736.09  155.32
   3   2 -27  753.45  129.31
  -3   2  27  662.31  133.65
   3  -2 -27  924.64  122.32
   3  -2 -27  789.79  116.21
   3  -2 -28   77.03   84.96
  -3   2  28 -108.06   76.15
   3   2 -28   84.45   86.82
  -3  -2  28   65.00   88.09
   3  -2 -28  -28.63   77.19
   3  -2 -29  301.46  105.18
   3   2 -29  335.80  110.39
   3   3  -1  134.86   49.42
   3   3  -1   44.50   14.88
   3   3  -1  122.10   39.90
  -3   3   1   50.73   23.41
  -3   3   1  116.97   36.00
  -3   3   1   67.45   45.70
  -3  -3   1   40.56   45.04
   3  -3  -1  104.25   31.66
   3  -3  -1  118.48   48.55
   3  -3  -1   88.03   28.31
  -3  -3   1   50.17   15.22
   3   3  -1   60.74   36.62
   3  -3  -1   64.48   23.41
  -3   3   2  233.63   35.65
   3  -3  -2  416.29   51.57
   3   3  -2  344.19   56.99
   3   3  -2  378.81   68.22
   3   3  -2  198.01   21.54
   3   3  -2  229.47   19.89
   3   3  -2  387.31   59.28
  -3   3   2  258.64   36.47
  -3   3   2  338.68   54.21
  -3  -3   2  260.33   63.49
   3  -3  -2  445.35   75.13
   3  -3  -2  365.29   44.40
   3  -3  -2  261.33   32.03
   3   3  -3 6526.16  317.71
   3   3  -3 6678.66  379.59
   3   3  -3 4995.25  178.11
  -3  -3   3 6270.49  335.59
   3   3  -3 6016.49  321.08
   3   3  -3 5036.73  179.86
  -3  -3   3 5148.72  225.82
   3  -3  -3 4582.17  218.98
  -3  -3   4  127.91   61.32
   3  -3  -4   96.37   28.44
  -3   3   4  117.85   45.08
   3  -3  -4  120.11   36.66
   3   3  -4  175.55   48.78
   3   3  -4  196.92   70.83
   3   3  -4   70.13   33.39
  -3   3   4   97.46   52.39
  -3  -3   4   97.29   24.76
   3  -3  -4  198.26   57.91
  -3   3   515299.57  778.70
   3  -3  -513873.30  576.37
   3  -3  -515930.09  848.63
   3  -3  -515169.62  712.13
  -3   3   512945.73  532.61
   3   3  -513609.01  701.76
   3   3  -515121.74  694.03
   3   3  -514516.41  655.35
  -3   3   515541.02  698.29
  -3  -3   513983.19  727.30
   3  -3  -6  830.47  104.95
   3   3  -6  635.49   81.39
  -3   3   6  682.01  109.46
   3   3  -6  451.90   79.60
   3  -3  -6  611.48   43.91
  -3   3   6  699.48   82.53
  -3  -3   6  413.52   54.80
  -3  -3   6  577.84   71.02
  -3   3   6  499.68   48.35
   3  -3  -6  719.59   73.81
  -3   3   7 9198.39  505.79
   3   3  -7 8093.30  425.56
   3  -3  -7 7824.99  326.53
   3  -3  -7 8822.62  441.87
   3  -3  -7 9831.04  565.28
  -3   3   7 9149.42  518.42
   3   3  -7 9101.46  404.14
  -3  -3   7 8882.04  419.71
  -3  -3   7 8859.45  431.49
  -3  -3   8 1394.76  123.88
   3  -3  -8 1445.84  123.31
   3  -3  -8 1436.76  153.89
   3   3  -8 1477.75  117.24
   3   3  -8 1510.48  108.66
  -3  -3   8 1674.63  128.35
  -3   3   8 1654.63  148.34
  -3   3   8 1564.63  158.32
  -3  -3   8 1088.33   85.77
   3  -3  -8 1145.64   68.02
  -3   3   9 1550.80  148.79
  -3  -3   9 1676.40  148.32
   3   3  -9 1557.60  120.92
   3   3  -9 1282.74  104.66
  -3  -3   9 1258.16  113.67
   3  -3  -9 1566.51  169.24
  -3   3   9 1379.99  147.10
   3  -3  -9 1534.51  128.91
   3   3 -10   -4.41   18.22
   3   3 -10   -6.19   27.21
  -3   3  10    5.34   62.59
  -3  -3  10  -22.95   55.73
  -3  -3  10  -19.80   46.37
   3  -3 -10   -8.42   48.51
   3   3 -10   63.13   41.32
   3  -3 -10   22.06   39.15
   3   3 -11 2072.19  178.69
   3   3 -11 1899.92  114.12
  -3   3  11 2064.84  199.03
   3  -3 -11 2061.19  215.34
  -3  -3  11 1847.77  127.99
   3   3 -11 1502.61   99.11
  -3   3  11 2464.10  208.11
   3  -3 -11 2178.94  184.11
  -3   3  12   17.58   44.40
  -3  -3  12  -26.39   44.42
  -3  -3  12  -21.36   43.36
   3  -3 -12   23.86   42.76
  -3   3  12  -25.77   43.61
   3   3 -12   -4.93   43.69
   3   3 -12   41.52   44.04
   3  -3 -12  -16.43   45.44
  -3   3  13  155.55   64.79
  -3   3  13  167.59   65.32
   3   3 -13  187.63   60.29
  -3  -3  13  225.27   47.66
  -3  -3  13  169.69   69.72
   3   3 -13  136.09   38.45
   3  -3 -13  131.56   67.78
   3  -3 -13  136.96   53.36
  -3  -3  14   88.02   41.26
   3   3 -14  189.60   61.02
   3   3 -14  138.30   42.81
  -3   3  14   54.03   71.56
  -3  -3  14  261.93   69.40
  -3   3  14   77.38   60.35
   3  -3 -14  219.89   73.06
  -3  -3  15 1917.32  126.33
   3  -3 -15 2145.45  212.18
   3   3 -15 1903.69  115.30
  -3   3  15 2281.52  189.31
  -3  -3  15 2326.44  219.36
   3  -3 -15 1999.08  169.32
   3   3 -15 1934.03  166.49
  -3   3  15 2193.94  212.60
   3  -3 -16   47.25   67.58
  -3   3  16   34.58   70.31
   3   3 -16   51.62   52.76
  -3  -3  16   64.07   36.30
   3  -3 -16   21.09   55.86
   3   3 -17 2839.32  232.24
   3  -3 -17 2972.84  274.17
  -3   3  17 2982.35  269.83
  -3  -3  17 3908.76  331.30
   3  -3 -17 3065.41  239.37
  -3   3  17 3441.42  296.86
  -3   3  18  -69.22   55.64
   3  -3 -18  -54.59   56.95
  -3   3  18  -26.15   55.76
   3   3 -18    4.28   55.17
   3  -3 -18   89.14   54.93
  -3  -3  18  -10.73   55.38
   3  -3 -19 2637.08  257.45
  -3   3  19 2559.40  260.44
  -3   3  19 2440.71  231.69
  -3  -3  19 2853.99  283.22
   3   3 -19 2473.00  215.99
   3  -3 -19 2549.92  219.42
   3   3 -20   54.33   58.18
   3  -3 -20   59.67   90.12
  -3   3  20  113.09   81.41
  -3   3  20  137.00   83.25
   3  -3 -20  164.66   71.61
  -3  -3  20  216.15   92.88
   3   3 -21 1311.26  156.92
  -3   3  21 1316.03  160.10
  -3   3  21 1211.05  180.67
  -3  -3  21 1286.19  185.02
   3  -3 -21 1355.97  150.19
   3  -3 -21 1132.91  169.80
   3  -3 -22   75.90   70.14
  -3  -3  22  102.47   86.84
   3  -3 -22   95.03   77.96
  -3   3  22  109.71   75.18
   3   3 -22   72.68   77.75
  -3   3  22   41.36   71.98
   3  -3 -23  153.37   78.47
   3   3 -23  191.20   73.70
  -3  -3  23  207.00  103.54
  -3   3  23  270.88   85.87
  -3   3  23  227.12   81.08
   3  -3 -23  142.29   78.10
  -3   3  24   26.30   61.07
   3  -3 -24   63.64   78.50
   3  -3 -24   -3.13   79.87
  -3   3  24   -5.37   66.20
   3   3 -24   96.76   62.94
  -3  -3  24  -19.76   78.68
  -3  -3  25  110.70   91.03
   3  -3 -25   34.25   75.28
   3   3 -25   70.73   79.29
  -3   3  25   23.11   60.36
  -3   3  25   40.19   75.30
   3  -3 -25   20.18   64.46
  -3   3  26  141.51   84.91
  -3   3  26  117.27   60.72
   3   3 -26  183.73   82.16
  -3   4   1 6191.16  385.42
   3   4  -1 6134.77  321.03
   3   4  -1 7321.99  380.64
  -3   4   1 6793.78  378.72
  -3  -4   1 6318.16  414.53
   3  -4  -1 5440.92  296.32
   3  -4  -1 7276.85  457.54
   3   4  -2 1287.99  132.96
  -3   4   2 1099.49  113.71
  -3  -4   2 1160.38  127.02
   3  -4  -2 1369.09  144.91
   3   4  -2 1657.61  229.58
  -3  -4   3 4119.68  304.92
   3   4  -3 4624.16  276.51
   3   4  -3 4265.40  280.16
   3  -4  -3 4846.97  359.78
  -3   4   3 4681.95  277.18
  -3   4   3 4173.61  247.24
   3   4  -4  845.60   87.51
  -3   4   4 1025.25  101.90
  -3   4   4  895.25  121.01
  -3  -4   4  845.72  108.01
   3  -4  -4  826.28   83.01
   3   4  -4  923.40   96.55
   3  -4  -4 1153.64  156.75
   3   4  -5   56.84   41.46
  -3   4   5   44.55   45.65
  -3   4   5  -19.43   71.40
  -3  -4   5  147.50   85.52
   3  -4  -5   64.14   34.00
   3  -4  -5  157.11   72.96
   3  -4  -6  460.88   74.07
   3   4  -6  744.19   89.01
  -3   4   6  704.26  114.75
  -3  -4   6  592.78   95.22
   3  -4  -6  806.32  118.37
   3   4  -6  783.61   81.23
   3   4  -7  268.82   66.59
  -3   4   7  260.43   83.93
   3   4  -7  325.86   76.62
  -3   4   7  145.41   56.16
  -3  -4   7  148.05   69.21
   3  -4  -7  415.77   99.45
   3  -4  -7  220.97   49.54
   3   4  -8   59.54   64.91
   3   4  -8   51.17   67.09
  -3   4   8    0.73   42.84
  -3  -4   8  -20.97   64.05
   3  -4  -8   70.21   59.79
   3  -4  -8  -12.23   35.91
  -3   4   8  -38.85   80.32
   3   4  -9 1131.84  129.56
   3   4  -9 1466.58  132.51
  -3   4   9 1120.40  155.01
  -3  -4   9 1133.74  112.14
   3  -4  -9 1112.46  151.87
  -3   4   9 1200.62  139.29
   3  -4  -9 1118.81  104.32
   3   4 -10  332.57   73.21
  -3   4  10  183.76   81.87
  -3  -4  10  240.68   71.99
   3  -4 -10  330.54   90.42
   3  -4 -10  224.52   57.03
   3   4 -10  274.75   68.86
   3   4 -11 2352.73  204.13
  -3   4  11 2586.24  219.73
  -3  -4  11 2232.64  181.76
   3  -4 -11 2823.63  281.34
   3  -4 -11 2136.98  177.20
  -3   4  11 2249.71  206.45
   3   4 -12  -56.42   59.62
  -3   4  12  106.63   58.61
  -3   4  12    9.67   68.59
  -3  -4  12   18.45   74.68
  -3  -4  12   39.75   53.19
   3  -4 -12   80.62   52.01
   3  -4 -12   77.67   72.91
   3   4 -13 2095.31  184.23
  -3   4  13 2177.82  206.41
  -3   4  13 1882.35  228.96
  -3  -4  13 2549.03  243.25
   3  -4 -13 1943.13  201.32
   3  -4 -13 1821.65  150.96
  -3  -4  13 1522.50  124.64
  -3  -4  14  450.43  102.13
   3   4 -14  381.71   84.81
  -3   4  14  218.11   83.17
   3  -4 -14  487.69  105.22
   3  -4 -14  413.14   83.00
  -3   4  14  425.19   95.53
   3   4 -15 1563.61  154.84
  -3   4  15 1505.02  170.36
  -3   4  15 1442.11  193.88
   3  -4 -15 1368.11  144.67
   3  -4 -15 1593.52  180.57
   3  -4 -16  -89.67   51.15
  -3  -4  16   27.04   52.85
   3   4 -16  -26.68   51.72
   3  -4 -16   -9.01   54.26
  -3   4  16  -84.99   52.07
  -3   4  16  -31.14   53.03
   3   4 -17  197.80   82.77
  -3   4  17  256.73   69.03
  -3   4  17  202.31   85.21
   3  -4 -17  392.03   99.58
   3  -4 -17  332.69   78.38
  -3  -4  17  377.16   94.42
   3   4 -18  -31.26   68.84
  -3   4  18   -1.15   69.57
  -3  -4  18   52.05   70.10
   3  -4 -18 -104.86   68.52
   3  -4 -18  -17.91   72.16
  -3   4  18   39.61   70.43
  -3   4  19   75.91   80.36
   3  -4 -19  103.03   85.20
   3  -4 -19   32.57   64.91
  -3  -4  19    4.68   78.20
  -3   4  20  -55.75   73.64
   3  -4 -20   -6.46   72.72
   3  -4 -20  -62.91   75.87
  -3   4  21  359.64   89.12
  -3   4  21  442.83   95.03
  -3  -4  21  435.65  109.40
   3  -4 -21  278.63   89.86
   3  -4 -21  350.69   95.35
   3   5  -1  394.71  100.74
  -3   5   1  218.19   77.11
  -3  -5   1  316.09   87.01
   3  -5  -1  469.22   84.62
   3   5  -2  406.64  107.79
  -3  -5   2  344.76  110.60
   3  -5  -2  277.80   85.10
  -3   5   2  110.25   83.28
   3   5  -3  689.17  117.50
  -3   5   3  649.30  127.32
  -3  -5   3  678.63  113.45
   3  -5  -3  696.97  130.06
   3   5  -4  584.29  116.96
  -3  -5   4  249.63   89.98
   3  -5  -4  454.84   97.23
  -3   5   4  291.02   92.77
   3   5  -5 1241.55  155.60
  -3   5   5  825.31  124.94
  -3  -5   5  924.61  139.76
   3  -5  -5  889.51  144.48
   3   5  -6  341.11  105.74
  -3   5   6  107.91   87.09
  -3  -5   6  250.80   78.24
   3  -5  -6  253.80   98.29
   3   5  -7 2095.75  194.79
   3  -5  -7 1467.63  180.55
  -3   5   7 1419.77  158.05
  -3  -5   7 1401.79  152.67
   3   5  -8  125.14   74.74
  -3  -5   8   91.29   74.33
  -3   5   8  220.28   88.26
   3  -5  -8  197.01   77.56
   3   5  -9 1257.97  140.01
  -3   5   9  903.52  133.44
  -3  -5   9  806.81  110.88
   3  -5  -9 1119.16  149.36
   3   5 -10   11.98   73.13
  -3  -5  10   46.72   67.17
  -3   5  10    7.70   77.80
   3  -5 -10   19.23   82.72
  -3   5  11  -39.75   71.16
   3   5 -11  -50.73   72.61
   3  -5 -11    4.24   70.55
   3   5 -12   36.03   55.42
   3  -5 -12  -98.25   55.31
  -3   5  12  -40.14   55.73
   3   5 -13  -46.81   57.57
   3  -5 -13   13.85   55.98
   3   5 -13  -26.52   56.00
   2   0  -1  -32.59   21.34
   2   0  -1   -4.22   21.54
   2   0  -1   -4.08   21.58
   2   0  -1   -5.80   21.48
  -2   0   1    4.48   21.39
  -2   0   1   -4.62   21.36
  -2   0   1    5.25   21.58
  -2   0   1  -17.00   21.60
  -2   0   1  -27.85   21.47
   2   0  -2 4749.86  223.61
   2   0  -2 4780.68  246.86
   2   0  -2 4216.98  224.22
   2   0  -2 4612.63  206.82
   2   0  -2 4562.64  308.13
  -2   0   2 4406.43  203.89
  -2   0   2 4858.41  227.68
  -2   0   2 4925.30  232.99
  -2   0   2 5008.30  237.41
  -2   0   3  -22.38   21.15
   2   0  -3   10.91   15.68
   2   0  -3   27.88   19.53
   2   0  -3   -8.29   21.23
   2   0  -3   10.51   20.31
   2   0  -3    6.85   18.73
  -2   0   3    3.13   21.94
  -2   0   3   29.11   22.60
  -2   0   3  -14.86   15.94
  -2   0   3   24.59   21.38
   2   0  -431438.57 1035.93
   2   0  -428550.64 1094.32
   2   0  -428521.14 1129.08
   2   0  -428929.59 1107.72
   2   0  -428357.18 1126.18
  -2   0   430504.89 1251.19
  -2   0   429467.04 1110.86
  -2   0   429860.76 1090.42
  -2   0   431472.71 1138.01
  -2   0   432675.88 1388.26
   2   0  -5   11.44   21.51
   2   0  -5  -23.04   20.93
   2   0  -5  -20.42   21.28
   2   0  -5   -2.94   21.86
  -2   0   5   12.72   21.34
  -2   0   5  -22.23   21.44
  -2   0   5    1.87   21.41
  -2   0   5   -5.91   20.64
  -2   0   5   -2.96   21.95
   2   0  -625317.53  983.46
   2   0  -619615.35  739.17
   2   0  -625762.87 1033.64
   2   0  -621843.38  994.07
  -2   0   625028.22  965.65
  -2   0   623325.71  945.09
  -2   0   622060.83  856.60
  -2   0   621421.85 1022.57
  -2   0   622818.54  907.54
  -2   0   7   -0.52   21.59
   2   0  -7  -16.47   21.02
   2   0  -7  -10.15   20.79
   2   0  -7   27.02   20.86
   2   0  -7  -13.39   20.84
   2   0  -7  -30.01   21.46
  -2   0   7  -30.31   21.52
  -2   0   7    2.01   20.87
  -2   0   7   39.14   20.98
  -2   0   7  -12.83   20.07
   2   0  -824539.32  942.15
   2   0  -823614.17 1085.49
   2   0  -821356.43 1018.63
  -2   0   821312.00  976.02
  -2   0   824773.07 1014.67
  -2   0   821654.52  851.45
  -2   0   824763.60 1098.56
  -2   0   824275.07 1326.78
   2   0  -9  -29.06   26.56
   2   0  -9    4.28   19.00
   2   0  -9  -15.00   19.89
   2   0  -9   10.27   28.81
   2   0  -9   57.33   33.03
  -2   0   9   19.12   18.82
  -2   0   9   31.61   33.25
  -2   0   9  -34.16   26.73
  -2   0   9  -17.05   26.37
  -2   0   9   -1.77   18.98
   2   0 -1020993.47  874.86
   2   0 -1024379.83 1126.73
   2   0 -1020437.07  873.17
   2   0 -1022838.56 1166.62
   2   0 -1024750.41 1130.07
  -2   0  1021737.24  916.38
  -2   0  1024677.80 1005.01
  -2   0  1020949.31  852.77
  -2   0  1021378.35  987.63
  -2   0  11   17.73   40.90
   2   0 -11  -11.58   14.40
   2   0 -11   -4.61   34.02
   2   0 -11  -15.85   26.07
   2   0 -11   13.38   28.61
   2   0 -11   12.01   15.46
  -2   0  11  -11.98   22.94
  -2   0  11   11.82   18.18
  -2   0  12 7965.22  379.00
   2   0 -12 8271.32  408.81
   2   0 -12 9666.57  501.89
   2   0 -12 9336.18  525.75
   2   0 -12 9797.99  592.27
  -2   0  1210596.74  518.53
   2   0 -13  -30.74   34.45
   2   0 -13   44.45   36.01
   2   0 -13   -6.35   16.17
   2   0 -13  -13.82   37.65
  -2   0  13  -20.62   41.17
  -2   0  13   48.21   27.58
   2   0 -14  101.88   32.49
  -2   0  14  257.53   56.56
   2   0 -14  159.63   47.41
  -2   0  14  100.51   29.20
   2   0 -15  -24.77   35.86
  -2   0  15   44.13   24.91
   2   0 -15   38.56   39.42
   2   0 -15   21.13   32.31
  -2   0  15   30.57   47.50
  -2   0  15   23.06   16.10
   2   0 -16 3567.48  252.96
   2   0 -16 3093.88  277.86
   2   0 -16 3314.30  277.58
  -2   0  16 3755.28  275.29
  -2   0  16 2726.03  169.61
  -2   0  16 2933.08  198.03
   2   0 -17  -33.55   38.34
   2   0 -17   63.69   37.24
   2   0 -17  -18.94   37.81
  -2   0  17  -16.97   37.46
  -2   0  17  -22.72   38.93
   2   0 -18 7228.99  383.14
   2   0 -18 6703.18  428.07
   2   0 -18 6935.52  455.08
  -2   0  18 6104.08  287.76
  -2   0  18 5297.24  300.00
   2   0 -19   45.43   47.04
   2   0 -19  -30.48   45.72
   2   0 -19   -9.87   46.60
  -2   0  19    3.10   46.26
  -2   0  19   11.89   48.64
  -2   0  19   -7.07   46.78
   2   0 -20 6056.16  353.30
   2   0 -20 5604.95  335.66
   2   0 -20 5911.41  410.89
  -2   0  20 7128.14  460.60
  -2   0  20 5736.82  295.92
   2   0 -21  -44.18   47.39
   2   0 -21   40.23   46.05
   2   0 -21  -35.60   47.15
  -2   0  21   50.44   46.83
   2   0 -22 6154.45  361.86
   2   0 -22 6197.42  400.58
   2   0 -22 6201.45  429.39
  -2   0  22 8226.81  551.69
  -2   0  22 6127.26  259.93
   2   0 -23  -26.48   46.77
   2   0 -23  -69.48   46.83
  -2   0  23   83.94   46.45
   2   0 -24 1955.52  155.22
   2   0 -24 2067.71  186.21
   2   0 -24 2100.77  197.31
   2   0 -25  -63.09   48.91
   2   0 -25  -69.15   47.59
   2   0 -25  126.32   49.00
  -2   0  25  -26.59   48.63
  -2   0  26   -8.09   95.75
   2   0 -26   10.82   56.34
   2   0 -26   27.63   65.29
   2   0 -26  -17.04   58.85
   2   0 -27    1.48   65.77
   2   0 -27   63.32   57.35
   2   0 -27   20.53   54.33
  -2   0  27   61.70   98.12
   2   0 -28  790.06   97.20
   2   0 -28  984.27  137.32
  -2   0  28  844.55  167.52
   2   0 -28  920.81  124.29
   2   0 -29  -29.33   55.90
  -2   0  29   -2.45   98.65
   2   0 -29   25.87   56.33
   2   0 -29   29.16   75.45
   2   0 -30  646.28  104.82
  -2   0  30 1002.08  152.08
   2   0 -30  751.25  112.45
   2   0 -30  780.78  123.65
   2   0 -31  -81.09   64.62
   2   0 -31   61.32   63.23
   2   0 -31  -59.91   65.16
  -2   0  31   86.57   64.39
   2   1  -1 4219.10  243.50
   2   1  -1 3798.60  219.63
   2   1  -1 3995.83  260.69
   2   1  -1 3581.66  190.23
  -2   1   1 4186.11  239.52
  -2   1   1 4527.06  223.56
  -2   1   1 4518.30  222.83
  -2  -1   1 3849.66  204.57
  -2  -1   1 4788.93  275.74
  -2  -1   1 3752.22  221.91
   2  -1  -1 4353.62  217.70
   2  -1  -1 4123.37  168.87
   2  -1  -1 4302.99  201.76
   2  -1  -1 4315.07  226.15
   2  -1  -1 4172.26  199.39
   2   1  -242475.36 1614.91
   2   1  -240707.09 1711.67
   2   1  -235741.36 1390.38
  -2   1   242574.51 1597.63
  -2   1   242642.96 1591.54
  -2   1   246157.19 1660.93
  -2  -1   240978.24 1677.78
  -2  -1   236683.09 1435.55
  -2  -1   244381.97 1658.33
  -2  -1   236735.99 1517.85
   2  -1  -240791.16 1354.95
   2  -1  -241695.05 1355.67
   2  -1  -241456.55 1467.99
   2  -1  -240417.21 1507.13
   2  -1  -240606.81 1539.48
   2   1  -3   11.61   29.14
   2   1  -3   -1.22   19.17
   2   1  -3    1.15   20.70
   2   1  -3    6.78   21.84
  -2   1   3   -3.19   16.18
  -2   1   3  -15.78   15.99
  -2   1   3   28.71   21.41
  -2   1   3    5.37   24.15
  -2   1   3   31.94   19.31
  -2  -1   3   48.55   24.31
  -2  -1   3   35.34   26.31
  -2  -1   3  -14.93   17.70
   2  -1  -3  -11.14   17.95
   2  -1  -3   19.82   15.90
   2  -1  -3    9.67   20.20
   2  -1  -3    5.67   24.05
   2  -1  -3   26.03   19.93
   2   1  -424613.47 1178.66
   2   1  -424743.23  938.07
   2   1  -426291.23 1105.31
   2   1  -426100.52  877.61
   2   1  -422913.56  911.12
  -2   1   426217.35 1134.81
  -2   1   429400.76 1167.90
  -2   1   430535.08 1025.89
  -2  -1   426764.05 1110.12
  -2  -1   426042.58  994.48
  -2  -1   428068.35 1143.16
  -2  -1   422474.73  829.47
   2  -1  -426885.33  898.75
   2  -1  -429269.17 1074.56
   2  -1  -427359.25 1100.04
   2  -1  -424706.55 1070.14
   2   1  -5  232.30   38.36
   2   1  -5  164.42   28.65
   2   1  -5  200.61   31.91
   2   1  -5  199.96   22.02
   2   1  -5  241.78   34.38
  -2   1   5  231.01   27.69
  -2   1   5  234.00   34.72
  -2   1   5  169.66   37.63
  -2   1   5  209.50   36.77
  -2  -1   5  173.97   43.41
  -2  -1   5  248.40   38.48
  -2  -1   5  169.72   33.54
  -2  -1   5  173.98   35.38
   2  -1  -5  251.31   31.43
   2  -1  -5  170.14   27.21
   2  -1  -5  179.65   33.66
   2  -1  -5  196.03   36.32
   2  -1  -5  159.90   28.51
   2   1  -6 8086.46  452.03
   2   1  -6 7740.38  384.44
   2   1  -6 8237.00  364.74
   2   1  -6 8702.04  366.02
   2   1  -6 7417.45  343.96
  -2   1   6 8294.95  445.84
  -2   1   6 8930.85  483.79
  -2   1   6 8822.02  580.76
  -2  -1   6 8158.84  522.00
  -2  -1   6 8005.10  371.09
  -2  -1   6 8926.56  448.44
  -2  -1   6 7537.08  309.27
  -2  -1   6 7559.38  413.82
   2  -1  -6 8766.89  416.27
   2  -1  -6 8363.55  357.83
   2  -1  -6 8706.68  403.33
   2  -1  -6 8624.79  445.87
   2  -1  -6 8407.99  403.60
   2  -1  -7   67.35   23.96
   2   1  -7   66.00   27.26
   2   1  -7   11.27   19.56
   2   1  -7   72.42   19.98
   2   1  -7   51.89   23.41
  -2   1   7   40.18   16.56
  -2   1   7   30.13   27.69
  -2   1   7   23.30   25.02
  -2   1   7   15.65   25.63
  -2   1   7   19.51   23.67
  -2  -1   7   17.95   20.16
  -2  -1   7   92.77   31.17
  -2  -1   7   54.35   26.89
  -2  -1   7   31.05   20.03
   2  -1  -7   57.83   25.96
   2  -1  -7   31.89   20.32
   2  -1  -7   55.85   33.35
   2  -1  -7   32.67   31.64
   2   1  -8  241.43   45.32
   2   1  -8  138.05   31.23
   2   1  -8  194.25   25.96
   2   1  -8  165.05   29.97
   2   1  -8  154.70   30.82
  -2   1   8  231.17   33.44
  -2   1   8  224.30   35.64
  -2   1   8  181.64   35.88
  -2   1   8  139.44   33.09
  -2  -1   8  167.99   39.48
  -2  -1   8  234.39   37.46
  -2  -1   8  228.67   34.48
  -2  -1   8  184.94   30.54
  -2  -1   8  138.51   28.13
   2  -1  -8  259.90   42.87
   2  -1  -8  230.85   29.78
   2  -1  -8  178.04   46.07
   2  -1  -8  230.03   36.29
   2  -1  -8  155.96   34.30
   2   1  -9   48.20   32.31
   2   1  -9   11.67   22.17
   2   1  -9   21.49   25.42
  -2   1   9   37.18   19.49
  -2   1   9  -11.57   27.50
  -2   1   9  -10.35   16.16
  -2  -1   9    6.71   31.76
  -2  -1   9   17.14   25.43
  -2  -1   9   20.79   23.35
   2  -1  -9   20.18   20.04
   2  -1  -9   28.62   21.34
   2  -1  -9   17.43   34.92
   2  -1  -9   52.78   25.44
   2   1  -9   16.90   15.59
   2   1 -10 4190.70  274.11
   2   1 -10 3774.78  182.98
   2   1 -10 4144.56  222.06
   2   1 -10 3978.05  252.59
  -2   1  10 3893.58  225.08
  -2   1  10 3884.47  246.71
  -2   1  10 4689.47  268.82
  -2   1  10 4421.76  341.52
  -2  -1  10 4504.44  251.00
  -2  -1  10 3861.96  218.68
  -2  -1  10 3805.18  279.80
   2  -1 -10 4641.63  275.23
   2  -1 -10 5045.68  331.97
   2  -1 -10 3951.19  311.72
   2   1 -11  210.83   43.41
   2   1 -11  207.21   25.96
   2   1 -11  283.31   40.17
   2   1 -11  304.38   43.40
  -2   1  11  241.23   46.96
  -2   1  11  326.07   43.58
  -2   1  11  231.41   41.99
  -2  -1  11  205.58   38.84
  -2  -1  11  236.76   39.72
   2  -1 -11  260.13   44.64
   2  -1 -11  238.21   37.62
   2  -1 -11  287.77   64.90
   2  -1 -11  264.73   54.48
   2   1 -1212893.28  763.64
   2   1 -1210164.40  416.44
   2   1 -1212699.77  561.31
   2   1 -1210695.82  586.33
  -2   1  1212458.28  616.02
  -2   1  1211860.54  608.88
  -2   1  1211269.29  613.16
  -2  -1  1211196.65  531.95
  -2  -1  1211120.00  517.02
  -2  -1  12 9833.85  529.08
   2  -1 -1213105.11  628.15
   2  -1 -1210451.37  536.36
   2  -1 -1213609.07  726.67
   2  -1 -1212162.00  747.52
   2   1 -13  846.43   96.74
   2   1 -13  642.76   46.03
   2   1 -13  912.49   87.99
   2   1 -13  868.08   86.74
  -2   1  13  822.41   81.66
  -2   1  13  719.33   80.63
  -2  -1  13 1118.39   91.65
  -2  -1  13  835.15   65.91
  -2  -1  13  717.34   75.60
   2  -1 -13  795.34   88.93
   2  -1 -13  706.73   77.17
   2  -1 -13  809.55  123.52
   2  -1 -13  845.35  102.12
   2   1 -1415359.34  802.88
   2   1 -1413946.97  696.78
   2   1 -1414120.13  738.09
  -2   1  1413997.01  686.04
  -2  -1  1415749.62  716.47
  -2  -1  1413699.47  567.12
   2  -1 -1413923.61  675.70
   2  -1 -1411718.25  631.46
   2  -1 -1415740.51 1035.17
   2  -1 -1413937.13  816.27
   2   1 -15   33.05   41.72
   2   1 -15   18.62   14.81
   2   1 -15   -9.50   34.56
   2   1 -15    8.82   30.18
  -2   1  15   21.14   49.57
  -2   1  15   28.52   33.30
  -2  -1  15   79.61   52.79
  -2  -1  15    4.81   22.40
   2  -1 -15   31.78   27.84
   2  -1 -15    0.58   18.21
   2  -1 -15   24.70   42.59
   2  -1 -15   13.14   49.61
   2   1 -1614196.24  683.08
   2   1 -1611564.34  482.76
   2   1 -1612011.37  594.55
   2   1 -1613280.59  683.54
  -2   1  1615166.73  742.57
  -2   1  1612089.31  545.74
  -2  -1  1615314.81  728.02
  -2  -1  1611964.64  479.81
   2  -1 -1613179.97  674.24
   2  -1 -1614801.20  894.01
   2  -1 -1613565.56  777.81
   2   1 -17  -16.72   44.99
   2   1 -17  -41.25   44.40
   2   1 -17   -4.88   45.05
  -2   1  17   35.70   44.19
  -2   1  17  -18.11   44.13
  -2  -1  17   35.80   44.49
   2  -1 -17  -16.00   45.43
   2  -1 -17   51.55   44.26
   2  -1 -17    3.25   44.69
   2   1 -18 1920.41  164.36
   2   1 -18 1799.76  153.71
   2   1 -18 1824.39  176.61
  -2   1  18 2150.08  181.86
  -2   1  18 1781.21  127.73
  -2  -1  18 2195.21  168.78
  -2  -1  18 1585.29   68.47
   2  -1 -18 1840.24  147.02
   2  -1 -18 1956.56  197.43
   2  -1 -18 2169.50  214.71
   2   1 -19  -28.98   55.99
   2   1 -19   31.68   53.07
   2   1 -19   27.54   42.88
  -2   1  19  142.03   63.38
  -2   1  19   34.23   45.57
   2  -1 -19   76.22   40.17
   2  -1 -19   47.38   52.02
   2  -1 -19  -54.42   59.41
   2   1 -20  390.54   77.79
   2   1 -20  433.54   75.93
  -2   1  20  553.86   99.37
  -2   1  20  420.83   59.74
  -2  -1  20  504.79   89.71
   2  -1 -20  346.13   52.99
   2  -1 -20  304.49   81.31
   2  -1 -20  285.53   78.72
   2   1 -21   68.70   59.70
   2   1 -21  114.92   49.65
   2   1 -21   89.36   53.72
  -2   1  21  153.06   75.00
  -2   1  21   78.62   43.81
  -2  -1  21   40.44   72.91
   2  -1 -21   10.44   33.72
   2  -1 -21   31.73   68.01
   2  -1 -21  124.99   75.89
   2   1 -22 1514.89  120.76
   2   1 -22 1610.40  145.78
   2   1 -22 1551.97  131.12
  -2   1  22 1357.52  177.44
  -2   1  22 1233.01  120.24
  -2  -1  22 1518.96  190.59
   2  -1 -22 1330.26  106.36
   2  -1 -22 1474.38  157.06
   2  -1 -22 1499.96  166.09
   2   1 -23   49.25   58.41
   2   1 -23   93.10   62.50
   2   1 -23   66.57   50.62
  -2   1  23  153.63   83.42
  -2   1  23   87.48   42.03
   2  -1 -23   84.04   49.83
   2  -1 -23   28.66   75.30
   2  -1 -23  -13.79   57.35
   2   1 -24 2194.61  209.94
   2   1 -24 1939.96  188.69
   2   1 -24 2045.45  171.26
  -2   1  24 1714.19  143.87
  -2  -1  24 2528.10  279.77
   2  -1 -24 1995.48  164.86
   2  -1 -24 2130.28  196.00
   2  -1 -24 2070.56  224.00
   2   1 -25  250.29   77.62
   2   1 -25  253.59   79.52
   2   1 -25  349.52   85.16
  -2  -1  25  310.35  102.78
   2  -1 -25  210.44   61.94
   2  -1 -25  393.67   84.35
   2  -1 -25  232.96   85.74
   2   1 -26 3648.91  285.42
   2   1 -26 3567.25  272.39
   2   1 -26 3761.88  280.26
  -2  -1  26 4578.47  414.60
   2  -1 -26 3404.96  220.09
   2  -1 -26 3543.26  284.16
   2  -1 -26 3463.72  262.73
   2   1 -27  -27.40   71.60
   2   1 -27  -32.64   69.89
   2   1 -27  -68.39   71.29
  -2   1  27   28.18   70.28
  -2  -1  27   12.20   71.97
   2  -1 -27  -84.56   70.83
   2  -1 -27 -109.80   69.51
   2  -1 -27  -85.93   71.86
   2   1 -28 1787.51  194.10
   2   1 -28 1961.47  191.84
   2   1 -28 1821.06  180.89
  -2   1  28 2134.14  251.85
  -2  -1  28 2376.84  235.60
   2  -1 -28 1630.78  149.70
   2  -1 -28 1952.86  203.71
   2  -1 -28 1973.71  186.37
   2   1 -29  -44.94   61.53
   2   1 -29  -73.40   65.92
   2   1 -29   63.50   68.99
  -2   1  29   91.32   93.39
  -2  -1  29   98.11  101.55
   2  -1 -29  -14.47   69.38
   2  -1 -29   14.55   74.56
   2   1 -30  177.94   71.56
   2  -1 -30  274.97   96.25
  -2  -1  30  189.39  110.62
   2   1 -30   39.19   69.95
   2   1 -30  217.19   81.29
   2  -1 -30  399.38   96.50
  -2   1  30  327.23  115.29
   2   1 -31   23.38   82.34
   2   1 -31   45.33   62.48
  -2  -1  31  -28.52   80.96
   2  -1 -31   46.01   56.33
   2  -1 -31   29.72   78.61
   2   2  -1  452.29   53.50
   2   2  -1  396.64   35.67
   2   2  -1  451.06   50.30
  -2   2   1  497.10   41.18
  -2  -2   1  373.46   67.64
  -2  -2   1  423.43   59.07
  -2  -2   1  433.53   31.84
  -2  -2   1  425.25   36.83
   2  -2  -1  527.31   56.22
   2  -2  -1  470.62   51.42
   2  -2  -1  595.24   60.40
   2   2  -1  434.79   46.41
  -2   2   1  482.06   43.32
  -2   2   1  501.76   56.74
  -2   2   1  472.60   47.05
   2   2  -2   -8.02   26.75
   2   2  -2   -7.66   23.83
  -2   2   2   24.29   15.01
  -2   2   2   18.27   19.07
  -2   2   2  -12.07   34.93
  -2  -2   2   -0.43   13.47
  -2  -2   2  -16.08   38.66
  -2  -2   2   19.20   15.74
   2  -2  -2   59.04   21.54
   2  -2  -2   -8.41   29.23
   2  -2  -2   16.44   24.44
   2  -2  -2   23.21   15.42
   2   2  -3  666.79   75.63
   2   2  -3  583.41   37.99
   2   2  -3  624.99   60.09
  -2   2   3  680.50   52.09
  -2   2   3  660.71   73.37
  -2  -2   3  521.15   75.54
  -2  -2   3  678.12   55.38
  -2  -2   3  676.69   78.44
  -2  -2   3  639.11   47.98
   2  -2  -3  780.74   63.02
   2  -2  -3  664.94   54.94
   2  -2  -3  607.51   66.65
   2  -2  -3  815.07   83.66
   2  -2  -3  664.79   64.57
   2   2  -4 4922.61  315.70
   2   2  -4 4538.73  318.62
   2   2  -4 4573.68  227.92
   2   2  -4 4674.60  205.30
   2   2  -4 5119.88  220.82
  -2   2   4 5465.33  253.15
  -2   2   4 5573.79  314.08
  -2  -2   4 4923.39  289.65
  -2  -2   4 5047.76  220.16
  -2  -2   4 5846.77  381.36
  -2  -2   4 4597.71  206.11
   2  -2  -4 5857.88  266.11
   2  -2  -4 4808.40  233.55
   2  -2  -4 6115.72  328.87
   2  -2  -4 5866.38  319.22
   2  -2  -4 5218.17  242.86
   2   2  -5   68.22   32.87
   2   2  -5   47.79   28.01
   2   2  -5   74.74   17.29
   2   2  -5   40.16   14.43
   2   2  -5   66.61   23.99
  -2   2   5   65.74   38.12
  -2  -2   5   42.29   34.11
  -2  -2   5  125.18   36.45
  -2  -2   5   68.18   23.02
   2  -2  -5   48.58   18.59
   2  -2  -5   83.54   21.53
   2  -2  -5   74.27   33.80
   2  -2  -5   56.21   31.69
   2  -2  -5   97.95   22.00
   2   2  -612254.12  641.74
   2   2  -6 9168.75  542.91
   2   2  -610931.53  450.82
  -2   2   611400.47  444.50
  -2   2   612759.54  519.98
  -2   2   612460.45  607.34
  -2  -2   612416.77  648.62
  -2  -2   611332.69  469.04
   2  -2  -611414.19  433.66
   2  -2  -611333.24  524.60
   2  -2  -613123.93  619.75
   2  -2  -611994.40  653.28
   2  -2  -6 9921.73  458.22
   2   2  -611459.54  447.05
  -2  -2   611798.33  457.27
   2   2  -7  425.16   57.69
   2   2  -7  364.90   50.48
   2   2  -7  346.17   39.02
  -2   2   7  379.46   32.10
  -2   2   7  525.51   65.26
  -2  -2   7  405.68   49.83
  -2  -2   7  511.96   63.53
   2  -2  -7  384.59   45.39
   2  -2  -7  512.93   65.82
   2  -2  -7  506.47   61.31
   2  -2  -7  425.22   30.94
  -2  -2   7  410.98   37.43
   2   2  -819396.11 1057.62
   2   2  -817472.54  877.87
   2   2  -818944.23  715.51
   2   2  -818254.60  750.41
   2   2  -819951.02  745.58
  -2   2   819283.39  750.02
  -2   2   820990.57  938.43
  -2  -2   822243.90  786.55
  -2  -2   819311.06  953.42
   2  -2  -822536.32  715.96
   2  -2  -823434.08 1040.95
   2  -2  -822965.41 1056.86
  -2   2   822743.82 1030.16
  -2  -2   820405.90  884.15
   2   2  -9  344.26   57.42
   2   2  -9  340.58   39.75
   2   2  -9  344.09   34.28
   2   2  -9  325.50   37.45
  -2   2   9  458.85   58.63
  -2   2   9  346.96   66.06
  -2  -2   9  389.31   53.16
  -2  -2   9  348.17   52.09
   2  -2  -9  311.53   25.97
   2  -2  -9  391.64   68.44
   2  -2  -9  377.84   51.37
   2   2 -10 8317.86  444.08
   2   2 -10 7501.53  388.48
   2   2 -10 8079.87  379.04
  -2   2  10 9810.92  470.53
  -2   2  10 9464.39  539.06
  -2  -2  10 8676.42  420.28
  -2  -2  10 8220.04  441.42
   2  -2 -10 8571.41  303.32
   2  -2 -10 7440.13  353.27
   2  -2 -10 9811.16  567.57
   2  -2 -10 9119.47  435.21
   2   2 -10 7801.37  360.51
   2   2 -11   70.83   36.25
   2   2 -11   71.01   26.00
   2   2 -11   57.52   27.36
   2   2 -11   59.98   25.05
   2   2 -11   46.76   28.19
   2   2 -11   99.12   32.26
  -2   2  11   99.69   40.87
  -2   2  11   11.54   42.44
  -2  -2  11  132.58   46.39
  -2  -2  11  102.00   31.24
   2  -2 -11   62.04   18.93
   2  -2 -11   45.42   16.53
   2  -2 -11   90.19   44.15
   2  -2 -11   60.37   47.06
   2   2 -12 6699.58  380.37
   2   2 -12 5422.81  284.98
   2   2 -12 5895.59  303.80
   2   2 -12 4992.60  372.52
  -2   2  12 6963.13  377.74
  -2   2  12 6327.35  418.14
  -2  -2  12 5538.11  339.84
  -2  -2  12 5652.84  299.05
   2  -2 -12 7298.98  259.88
   2  -2 -12 4844.26  254.78
   2  -2 -12 7105.42  422.11
   2  -2 -12 6164.65  409.39
   2   2 -13  455.61   74.29
   2   2 -13  339.85   48.26
   2   2 -13  404.61   52.33
   2   2 -13  286.45   43.62
  -2  -2  13  410.00   48.21
   2  -2 -13  375.18   33.34
   2  -2 -13  301.44   35.12
   2  -2 -13  600.99   91.55
   2  -2 -13  406.00   67.43
  -2   2  13  381.64   68.96
  -2  -2  13  468.06   74.05
   2   2 -14  -11.24   51.11
   2   2 -14   15.09   19.62
   2   2 -14   38.73   30.58
   2   2 -14  -17.17   32.60
  -2   2  14    0.87   43.29
  -2   2  14  -42.55   48.01
  -2  -2  14  -62.50   47.16
  -2  -2  14   28.62   26.74
   2  -2 -14   49.77   54.17
   2  -2 -14   49.04   44.17
   2   2 -15  -16.38   51.97
   2   2 -15  -14.84   18.64
   2   2 -15    2.81   32.02
   2   2 -15   19.62   39.90
  -2   2  15  -12.80   48.25
  -2  -2  15   22.74   45.49
  -2  -2  15    1.66   21.13
   2  -2 -15    7.36   22.07
   2  -2 -15   47.13   49.62
   2  -2 -15  117.85   56.14
   2   2 -16  342.91   75.10
   2   2 -16  234.94   47.68
   2   2 -16  297.16   56.14
  -2   2  16  404.62   71.67
  -2  -2  16  274.54   72.00
  -2  -2  16  208.32   35.32
   2  -2 -16  338.58   34.99
   2  -2 -16  275.04   83.90
   2  -2 -16  318.61   69.56
   2   2 -17   60.31   55.02
   2   2 -17   -4.11   54.71
   2   2 -17  -21.29   54.77
  -2   2  17  -34.99   54.53
  -2   2  17  -36.40   54.60
  -2  -2  17   11.62   55.14
   2  -2 -17   -6.92   54.71
   2  -2 -17    7.20   54.12
   2  -2 -17  -22.36   54.93
   2   2 -18 5746.52  360.55
   2   2 -18 5043.94  326.22
   2   2 -18 5867.18  357.86
  -2   2  18 7330.66  451.29
  -2   2  18 5742.39  319.47
  -2  -2  18 7300.65  414.92
   2  -2 -18 5829.08  308.43
   2  -2 -18 6559.60  431.75
   2  -2 -18 5816.91  350.36
   2   2 -19  174.68   65.73
   2   2 -19  221.36   62.42
   2   2 -19  259.20   60.63
  -2   2  19  150.88   66.56
  -2   2  19  145.68   56.02
  -2  -2  19  214.08   69.68
   2  -2 -19  139.41   41.35
   2  -2 -19  170.21   75.73
   2  -2 -19  233.18   74.96
   2   2 -20 7021.15  439.87
   2   2 -20 6277.44  416.28
   2   2 -20 6372.98  423.49
  -2   2  20 6860.24  436.31
  -2   2  20 7226.21  438.07
  -2  -2  20 7935.68  521.20
   2  -2 -20 6258.10  328.37
   2  -2 -20 7029.53  505.45
   2  -2 -20 6960.04  514.81
   2   2 -21  -38.05   58.16
   2   2 -21  -14.66   57.55
   2   2 -21  -49.92   57.78
  -2   2  21   43.53   57.26
  -2   2  21   -4.24   57.51
  -2  -2  21  -86.46   57.48
   2  -2 -21  -29.73   56.70
   2  -2 -21  -63.60   57.05
   2  -2 -21   -1.08   57.91
   2   2 -22 2770.09  191.32
   2   2 -22 2258.70  198.85
   2   2 -22 2181.46  182.34
  -2   2  22 2473.73  192.50
   2  -2 -22 2888.36  264.38
   2  -2 -22 2576.62  246.83
   2   2 -23  253.85   82.35
   2   2 -23  238.14   67.61
   2   2 -23   89.88   53.70
  -2   2  23  209.67   60.20
  -2  -2  23  196.87   88.80
   2  -2 -23  260.06   99.57
   2  -2 -23  216.98   80.01
  -2   2  23  282.33   89.77
   2   2 -24 1101.38  146.80
   2   2 -24  613.57   92.70
   2   2 -24  873.65  114.87
  -2   2  24  939.59  143.17
  -2  -2  24  981.54  151.22
   2  -2 -24 1151.11  139.39
   2  -2 -24 1014.72  139.62
  -2   2  24  930.97   98.71
   2   2 -25   32.51   77.30
   2   2 -25   99.46   56.42
   2   2 -25   73.03   51.42
  -2   2  25  190.04   92.42
  -2   2  25   29.73   46.32
   2  -2 -25  114.20   78.59
   2  -2 -25  174.40   78.14
   2   2 -26  -47.79   65.17
   2   2 -26   16.50   63.99
   2   2 -26  -14.54   64.51
   2  -2 -26  -39.45   63.35
   2  -2 -26   78.15   65.07
   2   2 -27   55.36   78.27
   2   2 -27  158.28   66.62
  -2   2  27  -21.29   78.67
  -2  -2  27   89.89   88.58
   2  -2 -27   -8.19   79.24
   2  -2 -27   -1.96   79.48
   2   2 -28  310.38   90.94
  -2  -2  28  414.26  118.17
   2  -2 -28  302.11   91.96
   2  -2 -28  301.70   89.92
  -2   2  28   97.87   89.68
   2   2 -29  183.93   81.68
   2   2 -29  214.77   75.58
  -2   2  29  307.07   98.93
   2  -2 -29  239.33   92.55
   2  -2 -29  182.22   80.76
   2   3  -1  301.79   50.20
   2   3  -1  398.67   60.92
   2   3  -1  219.93   32.07
   2   3  -1  346.17   54.22
  -2   3   1  243.12   31.17
  -2   3   1  365.97   50.00
  -2   3   1  311.12   60.32
  -2  -3   1  260.03   66.13
  -2  -3   1  336.43   37.60
   2  -3  -1  364.34   38.17
   2  -3  -1  392.45   59.95
   2  -3  -1  291.80   36.28
   2  -3  -1  208.66   27.85
   2   3  -214928.08  691.94
   2   3  -213710.17  644.43
   2   3  -215302.54  603.07
  -2   3   215601.95  613.61
  -2   3   215597.16  658.31
  -2  -3   214182.04  721.80
  -2  -3   215064.44  608.78
  -2  -3   213937.05  507.33
   2  -3  -214218.23  626.07
   2  -3  -216898.76  802.08
   2  -3  -216361.98  653.70
   2   3  -3  195.27   43.97
   2   3  -3  191.48   53.92
   2   3  -3  140.19   28.32
   2   3  -3  221.30   31.81
  -2   3   3  129.75   21.72
  -2   3   3  269.55   46.78
  -2   3   3  173.53   62.55
  -2  -3   3  185.67   50.82
  -2  -3   3  166.71   22.44
   2  -3  -3  154.05   22.83
   2  -3  -3  277.98   49.76
   2  -3  -3  176.84   35.36
   2  -3  -3  114.17   28.46
   2   3  -4 6629.19  338.23
   2   3  -4 6971.82  316.39
   2   3  -4 6417.97  330.92
   2   3  -4 5702.85  276.12
   2   3  -4 6937.86  330.77
  -2   3   4 6093.69  240.50
  -2   3   4 6813.07  363.81
  -2   3   4 7408.24  420.39
  -2  -3   4 6844.48  391.58
  -2  -3   4 6141.06  247.93
   2  -3  -4 6133.33  256.77
   2  -3  -4 6830.27  354.18
   2  -3  -4 5470.49  280.94
   2   3  -5  876.48   83.92
   2   3  -5  916.58   82.37
   2   3  -5  801.02   63.19
   2   3  -5  645.74   59.44
   2   3  -5  842.16   59.85
  -2   3   5  945.53   97.76
  -2   3   5  956.86  106.36
  -2  -3   5  877.16   91.72
  -2  -3   5  714.69   59.83
   2  -3  -5  924.58  110.54
   2  -3  -5  769.66   79.00
   2   3  -6 3802.42  264.05
   2   3  -6 3693.97  192.36
   2   3  -6 3640.26  196.04
  -2   3   6 3861.25  240.02
  -2   3   6 4666.16  295.11
  -2  -3   6 4015.27  224.52
  -2  -3   6 3783.27  245.04
  -2  -3   6 3296.25  185.68
   2  -3  -6 4296.80  303.76
   2  -3  -6 3953.14  263.35
   2   3  -7  128.68   42.63
   2   3  -7  142.65   25.77
   2   3  -7   71.58   22.29
   2   3  -7  113.65   23.51
  -2   3   7  158.08   45.44
  -2   3   7   57.84   63.32
  -2  -3   7  124.25   53.28
  -2  -3   7  115.53   43.00
   2  -3  -7  174.67   60.31
   2  -3  -7  137.01   40.07
  -2  -3   8   16.71   14.83
   2   3  -8   47.66   34.84
   2  -3  -8    6.64   36.10
  -2  -3   8  -26.50   36.93
   2  -3  -8   36.40   49.02
   2   3  -8  -12.84   20.96
   2   3  -8   20.86   20.43
  -2   3   8   17.03   40.85
  -2   3   8   36.73   52.39
  -2  -3   8  -18.91   50.39
   2   3  -9  429.10   46.95
   2   3  -9  584.96   77.91
   2   3  -9  470.93   37.25
   2  -3  -9  635.14   67.51
   2   3  -9  464.91   53.08
   2   3  -9  427.95   39.60
  -2   3   9  603.80   82.14
  -2   3   9  663.90  100.11
  -2  -3   9  630.03   75.99
  -2  -3   9  568.98   61.60
   2  -3  -9  549.06   79.67
   2   3 -10  857.29   57.27
   2   3 -10  881.13  111.75
   2   3 -10  647.73   60.96
  -2   3  10  897.73  121.33
  -2  -3  10  986.76   97.59
  -2  -3  10  977.45   75.31
   2  -3 -10 1052.19  111.99
   2  -3 -10  894.34   85.12
   2  -3 -11  368.04   70.83
   2   3 -11  381.68   68.71
   2   3 -11  257.18   45.85
  -2   3  11  306.51   71.70
  -2   3  11  459.22   85.54
  -2  -3  11  441.21   69.66
  -2  -3  11  344.52   52.22
   2  -3 -11  327.91   70.34
  -2   3  12 4741.03  328.11
  -2   3  12 4684.89  327.26
   2   3 -12 4468.74  291.87
   2   3 -12 3490.27  221.87
  -2  -3  12 4584.86  278.57
  -2  -3  12 4041.42  193.10
   2  -3 -12 4419.52  335.73
   2  -3 -12 4073.48  235.52
   2   3 -13  -17.78   52.75
   2   3 -13   40.17   35.42
   2   3 -13  -10.03   27.21
  -2   3  13   22.76   53.91
  -2   3  13   31.15   60.72
  -2  -3  13   24.17   62.72
  -2  -3  13   -3.82   38.87
   2  -3 -13  113.88   70.11
   2  -3 -13    8.23   45.46
   2   3 -14 5612.66  333.44
   2   3 -14 5197.11  285.42
   2   3 -14 5841.70  230.47
  -2   3  14 7001.23  446.34
  -2   3  14 5984.96  439.91
  -2  -3  14 7132.68  443.49
  -2  -3  14 5442.67  265.89
   2  -3 -14 6249.30  439.90
   2  -3 -14 5972.89  324.96
  -2  -3  15  475.52   84.58
  -2  -3  15  359.02   48.05
   2   3 -15  394.63   79.00
   2   3 -15  196.67   41.91
  -2   3  15  339.87   72.45
  -2   3  15  297.60   74.50
   2  -3 -15  477.14   91.41
   2  -3 -15  333.47   80.78
  -2  -3  16 4740.31  344.01
  -2   3  16 3626.22  345.71
  -2   3  16 4370.94  311.31
   2   3 -16 4295.13  297.82
   2   3 -16 3395.18  227.73
  -2  -3  16 3401.13  184.82
   2  -3 -16 4179.94  326.30
   2  -3 -16 3858.68  233.99
   2   3 -17  214.08   45.59
   2   3 -17  234.04   54.73
  -2   3  17  178.02   63.80
  -2   3  17  287.31   92.54
  -2  -3  17  402.40   93.90
   2  -3 -17  291.92   84.39
   2  -3 -17  217.40   81.67
  -2   3  18 1843.34  184.15
   2   3 -18 1827.92  197.46
   2   3 -18 1540.47  113.27
  -2   3  18 1941.16  180.41
  -2  -3  18 2134.05  218.40
   2  -3 -18 2139.80  235.33
   2  -3 -18 1604.53  161.09
   2   3 -19  237.72   81.78
   2  -3 -19  215.16   73.58
   2   3 -19  217.16   48.78
  -2   3  19  192.89   86.44
  -2   3  19  194.78   84.29
  -2  -3  19  254.61  100.09
   2   3 -20   -5.21   58.28
   2   3 -20   30.62   40.08
  -2   3  20  101.04   70.68
  -2  -3  20   25.57   89.69
   2  -3 -20   -8.06   77.26
   2  -3 -20  -24.14   70.46
  -2  -3  21  -25.38   83.89
   2  -3 -21   53.90   71.17
   2  -3 -21  -55.17   78.80
  -2   3  21  -69.84   60.01
   2   3 -21    8.82   64.07
  -2   3  21  151.08   85.13
   2   3 -22  545.10   92.39
  -2   3  22  601.87  118.78
  -2   3  22  496.30   83.54
  -2  -3  22  606.18  122.04
   2  -3 -22  719.02  147.78
   2  -3 -22  506.44   90.77
   2   3 -23  -32.91   59.23
  -2   3  23  -28.74   58.84
  -2   3  23  -82.16   59.18
  -2  -3  23  -18.30   59.00
   2  -3 -23  -12.98   58.41
   2  -3 -23   51.70   59.56
   2   3 -24 2056.09  215.37
  -2   3  24 2032.71  239.54
  -2   3  24 1685.98  202.50
  -2  -3  24 2029.44  227.37
   2  -3 -24 1748.07  221.85
   2  -3 -24 2071.33  207.88
   2   3 -25  -32.47   67.75
  -2   3  25  151.72   89.91
  -2   3  25  100.18   65.27
  -2  -3  25   91.05   71.09
   2  -3 -25   52.56   76.24
   2  -3 -25   45.64   74.78
   2   3 -26 1043.33  150.81
  -2   3  26  778.07  141.65
  -2   3  26  836.48  122.58
  -2  -3  26 1124.22  157.32
   2  -3 -26 1034.97  169.19
   2  -3 -26 1003.67  136.63
  -2   3  27  216.89   97.77
  -2  -3  27  195.30   96.74
   2  -3 -27  156.34  100.02
   2   4  -1   28.49   37.60
   2   4  -1   41.10   54.42
  -2   4   1   34.11   50.19
  -2   4   1   -3.24   61.90
  -2  -4   1   29.90   29.04
   2  -4  -1   42.86   52.89
  -2  -4   1 -101.90   72.34
  -2   4   2  -30.87   34.32
  -2  -4   2  -71.21   34.28
  -2  -4   2   27.48   34.14
   2  -4  -2  -68.14   34.47
   2   4  -2  -74.44   34.17
   2   4  -2   -1.16   34.43
  -2   4   2   39.29   34.70
   2   4  -3  126.69   40.43
  -2   4   3   41.64   53.65
  -2   4   3   16.88   67.81
  -2  -4   3  147.93   82.89
   2  -4  -3  174.84   73.94
   2   4  -3  132.63   37.14
  -2   4   4 1354.80  137.30
  -2   4   4 1266.71  126.94
  -2  -4   4 1135.96  119.68
   2  -4  -4 1404.80  159.68
   2   4  -4 1458.57  116.00
   2   4  -4 1299.24  112.26
   2  -4  -4  946.34   79.83
   2   4  -5  268.09   65.83
   2   4  -5  257.36   74.66
  -2   4   5  265.41   69.33
  -2  -4   5  172.97   75.25
   2  -4  -5  139.69   35.72
   2  -4  -5  196.54   75.61
   2   4  -6 2837.02  203.09
   2   4  -6 3530.85  216.02
  -2   4   6 3263.46  269.16
  -2   4   6 3052.54  233.28
  -2  -4   6 2792.38  198.63
   2  -4  -6 3249.61  272.42
   2  -4  -6 2593.31  176.15
   2   4  -7   92.40   56.89
   2   4  -7   96.09   59.33
  -2   4   7  119.32   65.80
  -2   4   7   63.22   64.00
  -2  -4   7   86.92   66.16
   2  -4  -7   70.94   77.36
   2  -4  -7   47.08   33.08
   2   4  -8 4537.69  301.77
   2   4  -8 5156.65  295.57
  -2   4   8 4838.19  361.24
  -2   4   8 4652.56  345.01
  -2  -4   8 4140.39  251.02
   2  -4  -8 4635.66  367.51
   2  -4  -8 3785.51  270.11
   2   4  -9  482.02   84.94
  -2   4   9  409.52   91.36
  -2   4   9  358.89   99.93
  -2  -4   9  401.41   68.37
   2  -4  -9  411.00   97.16
   2  -4  -9  364.39   60.06
   2   4 -10 3130.96  205.45
   2   4 -10 3522.67  238.59
  -2   4  10 3202.26  281.26
  -2   4  10 2778.11  259.00
  -2  -4  10 2681.79  190.96
   2  -4 -10 2984.58  274.57
   2  -4 -10 2667.65  162.80
   2   4 -11  117.92   68.03
  -2   4  11   73.32   65.35
  -2   4  11  -42.57   82.85
  -2  -4  11   10.33   46.40
   2  -4 -11   45.19   70.63
   2  -4 -11   85.31   50.54
   2   4 -12  791.48   95.99
  -2   4  12  677.11  116.85
   2  -4 -12  553.03   83.45
  -2  -4  12  612.86   85.18
   2  -4 -12  785.29  136.74
  -2   4  12  763.39  122.46
  -2  -4  12  786.65  135.03
  -2   4  13  411.96  107.13
  -2   4  13  566.50  115.24
  -2  -4  13  463.54  106.97
  -2  -4  13  280.58   59.22
   2  -4 -13  329.02   71.44
   2  -4 -13  480.93  110.10
   2   4 -13  521.05   84.05
   2   4 -14  281.43   80.73
  -2   4  14  111.43   81.01
  -2  -4  14  188.76   80.04
   2  -4 -14   72.32   75.14
   2  -4 -14   94.12   68.44
  -2   4  14  217.94   85.25
   2   4 -15  -11.61   70.53
  -2   4  15   60.64   77.37
  -2   4  15   17.60   66.89
   2  -4 -15  -13.84   72.88
   2  -4 -15   13.05   48.26
  -2  -4  15   25.89   68.07
   2   4 -16  488.49   87.68
  -2   4  16  523.87  111.47
   2  -4 -16  689.18  122.73
   2  -4 -16  480.55   89.46
  -2   4  16  460.68  114.80
  -2  -4  16  541.77  103.65
   2   4 -17   81.97   72.15
  -2   4  17   68.44   75.14
   2  -4 -17   26.52   78.00
   2  -4 -17   26.08   64.50
  -2   4  17   42.26   69.67
  -2  -4  17   89.11   80.70
  -2   4  18 1141.64  154.39
  -2   4  18 1171.48  155.10
  -2  -4  18 1194.69  156.50
   2  -4 -18 1179.43  156.20
   2  -4 -18  900.26  125.70
   2   4 -18 1219.81  144.52
   2   4 -19  -67.96   71.46
  -2   4  19   21.73   71.81
  -2  -4  19  -51.22   72.20
   2  -4 -19   10.88   71.46
   2  -4 -19    3.33   73.81
   2   4 -20 1808.00  191.40
  -2   4  20 1720.07  199.17
  -2   4  20 1470.78  174.89
  -2  -4  20 1694.95  184.57
   2  -4 -20 1611.45  215.18
   2  -4 -20 1735.25  179.32
   2   4 -21  316.90   96.96
  -2   4  21  273.19   87.92
  -2   4  21  401.65  104.69
  -2  -4  21  276.68   89.63
   2  -4 -21  235.02  111.80
   2  -4 -21  204.35   88.75
   2   4 -22  900.40  138.37
  -2  -4  22  794.20  132.52
   2  -4 -22 1067.45  166.84
   2  -4 -22  975.48  134.78
  -2   4  22  741.39  138.40
  -2   4  22  760.10  122.43
   2   5  -1  670.03  132.30
  -2   5   1  356.08   93.68
  -2  -5   1  292.38  112.86
   2  -5  -1  542.33   94.03
   2   5  -2 1594.96  192.14
  -2   5   2 1331.85  146.03
  -2  -5   2 1128.77  157.88
   2  -5  -2 1465.87  169.49
   2   5  -3  212.67  102.06
  -2   5   3   65.19   58.37
  -2   5   3    8.94   77.53
  -2  -5   3   76.86   84.09
   2  -5  -3  174.27   70.41
   2   5  -4 3246.21  239.10
  -2   5   4 1937.37  191.91
  -2   5   4 2121.72  182.67
  -2  -5   4 2131.96  195.07
   2  -5  -4 2505.93  230.43
   2   5  -5  186.45   82.22
  -2   5   5  184.06   66.16
  -2   5   5   80.27   71.88
  -2  -5   5  194.85   90.56
   2  -5  -5  259.08   92.71
   2   5  -6  262.26   89.54
  -2   5   6  296.93   74.74
  -2   5   6   46.15   86.89
  -2  -5   6  298.99   91.48
   2  -5  -6  357.10   85.06
   2   5  -7    5.62   62.42
  -2   5   7  -44.71   55.92
  -2   5   7  133.90   73.08
  -2  -5   7   28.68   70.64
   2  -5  -7  -51.65   72.55
   2   5  -8   49.62   62.26
  -2   5   8   72.51   65.95
  -2   5   8   69.69   79.47
  -2  -5   8  137.98   74.83
   2  -5  -8   39.61   78.65
   2   5  -9   67.16   63.03
  -2   5   9  -16.41   57.02
  -2   5   9   59.87   74.30
  -2  -5   9   47.24   58.68
   2  -5  -9  -26.12   63.70
   2   5 -10  381.16   92.43
  -2   5  10  170.77   70.54
  -2   5  10  330.19   88.53
  -2  -5  10  252.64   69.74
   2  -5 -10  187.34   94.35
   2   5 -11   62.08   54.49
   2   5 -11   62.47   70.81
  -2   5  11   27.21   54.79
  -2   5  11  -30.20   63.05
   2  -5 -11   37.23   74.59
   2   5 -12  723.45  104.72
   2   5 -12 1047.13  143.28
  -2   5  12  976.43  133.97
  -2   5  12 1108.91  125.09
   2  -5 -12  910.75  136.64
   2   5 -13  -40.88   61.99
   2   5 -13  -52.80   63.55
  -2   5  13  -31.08   63.83
  -2   5  13   -3.36   62.53
   2  -5 -13   47.42   62.49
  -2   5  14  536.64  112.46
  -2   5  14  503.26  116.92
   2  -5 -14  745.87  133.47
   1   0  -1 4237.39  186.08
  -1   0   1 4217.70  185.78
   1   0  -1 4295.30  214.39
   1   0  -1 3934.66  171.20
   1   0  -1 4059.14  176.47
   1   0  -1 4250.38  207.52
  -1   0   1 4786.94  238.70
  -1   0   1 4193.04  196.93
   1   0  -2    7.59   13.00
   1   0  -2   15.12   13.10
   1   0  -2   36.00   15.35
   1   0  -2   27.86   11.83
   1   0  -2    5.35   14.59
  -1   0   2   27.95   16.21
  -1   0   2   35.22   17.10
  -1   0   2   29.48   14.02
  -1   0   2   16.76   12.62
  -1   0   2   -8.00   11.09
   1   0  -373354.69 2483.36
   1   0  -371995.97 2500.55
   1   0  -371951.40 2561.92
  -1   0   381507.09 2656.57
  -1   0   376849.53 2478.40
  -1   0   369591.15 2479.27
  -1   0   377708.12 2596.15
   1   0  -4    6.91   15.43
   1   0  -4   -4.34   19.01
   1   0  -4  -12.42   15.63
   1   0  -4    5.42   16.33
   1   0  -4   -8.06   13.98
  -1   0   4    3.05   15.46
  -1   0   4    8.06   19.69
  -1   0   4   -1.21   13.39
  -1   0   4   10.28   20.71
  -1   0   4   12.25   19.98
   1   0  -587549.17 2736.55
   1   0  -582197.98 2924.82
  -1   0   582585.39 2899.86
  -1   0   573031.93 2588.58
  -1   0   582877.78 2825.81
   1   0  -6  -21.30   20.10
   1   0  -6    5.27   19.07
   1   0  -6   -3.30   19.24
   1   0  -6   -7.29   19.16
   1   0  -6   -3.07   19.58
  -1   0   6   -8.35   19.99
  -1   0   6  -12.53   19.08
  -1   0   6    7.19   19.08
  -1   0   6  -18.27   18.83
   1   0  -720259.53  832.22
   1   0  -720597.04  837.12
   1   0  -717610.16  744.66
   1   0  -716105.75  654.08
   1   0  -723612.74 1122.05
   1   0  -719440.50  815.65
  -1   0   719150.23  776.61
  -1   0   716773.46  642.73
  -1   0   719459.42  841.09
   1   0  -8   -1.49   21.97
   1   0  -8  -25.86   21.61
   1   0  -8   -7.78   21.05
   1   0  -8    1.80   21.27
   1   0  -8  -48.21   21.20
   1   0  -8  -23.09   21.35
   1   0  -8  -20.00   21.38
  -1   0   8  -46.01   21.04
  -1   0   8   -9.28   21.05
  -1   0   8  -15.88   20.82
   1   0  -913542.65  578.22
   1   0  -912740.83  618.80
   1   0  -915581.46  764.22
   1   0  -914147.83  642.79
   1   0  -913755.28  606.87
  -1   0   912976.75  563.42
  -1   0   910855.38  507.03
  -1   0   912831.51  613.30
   1   0 -10   11.07   24.29
   1   0 -10   23.75   22.52
   1   0 -10   18.46   21.39
   1   0 -10  -13.85   38.02
   1   0 -10   12.54   31.36
   1   0 -10   14.28   22.72
  -1   0  10  -12.88   18.61
  -1   0  10    4.76   13.27
  -1   0  10   20.03   25.38
   1   0 -11 8672.39  425.25
   1   0 -11 7758.89  466.36
   1   0 -1110825.70  578.23
   1   0 -11 9457.77  474.63
   1   0 -11 7821.70  509.25
  -1   0  11 9162.28  421.29
  -1   0  11 7380.34  350.87
  -1   0  11 8326.08  425.96
  -1   0  11 8177.70  385.64
   1   0 -12   -2.28   28.99
   1   0 -12   -6.05   28.47
   1   0 -12   16.31   28.26
   1   0 -12   -4.32   28.45
  -1   0  12  -45.41   28.34
  -1   0  12  -11.28   28.38
  -1   0  12   -6.19   28.44
   1   0 -1322265.94 1024.16
   1   0 -1319580.27  819.72
   1   0 -1321051.12  998.61
  -1   0  1317011.32  694.69
  -1   0  1317669.67  776.98
   1   0 -14  -16.05   28.32
  -1   0  14   -7.84   28.56
   1   0 -14   -4.46   29.05
   1   0 -14    6.56   28.61
  -1   0  14   -7.01   28.69
  -1   0  14    3.40   28.70
  -1   0  15 5217.88  247.07
   1   0 -15 6393.38  335.08
   1   0 -15 7037.88  425.32
   1   0 -15 6030.21  416.62
  -1   0  15 5207.85  253.85
   1   0 -16    6.29   33.49
   1   0 -16  -30.10   32.59
   1   0 -16   33.13   33.06
  -1   0  16  -26.31   33.01
  -1   0  16   -3.57   33.41
  -1   0  16   -3.44   33.55
   1   0 -1714570.46  862.00
   1   0 -1717428.88  965.01
   1   0 -1715253.50  834.40
  -1   0  1717018.97  858.68
   1   0 -18   21.80   38.84
   1   0 -18  -29.48   37.72
   1   0 -18   20.25   38.41
  -1   0  18  -24.91   38.34
  -1   0  18   -5.68   39.16
  -1   0  19 3604.71  174.45
   1   0 -19 4553.29  283.42
   1   0 -19 5448.67  367.91
   1   0 -19 4736.37  357.96
  -1   0  19 3531.62  177.65
   1   0 -20   -5.93   41.08
   1   0 -20  -24.04   39.78
   1   0 -20   -2.03   40.66
  -1   0  20   49.72   40.54
   1   0 -21 2525.77  176.33
   1   0 -21 2479.10  179.40
   1   0 -21 2038.48  180.76
  -1   0  21 2110.50   99.02
   1   0 -22  -39.88   46.92
   1   0 -22   32.66   45.34
   1   0 -22   16.78   46.49
  -1   0  22   29.58   46.28
   1   0 -23 2051.79  149.21
   1   0 -23 1942.79  181.42
   1   0 -23 2150.11  171.15
  -1   0  23 2701.87  256.14
   1   0 -24  -12.55   51.82
   1   0 -24  -41.20   49.98
   1   0 -24  -46.43   51.38
  -1   0  24  -89.87   51.04
   1   0 -25 1249.09  118.07
   1   0 -25 1543.98  154.28
   1   0 -25 1118.88  123.20
  -1   0  25 1673.24  207.98
   1   0 -26  -80.50   52.88
   1   0 -26  -55.62   50.95
   1   0 -26   26.31   52.48
  -1   0  26  -91.37   52.01
   1   0 -27 1923.07  192.15
   1   0 -27 1914.65  224.30
   1   0 -27 2166.78  209.98
  -1   0  27 2537.42  274.32
   1   0 -28   43.62   65.00
   1   0 -28    5.16   62.59
   1   0 -28   -3.21   64.59
  -1   0  28 -187.32   63.84
   1   0 -29 1357.49  149.70
   1   0 -29 1517.58  166.69
   1   0 -29 1172.52  132.76
  -1   0  29 1463.58  227.08
   1   0 -30  -19.81   66.25
   1   0 -30   -0.85   63.86
   1   0 -30   20.88   65.94
  -1   0  30  -92.17   64.98
   1   0 -31  504.60  106.96
   1   0 -31  533.80   97.69
   1   0 -31  476.87  104.36
  -1   0  31  527.43  140.13
   1   0 -32   -6.37   66.83
   1   0 -32 -100.62   69.00
   1   1  -110825.47  537.73
   1   1  -111869.71  587.66
   1   1  -110373.23  407.04
   1   1  -1 9300.14  418.64
  -1   1   111907.97  435.74
  -1   1   111827.09  496.27
  -1   1   112725.75  516.77
  -1   1   111876.04  493.85
  -1   1   112219.38  537.46
  -1  -1   111963.81  514.25
  -1  -1   112830.75  622.47
   1  -1  -110726.79  430.96
   1  -1  -110457.15  415.14
   1  -1  -110975.55  471.68
   1  -1  -112134.24  494.14
   1   1  -216485.59  743.37
   1   1  -214885.07  592.69
   1   1  -216596.70  761.12
   1   1  -213666.20  500.88
   1   1  -212620.98  508.23
  -1   1   213723.11  521.81
  -1   1   214045.79  564.40
  -1   1   216050.57  700.87
  -1   1   217314.12  672.93
  -1   1   217516.64  703.24
  -1   1   216629.34  652.03
  -1  -1   218300.09  771.39
  -1  -1   215125.63  568.63
  -1  -1   216732.88  678.06
  -1  -1   214161.80  514.85
   1  -1  -214189.80  535.91
   1  -1  -214545.45  529.86
   1  -1  -216296.25  611.52
   1  -1  -216028.81  613.67
   1   1  -322614.65  852.74
   1   1  -328786.96 1012.36
   1   1  -324934.57  952.64
  -1  -1   330712.37 1160.67
   1   1  -325052.11 1059.42
   1   1  -323275.35  840.93
   1   1  -323485.66  872.25
  -1   1   326726.64  967.21
  -1   1   329272.41 1047.04
  -1   1   327995.91 1066.05
  -1   1   329868.48 1146.63
  -1  -1   324357.02  905.79
  -1  -1   329889.78 1141.36
   1  -1  -325279.92  848.11
   1  -1  -324567.56  892.45
   1  -1  -326492.73 1022.58
   1  -1  -326603.88 1079.96
   1  -1  -327070.13  906.36
   1  -1  -4 1862.33   96.86
   1   1  -4 1917.54  149.67
   1   1  -4 1778.95   95.85
   1   1  -4 1927.36  122.99
   1   1  -4 1682.84   92.55
   1   1  -4 1555.50   82.85
  -1   1   4 1751.64  112.58
  -1   1   4 1902.00  126.88
  -1   1   4 2106.95  150.16
  -1   1   4 1867.39  138.62
  -1  -1   4 2024.40  147.58
  -1  -1   4 1749.19   98.32
  -1  -1   4 2090.43  129.59
  -1  -1   4 1698.49   95.65
   1  -1  -4 1659.91   76.46
   1  -1  -4 2150.90  115.45
   1  -1  -4 1739.45  153.12
   1  -1  -4 1855.26  131.33
   1   1  -5  153.77   28.63
   1   1  -5  139.71   21.49
  -1   1   5  161.08   33.84
  -1  -1   5  168.36   26.69
   1  -1  -5  139.19   18.67
   1   1  -5  166.89   31.64
   1   1  -5  116.48   24.73
   1   1  -5  104.15   20.05
  -1   1   5   93.49   14.19
  -1   1   5  102.97   28.00
  -1   1   5  102.36   25.49
  -1   1   5  169.07   37.93
  -1  -1   5   92.11   24.46
  -1  -1   5  109.07   16.10
  -1  -1   5  137.05   22.41
   1  -1  -5  158.70   34.51
   1  -1  -5  133.43   25.30
   1  -1  -5  131.74   26.85
  -1  -1   6   33.54   15.33
   1  -1  -6   60.88   23.99
   1   1  -6   -0.29   25.28
   1   1  -6   43.91   21.25
   1   1  -6   71.97   24.19
   1   1  -6   45.03   17.21
   1   1  -6   40.65   16.89
   1   1  -6   24.37   15.54
  -1   1   6   57.18   14.99
  -1   1   6   48.91   22.99
  -1   1   6   53.14   24.32
  -1   1   6   35.60   17.59
  -1  -1   6   26.17   25.96
  -1  -1   6   41.23   20.43
   1  -1  -6   53.36   14.44
   1  -1  -6   56.95   21.90
   1  -1  -6   58.80   22.85
   1   1  -725097.44  992.75
  -1   1   726061.55 1111.77
   1   1  -727066.65 1204.63
   1   1  -728361.34 1198.22
   1   1  -726345.62  951.05
   1   1  -726841.40  921.41
   1   1  -725802.49  983.74
  -1   1   727519.16 1078.33
  -1   1   725650.31 1047.31
  -1   1   727794.66 1146.91
  -1  -1   725048.36  944.28
  -1  -1   728580.12 1102.71
  -1  -1   723309.17 1015.12
   1  -1  -727200.66  944.75
   1  -1  -725831.76  983.80
   1  -1  -725102.69  937.36
   1  -1  -728421.60 1223.11
   1  -1  -725909.88 1111.74
   1  -1  -724270.10 1029.81
   1   1  -8  696.49   78.60
   1   1  -8  711.13   73.76
   1   1  -8  706.60   59.88
   1   1  -8  756.35   51.60
   1   1  -8  762.94   63.78
   1   1  -8  684.79   58.07
   1   1  -8  781.25   70.49
  -1   1   8  770.90   70.67
  -1   1   8  684.86   61.25
  -1   1   8  572.26   66.24
  -1   1   8  682.01   98.00
  -1  -1   8  825.93   63.70
  -1  -1   8  589.47   69.81
   1  -1  -8  785.72   65.03
   1  -1  -8  708.65   56.24
   1  -1  -8  593.73   47.38
   1  -1  -8  773.90   85.14
   1  -1  -8  636.06   77.03
   1  -1  -8  583.68   67.47
   1   1  -941745.05 1757.38
   1   1  -942251.86 1578.83
   1   1  -942103.14 1526.03
   1   1  -941345.10 1364.63
   1   1  -941914.75 1573.08
   1   1  -939706.66 1597.84
   1   1  -940474.90 1650.24
  -1   1   945315.04 1640.71
  -1   1   936818.34 1663.79
  -1   1   944473.99 1661.98
  -1   1   941817.67 1685.69
  -1  -1   936050.82 1391.36
  -1  -1   943502.12 1565.06
  -1  -1   939672.67 1646.91
   1  -1  -944728.08 1672.39
   1  -1  -937509.74 1561.94
   1  -1  -935705.71 1546.20
   1  -1  -948329.95 1885.69
   1  -1  -940774.94 1683.93
   1  -1  -938633.23 1443.12
   1   1 -10 1315.32  107.52
   1   1 -10 1156.18   60.24
   1   1 -10 1306.62  119.13
   1   1 -10 1309.49  108.45
   1   1 -10 1215.20  103.61
  -1   1  10 1233.99   92.89
  -1   1  10 1234.57  105.96
  -1   1  10 1152.91   98.61
  -1  -1  10 1418.63   93.88
  -1  -1  10 1333.31   79.73
  -1  -1  10 1021.17   87.53
   1  -1 -10 1217.11   90.35
   1  -1 -10 1032.34   97.31
   1  -1 -10 1568.49  145.40
   1  -1 -10 1361.60  123.72
   1   1 -1119467.82  894.40
   1   1 -1118879.68  896.98
   1   1 -1117993.10  752.17
  -1   1  1118110.82  856.98
  -1  -1  1116451.60  779.03
   1  -1 -1119617.89  813.89
   1   1 -1118654.52  883.47
   1   1 -1117589.70  599.03
  -1   1  1119664.88  867.29
  -1   1  1116310.32  825.08
   1  -1 -1119459.10  911.73
  -1  -1  1119057.17  731.71
  -1  -1  1117725.09  672.15
   1  -1 -1117359.28  808.55
   1  -1 -1121550.17  998.01
  -1  -1  12   31.44   34.10
  -1  -1  12   11.21   24.52
  -1  -1  12   32.00   12.83
   1  -1 -12   31.70   26.82
   1  -1 -12   23.99   19.70
   1  -1 -12    9.52   32.57
   1  -1 -12   13.82   39.20
   1   1 -12   53.27   39.03
   1   1 -12   41.67    8.97
   1   1 -12   40.41   35.66
   1   1 -12   55.83   25.44
   1   1 -12   32.36   23.14
  -1   1  12   39.85   28.43
  -1   1  12   30.29   24.20
   1   1 -1311463.38  556.56
   1   1 -1311467.07  586.79
   1   1 -1311101.92  543.20
   1   1 -13 9577.50  465.42
  -1   1  1311087.35  624.09
  -1   1  1310876.22  543.03
  -1   1  1310107.55  540.37
   1  -1 -1312221.29  552.53
   1  -1 -13 9315.99  514.67
   1  -1 -1312085.96  721.13
   1  -1 -1311956.21  687.68
  -1   1  14  346.03   55.12
   1  -1 -14  237.96   51.31
  -1  -1  14  500.46   61.07
   1   1 -14  439.49   55.50
   1   1 -14  499.57   66.28
   1   1 -14  382.31   57.09
  -1   1  14  344.47   62.27
  -1   1  14  442.79   60.26
   1  -1 -14  512.76   58.79
   1  -1 -14  489.16   77.74
   1  -1 -14  521.10   68.47
  -1   1  15  538.07   85.06
   1   1 -15  573.44   72.39
   1  -1 -15  515.72   57.67
  -1   1  15  429.10   52.22
  -1   1  15  416.82   62.89
   1  -1 -15  628.35   96.30
   1   1 -15  540.98   78.09
   1   1 -15  389.55   53.45
  -1  -1  15  567.04   65.38
   1  -1 -15  319.91   58.52
   1  -1 -15  570.71   85.98
   1  -1 -16   -7.71   38.62
   1  -1 -16    9.34   38.50
   1   1 -16    5.46   39.03
   1   1 -16    8.09   38.70
   1   1 -16  -27.73   38.91
  -1   1  16    6.82   38.47
  -1   1  16  -10.83   38.44
  -1   1  16   -3.12   38.84
  -1  -1  16  -31.04   38.69
   1  -1 -16   -9.62   39.96
   1  -1 -16   42.72   37.73
   1   1 -17  581.54   85.61
   1   1 -17  545.42   70.11
   1   1 -17  488.73   63.60
  -1   1  17  527.10   75.68
  -1   1  17  527.83   57.18
  -1  -1  17  706.56   89.38
   1  -1 -17  534.60   57.68
   1  -1 -17  599.65   93.61
   1  -1 -17  750.17   99.46
   1   1 -18 1037.17  110.86
   1   1 -18  865.58   93.40
   1   1 -18  795.62   99.44
  -1   1  18  967.99  126.55
  -1   1  18  811.74   77.81
  -1  -1  18 1095.00  125.85
   1  -1 -18  882.66   79.56
   1  -1 -18  993.76  123.36
   1  -1 -18 1009.20  135.72
   1  -1 -19 3903.25  321.87
   1  -1 -19 4047.07  315.38
   1   1 -19 4227.39  304.54
   1   1 -19 3934.69  265.58
   1   1 -19 3927.30  266.98
  -1   1  19 4554.91  362.37
  -1   1  19 3572.07  251.80
  -1  -1  19 4688.19  328.08
   1  -1 -19 4120.12  248.91
   1   1 -20  473.13   85.77
   1   1 -20  458.53   79.92
   1   1 -20  430.75   73.78
  -1   1  20  482.62  102.15
  -1   1  20  397.42   60.84
  -1  -1  20  677.44   96.87
   1  -1 -20  478.56   61.88
   1  -1 -20  422.15   88.46
   1  -1 -20  465.16   88.06
   1   1 -21 6410.77  387.19
   1   1 -21 7049.47  447.44
   1   1 -21 6800.88  413.05
  -1   1  21 5830.75  325.37
  -1  -1  21 7576.08  502.95
   1  -1 -21 6318.40  369.32
   1  -1 -21 5969.40  435.98
   1  -1 -21 7509.96  477.75
   1   1 -22  146.31   64.10
   1   1 -22   66.78   61.23
   1   1 -22   92.17   53.88
  -1   1  22    6.78   70.06
  -1   1  22   85.19   38.31
  -1  -1  22  148.95   71.22
   1  -1 -22   -4.34   45.87
   1  -1 -22   76.88   74.01
   1  -1 -22   79.77   69.04
   1   1 -23 5583.97  323.89
   1   1 -23 4549.05  354.92
   1   1 -23 4828.29  344.53
  -1   1  23 5764.39  467.70
  -1   1  23 4245.65  269.80
  -1  -1  23 5488.86  432.48
   1  -1 -23 4311.43  273.70
   1  -1 -23 4553.47  339.08
   1  -1 -23 5107.07  373.12
   1   1 -24   30.50   61.29
   1   1 -24  -13.66   61.18
   1   1 -24   73.39   60.04
  -1   1  24   37.89   40.46
  -1  -1  24   98.91   83.97
   1  -1 -24  -10.05   41.39
   1  -1 -24   41.42   76.91
   1  -1 -24   73.33   66.86
   1   1 -25 1647.67  166.99
   1   1 -25 1640.60  176.12
   1   1 -25 1712.00  174.58
  -1   1  25 1908.98  246.78
   1  -1 -25 1664.00  134.08
   1  -1 -25 1603.44  177.76
   1  -1 -25 1784.11  202.73
   1   1 -26   -2.65   68.97
   1   1 -26   36.71   65.39
   1   1 -26    6.16   62.30
  -1  -1  26  -12.75   79.60
   1  -1 -26   58.07   49.52
   1  -1 -26   87.77   67.09
   1  -1 -26   94.41   67.49
   1   1 -27   41.02   71.94
   1   1 -27   94.09   79.98
   1   1 -27  114.86   72.44
  -1   1  27  125.75   93.04
   1  -1 -27   83.39   47.03
   1  -1 -27   48.53   71.26
   1  -1 -27   88.33   58.30
   1   1 -28   51.04   67.91
   1   1 -28   48.76   77.86
   1   1 -28   60.47   59.09
   1  -1 -28   28.13   46.94
   1  -1 -28   74.90   65.61
  -1  -1  29   58.86   88.33
   1   1 -29  237.87   69.05
   1   1 -29   15.76   78.51
   1   1 -29  181.41   70.12
   1  -1 -29   92.24   78.18
   1   1 -30   22.46   78.93
   1   1 -30   42.12   63.28
   1  -1 -30  -18.76   72.47
   1   1 -30  -33.36   59.94
  -1   1  30   54.42   89.16
  -1  -1  30    5.22   92.28
   1  -1 -30   65.30   80.51
   1   1 -31  204.85   87.57
   1   1 -31  252.15   86.41
  -1   1  31  157.91   91.45
  -1  -1  31  102.56   96.47
   1  -1 -31  204.92   96.88
   1  -1 -31  190.31   76.17
   1   2  -111360.54  516.54
   1   2  -111562.95  635.80
   1   2  -1 9538.32  488.84
   1   2  -1 9750.77  514.99
   1   2  -110460.01  482.08
   1   2  -111570.09  450.56
  -1   2   110046.68  424.00
  -1   2   111166.04  426.98
  -1   2   111178.58  549.69
  -1   2   111407.88  508.50
  -1  -2   111960.47  533.96
  -1  -2   110158.91  428.18
  -1  -2   1 9757.81  381.63
   1  -2  -110962.26  484.20
   1  -2  -111362.55  489.52
   1  -2  -112566.27  539.55
   1  -2  -111230.99  429.52
   1   2  -2   87.09   24.50
   1   2  -2   70.68   19.45
   1   2  -2   10.43   29.05
   1   2  -2   24.04   21.92
   1   2  -2   61.25   29.68
   1   2  -2   30.60   18.86
   1   2  -2   46.76   17.24
  -1   2   2   -3.73   16.67
  -1   2   2   75.60   26.13
  -1   2   2   52.72   25.78
  -1  -2   2  115.31   36.28
  -1  -2   2   37.47   22.70
  -1  -2   2   52.60   13.19
   1  -2  -2   70.70   20.24
   1  -2  -2   45.66   18.12
   1  -2  -2   76.03   29.98
   1  -2  -2   49.18   23.21
   1  -2  -2   23.43   17.81
   1   2  -323618.24 1063.60
   1   2  -324302.91 1036.97
   1   2  -322093.88  911.08
   1   2  -321512.91  900.19
   1   2  -324503.40  879.80
  -1   2   323869.71  889.39
  -1   2   326650.41 1129.30
  -1  -2   324098.37  835.85
  -1  -2   325393.92  882.23
  -1  -2   321646.58  766.73
   1  -2  -324908.91  846.79
   1  -2  -321308.19  933.35
   1  -2  -324971.79 1004.59
   1  -2  -326669.21 1014.94
   1  -2  -325960.46 1087.68
   1  -2  -323445.94  963.59
   1   2  -4   53.04   26.74
   1   2  -4   79.47   25.24
   1   2  -4   47.33   20.32
   1   2  -4   57.23   19.06
   1   2  -4   24.33   15.59
  -1   2   4   21.68   23.13
  -1  -2   4   93.77   33.78
  -1  -2   4   76.63   34.37
  -1  -2   4   57.56   13.68
   1  -2  -4   36.55   17.26
   1  -2  -4   34.58   31.74
   1  -2  -4   11.20   30.08
   1  -2  -4   59.53   28.21
   1  -2  -4   10.05   19.09
   1   2  -518647.69  836.44
   1   2  -518497.26  891.71
   1   2  -516330.68  885.02
   1   2  -517462.83  655.75
   1   2  -517773.68  585.59
  -1   2   517616.47  721.25
  -1  -2   518738.01  769.46
  -1  -2   515847.24  663.59
   1  -2  -515747.05  714.45
   1  -2  -518286.09  893.51
   1  -2  -517958.44  792.83
   1  -2  -518788.14  754.61
   1  -2  -516307.13  733.60
   1   2  -611769.56  636.68
   1   2  -610832.46  549.94
   1   2  -611249.91  471.71
   1   2  -611045.41  476.29
  -1   2   611699.09  483.64
  -1  -2   612018.60  436.25
  -1  -2   611700.61  532.10
  -1  -2   610789.78  426.75
   1  -2  -6 9841.33  513.82
   1  -2  -611106.25  568.78
   1  -2  -612055.76  491.48
   1  -2  -610653.39  556.71
   1   2  -725807.87 1261.23
   1   2  -722375.81 1031.67
   1   2  -724210.86 1012.37
   1   2  -723791.90  950.67
   1   2  -723566.38  812.59
  -1   2   725410.44 1032.42
  -1  -2   724162.42  966.38
   1  -2  -726604.28 1154.61
   1  -2  -725123.21  995.01
   1  -2  -722333.80  940.93
   1   2  -8   28.88   34.29
   1   2  -8   10.69   16.44
   1   2  -8   23.81   20.48
   1   2  -8   18.57   19.73
   1   2  -8   13.58   18.52
   1   2  -8   37.48   13.66
  -1   2   8   39.78   37.09
  -1  -2   8   -6.82   31.11
  -1  -2   8    8.36   31.38
   1  -2  -8   22.99   29.08
   1  -2  -8   36.25   37.49
   1   2  -9  452.40   52.16
   1   2  -9  496.66   52.87
   1   2  -9  530.20   48.08
   1   2  -9  559.86   48.01
  -1   2   9  495.63   63.62
  -1   2   9  721.19   89.62
  -1  -2   9  641.23   58.23
  -1  -2   9  464.05   65.01
   1  -2  -9  468.76   68.31
   1  -2  -9  568.56   72.21
   1   2  -9  614.75   78.09
   1   2 -10  695.29   80.71
   1   2 -10  617.61   57.91
   1   2 -10  761.16   68.55
   1   2 -10  682.17   49.65
   1   2 -10  691.58   51.13
  -1   2  10  807.81   83.46
  -1   2  10  868.03   99.59
  -1  -2  10  743.37   71.72
  -1  -2  10  564.37   81.21
   1  -2 -10  782.73   89.63
   1  -2 -10  728.03   70.81
   1   2 -11  581.54   68.56
   1   2 -11  455.43   43.31
   1   2 -11  454.43   52.78
   1   2 -11  446.39   60.09
   1   2 -11  463.62   44.18
   1   2 -11  482.22   35.15
  -1   2  11  500.37   70.52
  -1   2  11  452.03   79.21
  -1  -2  11  583.01   62.08
  -1  -2  11  495.44   50.33
   1  -2 -11  564.48   80.84
   1  -2 -11  442.94   63.86
   1   2 -12   79.07   40.74
   1   2 -12    3.64   18.15
   1   2 -12   18.72   24.92
   1   2 -12   -4.20   28.67
   1   2 -12   -3.59   18.37
  -1   2  12  -63.26   44.94
  -1   2  12   -9.13   34.85
  -1  -2  12  -10.20   20.48
   1  -2 -12   -8.41   10.57
   1  -2 -12   11.42   10.40
   1  -2 -12   37.58   48.47
   1  -2 -12  -28.23   35.72
   1   2 -13 5824.03  326.30
   1   2 -13 5026.29  237.41
   1   2 -13 5705.51  308.58
   1   2 -13 5929.49  292.76
   1   2 -13 5151.80  217.65
  -1   2  13 6951.74  407.24
  -1   2  13 6252.71  403.26
  -1  -2  13 7142.56  355.27
  -1  -2  13 5752.24  292.22
   1  -2 -13 6205.73  231.97
   1  -2 -13 4719.55  210.26
   1  -2 -13 6887.62  461.15
   1  -2 -13 6373.14  370.89
   1   2 -14   22.16   49.36
   1   2 -14   54.45   17.39
   1   2 -14   95.53   33.31
   1   2 -14   72.48   34.90
   1   2 -14   95.96   27.39
  -1   2  14   79.10   52.90
  -1   2  14   84.92   47.73
  -1  -2  14   10.41   47.88
  -1  -2  14  145.78   21.44
   1  -2 -14   85.68   21.52
   1  -2 -14  101.02   64.62
   1  -2 -14   14.96   47.82
   1   2 -1513408.29  752.43
   1   2 -1512105.82  459.61
   1   2 -1511456.88  415.23
   1   2 -1512252.09  681.96
   1   2 -1512480.50  624.88
  -1   2  1514446.07  670.36
  -1   2  1513340.68  731.77
  -1  -2  1514664.24  636.72
   1  -2 -1512768.39  478.54
   1  -2 -1513547.41  728.94
   1  -2 -1513676.49  773.23
   1   2 -16   81.97   58.54
   1   2 -16   55.24   39.64
  -1   2  16  108.64   61.45
  -1   2  16   61.50   44.45
  -1  -2  16   63.78   55.90
   1  -2 -16   12.91   21.45
   1  -2 -16   27.15   58.76
   1  -2 -16  -46.96   50.99
   1   2 -16   78.94   43.88
   1   2 -17 9938.82  586.90
   1   2 -17 9435.81  523.68
   1   2 -17 9889.62  516.69
  -1   2  1711698.73  672.78
  -1   2  1710781.13  610.55
  -1  -2  1710972.07  556.25
   1  -2 -1710922.56  673.58
   1  -2 -1710619.08  708.50
   1   2 -18  140.60   58.57
   1   2 -18   87.16   54.34
   1   2 -18  138.05   46.65
  -1   2  18  146.63   61.89
  -1   2  18   -3.62   43.99
   1  -2 -18   72.99   26.27
   1  -2 -18  147.98   66.64
   1  -2 -18  150.45   64.14
   1   2 -19 1846.22  168.22
   1   2 -19 1555.64  131.40
   1   2 -19 1481.43  141.97
  -1   2  19 1697.08  151.42
  -1  -2  19 1912.85  180.17
   1  -2 -19 1989.83  179.45
   1  -2 -19 1484.52  167.30
   1   2 -20  300.09   72.23
   1   2 -20  198.23   58.79
  -1   2  20  340.36   68.73
   1  -2 -20  255.56   39.85
   1  -2 -20  241.97   89.87
   1  -2 -20  283.56   66.45
   1   2 -21  197.50   70.60
   1   2 -21  106.83   60.78
   1   2 -21   24.49   53.54
  -1   2  21  150.32   56.74
  -1  -2  21  286.17   85.03
   1  -2 -21  143.97   35.86
   1  -2 -21   56.34   68.25
   1  -2 -21  191.80   78.56
   1   2 -22   -6.46   68.38
   1   2 -22  -34.44   67.58
   1   2 -22    6.16   67.49
  -1   2  22  -65.91   66.77
  -1   2  22  -14.15   67.29
  -1  -2  22    7.21   67.89
   1  -2 -22   14.48   65.49
   1  -2 -22   78.62   67.41
  -1  -2  23   45.80   80.85
   1   2 -23   19.24   65.86
   1   2 -23   27.32   47.97
   1   2 -23   66.96   50.17
  -1   2  23  184.70   83.06
  -1   2  23   59.92   48.67
   1  -2 -23    6.95   64.90
   1  -2 -23   46.58   70.26
   1   2 -24   66.20   91.84
   1   2 -24  -53.93   90.49
   1   2 -24  -30.90   90.46
  -1   2  24  -12.36   89.29
  -1   2  24  -64.29   89.99
  -1  -2  24   78.63   91.86
   1  -2 -24    7.50   87.58
   1  -2 -24  -40.26   90.68
   1   2 -25 1187.34  163.43
   1   2 -25 1100.29  135.20
   1   2 -25  932.88  132.44
  -1   2  25 1295.66  160.49
  -1   2  25 1072.13  113.32
  -1  -2  25 1412.89  194.56
   1  -2 -25 1463.42  175.19
   1  -2 -25 1103.68  144.17
   1   2 -26  306.64  101.05
   1   2 -26  165.63   64.48
   1   2 -26  171.72   67.57
  -1   2  26  193.11   91.43
  -1  -2  26  149.02   83.11
   1  -2 -26  135.48   71.38
   1  -2 -26  149.17   90.16
   1   2 -27 1428.92  213.98
   1   2 -27 1263.34  146.02
  -1   2  27 1741.67  203.27
  -1  -2  27 1460.79  195.22
   1  -2 -27 1455.49  163.92
   1  -2 -27 1606.91  181.32
   1   2 -28  -11.40   84.21
   1   2 -28   71.51   64.61
  -1   2  28 -120.43   65.87
  -1  -2  28  122.12   83.83
   1  -2 -28    5.31   69.11
   1  -2 -28   29.04   66.70
   1   2 -29  697.81  109.75
   1   2 -29  635.83   98.62
  -1   2  29  700.49  149.02
  -1  -2  29  623.11  129.73
   1  -2 -29  570.54  123.00
   1  -2 -29  773.84  100.01
   1   2 -30   36.67   76.28
  -1  -2  30    0.90   86.71
   1   3  -110955.41  514.78
   1   3  -1 9304.07  426.42
   1   3  -112286.14  536.68
   1   3  -1 9963.43  494.11
   1   3  -111011.34  405.33
  -1   3   110899.14  493.84
  -1   3   112697.44  541.43
  -1   3   111799.22  604.79
  -1  -3   110974.10  492.54
  -1  -3   111162.54  471.81
  -1  -3   1 9800.64  381.82
   1  -3  -111055.67  453.29
   1  -3  -110246.32  429.99
   1   3  -2  726.38   70.52
   1   3  -2  681.35   64.10
   1   3  -2  729.15   75.05
   1   3  -2  542.30   77.04
   1   3  -2  798.08   44.56
  -1   3   2  735.10   60.87
  -1   3   2  671.54   54.76
  -1   3   2  803.39   68.12
  -1   3   2  794.77   93.55
  -1  -3   2  733.37   82.22
  -1  -3   2  752.58   64.95
  -1  -3   2  776.92   42.27
   1  -3  -2  808.12   84.60
   1  -3  -2  768.15   66.30
   1  -3  -2  583.45   51.66
   1   3  -3  489.12   50.15
   1   3  -3  497.56   62.17
   1   3  -3  441.60   56.79
   1   3  -3  518.27   32.33
  -1   3   3  443.80   38.15
  -1   3   3  527.45   55.01
  -1  -3   3  588.02   83.60
  -1  -3   3  501.36   47.64
  -1  -3   3  476.87   29.54
   1  -3  -3  557.01   73.86
   1  -3  -3  428.30   51.25
   1  -3  -3  384.24   41.96
   1   3  -4  426.86   55.06
   1   3  -4  377.03   43.56
   1   3  -4  211.26   37.31
  -1   3   4  356.81   21.39
  -1   3   4  329.69   22.25
  -1   3   4  410.21   51.36
  -1  -3   4  351.20   63.22
  -1  -3   4  326.77   42.09
   1  -3  -4  337.01   65.16
   1  -3  -4  306.50   45.21
   1  -3  -4  277.84   34.09
   1   3  -5 2017.52  144.38
   1   3  -5 1790.51  112.41
   1   3  -5 1774.61  130.89
   1   3  -5 1568.62  120.11
  -1   3   5 2084.88  127.63
  -1  -3   5 1783.81  157.32
   1  -3  -5 2299.91  188.03
   1  -3  -5 1855.32  164.90
   1  -3  -5 1511.85  110.50
   1   3  -6  180.26   40.72
   1   3  -6  101.31   32.91
   1   3  -6   61.15   23.97
  -1   3   6   57.16   34.47
  -1   3   6   72.79   54.02
  -1  -3   6  148.25   50.50
   1  -3  -6  115.04   57.24
   1   3  -7 1641.59  109.22
   1   3  -7 1412.09   86.57
  -1   3   7 1689.04  108.44
  -1  -3   7 1533.42  117.13
   1  -3  -7 1874.59  157.16
   1  -3  -7 1749.66  105.22
   1   3  -7 1824.74  130.78
  -1  -3   7 1860.74  136.99
  -1   3   7 1564.25  157.15
   1   3  -8  510.24   60.51
   1   3  -8  506.55   61.94
   1   3  -8  347.42   37.93
  -1   3   8  508.68   97.41
  -1  -3   8  546.69   68.31
  -1  -3   8  496.13   59.17
   1  -3  -8  495.77   60.59
   1  -3  -8  481.00   77.71
  -1   3   8  511.26   66.22
   1   3  -9 8619.56  389.46
  -1   3   9 7974.98  391.38
  -1   3   9 8462.50  590.63
  -1  -3   9 9627.45  458.34
   1  -3  -9 9011.32  504.92
   1   3  -9 9084.57  437.94
  -1  -3   9 7718.98  386.27
   1  -3  -9 8141.32  359.13
   1   3 -10 2471.90  202.22
   1   3 -10 2075.08  154.78
  -1   3  10 2583.71  182.65
  -1   3  10 2627.82  230.46
   1  -3 -10 2365.84  198.73
   1  -3 -10 2107.57  178.79
  -1  -3  10 2242.64  150.96
   1   3 -1114294.83  666.48
   1   3 -1112316.12  588.73
  -1   3  1113798.41  649.18
  -1   3  1113091.16  743.36
  -1  -3  1114686.79  683.83
  -1  -3  1111355.44  520.79
   1  -3 -1113152.09  762.26
   1  -3 -1111664.80  613.30
   1   3 -12   -1.61   48.53
   1   3 -12   -6.20   47.93
  -1   3  12   12.77   48.51
  -1   3  12   30.36   47.61
  -1  -3  12  -35.17   48.53
   1  -3 -12   19.55   46.76
   1  -3 -12  -16.90   48.87
   1   3 -13 6257.78  383.11
   1   3 -13 6354.85  353.00
  -1   3  13 6814.69  428.13
  -1   3  13 6541.18  381.87
  -1  -3  13 5899.69  325.59
   1  -3 -13 6874.85  464.16
   1  -3 -13 5957.31  419.82
   1   3 -14  411.65   58.66
  -1   3  14  283.02   77.77
  -1   3  14  418.34   85.43
  -1  -3  14  416.32   77.48
   1  -3 -14  465.32   83.99
   1  -3 -14  382.19   64.00
   1   3 -14  535.54   86.70
   1   3 -15  -58.80   52.45
   1   3 -15   18.46   26.37
   1   3 -15   43.53   48.28
  -1   3  15   27.19   56.14
  -1   3  15   52.38   66.63
  -1  -3  15    9.76   61.96
   1  -3 -15    2.49   72.96
   1  -3 -15  -21.60   41.37
   1   3 -16   84.84   56.32
   1   3 -16    4.54   45.42
  -1   3  16    0.36   66.89
  -1  -3  16  122.07   73.44
  -1   3  16   76.99   64.32
   1  -3 -16   17.63   58.12
   1  -3 -16  -24.45   80.55
   1   3 -17  241.18   67.49
   1   3 -17  216.92   58.74
  -1   3  17  452.93   92.66
  -1  -3  17  403.68   99.42
   1  -3 -17  357.33  101.59
   1  -3 -17  264.94   90.91
   1   3 -18   95.14   78.58
   1   3 -18   45.54   45.98
  -1   3  18  127.12   63.89
  -1   3  18  181.79   87.72
  -1  -3  18  261.81   92.36
   1  -3 -18    2.72   82.22
   1  -3 -18  121.24   63.64
   1   3 -19 2654.47  223.15
   1   3 -19 2227.99  173.11
  -1   3  19 2443.18  250.46
  -1   3  19 2730.27  233.88
  -1  -3  19 3017.66  275.60
   1  -3 -19 2354.10  207.02
   1  -3 -19 2633.21  243.76
   1   3 -20  -51.59   70.20
   1   3 -20   22.50   69.60
  -1   3  20  -19.63   69.70
  -1   3  20   17.25   69.72
   1  -3 -20   19.36   68.99
   1  -3 -20  -51.93   69.77
   1   3 -21 2988.36  259.94
   1   3 -21 2349.62  192.75
  -1   3  21 2792.96  279.89
  -1   3  21 2707.40  230.99
   1  -3 -21 2816.91  256.14
   1  -3 -21 2950.56  218.96
   1   3 -22   63.40   51.16
  -1   3  22   12.18   62.23
  -1  -3  22  120.27   86.83
   1  -3 -22  -14.10   82.96
   1  -3 -22   61.81   80.31
   1   3 -22   -9.71   67.15
   1   3 -23  947.61  132.55
   1   3 -23  742.16   98.28
  -1   3  23 1145.38  152.09
  -1   3  23  886.20  112.63
  -1  -3  23 1131.90  156.22
   1  -3 -23  730.84  103.85
   1  -3 -23  915.16  168.72
   1   3 -24  235.30   81.60
   1   3 -24  122.51   54.63
  -1   3  24  202.34   78.63
  -1   3  24  182.82   64.50
  -1  -3  24  285.49   95.54
   1  -3 -24  309.53   96.70
   1  -3 -24  230.55   88.89
   1   3 -25  573.79  110.95
   1   3 -25  410.51   77.58
  -1   3  25  417.95   83.34
  -1  -3  25  622.24  122.66
   1  -3 -25  623.52  125.10
   1  -3 -25  361.40   95.96
   1   3 -26   34.65   69.74
  -1   3  26    5.20   69.09
   1  -3 -26   87.86   67.85
   1  -3 -26  -63.78   69.52
  -1   3  26 -103.64   68.52
   1   3 -27  247.07  105.75
  -1   3  27  184.98   98.40
  -1  -3  27   58.68   87.79
   1  -3 -27  130.28   81.22
   1  -3 -27  114.81   83.00
   1  -4  -1 5317.31  297.39
   1   4  -1 4181.47  236.46
   1   4  -1 4707.47  270.10
  -1   4   1 4263.32  204.21
  -1   4   1 5356.33  298.45
  -1   4   1 4475.33  270.70
  -1  -4   1 4264.22  277.94
  -1  -4   1 4651.54  262.40
   1   4  -2  400.07   68.19
   1   4  -2  518.67   93.84
  -1   4   2  403.41   73.49
  -1   4   2  475.49   96.97
  -1  -4   2  448.82   96.88
  -1  -4   2  636.40   83.41
   1  -4  -2  641.16   96.15
   1   4  -3 4098.54  234.31
   1   4  -3 4430.05  273.21
  -1   4   3 4922.47  303.36
  -1   4   3 4379.35  331.94
  -1  -4   3 4051.00  253.74
  -1  -4   3 3888.07  237.40
   1  -4  -3 4660.84  299.28
   1  -4  -3 3634.84  182.41
   1   4  -4  550.68   89.26
   1   4  -4  588.10  105.70
  -1   4   4  662.03   76.73
  -1   4   4  560.34  102.58
  -1  -4   4  555.97   82.63
   1  -4  -4  598.90   96.47
   1  -4  -4  446.22   57.65
   1   4  -5 5478.97  285.87
   1   4  -5 5890.82  276.02
   1   4  -5 5617.06  305.82
  -1   4   5 5455.09  314.10
  -1   4   5 6041.37  358.90
  -1  -4   5 5327.45  320.12
   1  -4  -5 5834.75  361.85
   1  -4  -5 4835.93  248.14
   1   4  -6  526.04   76.93
   1   4  -6  353.93   62.75
  -1   4   6  383.80   70.09
  -1   4   6  331.38   97.86
  -1  -4   6  585.99   83.45
   1  -4  -6  506.25   88.59
   1  -4  -6  384.52   58.09
   1   4  -7 2204.80  149.80
   1   4  -7 2710.78  174.91
   1   4  -7 2057.99  150.62
  -1   4   7 2383.61  193.34
  -1   4   7 2250.27  195.08
  -1  -4   7 1967.86  157.42
   1  -4  -7 2170.66  201.23
   1  -4  -7 1999.41  125.42
   1   4  -8   64.65   62.12
   1   4  -8   85.68   57.84
  -1   4   8   90.74   55.90
  -1   4   8  176.32   79.49
  -1  -4   8  108.70   52.12
   1  -4  -8  147.38   64.02
   1  -4  -8   54.08   36.27
  -1   4   9  641.86  111.13
   1   4  -9  670.52   93.08
   1   4  -9  735.50   93.64
   1   4  -9  608.55   74.04
  -1   4   9  791.11  109.58
  -1  -4   9  523.27   70.23
   1  -4  -9  772.14  103.61
   1  -4  -9  536.11   58.94
   1   4 -10 1356.21  143.72
   1   4 -10 1358.69  132.23
   1   4 -10 1098.62  106.52
  -1   4  10 1121.70  132.01
  -1   4  10 1341.62  148.18
  -1  -4  10 1169.13  126.13
   1  -4 -10 1306.11  146.16
   1  -4 -10 1175.16   99.04
  -1   4  11   47.83   64.94
   1   4 -11   92.93   64.66
   1   4 -11  -27.84   64.49
  -1   4  11  -61.43   63.87
  -1  -4  11  -22.44   64.77
   1  -4 -11   65.39   63.12
   1  -4 -11  -59.78   66.49
   1   4 -12  672.74   99.14
   1   4 -12  468.79   61.72
  -1   4  12  516.09   93.66
  -1   4  12  563.36  105.02
  -1  -4  12  617.61  104.73
   1  -4 -12  676.87  106.95
   1  -4 -12  372.39   62.39
   1   4 -13 2176.27  189.00
   1   4 -13 1856.63  116.92
  -1   4  13 2172.99  223.00
  -1   4  13 2246.01  202.97
  -1  -4  13 2294.01  215.38
   1  -4 -13 1790.43  205.77
   1  -4 -13 1953.35  146.39
   1   4 -14  549.97  101.11
  -1   4  14  468.65   94.23
  -1   4  14  610.07  122.78
   1  -4 -14  422.25  107.61
   1  -4 -14  438.23   77.07
   1   4 -15 3998.09  258.42
  -1   4  15 3887.74  305.56
  -1   4  15 4236.79  290.04
  -1  -4  15 4094.42  313.24
   1  -4 -15 3711.17  313.43
   1  -4 -15 3407.59  243.96
   1   4 -16  228.66   81.47
  -1   4  16  187.04   84.27
  -1   4  16  227.71   91.84
  -1  -4  16   44.98   73.25
   1  -4 -16  252.88   94.51
   1  -4 -16  181.24   64.78
   1   4 -17 1780.19  188.74
  -1   4  17 2041.35  238.27
  -1   4  17 2028.58  195.37
  -1  -4  17 2130.42  190.08
   1  -4 -17 2378.95  231.82
   1  -4 -17 1778.07  172.04
   1   4 -18  159.07   74.80
  -1   4  18  292.54   89.18
  -1   4  18   73.70   70.97
  -1  -4  18  226.76   86.89
   1  -4 -18  125.93   78.56
   1  -4 -18   52.11   71.07
   1   4 -19  722.34  111.04
  -1   4  19  633.62  125.09
  -1   4  19  521.00  105.92
   1  -4 -19  765.13  135.67
   1  -4 -19  696.89  109.04
   1   4 -20  131.01   72.62
  -1   4  20   26.07   67.45
  -1   4  20   77.92   78.36
  -1  -4  20  158.77   81.02
   1  -4 -20  118.51   77.79
   1  -4 -20  160.39   78.77
   1   4 -21  -10.83   74.17
  -1   4  21  -32.55   74.45
  -1   4  21  -45.61   74.24
  -1  -4  21    3.71   74.76
   1  -4 -21  -58.72   75.20
   1  -4 -21  -47.14   75.06
   1   4 -22   60.77   77.22
  -1   4  22   64.49   72.09
  -1   4  22   58.73   67.12
  -1  -4  22   24.38   66.87
   1  -4 -22   56.70   78.39
   1  -4 -22   65.18   69.93
   1   5  -1 1157.04  130.59
  -1   5   1 1065.77  128.19
  -1   5   1 1008.27  124.99
  -1  -5   1  810.51  138.75
   1  -5  -1 1063.62  128.30
   1   5  -2   80.15   74.03
  -1   5   2   64.05   54.12
  -1   5   2  -47.72   90.10
  -1  -5   2   44.21   78.69
   1  -5  -2  190.94   72.48
   1   5  -3   63.57   70.64
  -1   5   3   20.74   55.44
  -1   5   3   35.88   75.64
  -1  -5   3   24.03   79.29
   1  -5  -3  128.89   58.98
   1   5  -4  125.73   68.34
  -1   5   4   11.74   49.27
  -1   5   4   15.94   78.38
  -1  -5   4  -19.16   64.89
   1  -5  -4   32.47   61.44
   1   5  -5   31.44   66.96
  -1   5   5   31.50   55.21
  -1   5   5   17.50   88.30
  -1  -5   5   -5.80   53.23
   1  -5  -5   23.40   59.03
   1   5  -6  -10.26   69.97
  -1   5   6   -8.22   70.34
  -1   5   6   11.66   70.64
  -1  -5   6   24.91   70.60
   1  -5  -6  -50.13   69.73
   1   5  -7  983.23  133.26
  -1   5   7 1011.24  128.45
  -1   5   7  931.47  126.72
   1  -5  -7  859.84  119.88
   1   5  -8   25.65   74.21
   1   5  -8   61.12   56.80
  -1   5   8   69.59   65.11
  -1   5   8   48.33   88.22
   1  -5  -8  111.66   77.37
   1   5  -9 2257.90  188.49
   1   5  -9 1565.71  119.80
  -1   5   9 1945.84  199.30
  -1   5   9 1984.81  167.72
   1  -5  -9 1446.61  177.82
   1   5 -10  360.60   79.38
  -1   5  10  397.64   88.64
  -1   5  10  293.67  104.53
   1  -5 -10  354.34  100.26
   1   5 -11  896.18  114.23
   1   5 -11 1408.48  153.79
  -1   5  11  973.00  144.29
  -1   5  11 1149.67  145.00
   1  -5 -11 1342.58  179.04
   1   5 -12  187.53   66.77
   1   5 -12  441.88   89.12
  -1   5  12  297.30   86.81
  -1   5  12  298.81  111.00
   1  -5 -12  334.39   87.61
   1  -5 -13  354.04   99.52
   1   5 -13  328.94   80.07
   1   5 -13  339.95   71.39
  -1   5  13  366.82   93.83
  -1   5  13  382.19  103.49
   1   5 -14  236.35   72.01
  -1   5  14  283.46   91.96
  -1   5  14  239.11  101.75
   1  -5 -14  332.46  102.87
   1   5 -15  366.82   87.14
  -1   5  15  358.94   89.21
  -1   5  15  439.08  104.29
   1  -5 -15  382.82   99.58
   0   0   217156.77  559.21
   0   0  -217114.47  590.12
   0   0   215256.00  630.98
   0   0   215023.34  546.75
   0   0   215163.68  615.98
   0   0  -215810.53  558.85
   0   0  -216559.96  611.94
   0   0  -216141.21  542.35
   0   0   216245.04  538.76
   0   0  -3   15.51    7.40
   0   0  -3   27.82   14.26
   0   0  -3   14.47    9.08
   0   0   3   35.75   10.86
   0   0   3   15.94   13.77
   0   0   3   24.54    6.64
   0   0   3   21.46   12.96
   0   0   3   20.73   10.65
   0   0  -3   19.25   11.72
   0   0  -4 2328.68  125.95
   0   0   4 2663.02  150.97
   0   0   4 2308.88  112.23
   0   0   4 2642.54  125.50
   0   0   4 2583.13  151.58
   0   0   4 2794.90  142.42
   0   0  -4 2802.93  148.60
   0   0  -4 2818.72  117.18
   0   0  -4 3029.71  151.25
   0   0  -4 2716.75  122.52
   0   0   5   -6.23   16.63
   0   0   5    6.68   16.28
   0   0  -5   15.01   14.87
   0   0  -5   -4.07    9.00
   0   0  -5   23.30   22.80
   0   0   5   -5.61   16.12
   0   0  -5   -6.25   13.70
   0   0   5    7.07   18.11
   0   0   5   53.58   11.41
   0   0   6 1020.04   92.27
   0   0   6 1014.30   68.84
   0   0   6 1109.24   61.90
   0   0   6 1172.27   87.25
   0   0   6 1090.91   90.19
   0   0  -6 1065.24   81.21
   0   0  -6 1095.73   78.37
   0   0  -6 1179.00   87.72
   0   0  -6 1063.10   73.34
   0   0  -6  993.98   51.49
   0   0   7    1.99   19.08
   0   0   7   -4.98   17.28
   0   0  -7   36.47   20.76
   0   0   7    2.38   23.19
   0   0   7    7.11   11.44
   0   0   7  -21.79   22.36
   0   0  -7   23.31   19.39
   0   0  -7  -33.05   21.75
   0   0  -7    3.44   11.89
   0   0  -7  -13.51   18.63
   0   0  -814123.60  679.80
   0   0  -815564.67  653.64
   0   0   812731.19  712.94
   0   0   813018.06  555.58
   0   0   813422.40  489.63
   0   0   814029.57  627.49
   0   0  -814437.10  607.03
   0   0   814407.12  610.29
   0   0  -812977.11  627.83
   0   0   9  -19.67   21.10
   0   0   9  -10.77   21.40
   0   0   9  -10.46   21.21
   0   0   9  -15.00   21.98
   0   0   9  -24.76   20.94
   0   0   9   31.32   21.12
   0   0  -9   -9.36   21.15
   0   0  -9   41.20   21.06
   0   0  -9   24.87   21.10
   0   0  1021357.51 1045.76
   0   0  1021311.64  862.97
   0   0  1018287.93  743.47
   0   0  1020510.98  840.61
   0   0  1022028.98  948.95
   0   0  1021761.47  893.05
   0   0 -1021293.59  901.80
   0   0 -1020200.93  834.74
   0   0 -1023979.85  941.63
   0   0 -1021882.06 1139.66
   0   0  11   38.98   26.91
   0   0  11  -16.66   26.60
   0   0  11    6.01   26.63
   0   0  11  -12.95   27.68
   0   0  11   -8.91   26.30
   0   0  11    0.14   26.60
   0   0 -11   18.15   26.48
   0   0 -11    4.22   26.59
   0   0 -11    9.09   26.64
   0   0  1215304.68  816.68
   0   0  1213491.08  543.94
   0   0  1215923.50  677.91
   0   0 -1212838.15  691.41
   0   0 -1215817.08  827.09
   0   0  1215520.77  668.57
   0   0  1214317.53  587.82
   0   0  13  -21.75   28.35
   0   0  13  -23.09   29.05
   0   0 -13  -48.31   28.15
   0   0  13  -27.93   28.59
   0   0  13   13.60   28.27
   0   0  13   23.23   28.32
   0   0  1416506.98  751.77
   0   0 -1417290.53  890.44
   0   0  1415826.21  844.51
   0   0  1417317.37  707.78
   0   0  1414579.22  562.92
   0   0  1413820.43  586.63
   0   0  15   12.04   34.75
   0   0  15  -32.36   34.90
   0   0  15  -34.80   34.65
   0   0  15  -26.16   34.65
   0   0 -15   29.87   34.36
   0   0  15  -12.33   34.56
   0   0  16 7053.79  375.60
   0   0  16 7201.81  392.51
   0   0  16 6097.95  244.58
   0   0  16 5550.48  246.41
   0   0 -16 7502.50  498.91
   0   0  17  -27.82   35.17
   0   0 -17   49.21   34.80
   0   0  17   39.33   35.35
   0   0  17    0.87   35.34
   0   0  17  -14.03   35.12
   0   0  18  -30.41   40.40
   0   0  18   -3.32   40.27
   0   0  18  -21.94   40.27
   0   0 -18  -16.40   39.79
   0   0  18   27.23   40.52
   0   0  19   68.13   39.67
   0   0  19    0.51   15.15
   0   0  19   13.08   51.66
   0   0 -19  -54.53   52.25
   0   0  20 1685.97  129.55
   0   0 -20 1810.00  182.20
   0   0 -21  -43.66   56.90
   0   0 -21 -118.71   55.44
   0   0 -22 5232.47  321.61
   0   0 -22 6012.92  398.77
   0   0 -22 5059.24  382.24
   0   0 -23  -28.49   53.46
   0   0 -23   38.73   55.32
   0   0 -23    0.44   56.53
   0   0  24 6013.65  441.13
   0   0 -24 5112.94  299.05
   0   0 -24 4696.45  358.66
   0   0 -24 4648.44  323.56
   0   0  25   14.65   88.60
   0   0 -25  -34.13   90.52
   0   0 -25   58.06   87.38
   0   0 -25  -64.71   89.29
   0   0  26 3457.44  321.90
   0   0 -26 2742.14  248.99
   0   0 -26 2884.80  239.07
   0   0 -26 2654.51  235.38
   0   0  27   42.48   87.90
   0   0 -27   20.99   66.43
   0   0 -27    7.95   73.01
   0   0 -27   38.67   65.83
   0   0  28 1400.54  205.38
   0   0 -28 1230.56  154.23
   0   0 -28 1258.65  162.88
   0   0 -28 1398.85  154.25
   0   0  29    1.79  101.73
   0   0 -29  -58.60  104.84
   0   0 -29 -115.09  100.48
   0   0 -29   60.06  103.29
   0   0  30   43.09   99.01
   0   0 -30   49.35   62.52
   0   0 -30  129.23   83.63
   0   0 -30   39.15   60.23
   0   0  31   42.08   97.34
   0   0 -31   -8.65   74.18
   0   0 -31   28.87   70.20
   0   0 -31    7.88   67.75
   0   0  32  228.43  111.83
   0   0 -32  419.14   99.19
   0   0 -32  271.83   71.76
   0   0 -32  288.73  102.19
   0   1   0   13.66   10.17
   0   1   0  -25.84   15.05
   0   1   0    4.84   18.29
   0   1   0  -29.52   12.69
   0   1   0    5.19    8.60
   0  -1   0   -9.67   17.85
   0   1   0    7.82   12.43
   0   1   0   12.43   18.09
   0  -1   0    3.41   15.51
   0  -1   0   40.94   11.57
   0  -1  -1 5815.45  279.33
   0  -1   1 4970.29  210.28
   0  -1   1 4981.66  228.96
   0  -1   1 5124.00  186.53
   0   1   1 5521.74  220.19
   0   1   1 4964.27  239.33
   0   1   1 5633.38  271.75
   0   1   1 5716.06  256.67
   0   1   1 5649.11  232.60
   0   1  -1 5913.87  256.79
   0   1  -1 5563.39  316.38
   0   1  -1 5137.77  212.57
   0  -1  -1 5011.29  213.57
   0  -1  -1 5044.46  235.32
   0  -1  -1 5470.68  228.06
   0  -1   1 6336.44  297.72
   0  -1   1 5558.05  250.58
   0   1   221669.94  820.54
   0  -1   221546.22  845.86
   0  -1   220368.80  778.48
   0  -1   219095.28  687.34
   0   1   217570.38  641.86
   0   1   219194.45  663.05
   0   1   221142.55  829.47
   0   1   220147.82  745.79
   0   1  -221257.24  752.83
   0   1  -218245.37  709.22
   0   1  -221814.17  815.38
   0   1  -218746.02  724.59
   0  -1  -221328.15  812.21
   0  -1  -219407.11  728.74
   0  -1  -220922.77  768.11
   0   1   315387.57  620.40
   0   1   316985.36  763.91
   0   1  -315901.19  595.20
   0   1   316722.73  761.64
   0   1   318393.61  754.83
   0   1  -318714.45  680.79
   0   1  -318273.15  732.96
   0   1  -317390.75  614.96
   0   1  -318719.90  555.21
   0  -1  -314951.49  745.37
   0  -1  -318227.16  745.15
   0  -1  -318015.39  706.35
   0  -1  -316016.02  710.96
   0  -1   317132.88  665.36
   0   1  -496936.38 3090.46
   0   1  -486764.21 2936.41
   0   1   479708.59 2896.81
   0   1   495567.93 3515.64
   0   1   491838.19 3239.53
   0   1   488299.91 3327.86
   0   1  -499999.00 3147.11
   0   1  -483755.70 2906.53
   0  -1  -485688.78 3009.76
   0  -1  -488477.56 3132.53
   0  -1  -493167.04 3178.53
   0  -1  -485839.50 3248.50
   0  -1   492047.85 3184.80
   0  -1   492417.75 3130.25
   0   1   5 5899.22  288.24
   0   1  -5 6818.97  318.96
   0   1  -5 6285.52  265.39
   0   1  -5 6636.92  252.44
   0  -1  -5 6366.34  297.32
   0  -1  -5 6852.07  344.25
   0  -1  -5 7210.23  349.29
   0  -1  -5 6251.78  315.60
   0  -1   5 7020.77  328.38
   0  -1   5 6571.66  322.56
   0   1   5 6336.23  316.32
   0   1  -5 6281.09  281.13
   0   1   5 6995.06  361.45
   0   1  -5 6447.06  284.45
   0   1  -5 7350.17  282.93
   0   1   5 5828.57  238.22
   0   1   635325.08 1239.04
   0   1   632826.38 1354.08
   0   1   634745.02 1569.46
   0   1   640500.97 1546.57
   0   1   637501.18 1385.60
   0   1  -637749.53 1513.61
   0   1  -635631.79 1272.39
   0   1  -637443.93 1323.29
   0   1  -636568.67 1322.29
   0   1  -633027.31 1302.22
   0   1  -635599.10 1228.94
   0  -1  -631649.49 1355.86
   0  -1  -635253.43 1528.25
   0  -1  -637539.46 1420.36
   0  -1  -635805.66 1328.70
   0  -1   636976.70 1445.33
   0  -1   635845.28 1224.25
   0  -1   636994.18 1280.21
   0  -1   632784.71 1271.23
   0   1   7  814.52   48.53
   0   1   7  750.79   74.41
   0   1   7  752.85   71.07
   0   1   7  712.70   80.59
   0   1   7  815.95   74.44
   0   1  -7  864.44   83.94
   0   1  -7  878.20   59.43
   0   1  -7  906.79   56.43
   0   1  -7  937.89   67.64
   0   1  -7  748.65   58.42
   0   1  -7  762.12   50.42
   0  -1  -7  583.53   50.84
   0  -1  -7  931.17   85.72
   0  -1  -7  685.55   60.10
   0  -1   7  791.27   65.26
   0  -1   7  662.50   52.05
   0  -1   7  754.20   49.97
   0  -1   7  697.30   57.20
   0   1   810803.80  458.60
   0   1   8 9336.12  492.85
   0   1   810119.34  539.98
   0   1   810957.46  576.05
   0   1   810905.73  557.02
   0   1  -811281.67  565.93
   0   1  -811016.71  471.70
   0   1  -810120.24  389.71
   0   1  -812438.55  436.08
   0   1  -811777.71  514.93
   0   1  -811400.31  521.29
   0  -1  -8 9504.10  462.83
   0  -1  -811220.89  607.50
   0  -1  -812294.88  624.26
   0  -1  -8 9921.93  595.61
   0  -1   811827.08  549.46
   0  -1   811263.82  416.05
   0  -1   810022.94  480.89
   0  -1   9  -14.55   25.65
   0   1   9   21.48   15.52
   0   1   9   -2.47   28.57
   0   1   9   15.72   23.04
   0   1   9    3.41   23.39
   0   1   9   -3.20   32.89
   0   1  -9    5.44   20.69
   0   1  -9   10.85    7.83
   0   1  -9   30.08   30.44
   0   1  -9    1.37   16.31
   0  -1  -9   13.70   15.08
   0  -1  -9    3.63   19.88
   0  -1  -9   11.17   25.63
   0  -1  -9    8.69   33.94
   0  -1  -9    7.57   18.15
   0  -1   9   32.27   30.98
   0  -1   9    9.48   17.44
   0   1  10 6807.84  328.36
   0   1  10 7049.42  380.21
   0   1  10 6676.34  344.71
   0   1  10 7712.45  485.61
   0   1 -10 7249.08  331.34
   0   1 -10 8248.73  400.92
   0   1 -10 7369.30  397.51
   0  -1 -10 6420.35  334.84
   0  -1 -10 7845.52  416.20
   0  -1 -10 7886.22  517.79
   0  -1  10 7911.57  448.71
   0  -1  10 6649.23  393.80
   0  -1  10 7325.42  365.77
   0   1  11  255.82   45.35
   0   1  11  342.83   48.29
   0   1  11  292.03   38.31
   0   1  11  380.33   60.80
   0   1 -11  313.06   37.15
   0   1 -11  384.65   56.96
   0   1 -11  273.43   38.92
   0  -1 -11  321.34   44.09
   0  -1 -11  432.14   62.22
   0  -1  11  372.26   46.79
   0  -1  11  357.85   44.60
   0  -1 -11  386.54   64.14
   0  -1  11  390.54   61.46
   0  -1  11  318.57   38.79
   0   1  12   29.17   39.81
   0   1  12   37.37   21.81
   0   1  12   11.64   35.50
   0   1 -12  116.92   38.67
   0   1 -12   44.59   19.54
   0  -1 -12   96.90   45.12
   0  -1  12  143.59   39.98
   0  -1  12   83.56   33.72
   0  -1  12   52.12   27.07
   0   1  12   57.47   22.09
   0  -1 -12   40.66   19.90
   0  -1 -12   65.20   32.13
   0   1  13 1149.71  112.72
   0   1  13  935.04   72.90
   0   1  13 1256.61  126.04
   0  -1 -13 1012.28  101.14
   0  -1 -13 1670.17  156.45
   0  -1  13 1604.56  159.02
   0  -1  13 1461.02  108.22
   0   1 -13 1426.13  114.57
   0   1 -13 1100.31   56.76
   0  -1 -13 1311.11  111.05
   0   1  14 4537.63  308.90
   0   1 -14 5199.31  324.12
   0  -1 -14 3899.14  265.84
   0  -1 -14 4380.32  289.08
   0  -1 -14 5579.34  396.78
   0  -1  14 5245.56  300.29
   0  -1  14 5063.17  256.29
   0   1  14 4344.70  255.44
   0   1  14 4732.20  279.75
   0   1  14 3825.37  209.69
   0  -1 -15   18.10   22.28
   0   1  15   84.53   30.58
   0   1  15  117.00   42.25
   0   1  15   72.02   28.90
   0   1  15   53.29   46.12
   0   1 -15   50.76   41.04
   0   1 -15   82.69   38.98
   0  -1 -15   29.28   25.16
   0  -1 -15   42.08   49.15
   0  -1  15   83.31   41.30
   0  -1  15   58.56   45.41
   0   1 -16 7200.57  442.29
   0  -1 -16 7693.31  503.85
   0  -1  16 6936.36  435.93
   0  -1  16 7446.53  379.33
   0   1  16 7565.68  437.02
   0   1  16 6500.54  415.33
   0   1 -16 6637.91  388.62
   0   1  17   64.65   52.01
   0   1  17   -1.37   24.57
   0   1  17    6.15   22.97
   0   1  17   44.39   48.56
   0   1 -17   17.47   46.63
   0   1 -17   64.80   46.51
   0  -1 -17   50.81   34.41
   0  -1 -17   57.19   63.48
   0  -1  17   43.65   47.06
   0  -1  17   47.35   53.57
   0   1  1815349.57  862.99
   0   1  1813633.87  681.69
   0   1  1814482.13  740.73
   0   1 -1814152.15  715.37
   0   1 -1815322.02  818.77
   0  -1 -1814082.16  580.58
   0  -1 -1816602.72  946.52
   0  -1  1813934.93  678.49
   0  -1  1815833.90  691.76
   0   1  19  278.89   72.02
   0   1  19  233.46   40.76
   0   1 -19  249.81   59.09
   0   1 -19  234.26   48.18
   0  -1 -19  101.87   42.89
   0  -1 -19  192.27   70.77
   0  -1  19  190.22   50.99
   0  -1  19  296.71   74.29
   0   1  20 4026.37  238.65
   0   1  20 4579.87  321.13
   0   1 -20 4589.93  285.36
   0   1 -20 4124.00  318.76
   0  -1 -20 4991.21  350.13
   0   1 -20 4510.30  323.27
   0  -1 -20 4187.71  232.75
   0   1  20 4615.14  318.36
   0  -1  20 4976.34  340.60
   0   1 -21  -15.98   46.21
   0   1 -21  255.36  146.42
   0  -1 -21   60.57   75.13
   0  -1  21  -44.59   65.93
   0   1  21   -4.24   29.85
   0   1  21   83.19   67.26
   0   1 -21   28.42   50.54
   0   1  22 2620.70  229.28
   0   1  22 2299.23  159.53
   0   1  22 2896.69  246.35
   0   1 -22 2798.22  211.50
   0   1 -22 2595.00  208.66
   0   1 -22 2608.57  225.11
   0  -1 -22 2459.57  178.23
   0  -1 -22 2611.31  242.21
   0  -1  22 3165.08  286.40
   0   1  23   10.88   72.13
   0   1  23  -31.27   72.73
   0   1 -23  -35.95   74.54
   0   1 -23  -38.74   73.30
   0   1 -23   26.53   73.31
   0  -1 -23  -42.35   74.68
   0  -1 -23  -47.54   70.58
   0  -1  23  -30.57   75.42
   0   1  24  -49.31   72.55
   0   1  24  -15.04   73.14
   0   1 -24   20.84   75.19
   0   1 -24   -3.11   73.73
   0  -1 -24   44.75   75.27
   0  -1 -24   35.80   71.11
   0  -1 -24  -30.03   74.25
   0  -1  24  -11.02   76.05
   0   1  25   83.52   76.43
   0   1 -25  -45.51   61.66
   0   1 -25   -5.48   62.61
   0   1 -25    4.85   57.46
   0  -1 -25   70.38   43.45
   0  -1 -25  -14.57   77.36
   0  -1 -25  123.13   76.16
   0  -1  25  -64.63   82.67
   0   1  26  594.72  144.29
   0   1 -26  646.41  110.98
   0   1 -26  495.20   84.39
   0   1 -26  516.38  100.69
   0  -1 -26  551.67   84.62
   0  -1 -26  653.30  105.78
   0  -1 -26  711.58  103.87
   0  -1  26  538.36  134.30
   0   1 -27   21.44   63.07
   0   1 -27   27.25   61.33
   0   1 -27  -91.01   61.81
   0  -1 -27  -25.24   62.95
   0  -1 -27   67.23   59.49
   0  -1 -27   25.10   62.25
   0  -1  27   82.66   63.52
   0   1 -28 2060.70  191.40
   0   1 -28 1940.12  230.37
   0   1 -28 1489.14  172.33
   0  -1 -28 1652.95  149.11
   0  -1 -28 1962.68  206.59
   0  -1 -28 1875.06  177.75
   0  -1  28 2358.18  269.84
   0   1  28 2189.64  262.39
   0   1 -29  -13.48   70.19
   0  -1 -29  -24.78   69.31
   0   1 -29  -97.20   67.91
   0   1 -29  -12.76   68.73
   0  -1 -29  -67.22   69.88
   0  -1 -29   -7.27   66.25
   0   1  30 1302.96  178.22
   0   1 -30 1143.16  150.57
   0   1 -30 1256.09  162.09
   0   1 -30  922.49  150.24
   0  -1 -30 1289.03  172.67
   0  -1 -30 1215.53  171.14
   0   1  31    5.58   98.37
   0   1 -31  -16.36  103.14
   0   1 -31  -90.83   99.32
   0   1 -31   17.40  101.02
   0  -1 -31   31.29   97.50
   0   2   024820.39  961.04
   0   2   021306.94  835.61
   0   2   023121.32  809.63
   0   2   022667.31 1061.72
   0   2   023863.81 1029.69
   0   2   025818.10  826.37
   0  -2   023902.09 1055.00
   0  -2   021361.55  899.18
   0  -2   022586.87  822.03
   0   2   1 1558.56  106.05
   0   2   1 1582.05  130.18
   0   2   1 1478.87   96.42
   0   2   1 1835.55  104.03
   0   2   1 1444.44  123.12
   0   2   1 1641.75  126.18
   0   2   1 1691.45   93.16
   0   2  -1 2048.11  136.42
   0   2  -1 1801.91  125.70
   0   2  -1 1621.43   89.37
   0   2  -1 1741.21   95.72
   0   2  -1 1740.90  126.51
   0   2  -1 1719.59  107.34
   0  -2  -1 1730.60  162.58
   0  -2  -1 1750.72  119.68
   0  -2  -1 1614.07   86.43
   0  -2   1 1738.34  113.35
   0  -2   1 1662.41  101.24
   0  -2   1 1597.76   71.33
   0   2   228677.34 1074.85
   0   2   225864.03 1069.41
   0   2   228879.46 1122.40
   0   2   227665.70 1474.70
   0   2   229813.99 1222.40
   0   2   231349.53 1084.53
   0   2  -231996.04 1245.15
   0   2  -231497.18 1277.57
   0   2  -226932.14 1057.70
   0   2  -229524.15 1018.65
   0   2  -229148.20 1273.59
   0   2  -228515.36 1126.59
   0  -2  -226732.36 1116.92
   0  -2  -232209.66 1585.45
   0  -2  -228704.85 1159.09
   0  -2  -229866.05 1166.86
   0  -2   230977.94 1195.85
   0  -2   228555.61 1060.10
   0  -2   231748.18  944.31
   0   2   3 3889.04  155.28
   0   2   3 3526.26  182.91
   0   2   3 3999.92  209.99
   0   2   3 4118.43  266.48
   0   2   3 4373.39  198.87
   0   2  -3 4868.12  237.06
   0   2  -3 4487.48  248.46
   0   2  -3 3786.84  201.71
   0   2  -3 4034.47  268.65
   0   2  -3 4531.47  262.80
   0  -2  -3 3825.44  217.54
   0  -2  -3 4703.83  294.53
   0  -2  -3 4000.99  229.00
   0  -2  -3 4411.62  220.71
   0  -2   3 4768.92  230.52
   0  -2   3 4225.94  211.01
   0   2   411079.11  361.16
   0   2   411652.25  521.29
   0   2   411262.87  544.54
   0   2   411710.98  496.99
   0   2  -412804.13  545.16
   0   2  -411676.22  531.84
   0   2  -410623.07  507.06
   0   2  -411139.56  466.85
   0  -2  -410969.70  486.19
   0  -2  -412177.28  584.29
   0  -2  -412535.85  588.25
   0  -2  -410626.36  514.49
   0  -2   411182.66  436.95
   0  -2   412374.60  569.60
   0  -2   411292.49  469.61
   0   2   5 5512.89  270.73
   0   2   5 4645.94  270.83
   0   2   5 5459.46  263.15
   0   2  -5 4953.31  280.55
   0   2  -5 4815.63  268.19
   0   2  -5 4356.20  269.16
   0   2  -5 4974.10  231.47
   0   2  -5 5209.59  260.81
   0  -2  -5 5250.83  315.94
   0  -2  -5 4871.38  287.68
   0  -2  -5 4574.57  271.25
   0  -2   5 5235.95  363.13
   0   2   6  996.85   80.78
   0   2   6  735.12   86.47
   0   2   6  849.64   82.06
   0   2  -6  846.86   75.85
   0   2  -6  722.22   73.17
   0   2  -6  862.19   69.67
   0  -2  -6 1086.28  109.39
   0  -2  -6  985.74  103.20
   0  -2  -6  701.67   64.43
   0  -2   6  978.07   76.66
   0  -2   6  879.95   73.68
   0   2   7 1175.44   84.24
   0   2   7 1179.59   93.60
   0   2  -7 1033.73   83.85
   0   2  -7 1001.28   87.61
   0   2  -7 1138.05   79.80
   0   2  -7 1213.65   97.50
   0  -2  -7 1249.73  143.02
   0  -2  -7 1231.59  110.30
   0  -2  -7  972.43   78.71
   0  -2   7 1110.35   85.41
   0  -2   7 1185.39   76.88
   0  -2   7 1081.70   96.65
   0   2   8 6356.09  330.72
   0   2   8 7148.78  380.65
   0   2  -8 6244.12  335.36
   0   2  -8 7193.14  343.55
   0   2  -8 6721.38  259.85
   0   2  -8 8098.51  270.88
   0  -2  -8 7111.97  493.38
   0  -2  -8 7415.94  449.00
   0  -2   8 7997.82  424.86
   0  -2   8 7603.76  328.89
   0  -2   8 6837.83  366.91
   0   2   9  827.65   75.03
   0   2   9 1006.43   95.54
   0   2  -9  697.51   64.06
   0   2  -9 1124.50   91.38
   0   2  -9  900.07   84.64
   0   2  -9  808.67   46.96
   0   2  -9 1020.29   61.53
   0  -2  -9 1072.37  103.34
   0  -2  -9  864.73  100.55
   0  -2   9 1028.01   91.29
   0  -2   9  936.47   70.62
   0  -2   9  897.28   80.10
   0   2  1013505.54  683.55
   0   2  1013362.55  652.25
   0   2 -1014660.69  650.58
   0   2 -1014330.83  649.80
   0   2 -1015197.92  707.88
   0   2 -1014700.09  559.19
   0   2 -1015241.85  547.90
   0  -2 -1015318.76  721.18
   0  -2 -1016599.54  851.98
   0  -2  1015496.10  713.04
   0  -2  1013381.81  624.99
   0   2  11   22.46   50.80
   0   2  11   37.16   36.66
   0   2 -11   62.94   20.57
   0   2 -11   80.15   22.20
   0   2 -11   86.54   37.07
   0   2 -11   88.42   24.50
   0   2 -11   65.88   22.03
   0  -2 -11   91.67    9.93
   0  -2 -11   91.54   41.51
   0  -2 -11  154.65   50.11
   0  -2  11  120.42   36.41
   0  -2  11  120.15   35.59
   0   2  1211997.30  587.43
   0   2  1211822.21  631.26
   0   2 -1211539.67  492.04
   0   2 -1210633.98  469.78
   0   2 -1212415.73  572.24
   0   2 -1211755.12  565.65
   0   2 -1211235.08  482.89
   0  -2 -1211817.83  415.08
   0  -2 -1211366.55  395.75
   0  -2 -1212101.69  734.57
   0  -2 -1212467.66  769.53
   0  -2  1212544.57  554.75
   0  -2  1213566.40  573.79
   0   2  13  180.56   59.76
   0   2  13  184.61   42.92
   0   2 -13  232.17   23.68
   0   2 -13  214.74   25.54
   0   2 -13  190.31   50.23
   0   2 -13  162.67   36.93
   0   2 -13  163.58   25.82
   0  -2 -13  201.91   25.43
   0  -2 -13  175.12   23.99
   0  -2 -13  253.55   65.57
   0  -2 -13  125.34   54.14
   0  -2  13  277.31   53.58
   0  -2  13  218.39   56.44
   0   2  1412004.67  630.64
   0   2  1412028.13  609.58
   0   2 -1410071.71  380.76
   0   2 -1412754.62  629.73
   0   2 -1411311.32  586.17
   0  -2 -1410540.04  454.93
   0  -2 -1411087.33  402.64
   0  -2 -1411556.66  630.44
   0  -2 -1413119.83  635.09
   0  -2  1411882.35  574.22
   0  -2  1412971.76  574.53
   0   2  15  612.32   95.90
   0   2  15  366.35   69.88
   0   2 -15  475.03   59.63
   0   2 -15  292.64   42.77
   0  -2 -15  353.30   37.51
   0  -2 -15  448.04   70.18
   0   2 -15  297.30   56.53
   0  -2 -15  334.18   78.23
   0   2 -16  643.13   73.40
   0   2 -16  471.37   52.83
   0  -2 -16  657.25   59.09
   0  -2 -16  588.11   92.54
   0  -2 -16  736.01  126.27
   0   2  16  753.49  103.73
   0   2  16  721.60   93.30
   0   2 -16  710.14  101.93
   0   2 -16  694.70   86.70
   0   2  17   64.04   59.70
   0   2  17    9.84   46.25
   0   2 -17  100.00   62.59
   0   2 -17   83.74   49.54
   0   2 -17   50.35   35.84
   0  -2 -17   40.76   23.00
   0  -2 -17   11.96   35.95
   0  -2 -17  -47.92   62.58
   0  -2  17   54.28   65.05
   0   2  18  109.74   57.39
   0   2 -18  168.84   62.48
   0   2 -18  130.08   49.32
   0   2 -18  158.59   44.68
   0  -2 -18  112.72   32.38
   0  -2 -18  199.24   61.57
   0   2  19   21.85   42.11
   0   2  19   78.50   73.89
   0   2 -19   83.66   67.38
   0   2 -19   87.55   52.98
   0   2 -19   97.50   43.57
   0  -2 -19    5.73   26.43
   0  -2 -19   25.91   69.16
   0  -2  19   42.49   74.12
   0   2  20 1113.47  152.99
   0   2  20 1012.02  100.56
   0   2  20 1306.06  137.25
   0   2 -20 1022.46  128.69
   0   2 -20 1006.49  114.37
   0   2 -20  987.19   93.58
   0  -2 -20  866.25   67.88
   0  -2 -20  922.30  141.84
   0  -2  20 1188.00  137.64
   0   2  21   48.49   86.48
   0   2  21  173.52   51.26
   0   2  21  165.57   76.94
   0   2 -21  161.48   88.47
   0   2 -21   34.96   60.84
   0  -2 -21   51.65   34.05
   0  -2 -21  111.19   78.46
   0  -2  21   97.85   76.50
   0   2 -21   -0.36   45.14
   0   2 -22 3949.33  269.17
   0   2 -22 3189.18  269.51
   0   2 -22 3132.30  232.72
   0  -2 -22 3398.21  323.65
   0  -2  22 3757.14  310.45
   0   2  22 3350.86  227.09
   0   2  23   54.25   85.71
   0   2  23  -71.59   86.67
   0   2 -23   -3.67   87.82
   0   2 -23   -2.02   86.36
   0   2 -23  -50.43   86.66
   0  -2 -23   52.61   83.35
   0  -2 -23   37.10   86.66
   0  -2  23  -88.20   89.02
   0  -2 -24 2966.50  241.42
   0   2  24 3143.02  292.95
   0   2  24 2722.53  219.21
   0   2 -24 3074.18  271.47
   0   2 -24 2891.21  247.63
   0   2 -24 2491.92  199.72
   0  -2 -24 3155.33  302.76
   0   2  25  580.00  116.92
   0   2  25  288.41   65.76
   0   2 -25  367.88  108.66
   0   2 -25  373.04   90.57
   0   2 -25  242.49   73.79
   0  -2 -25  344.18  103.69
   0  -2 -25  382.71   96.60
   0  -2  25  636.47  114.25
   0   2  26 2430.51  258.36
   0   2 -26 2794.69  251.72
   0   2 -26 1989.63  188.16
   0  -2 -26 2532.22  249.67
   0  -2 -26 2263.75  256.24
   0  -2  26 2201.37  238.47
   0   2  27  -10.11   73.31
   0   2 -27  -49.10   75.94
   0   2 -27  -17.52   74.26
   0  -2 -27 -100.19   71.57
   0  -2 -27  -38.47   75.05
   0  -2  27  -83.37   77.99
   0   2 -28  278.48   79.50
   0  -2 -28  260.21   93.63
   0  -2 -28  268.31   89.66
   0   2 -28  441.48   98.87
   0  -2  28  318.08  107.52
   0   2 -29   -5.98   83.52
   0   2 -29    3.09   69.73
   0  -2 -29   52.78   73.64
   0  -2 -29   97.05   79.16
   0  -2  29  -24.19   81.47
   0   2 -30   27.30   76.36
   0   2 -30  -12.34   57.81
   0  -2  30   40.93   77.00
   0   3   0  -11.67   19.71
   0   3   0    1.96   16.57
   0   3   0  -12.72   30.85
   0  -3   0  -17.40   53.56
   0  -3   0   20.64   32.63
   0  -3   0   22.78   15.98
   0  -3   0   27.18   15.11
   0   3   1  410.94   44.39
   0   3   1  284.27   44.14
   0   3   1  413.01   47.87
   0   3  -1  337.27   40.02
   0   3  -1  211.23   47.25
   0   3  -1  350.62   50.27
   0  -3  -1  390.72   59.85
   0  -3  -1  490.02   53.14
   0  -3  -1  389.48   38.72
   0  -3  -1  339.69   32.58
   0  -3   1  429.45   65.09
   0  -3   1  405.69   49.92
   0  -3   1  335.11   24.02
   0  -3   1  365.86   20.71
   0   3   2 4338.33  203.43
   0   3   2 3668.39  174.28
   0   3   2 4064.42  212.45
   0   3  -2 4446.61  249.80
   0   3  -2 3243.68  276.92
   0  -3  -2 4380.51  250.97
   0  -3  -2 3892.90  232.24
   0  -3  -2 4310.11  234.37
   0  -3  -2 3666.71  216.34
   0  -3   2 4499.84  249.16
   0  -3   2 4691.73  254.17
   0   3   3 1233.22   70.14
   0   3   3 1055.32   77.06
   0   3   3 1397.85  119.37
   0   3  -3 1392.73  123.35
   0  -3  -3 1380.64  133.05
   0  -3  -3 1513.72  117.26
   0  -3  -3 1078.27  100.96
   0  -3   3 1359.13  112.10
   0  -3   3 1674.17   97.15
   0   3   4 6973.94  244.35
   0   3   4 7285.82  379.78
   0   3  -4 7519.14  387.22
   0   3  -4 7376.78  341.75
   0  -3  -4 7348.72  446.10
   0  -3  -4 8036.57  416.62
   0  -3  -4 6241.59  326.12
   0  -3   4 7314.45  360.70
   0  -3   4 7480.39  339.61
   0   3   5  807.01   79.31
   0   3   5  747.05   70.65
   0   3  -5  621.65   79.71
   0   3  -5  820.17   67.39
   0  -3  -5  770.81   98.57
   0  -3  -5  813.49   83.67
   0  -3   5  846.37   77.84
   0  -3   5  873.44   91.09
   0   3  -613953.93  567.79
   0  -3  -612758.04  618.49
   0   3   614068.84  636.06
   0   3   612792.10  571.49
   0   3  -614081.28  628.41
   0  -3  -613002.61  734.65
   0  -3   612205.22  595.28
   0   3   7 1123.33  107.75
   0   3   7 1010.36   90.66
   0   3  -7 1054.63   90.89
   0   3  -7 1125.84   82.16
   0  -3  -7 1099.81  130.92
   0  -3  -7 1027.39  108.55
   0  -3   7 1118.03   98.39
   0  -3   7  975.51   85.68
   0  -3  -819067.41  938.06
   0  -3   821263.83  849.68
   0  -3   817498.00  746.68
   0   3   819830.22  896.83
   0   3   820088.69  916.17
   0   3  -819183.71  888.48
   0   3  -820037.89  805.92
   0  -3  -819156.17 1003.38
   0   3   9  244.07   53.70
   0   3   9  239.56   52.15
   0   3  -9  332.69   60.33
   0  -3  -9  348.49   84.16
   0   3  -9  314.97   44.66
   0  -3  -9  353.92   70.77
   0  -3   9  392.50   65.98
   0   3  10  717.24   91.46
   0   3  10  798.92   85.51
   0   3 -10  700.52   87.57
   0   3 -10  629.56   77.82
   0   3 -10  730.98   79.14
   0  -3 -10  741.17   99.20
   0  -3 -10  758.53  108.74
   0  -3  10  809.54   79.89
   0   3  11  379.01   65.24
   0   3  11  509.58   61.41
   0   3 -11  384.12   66.52
   0   3 -11  353.87   55.74
   0   3 -11  462.91   57.46
   0  -3 -11  302.24   73.21
   0  -3 -11  460.85   92.62
   0  -3  11  336.50   67.52
   0   3  12  270.27   65.93
   0   3  12  181.52   50.00
   0   3 -12  129.53   61.02
   0   3 -12  163.47   39.26
   0   3 -12  217.23   46.09
   0  -3 -12  264.77   65.81
   0  -3 -12  291.77   72.20
   0  -3  12  303.43   59.59
   0   3  13   14.49   53.50
   0   3  13  -45.09   52.32
   0   3 -13  -51.10   48.99
   0   3 -13   27.88   29.20
   0   3 -13   42.81   45.32
   0  -3 -13    8.12   52.80
   0  -3 -13   41.12   69.72
   0   3  14 1705.14  145.60
   0   3  14 1834.93  137.50
   0   3 -14 1833.64  157.65
   0   3 -14 1452.64  116.86
   0   3 -14 1646.36  140.62
   0  -3 -14 1760.93  160.80
   0  -3 -14 1635.82  183.42
   0  -3 -15   90.83   71.23
   0   3  15  -75.34   53.55
   0   3 -15  -37.94   52.21
   0   3 -15   26.14   27.01
   0   3 -15   39.28   54.09
   0  -3 -15  -10.16   50.66
   0  -3  15   26.27   52.25
   0   3  16 3838.54  281.82
   0   3  16 3701.64  237.82
   0   3 -16 3414.11  266.42
   0   3 -16 3635.10  267.54
   0  -3 -16 3577.05  246.33
   0  -3 -16 3583.76  291.16
   0  -3  16 3630.19  262.50
   0   3  17   33.27   69.02
   0   3 -17  162.35   65.15
   0   3 -17  104.16   62.51
   0  -3 -17  123.01   82.73
   0  -3  17   75.80   66.69
   0   3  18 4162.41  342.19
   0   3  18 3735.94  274.89
   0   3 -18 3532.43  262.63
   0   3 -18 3576.96  270.91
   0  -3 -18 3899.62  308.07
   0  -3  18 4393.63  286.93
   0   3  19   51.24   70.28
   0   3  19    3.77   61.96
   0   3 -19  -44.49   72.50
   0   3 -19   88.49   65.52
   0  -3 -19  165.50   91.78
   0  -3 -19   48.95   70.76
   0  -3  19   99.93   79.59
   0   3  20 2966.20  250.59
   0   3  20 2694.13  235.08
   0   3 -20 3241.81  223.99
   0   3 -20 2607.44  222.47
   0  -3 -20 3039.92  288.64
   0  -3 -20 3180.98  250.41
   0  -3  20 3174.13  256.36
   0   3  21  417.35   96.07
   0   3  21  468.93   84.81
   0   3 -21  414.76   93.05
   0   3 -21  273.38   79.42
   0  -3 -21  470.20  118.04
   0  -3 -21  334.77   91.07
   0  -3  21  418.44   95.47
   0   3  22  597.78  126.54
   0   3  22  591.70  104.81
   0   3 -22  677.40  106.42
   0   3 -22  607.26   98.46
   0  -3 -22  663.52  128.40
   0  -3 -22  508.98  107.17
   0  -3  22  553.50  107.23
   0   3 -23   74.56   69.37
   0   3 -23   -8.85   50.56
   0  -3 -23  127.60   79.04
   0  -3 -23  -17.68   61.02
   0  -3  23   57.03   74.05
   0   3  23   57.86   60.77
   0   3 -24   33.64   60.33
   0   3 -24    4.32   60.79
   0  -3 -24   13.42   83.87
   0   3  24   22.06   57.76
   0  -3 -24  101.20   84.95
   0   3 -25    1.02   53.55
   0   3 -25  -27.68   52.76
   0  -3 -25   15.85   52.26
   0  -3 -25   35.44   53.16
   0   3  25  -30.67   53.07
   0   3  26  146.51   92.43
   0   3  26  220.42   68.94
   0   3 -26  341.10   97.25
   0   3 -26  182.53   74.26
   0  -3 -26  349.33  113.97
   0  -3 -26  134.73   84.56
   0   3 -27   42.38   53.19
   0  -3 -27  -18.81   87.65
   0  -3 -27  -44.47   73.22
   0   3  27   30.32   79.42
   0   3 -27    4.76   86.92
   0   4   0 3623.83  183.80
   0   4   0 4149.10  264.43
   0  -4   0 3681.51  235.19
   0  -4   0 3876.05  246.15
   0   4   1 1149.95   79.79
   0   4   1 1469.30  140.76
   0   4  -1 1610.89  153.57
   0  -4  -1 1135.84  125.10
   0  -4  -1 1408.74  128.64
   0  -4   1 1165.79  125.44
   0  -4   1 1682.87  142.95
   0   4  -1 1068.19   85.50
   0   4   2 6041.65  334.74
   0   4  -2 5354.93  296.01
   0  -4  -2 4747.63  326.61
   0  -4  -2 5416.99  300.06
   0  -4  -2 4258.91  212.68
   0  -4   2 4628.30  312.27
   0  -4   2 5155.51  278.45
   0   4   3  120.50  108.65
   0   4  -3   78.78   42.70
   0   4  -3   69.19   64.46
   0  -4  -3  103.14   67.04
   0  -4  -3  119.51   65.55
   0  -4  -3   39.01   22.61
   0  -4   3   39.92   62.45
   0  -4   3   54.11   40.08
   0   4   4 2922.08  242.86
   0   4  -4 2843.51  184.77
   0   4  -4 3133.90  206.35
   0  -4  -4 2631.45  192.66
   0  -4  -4 2826.02  179.54
   0  -4  -4 2389.87  153.53
   0  -4   4 2521.41  197.04
   0  -4   4 2780.08  163.53
   0   4   5  284.56   69.60
   0   4  -5  269.93   54.41
   0   4  -5  245.96   64.13
   0  -4  -5  244.00   68.85
   0  -4  -5  349.09   66.67
   0  -4   5  173.36   51.97
   0   4   6  -62.16   44.59
   0   4  -6  -43.62   44.06
   0   4  -6  -29.60   45.90
   0   4  -6   51.64   43.20
   0   4  -6   22.41   39.15
   0  -4  -6   63.37   76.07
   0  -4  -6   26.92   50.53
   0  -4  -6   21.17   32.04
   0   4   7   51.05   60.50
   0   4  -7   -4.09   49.26
   0   4  -7   72.33   48.87
   0   4  -7   18.46   48.43
   0   4  -7  109.21   44.45
   0  -4  -7  190.00   77.68
   0  -4  -7   -8.01   60.14
   0  -4  -7   42.73   37.40
   0   4   8 1156.13  129.59
   0   4  -8 1226.02  124.07
   0   4  -8 1299.23  123.04
   0   4  -8 1160.36  126.21
   0   4  -8 1242.27   98.63
   0  -4  -8 1253.46  143.75
   0  -4  -8 1103.19  127.53
   0  -4  -8 1076.40   92.20
   0   4   9  332.86   60.21
   0   4  -9  275.11   83.73
   0   4  -9  365.07   81.98
   0   4  -9  404.93   74.94
   0   4  -9  340.80   57.50
   0  -4  -9  186.11   93.17
   0  -4  -9  297.50   68.45
   0  -4  -9  205.64   48.65
   0   4  10 5377.09  361.71
   0   4 -10 4991.10  322.19
   0   4 -10 6096.13  376.32
   0   4 -10 4878.03  288.73
   0  -4 -10 5168.38  352.73
   0  -4 -10 4980.60  333.87
   0  -4 -10 4127.04  262.80
   0   4  11 1211.28  145.10
   0   4 -11 1160.10  132.03
   0   4 -11 1265.77  121.29
   0   4 -11 1073.16  107.23
   0   4 -11  919.46  117.74
   0  -4 -11 1083.72  121.50
   0  -4 -11  952.29  124.17
   0  -4 -11  882.82   94.41
   0   4  12 5820.65  375.97
   0   4 -12 5185.20  362.99
   0   4 -12 4682.38  259.53
   0   4 -12 4298.08  272.23
   0  -4 -12 4648.55  285.00
   0  -4 -12 5193.24  371.99
   0  -4 -12 4467.91  254.17
   0   4  13  136.12   69.66
   0   4 -13   67.48   61.14
   0   4 -13   60.74   44.31
   0   4 -13  107.66   42.40
   0  -4 -13   49.23   68.70
   0  -4 -13   51.79   65.06
   0  -4 -13   31.51   50.63
   0  -4  13  134.46   63.42
   0   4  14 1204.47  135.07
   0   4 -14 1203.73  148.17
   0   4 -14 1064.87  111.18
   0  -4 -14 1547.90  174.87
   0  -4 -14 1018.27  112.64
   0  -4  14 1024.59  138.42
   0   4  15  232.29   80.08
   0   4  15  288.88   82.20
   0   4 -15  342.15   76.00
   0   4 -15  188.76   53.53
   0  -4 -15  180.70   80.46
   0  -4 -15   60.34   65.37
   0  -4  15  231.90   77.58
   0   4  16  572.67  112.35
   0   4  16  570.08  103.70
   0   4 -16  602.82  102.40
   0   4 -16  504.08   88.11
   0  -4 -16  675.70  144.93
   0  -4 -16  619.64   95.69
   0  -4  16  664.79   90.67
   0   4  17  205.37   78.74
   0   4  17    9.23   77.30
   0   4 -17  186.13   81.00
   0   4 -17  155.97   62.65
   0  -4 -17  179.56   94.59
   0  -4 -17   20.15   64.01
   0  -4  17   93.00   67.37
   0   4  18  -45.35   69.55
   0   4  18  -76.95   69.08
   0   4 -18   76.82   69.55
   0   4 -18  -13.01   68.39
   0  -4 -18   25.78   71.10
   0  -4 -18   -6.98   69.54
   0  -4  18  -14.81   69.48
   0   4  19  -47.00   74.68
   0   4  19   -2.10   77.89
   0   4 -19    0.65   69.08
   0  -4 -19   39.07   79.86
   0  -4 -19   76.74   70.42
   0  -4  19  -16.71   65.55
   0   4  20  399.19   98.64
   0   4 -20  519.04  108.45
   0  -4 -20  441.71  113.06
   0  -4 -20  396.51   98.35
   0   4  21   -3.70   76.86
   0   4  21   64.89   75.02
   0   4 -21  -37.53   69.10
   0  -4 -21   57.43   90.34
   0  -4 -21  -22.71   62.61
   0   4  22  533.86  119.50
   0   4 -22  622.40  126.51
   0  -4 -22  647.85  134.39
   0  -4 -22  417.57   98.90
   0  -4  22  509.08  113.05
   0   4  23   68.53   63.32
   0   4 -23   -9.28   63.46
   0  -4 -23  -25.07   65.30
   0  -4 -23  -45.92   63.48
   0   5   0   18.28   66.19
   0   5   0  -66.57   67.82
   0  -5   0   11.16   65.88
   0   5   1  107.29   69.89
   0   5   1  129.81   71.74
   0   5  -1   94.28   62.93
   0   5  -1   36.10   86.48
   0  -5  -1   79.71   55.44
   0  -5   1   79.80   47.43
   0   5   2  381.98   92.93
   0   5   2  354.35   94.17
   0   5  -2  331.20   89.11
   0   5  -2  422.06  102.87
   0  -5  -2  391.00   80.29
   0   5   3  200.75   74.37
   0   5   3  138.94   84.28
   0   5  -3  123.23   64.41
   0   5  -3  148.59   82.61
   0  -5  -3  123.39   64.88
   0   5   4 1233.98  151.54
   0   5   4 1047.07  124.38
   0   5  -4 1456.36  151.57
   0   5  -4 1100.99  127.84
   0  -5  -4 1136.75  123.62
   0   5   5  438.44  102.10
   0   5   5  474.68   85.48
   0   5  -5  646.27   90.42
   0   5  -5  344.03   86.39
   0  -5  -5  400.73   75.63
   0   5   6 3613.81  269.86
   0   5   6 3198.57  215.78
   0   5  -6 3968.59  303.25
   0   5  -6 2909.28  194.10
   0  -5  -6 2966.73  219.72
   0   5   7  543.66  105.55
   0   5   7  832.61   99.98
   0   5  -7  810.90  108.43
   0   5  -7  459.55   93.25
   0  -5  -7  673.31  110.49
   0   5   8  890.53  123.98
   0   5   8  782.97  128.96
   0   5  -8  895.42  107.42
   0   5  -8  719.22  104.08
   0  -5  -8  632.43  103.60
   0   5   9   15.27   75.72
   0   5   9  111.67   80.38
   0   5  -9   87.26   66.11
   0  -5  -9   15.88   65.30
   0   5  10  538.55  112.32
   0   5  10  591.95  102.11
   0   5 -10  537.09  118.48
   0  -5 -10  450.96   91.36
   0   5  11  -55.66   77.43
   0   5 -11  -35.56   77.60
   0   5 -11   -5.13   77.82
   0  -5 -11   37.91   77.55
   0   5  12    4.03   78.65
   0   5  12  -36.40   80.34
   0   5 -12    5.33   47.96
   0   5 -12   25.06   51.93
   0  -5 -12   16.05   72.37
   0   5  13   63.03   72.18
   0   5  13   59.80   70.78
   0   5 -13   88.36   54.15
   0   5 -13   42.18   55.11
   0  -5 -13  127.80   66.92
   0   5  14  305.79  104.33
   0   5 -14  345.53   85.55
   0   5 -14  478.65   96.25
   0  -5 -14  486.39   98.14
   0   5  15  -10.10   84.06
   0   5  15  -48.70   83.68
   0   5 -15  -31.53   83.86
   0  -5 -15   51.76   86.03
   1   0   0   30.98   13.76
   1   0   0   10.77   15.32
  -1   0   0   17.78    8.96
  -1   0   0   19.32   13.38
   1   0   0   59.17   11.72
   1   0   0   44.46   12.25
   1   0   0    0.36   11.30
  -1   0   0   13.77   13.92
  -1   0   0   36.42   16.49
  -1   0   0   24.49   10.32
   1   0   1 2778.47  139.17
   1   0   1 2797.45  118.20
   1   0   1 2964.38  172.93
  -1   0  -1 2890.52  132.28
  -1   0  -1 2860.04  115.68
  -1   0  -1 2873.81  152.45
  -1   0  -1 2561.03  119.25
  -1   0  -1 2598.61  131.94
  -1   0  -1 2834.67  157.53
   1   0   1 2657.93  130.46
   1   0   2   28.28   15.95
   1   0   2   29.27   10.65
   1   0   2    4.06   16.00
   1   0   2   18.84   11.72
   1   0   2   62.36   18.66
  -1   0  -2   18.67   13.68
  -1   0  -2   24.79   10.98
  -1   0  -2   35.85   13.97
  -1   0  -2   24.77   13.03
  -1   0  -2   13.62   13.76
   1   0   3  126.56   20.91
   1   0   3   99.15   17.26
   1   0   3   68.22   14.87
   1   0   3  115.51   21.45
   1   0   3  150.91   21.53
  -1   0  -3   72.91   15.82
  -1   0  -3  116.03   23.48
  -1   0  -3   99.67   20.16
  -1   0  -3  121.63   20.40
   1   0   4   18.24   18.54
   1   0   4    7.35   18.49
   1   0   4  -21.26   18.88
  -1   0  -4   -3.49   18.45
  -1   0  -4    9.25   18.35
  -1   0  -4  -13.58   18.07
  -1   0  -4   12.73   18.16
  -1   0  -4  -19.75   18.86
   1   0   517614.00  861.31
   1   0   519403.99  754.20
   1   0   518847.70  695.61
   1   0   518392.23  745.64
   1   0   519088.39  847.11
  -1   0  -519090.38  762.62
  -1   0  -518421.09  678.11
  -1   0  -520853.53  698.41
  -1   0  -520283.08  725.44
   1   0   6   -6.36   21.64
   1   0   6  -15.12   21.21
   1   0   6    7.17   21.02
   1   0   6  -24.55   21.82
  -1   0  -6  -29.25   21.48
  -1   0  -6   -8.17   21.41
  -1   0  -6  -15.24   21.38
  -1   0  -6  -28.56   20.98
  -1   0  -6  -12.37   21.79
   1   0   738325.78 1726.55
   1   0   742501.09 1509.77
   1   0   738942.28 1371.16
   1   0   737779.96 1524.36
   1   0   742064.14 1573.03
  -1   0  -738523.45 1479.36
  -1   0  -737871.05 1486.57
  -1   0  -743600.46 1425.35
  -1   0  -741667.50 1582.38
  -1   0  -740650.35 1489.21
   1   0   8   32.60   26.40
   1   0   8  -19.80   25.88
   1   0   8  -22.11   25.65
   1   0   8   17.45   26.44
  -1   0  -8   -6.37   26.22
  -1   0  -8   -0.59   26.60
  -1   0  -8   -0.92   25.62
  -1   0  -8  -28.23   26.41
   1   0   8  -25.46   26.49
  -1   0  -8  -14.96   26.16
   1   0   923246.16 1143.24
   1   0   920217.47  873.97
   1   0   922159.12  862.68
   1   0   922529.39 1037.97
   1   0   922780.18  971.89
  -1   0  -921842.63  943.49
  -1   0  -920472.82  903.52
  -1   0  -925324.49  976.27
  -1   0  -924978.45  998.71
  -1   0  -923482.27  926.15
   1   0  10   30.95   29.35
   1   0  10  -23.22   29.50
   1   0  10   -2.30   28.99
   1   0  10   -8.65   28.66
   1   0  10   44.50   29.33
  -1   0 -10  -39.46   29.14
  -1   0 -10    9.64   29.49
  -1   0 -10  -10.71   28.66
  -1   0 -10    1.09   29.31
  -1   0 -10   -2.67   29.20
   1   0  1122172.60 1039.40
  -1   0 -1119945.58  927.80
  -1   0 -1120625.63  864.88
  -1   0 -1122186.80  822.11
  -1   0 -1124949.40 1135.75
  -1   0 -1120848.23  881.50
   1   0  1120902.57 1052.00
   1   0  12  -27.58   28.74
   1   0  12   -0.22   28.93
   1   0  12  -27.66   28.83
   1   0  12   -6.44   28.73
  -1   0 -12  -23.96   28.65
  -1   0 -12   13.61   28.74
  -1   0 -12  -43.46   28.24
   1   0  13 1351.67  114.32
   1   0  13 1219.30  103.19
   1   0  13 1123.32   84.47
   1   0  13 1290.33  102.45
  -1   0 -13 1513.35  100.90
  -1   0 -13 1438.59  142.83
   1   0  14  -28.33   31.72
   1   0  14    6.31   14.45
   1   0  14   40.97   40.39
  -1   0 -14   -3.97   16.12
  -1   0 -14   -6.06   43.15
   1   0  15  688.00   73.67
   1   0  15  773.91   72.60
   1   0  15  652.10   55.97
   1   0  15  834.51  104.23
  -1   0 -15  671.48   62.23
  -1   0 -15  876.55  101.20
   1   0  16    8.38   35.41
   1   0  16  -71.67   35.58
   1   0  16   25.76   37.02
   1   0  16  -41.75   35.39
  -1   0 -16  -21.34   35.32
  -1   0 -16  -70.90   35.02
   1   0  17 3875.69  246.81
   1   0  17 4418.10  256.64
   1   0  17 3817.64  323.80
  -1   0 -17 4150.66  333.10
   1   0  18   10.71   34.89
   1   0  18  -90.26   34.95
   1   0  18   -9.19   34.60
   1   0  18  -29.82   37.24
   1   0  18  -34.68   34.83
  -1   0 -18  -39.36   34.49
   1   0  1924243.27 1192.11
   1   0  1923062.85  830.61
   1   0  1925322.20 1294.29
  -1   0 -1924872.96 1197.02
   1   0  20  -34.85   44.87
   1   0  20    0.72   44.72
   1   0  20  -24.40   44.35
   1   0  20    2.05   48.83
   1   0  20   20.17   44.68
  -1   0 -20   82.08   44.26
   1   0  21 5193.50  353.07
   1   0  21 4506.77  179.77
   1   0  21 5302.93  371.47
  -1   0 -21 6331.57  451.34
   1   0  22  -76.25   44.32
   1   0  22   12.99   43.89
   1   0  22   33.58   44.00
  -1   0 -22  120.87   43.54
   1   0  23 2004.89  186.58
   1   0  23 2331.11  190.35
  -1   0 -23 2227.52  203.56
   1   0  24  -33.16   51.68
   1   0  24   -2.45   50.86
  -1   0 -24  -70.70   50.47
   1   0  25  -24.87   51.13
   1   0  25  108.36   80.88
   1   0  25   74.73   72.42
  -1   0 -25   67.42   75.35
   1   0  26   23.57   88.39
   1   0  26   53.74   77.96
  -1   0 -26   43.44   77.76
  -1   0 -27  129.75   61.71
  -1   0 -27  173.93   89.04
   1   0  28  -13.90   93.36
  -1   0 -28  -45.13   96.09
  -1   0 -28  -67.29   92.68
  -1   0 -28  -35.72   94.59
   1   0  29 1792.66  223.54
  -1   0 -29 1350.81  142.64
  -1   0 -29 1566.51  180.32
  -1   0 -29 1330.68  163.62
   1   0  30  -11.57   92.35
  -1   0 -30   -9.46   95.56
  -1   0 -30   -9.35   91.63
  -1   0 -30   -7.92   93.94
  -1   0 -31  612.63  128.63
   1   0  31  403.28  121.24
  -1   0 -31  267.14   97.16
  -1   0 -31  397.02  102.64
  -1   1   0   85.57   16.48
  -1  -1   0   51.91   18.52
  -1  -1   0  112.70   26.27
  -1  -1   0   64.80   14.78
  -1  -1   0   73.59   16.02
   1  -1   0   81.26   18.35
   1  -1   0   99.88   14.77
   1  -1   0   85.46   24.54
   1  -1   0   74.15   15.38
   1   1   0   74.21   21.73
   1   1   0   51.34   23.21
   1   1   0   42.75   27.24
   1   1   0   72.86   11.47
   1   1   0   77.75   20.19
  -1   1   0   50.11   15.58
  -1   1   0   79.40   14.66
  -1   1   0   68.07   21.67
  -1   1   0   88.53   18.33
  -1   1   0   93.62   21.92
   1   1   162532.93 2279.51
   1   1   174369.09 2718.09
  -1   1  -164790.72 2257.29
  -1   1  -166185.22 2217.30
  -1   1  -174263.48 2315.62
  -1  -1  -168418.98 2352.49
  -1  -1  -177384.76 2598.85
  -1  -1  -167699.92 2315.49
  -1  -1  -164026.39 2365.62
   1  -1   171721.50 2428.34
   1  -1   166104.23 2213.51
   1  -1   165642.38 2224.10
   1   1   167120.91 2595.87
   1   1   174852.79 2363.74
   1   1   167886.02 2467.67
  -1   1  -178829.87 2440.95
  -1   1  -170548.13 2381.41
  -1   1  -174714.07 2384.10
   1   1   2 3166.28  170.52
   1   1   2 3286.04  157.41
   1   1   2 3990.55  231.34
   1   1   2 3880.36  225.52
   1   1   2 3756.26  225.25
  -1   1  -2 3648.90  234.10
  -1   1  -2 3860.14  202.96
  -1   1  -2 3903.63  189.50
  -1  -1  -2 3243.29  169.29
  -1  -1  -2 3883.93  192.04
  -1  -1  -2 3538.20  177.79
   1  -1   2 3308.88  137.12
   1  -1   2 3468.31  148.98
   1  -1   2 3257.30  148.06
  -1   1  -2 3774.83  190.70
  -1  -1  -2 3463.10  162.13
  -1   1  -2 3528.52  140.30
  -1  -1  -2 4132.58  247.24
   1  -1   2 3568.34  172.88
  -1   1  -316579.34  624.96
  -1   1  -315751.99  522.46
   1   1   314714.77  629.51
   1   1   317601.73  768.42
   1   1   316154.28  659.03
   1   1   313888.84  696.10
  -1   1  -315700.18  681.76
  -1   1  -316815.85  647.75
  -1   1  -316282.17  578.53
  -1  -1  -313868.45  637.71
  -1  -1  -313528.33  601.45
  -1  -1  -317059.60  780.05
  -1  -1  -315806.14  701.25
  -1  -1  -314313.34  683.82
   1  -1   316650.28  638.28
   1  -1   314550.01  524.45
   1  -1   314682.73  584.32
   1  -1   316261.04  554.27
   1   1   4 2454.30  172.31
   1   1   4 1921.95  155.89
   1   1   4 2375.34  169.67
  -1   1  -4 2364.12  140.95
  -1   1  -4 2152.15  111.53
  -1   1  -4 2368.85  132.52
  -1   1  -4 2005.20  108.15
  -1   1  -4 2282.07  143.63
  -1   1  -4 2181.60   97.32
  -1  -1  -4 1907.40  144.17
  -1  -1  -4 2581.52  178.84
  -1  -1  -4 2547.09  192.38
  -1  -1  -4 2102.85  157.48
   1  -1   4 2466.48  134.67
   1  -1   4 2368.36  109.00
   1  -1   4 2405.51  113.93
   1   1   520052.35  817.48
   1   1   521375.71  851.90
   1   1   521289.34  935.70
   1   1   522931.06  977.69
  -1   1  -522323.27  936.94
  -1   1  -520923.16  773.44
  -1   1  -521364.81  795.34
  -1   1  -520316.66  764.90
  -1   1  -522116.02  803.69
  -1   1  -522557.09  771.65
  -1  -1  -519352.29  709.70
  -1  -1  -520538.55  890.05
  -1  -1  -524622.28 1014.21
  -1  -1  -523469.62 1036.13
   1  -1   521050.00  872.36
  -1  -1  -521315.72  909.48
   1  -1   522119.38  812.66
   1   1   6   61.35   16.70
   1   1   6   47.74   22.50
   1   1   6   -2.64   22.01
   1   1   6   35.97   27.69
   1   1   6   85.21   32.62
  -1   1  -6   51.91   20.17
  -1   1  -6    4.94   15.47
  -1   1  -6   56.22   15.54
  -1   1  -6   30.44   14.93
  -1   1  -6   59.90   25.33
  -1   1  -6   62.67   22.12
  -1   1  -6   68.53   22.73
  -1  -1  -6   48.61   19.27
  -1  -1  -6   53.15   34.37
  -1  -1  -6  -16.59   28.00
  -1  -1  -6   23.94   19.74
   1  -1   6   84.89   31.61
   1  -1   6   41.59   21.31
   1  -1   6   46.71   18.06
   1   1   7 2412.73  139.71
   1   1   7 2782.21  162.99
   1   1   7 2735.30  177.29
   1   1   7 2663.08  185.89
   1   1   7 2862.43  215.92
  -1   1  -7 2843.61  153.13
  -1   1  -7 2831.63  140.96
  -1   1  -7 2794.40  123.93
  -1   1  -7 3032.77  165.94
  -1   1  -7 2907.39  165.66
  -1   1  -7 3106.61  184.30
  -1  -1  -7 2822.58  128.47
  -1  -1  -7 2336.60  151.68
  -1  -1  -7 2886.60  183.01
  -1  -1  -7 3085.82  216.53
  -1  -1  -7 2844.50  184.02
   1  -1   7 2903.94  193.26
   1  -1   7 2904.32  130.94
   1  -1   7 2612.51  148.72
   1  -1   7 2800.81  139.47
   1   1   8  632.20   50.11
   1   1   8  673.20   69.32
   1   1   8  673.80   55.07
   1   1   8  628.77   76.79
   1   1   8  885.99   79.33
  -1   1  -8  716.17   55.74
  -1   1  -8  706.25   40.38
  -1   1  -8  833.76   55.28
  -1   1  -8  843.27   65.91
  -1   1  -8  858.01   79.14
  -1  -1  -8  781.81   57.60
  -1  -1  -8  651.72   60.96
  -1  -1  -8  763.98   80.80
  -1  -1  -8  922.04   91.48
  -1  -1  -8  732.81   78.20
   1  -1   8  889.45   87.56
   1  -1   8  794.40   57.17
   1  -1   8  685.61   62.20
   1  -1   8  760.26   60.95
   1   1   9  990.91   79.18
   1   1   9 1305.08   95.83
   1   1   9 1031.76   87.41
   1   1   9  961.37   93.87
   1   1   9 1355.67  137.06
  -1   1  -9 1264.40  103.16
  -1   1  -9  962.34   83.29
  -1   1  -9  964.04   51.44
  -1   1  -9 1341.41   75.14
  -1   1  -9 1242.20  100.89
  -1   1  -9 1114.68   98.68
  -1  -1  -9  940.70   79.78
  -1  -1  -9  927.17   83.82
  -1  -1  -9 1205.33  101.40
  -1  -1  -9 1340.22  126.40
  -1  -1  -9 1161.24  106.69
   1  -1   9 1106.42   98.66
   1  -1   9 1246.33   73.03
   1  -1   9 1096.90   94.41
   1  -1   9 1209.05   85.52
   1   1  10   46.20   20.69
   1   1  10    5.06   29.69
   1   1  10   19.68   18.64
   1   1  10   27.59   41.42
  -1   1 -10   27.51   19.63
  -1   1 -10   21.25   11.73
  -1   1 -10   25.49   35.28
  -1   1 -10   12.93   24.24
  -1  -1 -10   35.83   16.98
  -1  -1 -10   14.20   29.56
  -1  -1 -10   72.18   39.42
   1  -1  10   40.50   36.91
   1  -1  10    1.58   23.80
   1   1  1110109.59  559.65
   1   1  1111484.99  568.60
   1   1  11 9154.41  507.69
   1   1  1112170.19  594.84
  -1   1 -1112076.61  406.16
  -1   1 -1111659.07  557.38
  -1   1 -1110786.30  515.51
  -1  -1 -1111607.77  628.63
  -1  -1 -1112858.65  651.08
   1  -1  1110835.39  760.51
   1  -1  1111329.47  466.43
   1  -1  1110766.40  589.96
   1   1  12   12.40   19.22
   1   1  12  -16.25   19.14
   1   1  12  -64.53   19.66
   1   1  12    2.10   19.15
  -1   1 -12   44.04   18.89
  -1   1 -12  -24.51   19.45
  -1  -1 -12   19.60   19.10
  -1  -1 -12  -24.59   19.11
  -1  -1 -12  -32.29   18.72
   1  -1  12   -0.36   19.03
   1  -1  12   67.66   19.26
   1  -1  12   55.74   19.01
   1   1  1314794.17  852.77
   1   1  1316023.36  776.46
   1   1  1316309.37  790.58
  -1   1 -1318610.16  885.70
  -1   1 -1315212.53  721.78
  -1  -1 -1314400.34  694.82
  -1  -1 -1316699.06  797.46
  -1  -1 -1318265.59  988.37
   1  -1  1317167.56  846.93
   1  -1  1317353.25  680.85
   1  -1  1315233.55  764.70
   1   1  14    8.09   26.72
   1   1  14   -3.03   26.68
   1   1  14  -15.27   27.43
   1   1  14   17.48   26.72
  -1   1 -14  -21.89   26.38
  -1  -1 -14  -38.64   26.62
  -1  -1 -14   22.25   26.73
  -1  -1 -14  -14.92   26.04
   1  -1  14  -12.30   26.61
   1  -1  14  -42.95   27.12
   1  -1  14   -6.96   26.53
   1   1  1518907.33  885.56
   1   1  1523696.96 1092.93
   1   1  1520929.75 1236.59
  -1   1 -1521484.54 1094.12
  -1  -1 -1521276.23 1077.32
  -1  -1 -1522453.37 1094.30
   1  -1  1521466.08 1086.68
   1  -1  1521680.97  894.45
   1  -1  1518486.75  941.11
   1   1  16  424.29   56.37
   1   1  16  395.15   68.40
   1   1  16  494.56   94.58
  -1   1 -16  604.39   78.34
  -1  -1 -16  354.46   58.04
  -1  -1 -16  406.72   89.66
   1  -1  16  542.86   92.93
   1  -1  16  546.32   78.44
   1  -1  16  388.46   56.54
   1   1  17 6709.97  388.86
   1   1  17 6809.31  419.21
   1   1  17 7245.44  517.64
  -1   1 -17 7022.40  482.84
  -1  -1 -17 6943.39  425.42
  -1  -1 -17 7825.50  544.56
   1  -1  17 7107.03  476.86
   1  -1  17 7701.56  405.82
   1  -1  17 6895.82  385.63
   1   1  18  298.70   59.52
   1   1  18  396.21   66.21
   1   1  18  422.39   77.24
  -1   1 -18  475.53   81.61
  -1  -1 -18  328.55   59.50
  -1  -1 -18  442.76   84.88
   1  -1  18  327.50   69.78
   1  -1  18  428.32   74.04
   1  -1  18  348.94   58.09
   1   1  19  408.01   53.42
   1   1  19  513.61   84.88
   1   1  19  455.54   84.45
  -1   1 -19  519.18   88.45
  -1  -1 -19  379.58   62.62
  -1  -1 -19  478.11   91.52
   1  -1  19  551.32   81.88
   1  -1  19  553.63   87.94
   1  -1  19  411.84   70.19
   1   1  20  -26.79   33.69
   1   1  20   12.05   33.09
   1   1  20  -23.74   33.59
  -1   1 -20    7.75   33.31
  -1  -1 -20    6.31   33.63
  -1  -1 -20   60.58   32.46
   1  -1  20   17.12   33.67
   1  -1  20  -71.64   34.81
   1  -1  20  -36.72   33.35
   1   1  21  508.64   74.79
   1   1  21  712.92   86.76
  -1   1 -21  478.11   99.48
  -1  -1 -21  510.65  100.37
   1  -1  21  652.92  106.71
   1  -1  21  589.68   99.02
   1  -1  21  578.49   85.62
   1   1  22  602.22   82.94
   1   1  22  734.84  108.34
   1   1  22  510.98   64.03
   1   1  22  639.99   96.45
  -1   1 -22  645.41   89.37
  -1  -1 -22  475.35  113.63
   1  -1  22  712.88   91.43
   1  -1  22  594.54  114.61
   1  -1  22  703.83   87.78
   1   1  23 4945.29  346.06
   1   1  23 5832.33  447.84
   1   1  23 4774.21  284.54
   1   1  23 5208.25  332.27
  -1   1 -23 4560.11  352.60
  -1  -1 -23 5234.87  432.81
   1  -1  23 5085.67  343.89
   1  -1  23 6196.76  461.44
   1  -1  23 5635.57  360.01
   1   1  24  258.87   75.90
   1   1  24  234.18   82.91
  -1   1 -24  241.08   82.55
  -1   1 -24   71.49   67.60
  -1  -1 -24  119.94   92.96
   1  -1  24  254.23   73.68
   1  -1  24  244.30   91.48
  -1   1 -25 3536.66  316.41
  -1   1 -25 3225.51  288.16
  -1  -1 -25 3438.04  265.10
  -1  -1 -25 3624.00  328.77
   1  -1  25 3318.42  262.01
   1  -1  25 3943.88  346.97
   1   1  26   -5.22   80.74
   1   1  26   38.45   91.52
  -1   1 -26   86.95   57.15
  -1   1 -26   74.12   71.38
  -1  -1 -26  117.23   52.80
  -1  -1 -26   10.34   87.16
   1  -1  26  124.46   96.81
   1   1  27 1503.28  183.48
   1   1  27 1415.37  153.35
  -1   1 -27 1403.11  176.70
  -1   1 -27 1205.77  159.39
  -1   1 -27 1294.51  155.47
  -1  -1 -27 1280.98  143.03
  -1  -1 -27 1285.61  176.75
   1  -1  27 1481.12  222.41
  -1   1 -28    6.78   72.04
  -1   1 -28  -26.06   70.03
  -1   1 -28    0.36   70.68
  -1  -1 -28  -11.74   72.23
  -1  -1 -28  -72.32   68.40
   1  -1  28   57.31   73.56
   1   1  29  884.32  145.10
  -1   1 -29  803.42  131.58
  -1   1 -29  893.69  143.46
  -1   1 -29  547.20   86.45
  -1  -1 -29  685.70   98.73
  -1  -1 -29  672.37  111.48
  -1  -1 -29  685.28  120.40
   1  -1  29  496.04  130.37
  -1   1 -30   -0.81   77.97
  -1   1 -30  -73.26   75.26
  -1   1 -30   22.93   76.39
  -1  -1 -30   16.30   73.90
  -1  -1 -30    8.23   76.92
   1  -1  30  -47.03   78.95
   1   1  31   72.12  104.64
  -1   1 -31   55.11   70.33
  -1   1 -31   50.06   74.94
  -1   1 -31    9.12   50.66
  -1  -1 -31  149.16   80.96
   1   2   0  171.16   27.74
   1   2   0  235.29   35.70
   1   2   0  258.43   43.48
   1   2   0  185.27   29.14
   1   2   0  176.88   33.20
   1   2   0  174.22   27.81
   1   2   0  250.63   32.38
  -1   2   0  184.83   25.61
  -1   2   0  153.13   26.31
  -1   2   0  180.79   25.30
  -1   2   0  295.73   46.21
  -1   2   0  161.54   36.92
  -1  -2   0  163.20   37.29
  -1  -2   0  177.41   29.01
  -1  -2   0  205.73   23.19
   1  -2   0  212.68   27.97
   1  -2   0  137.79   30.93
   1  -2   0  247.26   27.15
   1  -2   0  213.82   21.33
   1   2   1 1047.73   70.46
   1   2   1 1056.14   94.91
   1   2   1 1072.60   67.08
   1   2   1  994.35   84.79
   1   2   1 1160.20   80.92
  -1   2  -1  980.07  102.19
  -1   2  -1 1118.43   69.64
  -1   2  -1 1257.19  101.71
  -1   2  -1 1188.71   89.48
  -1   2  -1 1189.46   93.26
  -1  -2  -1 1126.60   78.22
  -1  -2  -1 1193.74  108.77
  -1  -2  -1 1009.96   77.53
  -1  -2  -1  974.08   62.82
   1  -2   1 1189.56   74.26
   1  -2   1 1114.30   84.55
   1  -2   1 1076.03   53.86
   1  -2   1 1164.16   59.79
   1   2   2   42.54   15.79
   1   2   2   31.61   30.59
   1   2   2   46.62   24.00
   1   2   2   21.26   23.88
  -1   2  -2   18.55   14.82
  -1   2  -2   25.51   18.41
  -1   2  -2   43.11   33.67
  -1   2  -2   54.71   27.89
  -1   2  -2   30.49   21.51
  -1  -2  -2   53.13   18.48
  -1  -2  -2    5.20   39.23
  -1  -2  -2   52.97   25.30
  -1  -2  -2   43.58   19.81
   1  -2   2   21.40   25.53
   1  -2   2   39.58   25.81
   1  -2   2   56.29    9.22
   1  -2   2   84.71    8.64
   1   2   3 2098.65  137.54
   1   2   3 1587.40  126.67
   1   2   3 1849.99  128.11
  -1   2  -3 1833.84  139.58
  -1   2  -3 1683.10  100.06
  -1   2  -3 1988.86  161.08
  -1   2  -3 1915.96  133.13
  -1  -2  -3 2059.05  174.97
  -1  -2  -3 1974.17  139.30
  -1  -2  -3 1830.00  122.04
   1  -2   3 1976.48  100.04
   1  -2   3 1913.05  108.88
   1   2   4  481.68   31.39
   1   2   4  604.12   59.32
   1   2   4  538.50   64.39
  -1   2  -4  528.70   60.15
  -1   2  -4  483.94   38.44
  -1   2  -4  472.96   52.88
  -1   2  -4  579.02   61.73
  -1   2  -4  571.03   67.37
  -1  -2  -4  394.01   53.63
  -1  -2  -4  609.35   85.81
  -1  -2  -4  526.88   52.50
  -1  -2  -4  418.76   52.47
   1  -2   4  642.60   46.38
   1  -2   4  605.07   49.17
   1  -2   4  543.70   47.19
   1   2   516746.54  604.64
   1   2   516388.60  737.64
   1   2   517049.58  937.00
   1   2   518568.24 1014.06
  -1   2  -517680.35  872.95
  -1   2  -518369.69  687.89
  -1   2  -519195.36  866.80
  -1   2  -518295.88  791.98
  -1   2  -519417.09  819.52
  -1  -2  -518523.68  678.04
  -1  -2  -520109.38  912.62
  -1  -2  -519574.55  852.87
  -1  -2  -517628.65  791.57
   1  -2   519268.25  676.51
   1  -2   518213.45  680.50
   1  -2   517458.95  737.26
   1   2   6  781.56   50.80
   1   2   6 1186.26   95.06
   1   2   6  728.85   80.02
   1   2   6 1134.36  111.53
  -1   2  -6  946.41   84.53
  -1   2  -6  879.12   66.99
  -1   2  -6 1012.55   91.71
  -1   2  -6  929.47   80.41
  -1   2  -6  956.58   83.81
  -1  -2  -6  918.34   55.96
  -1  -2  -6  921.20  101.11
  -1  -2  -6 1043.88   90.31
  -1  -2  -6  882.68   74.44
   1  -2   6 1134.86   66.42
   1  -2   6 1023.87   64.92
   1   2   710683.04  436.94
   1   2   711268.33  501.55
   1   2   7 9940.70  573.34
   1   2   712433.49  640.87
  -1   2  -712288.03  544.48
  -1   2  -711714.92  483.11
  -1   2  -712385.42  547.50
  -1   2  -712024.67  404.25
  -1   2  -711469.85  382.01
  -1  -2  -711119.28  447.92
  -1  -2  -711942.00  598.61
  -1  -2  -711787.43  658.28
   1  -2   713515.42  557.05
   1   2   8 1376.94   83.20
   1   2   8 1545.46  116.41
   1   2   8 1757.01  128.97
  -1   2  -8 1562.90  109.39
  -1   2  -8 1706.42  132.24
  -1   2  -8 1499.00   97.82
  -1   2  -8 1730.38  107.30
  -1   2  -8 1697.09   70.39
  -1  -2  -8 1613.10   74.77
  -1  -2  -8 1842.84  150.75
  -1  -2  -8 1686.39  151.58
   1  -2   8 1970.57  130.12
   1  -2   8 1768.54  100.35
   1   2   922156.22  867.49
   1   2   922680.08  954.79
   1   2   922771.75  944.29
  -1   2  -922461.99  949.28
  -1   2  -922616.45  948.95
  -1   2  -921200.00  838.57
  -1   2  -924338.38  993.53
  -1   2  -922172.57  751.00
  -1  -2  -921307.84  769.15
  -1  -2  -924660.40 1256.71
  -1  -2  -926405.26 1231.15
   1  -2   923219.35  964.68
   1  -2   924183.75  901.00
   1   2  10   53.36   15.28
   1   2  10  108.11   44.63
   1   2  10  110.87   42.57
  -1   2 -10  145.90   26.79
  -1   2 -10   69.42   22.73
  -1   2 -10  109.69   35.64
  -1   2 -10   77.92   17.89
  -1  -2 -10   59.54   18.50
  -1  -2 -10  128.64   44.39
  -1  -2 -10  120.05   47.08
   1  -2  10  136.92   47.81
   1  -2  10  106.23   34.04
   1   2  11 5718.35  283.30
   1   2  11 6874.42  485.79
  -1   2 -11 6252.03  313.76
  -1   2 -11 5771.70  278.86
  -1   2 -11 6874.07  341.04
  -1   2 -11 6224.83  302.81
  -1  -2 -11 6603.53  242.86
  -1  -2 -11 6838.82  514.34
  -1  -2 -11 7247.50  483.90
   1  -2  11 7026.80  426.20
   1   2  12  302.32   35.50
   1   2  12  462.30   69.63
   1   2  12  422.34   65.94
  -1   2 -12  432.81   42.95
  -1   2 -12  330.97   38.59
  -1   2 -12  400.77   60.13
  -1   2 -12  312.26   38.04
  -1  -2 -12  411.51   36.65
  -1  -2 -12  460.70   67.29
  -1  -2 -12  440.98   70.14
   1  -2  12  305.76   56.72
   1  -2  12  440.54   54.70
   1   2  13 1870.41  118.01
   1   2  13 2325.11  164.92
   1   2  13 2131.38  215.54
  -1   2 -13 1867.03  100.52
  -1   2 -13 1901.87  110.66
  -1   2 -13 2576.02  186.17
  -1   2 -13 1962.06  114.80
  -1  -2 -13 1929.67   94.00
  -1  -2 -13 2092.78  194.06
  -1  -2 -13 2261.13  213.97
   1  -2  13 2434.07  197.06
   1  -2  13 2216.01  135.52
   1   2  14  701.86   60.64
   1   2  14  911.11   89.31
   1   2  14  934.79  109.62
  -1   2 -14  743.10   40.60
  -1   2 -14  772.22   48.46
  -1   2 -14  863.71   96.62
  -1   2 -14  816.18   80.29
  -1   2 -14  816.24   77.20
  -1  -2 -14  787.18   55.88
  -1  -2 -14  956.23  109.04
  -1  -2 -14  957.71  120.42
   1  -2  14  818.25  102.00
   1  -2  14  892.21   71.78
   1   2  15 1255.67  101.31
   1   2  15 1680.74  192.20
  -1   2 -15 1625.01  143.38
  -1   2 -15 1616.90  144.39
  -1   2 -15 1082.58   84.86
  -1  -2 -15 1686.80  171.52
  -1  -2 -15 1722.74  188.03
   1  -2  15 1684.91  143.20
   1  -2  15 1823.37  123.71
   1   2  16  233.09   37.84
   1   2  16  359.57   75.69
  -1   2 -16  344.09   63.23
  -1  -2 -16  202.22   35.18
  -1  -2 -16  293.71   64.67
  -1  -2 -16  247.14   79.60
   1  -2  16  244.32   56.76
   1  -2  16  332.98   61.08
   1   2  16  306.97   70.00
  -1   2 -16  277.23   54.15
   1   2  17 3790.12  187.26
   1   2  17 4690.33  337.04
   1   2  17 4678.16  337.26
  -1   2 -17 5183.73  358.01
  -1   2 -17 4549.25  300.56
  -1  -2 -17 4776.31  313.91
  -1  -2 -17 4829.22  355.97
   1  -2  17 5157.36  379.76
   1  -2  17 4983.82  289.33
   1   2  18  153.50   34.34
   1   2  18  216.34   68.59
  -1   2 -18  109.31   52.32
  -1   2 -18  116.95   54.78
  -1  -2 -18  107.39   57.65
   1  -2  18  199.29   71.25
  -1  -2 -18  144.16   67.11
   1   2  19 6588.87  412.08
  -1   2 -19 6602.08  403.80
  -1   2 -19 6188.80  405.45
  -1  -2 -19 6296.86  447.44
  -1  -2 -19 6662.17  484.36
   1  -2  19 7277.92  394.85
   1   2  20  307.87   82.58
  -1   2 -20  258.39   75.32
  -1   2 -20  224.05   57.25
  -1  -2 -20  214.54   65.81
  -1  -2 -20  353.09   88.01
   1  -2  20  335.48   95.51
   1   2  20  291.81   85.61
  -1  -2 -20  180.37   38.97
   1   2  21 6267.31  484.41
   1   2  21 4795.24  338.87
  -1   2 -21 5338.95  359.55
  -1   2 -21 4829.08  315.09
  -1  -2 -21 4417.40  255.09
  -1  -2 -21 5105.38  339.34
  -1  -2 -21 5042.44  392.95
   1  -2  21 6362.67  413.57
   1   2  22  545.02  118.80
   1   2  22  481.32   84.56
  -1   2 -22  417.13   92.51
  -1   2 -22  417.63   65.39
  -1  -2 -22  412.84   50.66
  -1  -2 -22  457.73   72.45
  -1  -2 -22  421.16   99.40
   1  -2  22  604.47  102.30
   1   2  23 2080.67  233.75
   1   2  23 2027.56  158.54
   1   2  23 2464.30  205.31
  -1   2 -23 2211.11  203.78
  -1  -2 -23 2157.08  231.99
   1  -2  23 2156.36  206.32
   1   2  24   12.74   81.11
   1   2  24  -11.75   82.17
  -1   2 -24   41.53   82.70
  -1   2 -24   91.30   80.94
  -1   2 -24  -45.52   81.86
  -1  -2 -24  -59.57   78.85
   1   2  25   21.50   78.58
   1   2  25  -15.43   47.51
   1   2  25   50.43   66.40
  -1   2 -25   52.94   84.24
  -1   2 -25   97.50   75.63
  -1   2 -25   47.71   44.46
  -1  -2 -25   61.04   77.37
   1   2  26  154.05   97.38
   1   2  26  260.21   85.70
  -1   2 -26  154.23   83.71
  -1   2 -26  125.39   75.04
  -1  -2 -26   56.40   65.02
   1   2  27  410.10  111.58
   1   2  27  370.65   96.46
  -1   2 -27  251.76   94.54
  -1   2 -27  284.63   88.95
  -1  -2 -27  198.43   98.56
   1   2  28  -48.15   91.13
  -1   2 -28   58.53   88.71
  -1   2 -28  149.00   75.51
  -1  -2 -28   32.99   69.31
  -1   2 -29  560.75  130.22
  -1   2 -29  544.47  112.53
  -1  -2 -29  350.85  123.91
  -1  -2 -29  693.95  123.52
   1  -2  29  642.14  135.97
   1   3   0  462.40   54.16
   1   3   0  320.20   37.54
   1   3   0  414.49   55.97
   1   3   0  316.63   43.82
   1   3   0  353.55   36.79
  -1   3   0  380.50   47.03
  -1   3   0  327.39   44.68
  -1   3   0  474.52   53.37
  -1   3   0  368.81   65.54
  -1  -3   0  410.28   61.00
  -1  -3   0  441.00   46.03
  -1  -3   0  386.92   30.43
   1  -3   0  541.85   58.79
   1  -3   0  441.19   30.88
   1  -3   0  298.02   29.93
   1   3   110723.99  459.53
   1   3   1 9211.22  400.07
   1   3   110084.84  459.81
   1   3   1 9017.56  485.03
   1   3   111317.69  427.38
  -1   3  -111582.12  514.46
  -1   3  -1 8829.22  446.79
  -1   3  -111153.63  437.45
  -1   3  -110344.34  537.16
  -1  -3  -110767.20  486.77
  -1  -3  -110496.96  444.56
  -1  -3  -1 9170.20  388.65
   1  -3   112081.23  505.55
   1   3   2  186.91   30.90
   1   3   2  121.50   27.67
   1   3   2  239.21   46.44
   1   3   2  184.34   37.92
  -1   3  -2  201.14   31.14
  -1   3  -2  244.28   40.28
  -1   3  -2  180.64   51.95
  -1  -3  -2  177.54   48.94
  -1  -3  -2  213.20   35.97
  -1  -3  -2  145.07   25.04
   1  -3   2  319.78   54.31
   1   3   314553.84  565.52
   1   3   315724.74  700.46
   1   3   315195.09  653.91
  -1   3  -315871.74  607.77
  -1   3  -316514.47  727.24
  -1  -3  -316087.77 1027.73
  -1  -3  -314582.45  660.76
   1  -3   315609.64  663.93
   1  -3   316172.38  669.48
   1   3   4  120.77   22.89
   1   3   4  231.88   51.97
   1   3   4  224.03   39.59
  -1   3  -4  215.55   35.43
  -1   3  -4  267.12   45.30
  -1  -3  -4  207.83   56.34
  -1  -3  -4  194.36   40.86
   1  -3   4  201.31   31.32
   1  -3   4  244.64   42.09
   1   3   5 5590.51  226.57
   1   3   5 6662.25  362.78
   1   3   5 6276.19  326.40
  -1   3  -5 5982.20  290.33
  -1   3  -5 6327.01  344.11
  -1  -3  -5 6129.80  368.67
  -1  -3  -5 5994.57  332.27
   1  -3   5 6405.26  329.83
   1  -3   5 6639.13  310.42
   1   3   6  307.74   22.98
   1   3   6  355.67   61.06
   1   3   6  318.26   58.07
  -1   3  -6  422.12   46.48
  -1   3  -6  305.65   53.05
  -1  -3  -6  431.43   73.25
  -1  -3  -6  383.15   59.88
   1  -3   6  387.51   54.99
   1   3   7  418.79   66.49
   1   3   7  355.81   57.73
  -1   3  -7  383.21   63.01
  -1   3  -7  442.11   55.53
  -1  -3  -7  268.89   88.78
  -1  -3  -7  461.47   66.51
   1  -3   7  378.47   59.33
   1   3   8  -23.44   43.61
   1   3   8   33.11   43.17
  -1   3  -8    4.58   36.79
  -1   3  -8  100.70   41.33
  -1  -3  -8   21.18   50.04
  -1  -3  -8    9.46   46.74
   1  -3   8   82.63   44.48
   1  -3   8   -3.32   35.05
   1   3   9  652.79   89.06
   1   3   9  433.38   67.01
  -1   3  -9  476.21   59.22
  -1   3  -9  539.46   59.64
  -1  -3  -9  562.22   87.91
  -1  -3  -9  436.37   73.79
   1  -3   9  558.10   68.87
   1  -3   9  581.94   62.92
   1   3  10  571.67   77.82
   1   3  10  591.68   81.36
  -1   3 -10  584.60   69.08
  -1   3 -10  684.08   75.09
  -1  -3 -10  579.74  102.58
  -1  -3 -10  620.75   85.85
   1  -3  10  685.59   86.21
   1  -3  10  530.90   64.47
   1   3  11 6115.48  391.53
   1   3  11 6084.76  313.48
  -1   3 -11 6029.13  359.79
  -1   3 -11 6498.65  376.36
  -1  -3 -11 5965.82  393.34
  -1  -3 -11 5875.43  379.80
   1  -3  11 6383.88  340.50
   1  -3  11 6444.50  359.04
   1   3  12 1076.71  117.45
   1   3  12 1087.67  108.55
  -1   3 -12  900.83   83.04
  -1   3 -12 1062.86  120.70
  -1  -3 -12  901.02  122.74
  -1  -3 -12  982.28  109.85
   1  -3  12 1116.59  121.42
   1  -3  12 1076.22  103.29
  -1  -3 -13 7166.67  445.25
   1   3  13 8022.49  438.16
   1   3  13 6891.97  390.36
  -1   3 -13 7050.74  354.15
  -1   3 -13 7248.35  404.24
  -1  -3 -13 6520.46  394.75
   1  -3  13 7008.85  385.32
   1   3  14  284.98   72.27
   1  -3  14  163.07   66.02
   1   3  14  211.88   64.72
  -1   3 -14  188.43   41.47
  -1   3 -14  179.52   49.51
  -1  -3 -14  156.07   60.53
  -1  -3 -14  274.35   79.36
   1  -3  14  234.83   48.74
   1   3  15 6820.37  429.26
   1   3  15 5935.14  385.07
  -1   3 -15 5703.07  286.67
  -1   3 -15 5944.14  365.41
  -1  -3 -15 5859.60  404.23
  -1  -3 -15 5816.35  398.00
   1  -3  15 5853.01  331.34
   1  -3  15 5825.90  381.60
   1   3  16  866.75  104.62
   1   3  16  749.86   96.49
  -1   3 -16  904.71  109.22
  -1  -3 -16  750.87  108.82
  -1  -3 -16  777.62  131.73
   1  -3  16  700.27   97.95
   1  -3  16  850.83  105.52
   1   3  17 2547.01  222.81
   1   3  17 2111.12  176.10
  -1   3 -17 2186.86  219.82
  -1  -3 -17 1987.92  192.70
  -1  -3 -17 2208.76  234.18
   1  -3  17 2308.33  191.65
   1   3  18  371.21   90.15
   1   3  18  174.15   69.58
  -1   3 -18  404.92   77.31
  -1   3 -18  360.01   75.98
  -1  -3 -18  188.90   68.18
  -1  -3 -18  294.22  101.55
   1  -3  18  402.31   81.63
   1   3  19  267.19   81.58
   1   3  19  329.72   82.34
  -1   3 -19  321.67   85.86
  -1   3 -19  435.39   83.55
  -1  -3 -19  267.34   73.31
  -1  -3 -19  388.27   99.52
   1  -3  19  296.44   79.44
   1   3  20  -83.68   80.41
   1   3  20   46.32   69.56
  -1   3 -20   55.30   69.87
  -1   3 -20    7.74   65.33
  -1  -3 -20   75.60   65.82
  -1  -3 -20  -38.51   83.40
   1  -3  20   11.09   57.86
   1   3  21  641.88  104.54
  -1   3 -21  541.03   97.78
  -1   3 -21  491.98   95.78
  -1  -3 -21  309.27   74.41
  -1  -3 -21  367.98  106.75
   1  -3  21  525.09   89.07
   1   3  22   78.27   71.82
   1   3  22    5.49   86.54
  -1   3 -22  -15.55   76.43
  -1   3 -22   60.94   71.53
  -1  -3 -22   77.22   93.81
   1  -3  22   45.01   61.98
   1   3  23  693.40  131.09
   1   3  23  613.46   87.78
   1   3  23  731.19  136.10
  -1   3 -23  779.76  133.18
  -1   3 -23  658.99  115.50
  -1  -3 -23  678.29  132.40
   1   3  24   19.93   59.80
   1   3  24  -59.11   83.73
  -1   3 -24   32.33   53.82
  -1   3 -24  131.74   64.52
  -1  -3 -24   35.65   88.19
   1   3  25 1390.68  188.20
   1   3  25 1261.26  146.43
  -1   3 -25 1346.18  189.56
  -1   3 -25 1379.03  175.26
  -1  -3 -25 1396.75  193.62
   1   3  26  -67.55   69.49
   1   3  26  135.02   66.21
  -1   3 -26  -17.44   71.14
  -1   3 -26   95.55   67.32
  -1  -3 -26   77.26  100.03
  -1  -3 -26  143.66  100.78
  -1   3 -27 2019.89  213.02
  -1  -3 -27 1885.71  220.68
   1  -4   0   23.01   47.38
   1   4   0   34.17   29.71
   1   4   0  162.25  101.33
  -1   4   0    2.85   31.76
  -1   4   0   26.48   47.84
  -1   4   0    7.13   56.45
  -1  -4   0   77.97   79.57
  -1  -4   0   66.41   39.37
   1   4   1  789.31   86.78
   1   4   1  646.44   56.38
  -1   4  -1  567.90   57.31
  -1   4  -1  719.08   90.36
  -1   4  -1  788.89   84.89
  -1  -4  -1  507.69   93.02
  -1  -4  -1  700.24   77.56
  -1  -4  -1  571.67   50.25
   1  -4   1  691.25   80.43
   1   4   2  -22.32   23.41
   1   4   2   42.82   56.99
  -1   4  -2   25.83   34.12
  -1   4  -2   17.88   52.63
  -1   4  -2   81.47   57.98
  -1  -4  -2  -14.71   57.74
  -1  -4  -2   13.24   36.04
   1  -4   2   82.42   43.72
   1   4   3 1086.74   94.41
  -1   4  -3 1019.46   97.57
  -1   4  -3 1243.61  124.47
  -1   4  -3 1160.96  104.44
  -1  -4  -3 1106.26  112.25
  -1  -4  -3 1027.76   97.91
   1  -4   3 1209.88  102.95
   1   4   4  -85.21   58.89
   1   4   4   15.43   36.26
  -1   4  -4   27.20   40.54
  -1   4  -4   60.58   57.34
  -1   4  -4   92.42   56.00
  -1  -4  -4   15.23   76.35
  -1  -4  -4   66.76   49.94
   1  -4   4  114.54   44.81
   1   4   5 3209.49  228.96
   1   4   5 2265.33  178.00
  -1   4  -5 2353.71  200.23
  -1   4  -5 2833.82  201.39
  -1   4  -5 2944.20  211.94
  -1  -4  -5 2408.13  184.34
  -1  -4  -5 2388.35  162.85
   1  -4   5 2522.32  165.77
   1   4   6  206.13   76.74
   1   4   6    3.28   45.46
  -1   4  -6   61.85   44.16
  -1   4  -6  130.10   53.77
  -1   4  -6  109.06   58.11
  -1   4  -6  147.44   52.66
  -1  -4  -6   48.00   81.89
  -1  -4  -6   92.98   49.04
   1   4   7 6515.00  402.80
   1   4   7 5796.44  343.49
  -1   4  -7 6569.16  413.21
  -1   4  -7 8101.81  433.05
  -1   4  -7 6366.99  360.25
  -1   4  -7 7457.05  379.25
  -1  -4  -7 5996.74  390.47
  -1  -4  -7 6714.50  398.03
   1   4   8  753.22  107.52
   1   4   8  690.77   79.08
  -1   4  -8  816.51  110.52
  -1   4  -8  905.04   89.09
  -1   4  -8  638.42   84.14
  -1   4  -8  811.24  112.77
  -1  -4  -8  653.75  109.60
  -1  -4  -8  676.47   86.31
   1   4   9 4944.57  275.49
   1   4   9 4513.33  270.74
  -1   4  -9 4695.02  326.11
  -1   4  -9 5364.63  308.41
  -1   4  -9 4342.95  285.82
  -1   4  -9 5338.72  304.37
  -1  -4  -9 4569.27  317.46
  -1  -4  -9 4921.94  316.49
   1   4  10  189.88   67.36
   1   4  10  109.73   51.97
  -1   4 -10  148.92   67.51
  -1   4 -10  294.30   61.93
  -1   4 -10  275.93   58.46
  -1   4 -10  236.67   68.71
  -1  -4 -10  154.84   91.28
  -1  -4 -10  199.66   64.89
   1   4  11 1425.37  138.43
   1   4  11 1304.92  118.48
  -1   4 -11 1420.02  141.78
  -1   4 -11 1865.55  161.88
  -1   4 -11 1410.08  119.44
  -1   4 -11 1532.92  156.15
  -1  -4 -11 1279.65  156.28
  -1  -4 -11 1421.08  146.10
  -1  -4 -12  487.55   88.55
   1   4  12  524.91   90.96
   1   4  12  378.36   81.42
  -1   4 -12  470.41   93.81
  -1   4 -12  592.57   79.95
  -1   4 -12  329.95   70.46
  -1   4 -12  384.87   94.24
  -1  -4 -12  435.68   91.73
   1   4  13   61.71   73.36
   1   4  13   46.53   55.32
  -1   4 -13  171.85   76.67
  -1   4 -13  159.25   61.12
  -1  -4 -13  164.99   80.05
  -1  -4 -13  131.92   68.13
   1   4  14  -16.30   57.94
   1   4  14   17.35   57.59
  -1   4 -14  -33.89   58.06
  -1   4 -14  -15.44   57.72
  -1  -4 -14   17.92   57.58
  -1  -4 -14   26.93   59.18
   1   4  15  282.06   73.88
   1   4  15  222.01   76.87
  -1   4 -15  285.54   86.08
  -1   4 -15  278.54   63.41
  -1  -4 -15  241.11   71.33
  -1  -4 -15  195.37   82.74
   1  -4  15  260.54   72.81
   1   4  16   21.55   62.83
   1   4  16  -11.87   62.31
  -1   4 -16  -96.65   62.84
  -1   4 -16   10.19   62.14
  -1  -4 -16   47.23   62.44
  -1  -4 -16  -23.90   65.10
   1  -4  16  -20.63   62.70
   1   4  17 1326.18  150.32
  -1   4 -17 1602.65  170.76
  -1   4 -17 1372.33  142.98
  -1  -4 -17 1310.79  156.90
  -1  -4 -17 1790.20  194.16
   1   4  18  266.43   80.81
  -1   4 -18  378.45   99.08
  -1   4 -18  198.84   66.05
  -1  -4 -18  171.01   76.41
  -1  -4 -18  407.24  105.93
   1  -4  18  163.16   64.28
   1   4  19 1148.24  153.46
  -1   4 -19 1088.70  144.06
  -1  -4 -19 1131.28  143.63
  -1  -4 -19 1025.95  165.10
   1  -4  19  847.22  108.06
   1   4  20  108.59   88.48
  -1   4 -20  165.80   88.13
  -1   4 -20  153.53   68.29
  -1  -4 -20  199.94   93.94
  -1  -4 -20  110.85   82.31
   1  -4  20  183.99   61.77
   1   4  21 1116.17  172.43
   1   4  21 1045.68  141.71
  -1   4 -21 1290.38  134.65
  -1   4 -21  872.24  116.56
  -1  -4 -21 1127.74  182.57
  -1  -4 -21 1006.49  138.79
   1   4  22   61.87   72.57
  -1   4 -22  139.36   83.30
  -1   4 -22   43.51   67.79
  -1  -4 -22  138.15   87.30
  -1  -4 -22   91.18   78.69
   1   5   0  261.79   87.65
  -1   5   0  274.30   73.27
  -1   5   0  269.89  101.87
  -1  -5   0  347.48   80.73
   1  -5   0  423.41   83.71
   1   5   1 2566.76  238.22
  -1   5  -1 2180.01  205.16
  -1   5  -1 2232.92  194.02
  -1  -5  -1 2078.44  211.24
   1  -5   1 2259.28  191.80
   1   5   2  729.49  121.81
  -1   5  -2  381.13   91.45
  -1   5  -2  494.43  101.31
  -1  -5  -2  417.37   98.26
   1   5   3 2629.49  231.08
  -1   5  -3 2668.01  243.55
  -1   5  -3 2324.91  189.82
  -1  -5  -3 2131.15  227.54
   1  -5   3 2644.19  188.12
   1   5   4  219.35   86.54
  -1   5  -4  126.11   64.50
  -1   5  -4   92.79   69.36
  -1  -5  -4  119.07   93.44
   1   5   5 1321.36  176.73
  -1   5  -5  991.14  115.89
  -1   5  -5  999.54  119.54
  -1  -5  -5  975.99  127.45
   1   5   6  100.12   75.11
  -1   5  -6   88.21   63.55
  -1   5  -6  -50.52   62.13
  -1   5  -6  141.65   59.68
  -1  -5  -6  249.06  110.18
   1   5   7   13.87   73.61
  -1   5  -7   22.94   74.67
  -1   5  -7  -33.60   75.43
  -1  -5  -7   -1.22   74.20
   1   5   8  -18.37   78.67
  -1   5  -8   40.44   57.17
  -1  -5  -8   -7.16   85.39
   1   5   9  151.17   77.19
  -1   5  -9   62.30   50.10
  -1  -5  -9  100.81   75.68
  -1  -5  -9  122.46   61.27
   1   5  10   -9.56   64.95
  -1  -5 -10    3.15   69.79
  -1  -5 -10   78.45   60.26
   1   5  11  719.15  113.97
  -1  -5 -11  435.69  103.97
  -1  -5 -11  494.93  103.49
  -1   5 -12  -92.58   73.44
  -1  -5 -12  110.43   76.99
  -1  -5 -12   30.30   59.58
  -1   5 -13 1434.90  139.97
  -1  -5 -13 1523.59  192.97
  -1  -5 -13 1367.18  148.71
   1   5  14  141.94   77.58
  -1   5 -14   80.71   76.07
  -1  -5 -14  151.96   81.04
  -1  -5 -14  134.53   76.86
   1   5  15  413.36  123.36
  -1   5 -15  365.98   86.06
   2   0   0 4019.42  185.38
   2   0   0 3736.17  225.53
   2   0   0 3491.03  181.59
   2   0   0 3393.34  171.96
  -2   0   0 3995.93  224.52
  -2   0   0 3757.96  210.01
  -2   0   0 3821.91  182.08
   2   0   1   22.92   12.56
   2   0   1    7.28   21.62
   2   0   1  -29.46   20.24
  -2   0  -1  -15.43   18.02
  -2   0  -1   17.36   24.97
  -2   0  -1    8.48   16.03
  -2   0  -1   13.27   20.09
   2   0   1  -16.95   17.31
   2   0   275701.92 2567.22
   2   0   272816.05 2440.67
   2   0   276719.30 2747.66
   2   0   268868.23 2556.56
  -2   0  -272898.24 2407.68
  -2   0  -272231.22 2455.55
  -2   0  -267250.88 2433.03
  -2   0  -275071.02 2548.05
  -2   0  -278847.49 2583.90
  -2   0  -270784.08 2314.15
   2   0   3  -23.78   22.40
   2   0   3   -2.45   22.33
   2   0   3   25.63   22.38
  -2   0  -3   15.49   22.76
  -2   0  -3  -22.06   22.57
  -2   0  -3  -36.64   22.23
  -2   0  -3  -16.16   22.26
  -2   0  -3   22.47   22.33
   2   0   3  -35.87   22.98
   2   0   413016.91  616.28
   2   0   413179.70  535.32
   2   0   413614.06  541.24
   2   0   412514.13  556.04
   2   0   413772.92  527.76
  -2   0  -413333.10  504.01
  -2   0  -413021.46  554.19
  -2   0  -413393.21  535.24
  -2   0  -413584.13  574.89
  -2   0  -413611.68  549.98
   2   0   5   44.06   26.90
   2   0   5    6.10   27.52
   2   0   5   -7.35   26.68
   2   0   5    3.67   27.17
  -2   0  -5  -16.87   26.79
  -2   0  -5   -3.56   26.85
  -2   0  -5   -3.52   26.60
  -2   0  -5  -16.32   26.60
  -2   0  -5    3.22   27.05
   2   0   657176.69 2324.21
   2   0   663227.18 2144.63
   2   0   658848.14 2273.95
   2   0   653738.63 2375.60
   2   0   662034.30 2166.21
  -2   0  -658411.61 2095.82
  -2   0  -664391.63 2185.45
  -2   0  -664251.20 2133.19
  -2   0  -661554.71 2235.03
  -2   0  -660717.57 2006.25
   2   0   7   14.95   25.74
   2   0   7   28.85   25.37
   2   0   7   -9.93   21.21
   2   0   7    8.55   20.12
   2   0   7   29.50   27.66
  -2   0  -7    1.58   18.30
  -2   0  -7   -8.77   24.53
  -2   0  -7   21.07   30.50
  -2   0  -7  -43.78   24.25
   2   0   815020.47  778.18
   2   0   814735.50  613.83
   2   0   814512.01  615.32
   2   0   814027.02  721.13
   2   0   814024.82  652.28
  -2   0  -813134.27  625.27
  -2   0  -815946.59  652.51
  -2   0  -816334.98  711.67
  -2   0  -815251.00  535.76
   2   0   9   31.04   28.20
   2   0   9   -9.99   29.00
   2   0   9  -25.46   27.61
   2   0   9   11.51   28.47
  -2   0  -9  -11.29   27.93
  -2   0  -9   11.28   27.73
  -2   0  -9  -61.67   27.75
  -2   0  -9   13.87   27.45
  -2   0  -9   11.11   28.40
   2   0  10  297.87   50.35
   2   0  10  297.36   40.04
   2   0  10  311.66   37.40
   2   0  10  184.56   35.76
  -2   0 -10  355.75   43.71
  -2   0 -10  360.63   44.30
  -2   0 -10  329.63   52.47
  -2   0 -10  298.08   49.56
   2   0  11   44.32   33.52
   2   0  11   -3.72   34.80
   2   0  11   29.19   33.67
  -2   0 -11  -35.46   33.49
  -2   0 -11  -16.56   32.62
   2   0  12 8069.43  461.10
   2   0  12 7979.76  406.87
   2   0  12 7351.83  370.48
   2   0  12 8143.94  411.45
  -2   0 -12 8730.87  466.39
   2   0  13   -1.97   33.00
   2   0  13   11.37   33.01
   2   0  13   -7.94   34.57
   2   0  13   25.25   33.06
  -2   0 -13  -16.74   33.25
  -2   0 -13  -54.66   32.24
   2   0  1419676.67 1035.28
   2   0  1418322.83  851.80
   2   0  1418513.63  884.13
  -2   0 -1421393.65  855.17
   2   0  15  -17.14   33.85
   2   0  15  -41.96   33.89
   2   0  15   -3.66   36.29
   2   0  15  -43.82   33.87
  -2   0 -15  -19.07   34.04
  -2   0 -15    2.00   33.24
   2   0  1621503.51 1040.24
   2   0  1623241.57 1002.35
   2   0  1620844.66 1027.28
  -2   0 -1621716.75  905.67
  -2   0 -1624615.54 1262.08
   2   0  17   29.49   42.46
   2   0  17   48.77   42.53
   2   0  17  -80.58   46.16
   2   0  17   30.51   42.47
  -2   0 -17   12.19   42.53
  -2   0 -17   48.47   41.90
   2   0  18 4960.20  346.49
   2   0  18 4174.01  221.61
   2   0  18 4831.62  294.13
  -2   0 -18 4468.09  262.67
  -2   0 -18 5592.56  404.26
   2   0  19  -35.38   47.60
   2   0  19  -29.83   47.64
   2   0  19  -58.16   47.60
  -2   0 -19  -13.88   47.57
  -2   0 -19  -44.32   47.11
   2   0  20  143.87   54.40
   2   0  20   96.43   50.89
  -2   0 -20   48.85   27.06
  -2   0 -20   35.39   77.01
   2   0  21   -4.27   42.18
   2   0  21   59.96   42.07
   2   0  21  -88.29   42.13
  -2   0 -21  -66.41   41.77
   2   0  22  756.42   88.32
   2   0  22  852.73  129.92
   2   0  22  671.95   94.89
  -2   0 -22  696.99  115.03
   2   0  23  -22.03   49.78
   2   0  23  -13.72   49.61
  -2   0 -23   66.16   49.19
   2   0  24  756.54   97.58
   2   0  24 1018.82  135.71
  -2   0 -24  841.42  129.15
   2   0  25   43.30   66.77
   2   0  25   22.55   65.99
   2   0  25  -91.28   66.37
  -2   0 -25    2.22   65.69
   2   0  26 2401.61  201.80
   2   0  26 3131.42  295.31
   2   0  26 2665.28  209.56
  -2   0 -26 2784.35  275.76
   2   0  27   50.01   66.71
   2   0  27    3.39   71.22
  -2   0 -27  -18.31   82.28
   2   0  28 1503.06  140.41
  -2   0 -28 1804.60  196.90
   2   0  29   25.53   62.91
   2   0  29   -9.00   61.40
   2   0  29  -81.45   62.16
  -2   0 -29   21.50   61.03
   2   0  30 1877.86  181.25
   2   0  30 1883.15  200.22
  -2   0 -30 1815.43  196.97
   2   0  31   19.00   86.20
  -2   0 -31    8.80   65.28
   2   1   038234.45 1528.66
   2   1   039901.14 1439.65
   2   1   036443.70 1339.79
   2   1   037899.29 1433.33
  -2   1   042968.06 1450.08
  -2   1   042504.89 1549.78
  -2   1   044256.70 1535.90
  -2   1   045006.43 1443.62
  -2  -1   039783.20 1570.75
  -2  -1   043160.87 1723.27
  -2  -1   043559.54 1341.90
  -2  -1   037066.09 1373.13
   2  -1   041332.23 1427.17
   2  -1   043152.83 1496.12
   2  -1   038458.34 1479.51
   2  -1   040344.15 1432.35
   2   1   1 3177.79  177.20
   2   1   1 3362.45  184.20
   2   1   1 3536.07  249.46
   2   1   1 3358.89  188.43
   2   1   1 3505.68  220.48
  -2   1  -1 3683.98  128.03
  -2   1  -1 3807.60  235.87
  -2   1  -1 4097.31  196.96
  -2   1  -1 3864.52  204.86
  -2  -1  -1 3614.29  191.86
  -2  -1  -1 4147.83  233.79
  -2  -1  -1 4366.85  205.32
  -2  -1  -1 3583.03  171.33
   2  -1   1 3859.60  213.41
   2  -1   1 4141.05  185.51
   2  -1   1 3632.51  178.33
   2  -1   1 3736.21  175.34
   2   1   2 7266.84  353.62
   2   1   2 7290.19  330.27
   2   1   2 7835.55  445.99
   2   1   2 7256.29  362.65
   2   1   2 7839.74  417.88
  -2   1  -2 8088.94  386.91
  -2   1  -2 7906.34  271.10
  -2   1  -2 8301.99  430.62
  -2   1  -2 8641.44  332.12
  -2   1  -2 8611.10  331.83
  -2  -1  -2 7719.57  401.13
  -2  -1  -2 9029.68  466.62
  -2  -1  -2 8803.48  400.20
  -2  -1  -2 7642.16  347.90
   2  -1   2 8364.21  378.06
   2  -1   2 8514.26  370.63
   2  -1   2 7728.41  351.57
   2  -1   2 8277.77  324.34
   2   1   3  759.06   56.37
   2   1   3  703.00   54.75
   2   1   3  721.34   60.40
   2   1   3  713.37   61.46
   2   1   3  914.13   83.30
  -2   1  -3  790.22   70.77
  -2   1  -3 1004.22   81.66
  -2   1  -3  814.13   65.00
  -2  -1  -3  760.19   86.69
  -2  -1  -3  684.08   57.20
  -2  -1  -3  878.91   86.06
  -2  -1  -3  965.48   81.05
  -2  -1  -3  777.49   60.66
   2  -1   3  941.60   78.77
   2  -1   3  797.59   34.56
   2  -1   3  898.91   65.01
   2  -1   3  765.41   56.99
   2  -1   3  842.54   59.59
   2   1   4  544.27   44.96
   2   1   4  494.47   39.32
   2   1   4  462.92   56.16
   2   1   4  550.84   49.40
   2   1   4  618.29   72.12
  -2   1  -4  552.73   61.25
  -2   1  -4  606.78   44.57
  -2   1  -4  636.62   40.83
  -2  -1  -4  533.08   50.76
  -2  -1  -4  468.91   47.80
  -2  -1  -4  691.81   65.26
  -2  -1  -4  664.27   61.27
  -2  -1  -4  536.03   50.46
   2  -1   4  599.89   48.11
   2  -1   4  681.92   57.28
   2  -1   4  593.10   46.45
   2   1   5    7.19   21.79
   2   1   5   42.96   22.79
   2   1   5    5.98   22.76
   2   1   5   -8.83   19.53
   2   1   5    6.63   33.03
  -2   1  -5   12.42   21.27
  -2   1  -5   14.43   14.21
  -2   1  -5   40.58   24.91
  -2   1  -5    3.20   22.37
  -2   1  -5   14.07   22.74
  -2   1  -5   27.74   16.54
  -2  -1  -5    9.29   19.39
  -2  -1  -5   27.88   33.75
  -2  -1  -5   30.76   27.29
  -2  -1  -5    9.36   19.46
   2  -1   5   35.81   26.51
   2  -1   5   12.61   18.84
   2  -1   5    3.75   20.43
   2   1   611018.47  451.06
   2   1   610687.14  493.69
   2   1   6 9359.06  501.80
   2   1   610111.88  489.86
   2   1   611438.77  652.40
  -2   1  -611769.31  564.01
  -2   1  -611526.84  496.17
  -2   1  -612031.83  571.21
  -2   1  -612663.42  481.62
  -2  -1  -610756.47  459.13
  -2  -1  -610627.09  490.79
  -2  -1  -613112.91  682.04
  -2  -1  -612329.95  585.20
  -2  -1  -611000.20  519.28
   2  -1   612324.83  523.85
   2  -1   611892.15  448.74
   2  -1   612760.77  493.21
   2  -1   612499.31  505.34
   2   1   7  661.22   61.60
   2   1   7  572.41   65.71
   2   1   7  611.00   56.93
   2   1   7  523.03   54.31
   2   1   7  878.81   85.94
  -2   1  -7  713.39   70.98
  -2   1  -7  680.26   51.68
  -2   1  -7  833.35   50.34
  -2   1  -7  755.00   62.14
  -2   1  -7  587.91   81.89
  -2   1  -7  833.32   65.80
  -2  -1  -7  583.95   58.67
  -2  -1  -7  712.51   67.09
  -2  -1  -7  911.30   83.40
  -2  -1  -7  746.81   76.06
  -2  -1  -7  753.06   68.87
   2  -1   7  778.21   66.87
   2  -1   7  787.42   54.99
   2  -1   7  752.62   58.38
   2  -1   7  686.28   70.05
   2   1   819522.69  810.80
   2   1   818362.17  819.00
   2   1   817292.04  739.66
   2   1   817100.74  791.65
   2   1   821097.57 1019.96
  -2   1  -819494.83  707.39
  -2   1  -820892.27  893.14
  -2   1  -821406.94  809.67
  -2  -1  -817173.05  692.87
  -2  -1  -818868.06  819.80
  -2  -1  -822186.07  977.42
  -2  -1  -821081.08  948.09
   2  -1   820829.96  885.58
   2  -1   819809.89  721.19
   2  -1   819523.94  753.80
   2  -1   822112.63  854.28
   2   1   9 2191.10  134.98
   2   1   9 2186.67  132.69
   2   1   9 1688.38  113.81
   2   1   9 1843.39  136.48
   2   1   9 2409.08  191.18
  -2   1  -9 2645.09  118.58
  -2   1  -9 2353.94  163.49
  -2   1  -9 2288.37  159.18
  -2  -1  -9 2139.73  129.34
  -2  -1  -9 2502.74  166.15
  -2  -1  -9 2388.10  172.74
   2  -1   9 2460.91  157.13
   2  -1   9 2104.01  116.12
   2  -1   9 2196.93  124.80
   2  -1   9 2273.39  154.29
   2   1  1032034.90 1406.67
   2   1  1031101.70 1301.58
   2   1  1034780.09 1650.28
  -2   1 -1031905.23 1299.44
  -2   1 -1035767.63 1182.24
  -2   1 -1036565.57 1426.25
  -2   1 -1033031.94 1357.23
  -2  -1 -1033675.80 1269.24
  -2  -1 -1037415.42 1442.13
  -2  -1 -1034568.74 1546.06
   2  -1  1034723.29 1511.39
   2  -1  1032566.13 1213.10
   2  -1  1032060.78 1264.00
   2  -1  1033224.50 1265.67
   2   1  11  141.68   30.72
   2   1  11  146.94   39.32
   2   1  11   42.14   29.72
   2   1  11  146.43   46.74
  -2   1 -11  116.18   19.95
  -2   1 -11  123.89   39.83
  -2   1 -11  113.87   29.48
  -2  -1 -11   88.95   25.54
  -2  -1 -11  180.38   44.05
  -2  -1 -11  158.59   46.93
   2  -1  11  141.86   39.75
   2  -1  11  167.32   40.28
   2  -1  11  118.81   23.36
   2  -1  11  214.12   38.81
   2   1  1220279.42 1042.88
   2   1  1223551.08 1139.28
   2   1  1224005.77 1212.50
  -2   1 -1219510.67  918.87
  -2   1 -1222518.16  799.73
  -2   1 -1224223.23 1101.40
  -2   1 -1222078.08  999.95
  -2  -1 -1221547.62  900.02
  -2  -1 -1223876.88 1045.65
  -2  -1 -1224178.99 1099.76
   2  -1  1223470.04  966.65
   2  -1  1221960.31  868.98
   2  -1  1220982.26  826.61
   2  -1  1222514.93  912.20
   2   1  13   60.62   30.16
   2   1  13   47.51   38.47
  -2   1 -13   92.15   23.47
  -2   1 -13   86.27   41.40
  -2  -1 -13   77.36   34.21
  -2  -1 -13    6.54   46.48
   2  -1  13   42.98   43.27
   2  -1  13   63.57   40.95
   2  -1  13   21.81   15.24
   2  -1  13  108.60   32.97
   2   1  14 2431.69  182.75
   2   1  14 2094.02  152.44
   2   1  14 2479.08  222.51
  -2   1 -14 2469.35  223.81
  -2  -1 -14 2345.27  177.42
  -2  -1 -14 2356.09  216.18
   2  -1  14 2618.86  226.44
   2  -1  14 2551.49  146.08
   2  -1  14 2035.45  111.40
   2  -1  14 2236.14  161.29
   2   1  15  614.28   81.06
   2   1  15  537.54   73.22
   2   1  15  690.61   90.27
  -2   1 -15  558.53   44.94
  -2   1 -15  782.81  103.04
  -2  -1 -15  644.70   69.91
  -2  -1 -15  668.41   98.71
   2  -1  15  749.83   90.83
   2  -1  15  489.97   69.48
   2  -1  15  532.54   37.65
   2  -1  15  641.49   72.17
   2   1  16 1762.50  144.52
   2   1  16 1989.99  178.44
  -2   1 -16 1637.92   73.19
  -2   1 -16 1738.50   74.00
  -2   1 -16 1677.11  172.91
  -2  -1 -16 1888.58  151.78
  -2  -1 -16 1902.02  194.88
   2  -1  16 1911.43  179.71
   2  -1  16 1823.54  127.27
   2  -1  16 1643.74  119.37
   2   1  17 2164.98  202.00
   2   1  17 2417.27  180.51
   2   1  17 2164.11  203.59
  -2   1 -17 2375.15  200.24
  -2  -1 -17 1956.01  187.95
  -2  -1 -17 2540.21  249.06
   2  -1  17 2413.15  170.68
   2  -1  17 2194.26  167.64
   2  -1  17 2111.26  150.65
   2   1  18 1969.12  152.24
   2   1  18 1758.13  159.72
   2   1  18 2040.98  172.08
  -2   1 -18 1742.59  179.17
  -2  -1 -18 1920.33  171.57
  -2  -1 -18 2055.81  202.43
   2  -1  18 1950.33  189.82
   2  -1  18 1797.84  147.98
   2  -1  18 1733.27  134.51
   2   1  19  -73.84   49.73
   2   1  19   10.21   49.74
  -2   1 -19  -10.99   48.69
  -2  -1 -19   27.52   49.76
  -2  -1 -19   59.30   48.50
   2  -1  19  -32.69   49.46
   2  -1  19  -48.91   52.26
   2  -1  19  -19.10   49.34
   2   1  20 7253.77  463.26
   2   1  20 8093.36  473.13
  -2   1 -20 8336.61  571.58
  -2  -1 -20 7156.37  467.90
  -2  -1 -20 8969.29  555.90
   2  -1  20 7928.92  460.98
   2  -1  20 8128.85  506.20
   2  -1  20 7831.26  443.79
   2   1  21  399.72   72.60
   2   1  21  497.04   89.98
   2   1  21  420.24   99.79
  -2   1 -21  453.29   98.78
  -2  -1 -21  416.66   62.18
  -2  -1 -21  342.73  100.20
   2  -1  21  378.62   78.20
   2  -1  21  343.54   79.03
   2  -1  21  442.73   63.56
   2   1  22 2736.96  205.88
   2   1  22 3626.99  254.97
  -2   1 -22 3616.70  282.60
  -2  -1 -22 2645.54  215.19
  -2  -1 -22 3131.86  277.27
   2  -1  22 3146.35  227.42
   2  -1  22 3269.72  282.13
   2  -1  22 3018.65  244.12
   2   1  23   17.62   48.35
   2   1  23   75.28   73.87
   2   1  23    9.26   60.76
  -2   1 -23   45.34   72.17
  -2  -1 -23   52.53   35.09
  -2  -1 -23  -66.32   72.59
   2  -1  23    3.62   57.92
   2  -1  23  -49.54   62.77
   2  -1  23   53.78   55.94
   2   1  24 2128.52  172.47
   2   1  24 2431.18  243.34
   2   1  24 2405.54  260.13
  -2   1 -24 2523.47  236.33
  -2  -1 -24 2613.46  255.99
   2  -1  24 2232.31  185.19
   2  -1  24 2320.06  246.43
   2  -1  24 2148.22  189.48
   2   1  25  228.71   56.75
   2   1  25  205.66   73.14
  -2   1 -25  155.10   64.81
  -2  -1 -25  240.94  106.97
   2  -1  25  216.07   70.68
   2  -1  25  264.09   97.29
   2  -1  25  197.98   64.68
   2   1  26  697.84   78.42
   2   1  26  975.79  144.19
  -2   1 -26  960.30  146.36
  -2  -1 -26 1231.39  181.42
   2  -1  26  946.84  127.45
   2  -1  26  996.48  129.83
   2  -1  26 1001.73  116.87
   2   1  27  -26.88   46.09
   2   1  27   17.65   71.42
  -2   1 -27   52.43   66.80
  -2  -1 -27   40.81  100.45
   2  -1  27   37.87   70.28
   2  -1  27    4.80   83.83
   2  -1  27  -10.79   61.15
   2   1  28   12.76   80.84
   2   1  28  150.53  100.60
  -2   1 -28   58.79   68.11
  -2  -1 -28  -25.20   84.51
   2  -1  28   91.27   66.83
   2   1  29  103.53   93.18
  -2   1 -29    7.38   91.38
  -2   1 -29 -116.55   92.70
  -2  -1 -29  -31.44   94.32
  -2  -1 -29  -85.57   90.27
   2  -1  29   47.72   94.05
   2  -1  29   34.44   97.63
   2   1  30  706.98  139.63
  -2   1 -30  391.24  101.24
  -2   1 -30  565.43  114.66
  -2   1 -30  435.34   74.56
  -2  -1 -30  650.22  118.91
   2  -1  30  231.60  120.34
   2   2   0 3457.22  228.42
   2   2   0 3375.47  196.34
   2   2   0 3978.69  220.62
  -2   2   0 3881.22  208.66
  -2   2   0 4281.39  166.42
  -2   2   0 3750.90  163.01
  -2   2   0 4054.96  293.21
  -2   2   0 4504.84  226.93
  -2  -2   0 3201.27  228.80
  -2  -2   0 4249.15  298.76
  -2  -2   0 3320.89  169.80
  -2  -2   0 3380.17  177.70
   2  -2   0 4186.99  217.98
   2  -2   0 3690.68  184.53
   2  -2   0 4041.40  201.56
   2   2   1  101.82   26.34
   2   2   1   85.99   38.64
   2   2   1   73.08   18.33
   2   2   1  145.87   35.30
  -2   2  -1   79.20   26.55
  -2   2  -1  151.91   23.07
  -2   2  -1   86.45   32.76
  -2   2  -1   76.01   20.90
  -2  -2  -1   61.60   19.75
  -2  -2  -1  152.21   46.71
  -2  -2  -1  102.02   25.53
  -2  -2  -1   81.39   20.64
   2  -2   1   81.49   27.29
   2  -2   1   56.47   31.78
   2  -2   1   93.73   23.53
   2   2   218554.89  791.06
   2   2   219229.40  840.21
   2   2   217167.31  799.62
   2   2   222624.26  956.09
  -2   2  -222038.90  867.12
  -2   2  -223085.34  806.28
  -2   2  -223012.31 1010.33
  -2   2  -224158.91  890.09
  -2  -2  -219519.68  760.92
  -2  -2  -222944.26  966.43
  -2  -2  -220577.10  902.61
  -2  -2  -220663.31  830.28
   2  -2   222928.05  881.31
   2  -2   222403.63  871.40
   2  -2   222896.71  746.95
   2   2   3  323.06   35.45
   2   2   3  308.49   48.09
   2   2   3  260.74   31.70
   2   2   3  299.78   38.54
  -2   2  -3  366.12   40.64
  -2   2  -3  435.24   34.84
  -2   2  -3  325.50   30.90
  -2   2  -3  440.38   54.18
  -2   2  -3  266.23   53.61
  -2   2  -3  352.66   39.45
  -2  -2  -3  297.77   37.19
  -2  -2  -3  387.82   55.33
  -2  -2  -3  291.27   45.48
   2  -2   3  401.50   50.66
   2  -2   3  289.72   40.29
   2  -2   3  389.13   31.93
   2   2   431470.61 1240.19
   2   2   431587.80 1380.94
   2   2   437576.68 1573.28
  -2   2  -435301.35 1609.14
  -2   2  -437530.66 1219.25
  -2   2  -438221.64 1470.73
  -2   2  -439544.96 1288.98
  -2   2  -438257.28 1352.25
  -2  -2  -437971.75 1559.06
  -2  -2  -437895.65 1539.19
  -2  -2  -430458.04 1500.34
   2  -2   436861.37 1342.19
   2  -2   435720.01 1285.61
   2  -2   437028.47 1257.54
   2   2   5  346.29   37.58
   2   2   5  389.60   51.99
   2   2   5  278.70   33.53
   2   2   5  451.89   53.29
  -2   2  -5  423.80   33.99
  -2   2  -5  472.38   55.33
  -2   2  -5  364.89   56.17
  -2   2  -5  338.19   30.90
  -2  -2  -5  302.53   46.27
  -2  -2  -5  425.82   59.42
  -2  -2  -5  281.64   46.99
  -2  -2  -5  246.84   50.78
   2  -2   5  366.77   44.95
   2  -2   5  441.81   45.69
   2  -2   5  466.31   36.90
   2   2   614257.46  530.37
   2   2   612373.31  609.56
   2   2   615096.13  748.63
  -2   2  -613393.20  597.99
  -2   2  -615035.07  615.00
  -2   2  -614625.27  669.47
  -2   2  -614111.05  551.12
  -2   2  -614045.52  534.76
  -2  -2  -612127.40  522.57
  -2  -2  -615546.07  826.88
  -2  -2  -615070.25  802.69
   2  -2   614356.01  606.90
   2  -2   613640.37  556.12
   2  -2   614603.73  550.81
   2   2   7  159.54   25.68
   2   2   7  206.71   41.73
   2   2   7  133.61   27.70
   2   2   7  129.20   45.76
  -2   2  -7  126.42   23.63
  -2   2  -7  178.46   29.77
  -2   2  -7  122.41   35.33
  -2   2  -7  154.83   40.13
  -2  -2  -7  107.86   23.38
  -2  -2  -7  152.25   60.02
  -2  -2  -7  159.08   42.04
   2  -2   7  135.55   36.54
   2  -2   7  129.39   20.62
   2   2   8 3974.13  199.55
   2   2   8 4185.59  279.49
   2   2   8 4891.90  307.21
  -2   2  -8 4935.50  270.16
  -2   2  -8 4367.97  248.34
  -2   2  -8 4790.35  279.76
  -2   2  -8 4533.46  197.99
  -2  -2  -8 4514.23  211.88
  -2  -2  -8 5036.29  362.42
  -2  -2  -8 4493.63  318.32
   2  -2   8 4760.78  236.15
   2  -2   8 4925.64  222.29
   2   2   9 1140.94   80.38
   2   2   9 1166.81   98.03
   2   2   9 1276.56  118.69
  -2   2  -9 1219.23   89.13
  -2   2  -9 1392.22  101.44
  -2   2  -9 1157.68   99.19
  -2   2  -9 1339.44   93.84
  -2   2  -9 1373.12   76.31
  -2  -2  -9 1211.86   76.55
  -2  -2  -9 1085.67  108.70
  -2  -2  -9 1173.04  135.91
   2  -2   9 1196.93  107.93
   2  -2   9 1353.60   88.21
   2  -2   9 1208.43   77.75
   2   2  10   -1.39   25.01
   2   2  10    6.82   24.81
   2   2  10  -17.54   24.89
  -2   2 -10  -13.75   24.49
  -2   2 -10   -4.20   24.35
  -2   2 -10  -43.76   24.53
  -2   2 -10    7.10   24.53
  -2  -2 -10    3.88   25.06
  -2  -2 -10    2.46   24.71
   2  -2  10   30.33   24.40
   2  -2  10    9.96   24.51
   2   2  11  154.76   35.38
   2   2  11  185.63   43.88
   2   2  11  243.54   60.89
  -2   2 -11   99.43   27.77
  -2   2 -11  182.74   30.29
  -2   2 -11   87.98   27.64
  -2   2 -11  209.59   46.62
  -2   2 -11  158.90   30.24
  -2  -2 -11  152.87   26.78
  -2  -2 -11  288.01   67.71
  -2  -2 -11   77.14   55.88
   2  -2  11  222.98   52.37
   2  -2  11  177.94   36.67
   2  -2  11  163.40   35.09
   2   2  12 7770.53  419.01
   2   2  12 9114.97  465.04
   2   2  12 8745.96  570.83
  -2   2 -12 8821.00  363.52
  -2   2 -12 7129.64  376.93
  -2   2 -12 8956.70  461.23
  -2   2 -12 7748.15  367.50
  -2  -2 -12 7532.76  329.54
  -2  -2 -12 8547.86  519.35
  -2  -2 -12 8269.28  541.42
   2  -2  12 8639.92  445.35
   2  -2  12 7921.52  338.67
   2   2  13 2667.89  168.62
   2   2  13 2777.70  189.81
   2   2  13 3103.55  219.64
  -2   2 -13 3056.78  140.45
  -2   2 -13 2370.58  175.42
  -2   2 -13 3483.74  243.22
  -2   2 -13 2507.11  184.74
  -2  -2 -13 2509.10  150.53
  -2  -2 -13 3654.51  245.20
  -2  -2 -13 2996.57  243.99
   2  -2  13 3096.33  190.38
   2  -2  13 3336.61  180.27
   2  -2  13 2896.88  179.42
   2   2  14 6169.39  474.64
   2   2  14 8335.57  436.99
   2   2  14 8491.84  516.09
  -2   2 -14 8121.86  303.07
  -2   2 -14 6612.41  316.05
  -2   2 -14 9278.03  531.39
  -2   2 -14 6757.20  340.07
  -2  -2 -14 6666.12  319.26
  -2  -2 -14 8046.27  523.41
  -2  -2 -14 8353.17  536.69
   2  -2  14 8416.36  489.48
   2  -2  14 8803.53  364.67
   2  -2  14 8172.01  353.74
   2   2  15  302.22   54.92
   2   2  15  425.97   70.73
   2   2  15  494.58   80.35
  -2   2 -15  324.40   30.09
  -2   2 -15  281.50   29.15
  -2   2 -15  448.06   78.82
  -2  -2 -15  258.07   40.22
  -2  -2 -15  367.72   64.18
  -2  -2 -15  440.12  100.81
   2  -2  15  324.95   59.05
   2  -2  15  370.37   54.29
   2  -2  15  327.87   54.01
   2   2  16 7738.30  435.00
   2   2  16 8049.61  477.28
   2   2  16 8765.73  468.50
  -2   2 -16 7711.82  303.77
  -2   2 -16 9373.25  526.40
  -2  -2 -16 8532.97  595.91
  -2  -2 -16 8399.21  525.06
   2  -2  16 8997.60  490.16
   2  -2  16 8047.64  401.66
   2   2  17   17.71   30.14
   2   2  17  120.93   30.22
   2   2  17   55.08   30.14
  -2   2 -17  -45.10   29.39
  -2  -2 -17    6.22   30.14
  -2  -2 -17  -70.86   29.79
   2  -2  17  -16.66   29.82
   2  -2  17  -61.24   29.73
   2   2  18 3826.60  277.24
   2   2  18 4419.80  326.32
   2   2  18 4404.15  288.11
  -2   2 -18 4878.47  348.88
  -2  -2 -18 4292.12  318.73
  -2  -2 -18 4350.90  311.98
   2  -2  18 4461.51  317.99
   2  -2  18 4296.50  267.82
   2  -2  18 4308.30  250.33
   2   2  19    8.23   31.49
   2   2  19   44.33   63.85
   2   2  19   64.51   65.31
  -2   2 -19    3.52   49.31
  -2  -2 -19    0.65   56.94
  -2  -2 -19  -85.71   66.78
   2  -2  19    9.53   67.59
   2  -2  19  -25.86   43.78
   2   2  20 1210.53  109.89
   2   2  20 1674.31  195.34
   2   2  20 1736.32  168.61
  -2   2 -20 1695.44  181.44
  -2  -2 -20 1591.05  152.26
  -2  -2 -20 1600.07  174.27
   2  -2  20 1856.30  181.65
   2  -2  20 1541.06  119.89
   2   2  21  100.84   75.76
   2   2  21   18.92   68.40
  -2   2 -21   78.21   52.51
  -2  -2 -21   24.76   54.00
  -2  -2 -21  -16.90   76.28
   2  -2  21   71.25   70.39
   2  -2  21   40.80   47.24
   2   2  22  154.09   71.15
   2   2  22  134.06   77.72
  -2   2 -22  153.19   71.95
  -2  -2 -22  134.52   51.26
  -2  -2 -22  166.31   87.23
   2  -2  22  103.06   86.42
   2   2  23  109.04   78.03
   2   2  23  117.31   72.02
  -2   2 -23   24.76   65.81
  -2   2 -23   33.37   50.38
  -2  -2 -23   82.46   45.18
  -2  -2 -23  -29.85   73.42
   2  -2  23   -0.79   65.88
   2   2  24 1244.97  168.80
   2   2  24 1134.91  130.57
  -2   2 -24 1134.36  140.69
  -2   2 -24  805.20  109.44
  -2  -2 -24  828.62  101.63
  -2  -2 -24 1012.46  158.54
   2  -2  24 1069.46  137.00
   2   2  25  595.71  126.53
   2   2  25  608.97   95.42
  -2   2 -25  760.66  111.87
  -2  -2 -25  605.63  122.08
   2  -2  25  731.18  111.31
   2   2  26  743.26  142.51
   2   2  26 1142.85  146.36
  -2   2 -26  737.05  139.19
  -2  -2 -26  955.69  170.98
   2  -2  26  825.56  109.14
   2   2  27  236.72   97.41
   2   2  27   86.16   69.32
  -2   2 -27   82.20   79.79
  -2  -2 -27    9.06   98.46
   2  -2  27  189.36   84.18
   2   2  28 1571.99  214.39
  -2   2 -28 1486.78  176.55
  -2  -2 -28 1559.91  205.39
  -2   2 -29  236.22  115.67
  -2   2 -29  127.24   84.19
   2   3   0 9771.76  466.38
   2   3   0 7995.15  457.70
   2   3   0 9843.08  499.31
   2   3   0 7642.20  385.27
   2   3   010377.57  447.80
  -2   3   0 9429.94  438.77
  -2   3   010766.89  455.19
  -2   3   010826.75  626.15
  -2  -3   010193.99  555.19
  -2  -3   0 8769.91  392.15
  -2  -3   0 8432.69  353.86
   2  -3   0 9139.87  400.25
   2  -3   010877.45  524.82
   2  -3   010064.19  393.54
   2  -3   0 8180.49  352.15
   2   3   1  988.26   84.03
   2   3   1  787.11   69.62
   2   3   1  958.18   85.86
   2   3   1  690.62   68.82
   2   3   1 1023.48   77.64
  -2   3  -1  702.82   72.05
  -2   3  -1 1077.75   94.31
  -2   3  -1 1011.97  103.23
  -2  -3  -1 1055.96  129.06
  -2  -3  -1 1088.53   67.42
  -2  -3  -1  783.43   62.25
   2  -3   1  892.36   63.88
   2  -3   1  947.85   93.23
   2  -3   1 1023.19   53.36
   2  -3   1  828.41   52.56
   2   3   2 3220.05  175.76
   2   3   2 2814.92  146.90
   2   3   2 3509.07  224.90
   2   3   2 2432.91  186.17
   2   3   2 3561.77  169.89
  -2   3  -2 3908.94  196.78
  -2   3  -2 2875.60  189.72
  -2   3  -2 3593.43  213.66
  -2  -3  -2 3441.22  282.24
  -2  -3  -2 3190.58  166.32
   2  -3   2 3423.95  172.29
   2  -3   2 4022.33  254.85
   2  -3   2 3296.95  117.94
   2  -3   2 2973.18  125.43
   2   3   3  149.44   35.42
   2   3   3  114.56   45.19
   2   3   3   93.12   28.09
   2   3   3  142.87   42.81
  -2   3  -3  144.48   33.29
  -2   3  -3  100.16   28.59
  -2   3  -3  126.38   43.18
  -2  -3  -3  167.83   53.78
  -2  -3  -3   73.84   33.96
   2  -3   3   69.40   33.14
   2  -3   3  129.25   48.25
   2   3   4   95.61   24.83
   2   3   4  132.52   52.12
   2   3   4   69.05   23.72
   2   3   4  118.80   38.21
  -2   3  -4  212.96   45.36
  -2   3  -4   84.97   26.69
  -2   3  -4  217.58   44.23
  -2  -3  -4   70.11   22.98
  -2  -3  -4  135.93   55.33
   2  -3   4   86.34   31.36
   2  -3   4  198.39   43.97
   2   3   5  129.24   27.42
   2   3   5  280.22   64.58
   2   3   5   66.45   33.84
  -2   3  -5  202.55   36.20
  -2   3  -5  100.43   26.11
  -2   3  -5  157.61   43.59
  -2  -3  -5   84.60   22.27
  -2  -3  -5  209.01   58.48
  -2  -3  -5  108.52   36.61
   2  -3   5  152.10   40.87
   2  -3   5  154.24   50.20
   2   3   6 6210.28  332.61
   2   3   6 5918.01  380.15
  -2   3  -6 6340.34  303.61
  -2   3  -6 5310.29  331.28
  -2  -3  -6 4705.97  236.74
  -2  -3  -6 5854.08  381.50
  -2  -3  -6 5594.89  350.33
   2  -3   6 5901.09  267.63
   2   3   7   14.68   20.64
   2   3   7   25.51   51.81
   2   3   7  -24.93   49.28
  -2   3  -7   36.42   32.38
  -2   3  -7   33.05   36.53
  -2   3  -7   31.92   40.33
  -2  -3  -7  -22.71   15.84
  -2  -3  -7  148.19   67.90
  -2  -3  -7   43.23   32.21
   2  -3   7   46.98   59.68
   2   3   811201.86  473.66
   2   3   814880.25  742.04
   2   3   812557.43  649.64
  -2   3  -813791.45  566.26
  -2   3  -812396.67  665.24
  -2   3  -814011.21  619.83
  -2  -3  -812309.40  757.66
  -2  -3  -812005.63  600.18
   2  -3   812606.07  559.64
   2   3   9 1664.97  132.17
   2   3   9 1407.92  125.20
  -2   3  -9 1455.75  136.69
  -2   3  -9 1680.79  129.19
  -2  -3  -9 1083.11   73.28
  -2  -3  -9 1422.92  147.57
  -2  -3  -9 1465.06  123.20
   2  -3   9 1526.73  121.20
   2   3  1010829.02  576.12
   2   3  10 9904.73  551.54
  -2   3 -1010201.93  529.81
  -2   3 -1011123.64  541.51
  -2  -3 -1010257.98  548.93
  -2  -3 -10 9980.55  576.93
   2  -3  1011099.05  510.70
   2  -3  1010070.59  480.50
   2   3  11  792.85   55.24
   2   3  11 1160.35  121.30
   2   3  11 1022.35  112.63
  -2   3 -11  993.09   97.41
  -2   3 -11 1189.09  117.70
  -2  -3 -11 1013.50  126.74
  -2  -3 -11  914.68  111.28
   2  -3  11 1042.22   94.79
   2  -3  11  883.38   91.39
   2   3  12 1496.66  139.21
   2   3  12 1494.41  137.81
  -2   3 -12 1849.72  139.94
  -2   3 -12 1880.64  151.54
  -2  -3 -12 1407.29  158.91
  -2  -3 -12 1710.56  168.84
   2  -3  12 1899.69  140.61
   2  -3  12 1595.64  135.79
   2   3  13  390.99   84.15
   2   3  13  345.91   75.92
  -2   3 -13  331.06   59.10
  -2   3 -13  281.15   65.39
  -2  -3 -13  227.30   80.19
  -2  -3 -13  214.78   67.50
   2  -3  13  295.68   81.27
   2   3  14 3074.16  247.83
   2   3  14 2749.02  194.73
  -2   3 -14 2545.78  169.45
  -2   3 -14 2978.26  237.93
  -2  -3 -14 2521.91  177.79
  -2  -3 -14 2604.69  233.63
   2  -3  14 3032.80  220.52
   2  -3  14 2543.42  191.30
   2   3  15   24.56   70.04
   2   3  15   12.95   62.47
  -2   3 -15    4.02   51.28
  -2  -3 -15    8.87   66.91
  -2  -3 -15  -38.14   61.78
   2  -3  15  148.44   76.29
   2   3  16  -10.76   65.70
   2   3  16   19.87   58.23
  -2   3 -16   16.75   50.97
  -2  -3 -16   78.56   56.71
  -2  -3 -16   63.92   72.93
   2  -3  16   31.58   64.81
   2   3  17    2.76   65.72
   2   3  17  -44.42   59.40
  -2   3 -17   77.77   62.93
  -2  -3 -17   49.45   65.91
  -2  -3 -17    8.86   77.46
   2  -3  17  -16.31   56.02
   2  -3  17   14.59   52.21
   2   3  18 2117.95  200.33
   2   3  18 2185.47  163.45
  -2   3 -18 2205.53  174.84
  -2  -3 -18 1860.94  172.34
  -2  -3 -18 1715.77  196.34
   2  -3  18 2512.49  194.76
   2  -3  18 1796.90  169.16
   2   3  19  198.65   79.74
   2   3  19   75.65   65.85
  -2   3 -19   74.87   66.57
  -2  -3 -19  114.72   77.01
  -2  -3 -19   16.80   83.84
   2  -3  19   46.50   81.73
   2  -3  19  134.15   57.39
   2   3  20 2075.32  241.28
   2   3  20 2226.33  202.94
  -2   3 -20 2329.58  227.89
  -2  -3 -20 2119.89  204.50
  -2  -3 -20 2325.63  240.21
   2  -3  20 2261.93  202.35
   2  -3  20 1953.83  174.16
   2   3  21  -54.51   77.53
   2   3  21   -8.00   77.00
  -2   3 -21  -28.73   75.59
  -2  -3 -21   34.03   77.17
  -2  -3 -21 -160.69   78.95
   2  -3  21   21.23   76.87
   2   3  22 2698.76  280.59
   2   3  22 2925.12  246.22
  -2   3 -22 2796.65  255.27
  -2  -3 -22 2469.35  203.96
  -2  -3 -22 2893.93  291.89
   2  -3  22 2799.97  274.66
   2  -3  22 2394.29  196.75
   2   3  23    3.84   82.12
   2   3  23   58.23   69.91
  -2   3 -23   -0.57   57.89
  -2  -3 -23   52.94   57.42
  -2  -3 -23   47.17   93.53
   2  -3  23  106.65   73.29
   2  -3  23   12.11   55.79
   2   3  24 1330.05  164.69
   2   3  24 1363.80  193.92
  -2   3 -24 1545.73  192.86
  -2  -3 -24 1174.50  147.00
  -2  -3 -24 1335.87  180.19
   2   3  25   83.57   66.76
   2   3  25   50.39   90.46
  -2   3 -25  -48.81   71.27
  -2   3 -25  131.50   77.27
  -2  -3 -25  -34.27   46.68
  -2  -3 -25   62.55   80.87
   2   3  26   63.55   83.19
  -2   3 -26   63.97   93.71
  -2   3 -26   68.62   66.56
  -2  -3 -26  -22.62   87.18
   2   4   0 1844.56  132.10
   2   4   0 1948.87  142.33
  -2   4   0 1719.65  130.88
  -2   4   0 2156.18  182.20
  -2   4   0 1814.09  128.94
  -2  -4   0 2013.35  195.12
   2  -4   0 1900.75  175.11
   2   4   1  287.01   45.84
   2   4   1  475.63  112.39
   2   4   1  118.12   42.51
  -2   4  -1  205.05   39.05
  -2   4  -1  253.84   56.29
  -2   4  -1  199.68   60.93
  -2  -4  -1  207.31   89.17
  -2  -4  -1  298.12   45.70
   2  -4   1  451.42   80.32
   2   4   2 4647.81  236.21
   2   4   2 5376.72  289.86
   2   4   2 4070.91  238.61
  -2   4  -2 4818.06  259.36
  -2   4  -2 5017.72  298.19
  -2   4  -2 4590.09  266.00
  -2  -4  -2 4745.71  296.29
  -2  -4  -2 4329.10  235.96
   2  -4   2 5586.35  298.72
   2   4   3  587.53  136.13
   2   4   3  299.32   56.91
  -2   4  -3  324.88   58.86
  -2   4  -3  339.83   61.45
  -2   4  -3  297.94   72.51
  -2  -4  -3  249.89   84.90
  -2  -4  -3  432.18   62.21
   2  -4   3  637.31   90.15
   2   4   4 7082.01  349.13
   2   4   4 6562.47  356.74
  -2   4  -4 6902.74  366.80
  -2   4  -4 7740.94  409.44
  -2   4  -4 7358.53  352.05
  -2  -4  -4 6873.07  437.73
  -2  -4  -4 6483.34  334.15
   2  -4   4 7505.28  408.17
   2   4   5 1291.54  197.23
   2   4   5  798.36   86.81
  -2   4  -5 1138.36  111.18
  -2   4  -5  980.51  104.96
  -2  -4  -5  865.84  115.88
  -2  -4  -5  982.95   88.16
   2  -4   5 1150.37  111.65
   2   4   6 4955.07  285.92
   2   4   6 4425.99  263.53
  -2   4  -6 5477.85  317.02
  -2   4  -6 4835.92  293.66
  -2   4  -6 5678.79  313.74
  -2  -4  -6 4812.59  284.70
  -2  -4  -6 4597.94  251.90
   2   4   7 1792.27  158.81
   2   4   7 1432.94  126.12
  -2   4  -7 1834.11  150.89
  -2   4  -7 1504.01  140.42
  -2   4  -7 1768.88  141.34
  -2  -4  -7 1491.88  152.33
  -2  -4  -7 1472.66  130.68
   2   4   8  353.53   75.96
   2   4   8  176.72   60.62
  -2   4  -8  228.43   49.08
  -2   4  -8  313.51   76.04
  -2   4  -8  348.05   68.71
  -2  -4  -8  234.06   93.77
  -2  -4  -8  208.19   58.94
   2  -4   8  199.58   55.02
   2   4   9  525.77   84.83
   2   4   9  382.84   66.47
  -2   4  -9  491.37   70.14
  -2   4  -9  440.89   72.87
  -2   4  -9  679.65   95.18
  -2  -4  -9  419.21   94.43
  -2  -4  -9  396.73   72.34
   2  -4   9  446.18   71.72
   2   4  10  194.96   65.26
   2   4  10   95.10   57.41
  -2   4 -10  163.61   45.35
  -2   4 -10  140.00   46.94
  -2   4 -10  201.63   65.99
  -2  -4 -10  217.44   95.50
   2  -4  10  161.24   57.50
   2   4  11   10.97   61.05
   2   4  11  -35.27   62.63
  -2   4 -11   48.02   43.59
  -2   4 -11   61.06   43.09
  -2   4 -11   51.77   66.90
  -2  -4 -11   -7.23   68.85
  -2  -4 -11   39.92   53.98
   2  -4  11  -36.84   50.58
   2   4  12  842.88  109.57
   2   4  12  683.11   85.81
  -2   4 -12  693.62   83.77
  -2   4 -12  611.88   78.58
  -2   4 -12  944.90  133.91
  -2  -4 -12  863.67  121.09
  -2  -4 -12  726.72  100.78
   2   4  13  161.87   67.46
   2   4  13   24.68   60.41
  -2   4 -13  166.70   77.88
  -2  -4 -13  182.87   72.10
  -2  -4 -13   85.65   70.70
   2   4  14 2365.30  212.35
   2   4  14 1893.74  154.55
  -2   4 -14 2474.32  209.49
  -2  -4 -14 2196.29  197.47
  -2  -4 -14 2185.83  188.85
   2   4  15  165.35   71.63
   2   4  15  122.42   65.36
  -2   4 -15   62.49   83.17
  -2   4 -15  163.18   73.87
  -2  -4 -15  213.49   74.93
  -2  -4 -15   41.49   73.49
   2   4  16 1596.64  181.25
   2   4  16 1537.77  155.59
  -2   4 -16 1698.34  150.90
  -2   4 -16 1497.91  179.95
  -2  -4 -16 1575.28  180.99
  -2  -4 -16 1593.15  171.77
   2   4  17  485.57   97.01
   2   4  17  257.24   82.37
  -2   4 -17  243.51   92.97
  -2   4 -17  441.75  104.64
  -2  -4 -17  407.34   99.64
  -2  -4 -17  464.36   97.02
   2   4  18 1854.75  199.54
   2   4  18 1731.01  159.72
  -2   4 -18 1865.21  190.68
  -2   4 -18 1872.81  193.16
  -2  -4 -18 1860.40  202.41
  -2  -4 -18 1647.50  195.82
   2   4  19   -1.31   73.31
   2   4  19  -21.94   75.71
  -2   4 -19    0.29   69.03
  -2   4 -19   51.63   57.49
  -2  -4 -19    1.66   72.81
  -2  -4 -19   12.13   85.83
   2   4  20  706.42  130.77
   2   4  20  415.82  115.40
  -2   4 -20  431.95  106.22
  -2   4 -20  413.89   96.22
  -2  -4 -20  414.78  105.20
  -2  -4 -20  453.59  133.47
   2   4  21  115.25   74.97
   2   4  21   32.47   77.51
  -2   4 -21   -9.63   70.01
  -2   4 -21  -28.11   51.02
  -2  -4 -21   63.28   67.60
   2   5   0 1864.22  206.42
  -2   5   0 1387.59  171.84
  -2  -5   0 1542.44  167.93
   2  -5   0 1844.23  195.98
   2   5   1  424.51  123.09
  -2   5  -1  277.77   91.14
  -2  -5  -1  336.42  105.47
   2  -5   1  440.24   87.06
   2   5   2  909.65  131.27
  -2   5  -2  598.58  102.42
  -2  -5  -2  667.53  123.53
  -2   5  -3  253.91   89.22
  -2  -5  -3  219.59   92.27
   2  -5   3  311.37   71.18
   2   5   4  500.46   95.44
  -2   5  -4  317.38   85.16
  -2  -5  -4  210.14   97.01
   2   5   5  187.81   83.10
  -2   5  -5  157.32   65.76
  -2  -5  -5  175.61  104.32
   2   5   6  468.56  111.24
  -2   5  -6  422.97   90.11
  -2  -5  -6  437.43  117.91
   2   5   7  340.20   89.59
  -2   5  -7  277.54   76.03
  -2   5  -7  235.43   67.29
  -2  -5  -7  237.45   99.50
   2   5   8 1141.95  156.74
  -2   5  -8 1036.94  106.43
  -2   5  -8 1064.59  116.46
  -2  -5  -8 1167.76  144.96
   2   5   9  378.79   94.04
  -2   5  -9  297.85   71.03
  -2   5  -9  471.50   81.88
  -2  -5  -9  196.07   86.22
   2   5  10 1706.40  184.25
  -2  -5 -10 1241.04  137.92
   2   5  11  347.13  101.41
  -2   5 -11  170.85   55.08
  -2  -5 -11  135.82   80.97
   2   5  12 1070.26  135.85
  -2   5 -12  906.47  124.11
  -2  -5 -12  625.41  116.30
   2   5  13   42.48   74.09
  -2   5 -13   32.08   58.46
  -2  -5 -13   -4.92   83.82
   3   0   0   46.76   29.86
   3   0   0   36.00   19.03
   3   0   0   42.20   27.46
   3   0   0   52.39   25.70
   3   0   0   30.43   24.72
  -3   0   0   82.16   29.84
  -3   0   0   35.22   20.28
  -3   0   0   66.72   46.67
   3   0   145369.47 1558.07
   3   0   144134.27 1527.33
   3   0   139474.25 1458.64
   3   0   144948.79 1800.83
   3   0   140687.80 1575.17
  -3   0  -149212.52 1756.09
  -3   0  -143607.57 1817.66
  -3   0  -142913.95 1479.46
  -3   0  -146420.54 1438.30
   3   0   2    5.97   25.83
   3   0   2  -12.51   15.43
   3   0   2    3.16   18.91
   3   0   2   27.01   25.07
  -3   0  -2   34.62   26.72
  -3   0  -2   -3.65   30.27
  -3   0  -2   24.40   21.20
  -3   0  -2   13.10   21.21
  -3   0  -2    6.30   19.98
   3   0   325671.94 1014.20
   3   0   324046.14  880.33
   3   0   322926.45  882.81
   3   0   324468.90  995.43
   3   0   323035.99  949.59
  -3   0  -324512.50  984.02
  -3   0  -323014.96  949.41
  -3   0  -324014.70  943.50
  -3   0  -325155.36  886.52
   3   0   4    9.75   32.22
   3   0   4   32.34   19.41
   3   0   4  -10.62   20.35
   3   0   4   51.44   33.79
  -3   0  -4   12.16   18.56
  -3   0  -4   -6.77   14.71
  -3   0  -4   13.80   29.49
  -3   0  -4   16.45   22.91
  -3   0  -4   -1.64   13.72
  -3   0  -4  -13.22   16.16
   3   0   5 3208.64  226.57
   3   0   5 3784.53  206.84
  -3   0  -5 3576.02  203.34
  -3   0  -5 3722.90  181.24
  -3   0  -5 3846.30  227.45
  -3   0  -5 3664.94  201.22
  -3   0  -5 3609.21  215.75
   3   0   6   27.20   33.01
   3   0   6    3.21   20.59
   3   0   6  -23.68   24.50
   3   0   6   20.89   21.75
   3   0   6   22.94   40.85
  -3   0  -6  -22.50   20.40
  -3   0  -6   19.13   19.50
  -3   0  -6   20.89   31.56
  -3   0  -6  -28.96   24.50
  -3   0  -6   -0.94   18.43
   3   0   715116.58  775.82
   3   0   716513.43  661.52
   3   0   714727.53  672.45
   3   0   713088.36  634.17
   3   0   714914.61  812.29
  -3   0  -714719.22  697.25
  -3   0  -716017.73  657.18
  -3   0  -716617.21  715.03
  -3   0  -715988.76  667.05
  -3   0  -714714.07  613.31
   3   0   8   -2.26   27.06
   3   0   8   -1.01   26.71
   3   0   8  -26.52   28.02
   3   0   8    1.40   27.35
  -3   0  -8    2.18   27.04
  -3   0  -8   25.72   26.58
  -3   0  -8  -16.80   26.60
   3   0   924330.03 1042.92
   3   0   924205.85  975.36
   3   0   920862.62  960.79
   3   0   922341.00 1044.78
  -3   0  -921520.36  943.94
  -3   0  -924643.76  992.06
  -3   0  -923241.94  950.61
   3   0  10    3.94   38.93
   3   0  10  -38.27   38.63
   3   0  10  -38.67   40.65
   3   0  10  -12.29   39.29
  -3   0 -10   12.84   38.53
  -3   0 -10   -7.06   38.08
  -3   0 -10    9.75   38.02
   3   0  1113759.73  792.89
   3   0  1114627.67  659.27
   3   0  1112030.45  642.74
   3   0  1114267.76  700.01
  -3   0 -1112159.57  676.02
  -3   0 -1114749.50  677.03
  -3   0 -1114228.82  746.32
   3   0  12  -31.07   40.26
   3   0  12  -33.47   42.47
   3   0  12  -37.32   40.48
  -3   0 -12   16.73   39.62
  -3   0 -12  -21.96   39.23
   3   0  1317368.90  879.38
   3   0  1315486.23  743.59
   3   0  1316269.22  863.33
  -3   0 -1317301.74  834.05
  -3   0 -1318367.58  949.58
   3   0  14    9.91   31.62
   3   0  14   27.38   40.38
   3   0  14  -15.09   29.57
   3   0  14   54.68   46.21
  -3   0 -14   23.69   24.42
  -3   0 -14  -47.77   48.20
   3   0  15 4681.88  345.72
   3   0  15 4265.29  262.91
   3   0  15 3519.67  230.19
   3   0  15 3905.95  225.29
  -3   0 -15 4610.36  250.85
  -3   0 -15 4409.30  326.39
   3   0  16  -17.37   45.27
   3   0  16   66.95   45.55
   3   0  16   19.99   41.86
  -3   0 -16   14.12   31.23
  -3   0 -16   -7.69   50.62
   3   0  17   45.64   42.23
   3   0  17   34.44   49.30
   3   0  17    7.25   42.36
  -3   0 -17   48.98   30.78
  -3   0 -17  133.83   64.78
   3   0  18   37.81   46.50
   3   0  18   18.82   51.11
   3   0  18   19.55   58.58
  -3   0 -18    2.69   28.04
  -3   0 -18    5.85   65.04
   3   0  19  142.68   61.76
   3   0  19   71.67   61.47
   3   0  19  152.42   57.99
  -3   0 -19   73.83   33.84
  -3   0 -19  221.92   69.74
   3   0  20   40.29   53.73
   3   0  20   60.01   48.31
  -3   0 -20   19.30   30.07
  -3   0 -20    2.64   64.27
   3   0  21 5464.25  396.32
   3   0  21 5677.04  325.71
  -3   0 -21 6310.55  472.29
   3   0  22  -74.15   55.13
   3   0  22 -113.88   55.14
   3   0  22   75.16   55.13
  -3   0 -22   21.72   54.65
   3   0  23 5052.38  334.44
   3   0  23 5087.64  331.95
  -3   0 -23 5064.53  363.01
   3   0  24   76.62   60.92
   3   0  24    8.92   75.27
  -3   0 -24  -10.06   66.87
   3   0  25 4160.20  279.56
   3   0  25 4749.33  330.39
  -3   0 -25 4618.41  384.71
   3   0  26   15.64   73.37
   3   0  26   52.62   77.92
   3   0  26  -15.89   69.68
  -3   0 -26   15.03   75.93
   3   0  27  857.96  125.10
   3   0  27  827.51  128.20
  -3   0 -27 1067.48  153.01
   3   0  28   92.82   64.07
   3   0  28   -9.94   88.56
   3   0  28   22.86   79.74
  -3   0 -28    0.78   76.66
   3   0  29  176.53   84.93
  -3   0 -29  204.16   79.18
   3   0  30   10.14   54.26
   3   0  30  -68.07   74.49
   3   0  30   69.11   65.45
  -3   0 -30   41.26   77.99
   3   1   0   16.36   28.98
   3   1   0    4.40   23.92
   3   1   0   14.09   18.15
   3   1   0   44.16   21.69
   3   1   0   23.94   28.72
  -3   1   0  -12.58   20.03
  -3   1   0    9.26    7.31
  -3   1   0   -1.64   27.20
  -3   1   0  -25.17   19.86
  -3   1   0  -19.75   17.58
  -3  -1   0   18.88   17.75
  -3  -1   0  -20.02   28.03
  -3  -1   0   24.97   16.36
  -3  -1   0   33.57   12.27
  -3  -1   0    0.29   18.78
   3  -1   0   -9.42   27.83
   3  -1   0    0.21   24.16
   3  -1   0   55.66   28.41
   3  -1   0    3.34   20.41
   3   1   1 1360.33  104.64
   3   1   1 1045.82   82.31
   3   1   1  934.90   98.85
   3   1   1 1143.06  109.25
  -3   1  -1 1415.99  102.73
  -3   1  -1 1311.70  101.57
  -3   1  -1 1443.93   85.75
  -3  -1  -1 1179.22   96.05
  -3  -1  -1 1331.70  127.50
  -3  -1  -1 1244.79   85.69
  -3  -1  -1 1295.98   82.29
   3  -1   1 1309.64   83.50
   3  -1   1 1238.53   83.79
   3  -1   1 1287.30   89.70
   3  -1   1 1261.58   76.55
   3   1   2 3354.63  219.27
   3   1   2 3270.04  159.52
   3   1   2 2931.31  247.67
   3   1   2 2808.23  177.87
   3   1   2 3458.24  242.51
  -3   1  -2 3386.02  192.84
  -3   1  -2 3510.02  214.07
  -3   1  -2 3984.06  207.51
  -3   1  -2 3939.76  187.26
  -3  -1  -2 3414.56  219.91
  -3  -1  -2 4006.30  269.12
  -3  -1  -2 3452.16  190.41
  -3  -1  -2 3348.08  213.15
   3  -1   2 3595.59  203.78
   3  -1   2 3529.26  176.52
   3  -1   2 3367.19  176.33
   3  -1   2 3605.06  165.83
   3   1   329551.55 1185.60
   3   1   331557.80 1224.96
   3   1   327694.06 1171.41
   3   1   326765.68 1204.42
   3   1   329820.21 1354.18
  -3   1  -331564.46 1278.87
  -3   1  -332961.46 1263.70
  -3   1  -334788.36 1138.51
  -3   1  -334990.32 1214.60
  -3  -1  -332212.34 1287.25
  -3  -1  -335901.78 1477.86
  -3  -1  -331955.88 1279.13
   3  -1   333049.12 1256.38
   3  -1   332214.96 1267.68
   3  -1   330599.74 1246.48
   3  -1   330770.37 1147.23
   3   1   4 1096.43   75.78
   3   1   4  898.76   68.76
   3   1   4  705.84   88.25
   3   1   4  730.36   69.63
   3   1   4 1073.96  111.25
  -3   1  -4  868.65   86.97
  -3   1  -4 1033.54   80.72
  -3   1  -4  994.51   93.37
  -3   1  -4 1220.50   69.44
  -3  -1  -4  836.48   59.42
  -3  -1  -4  936.07   70.49
  -3  -1  -4 1156.64  132.80
  -3  -1  -4 1145.59   93.04
  -3  -1  -4  984.57   93.23
   3  -1   4 1111.84   89.99
   3  -1   4  969.08   66.69
   3  -1   4 1090.95   81.80
   3   1   527351.64 1095.04
   3   1   531010.38 1364.14
  -3   1  -529693.21 1136.60
  -3   1  -527530.04 1056.82
  -3   1  -531718.51 1103.42
  -3  -1  -528347.41 1178.70
  -3  -1  -532393.91 1385.20
  -3  -1  -530393.05 1242.09
   3  -1   531176.02 1153.22
   3  -1   530536.26  974.01
   3  -1   529162.82 1154.48
   3  -1   532336.65 1222.54
   3   1   6 3782.87  187.19
   3   1   6 3810.02  196.58
   3   1   6 2754.71  201.97
   3   1   6 3897.29  278.22
  -3   1  -6 3926.37  167.74
  -3   1  -6 3946.40  187.70
  -3   1  -6 3575.01  237.68
  -3   1  -6 3955.47  201.78
  -3  -1  -6 3467.71  241.04
  -3  -1  -6 3542.09  174.23
  -3  -1  -6 4100.55  281.57
  -3  -1  -6 3838.35  248.99
   3  -1   6 4211.89  218.65
   3  -1   6 3638.26  149.45
   3  -1   6 3703.84  183.46
   3  -1   6 4062.57  229.54
   3   1   727408.55 1065.52
   3   1   725137.61 1048.96
   3   1   727502.73 1357.36
  -3   1  -730609.50 1078.82
  -3   1  -727991.47 1050.30
  -3   1  -730349.75 1270.03
  -3  -1  -724565.69 1044.55
  -3  -1  -731448.40 1317.72
  -3  -1  -729618.01 1167.72
   3  -1   729325.01 1080.97
   3  -1   728990.06 1009.14
   3  -1   731212.47 1207.51
   3   1   8  350.70   45.30
   3   1   8  272.88   38.24
   3   1   8  213.76   30.24
   3   1   8  353.00   65.46
  -3   1  -8  384.94   42.09
  -3   1  -8  277.82   39.53
  -3  -1  -8  283.34   36.88
  -3  -1  -8  357.28   56.69
  -3  -1  -8  330.49   53.96
   3  -1   8  303.52   53.30
   3  -1   8  297.60   35.84
   3  -1   8  238.93   34.17
   3  -1   8  369.68   51.20
   3   1   9 8169.62  419.94
   3   1   9 8560.88  506.72
  -3   1  -9 8579.31  373.04
  -3   1  -9 8545.75  347.49
  -3   1  -9 8658.45  435.70
  -3   1  -9 7818.07  401.07
  -3  -1  -9 9236.57  432.81
  -3  -1  -9 8639.02  468.22
   3  -1   9 8709.56  485.14
   3  -1   9 7603.34  350.98
   3  -1   9 7825.22  381.22
   3  -1   9 8801.90  386.29
   3   1  10   -4.67   31.83
   3   1  10    6.55   31.38
   3   1  10   -9.22   31.91
  -3   1 -10    6.29   31.88
  -3   1 -10   14.37   31.03
  -3  -1 -10  -15.59   31.76
  -3  -1 -10  -39.07   31.25
   3  -1  10   19.53   31.65
   3  -1  10   -8.45   32.33
   3  -1  10  -18.01   32.18
   3  -1  10    7.89   32.14
   3   1  11  -38.56   26.80
   3   1  11  -23.22   37.67
   3   1  11   67.47   42.03
  -3   1 -11    0.65   24.50
  -3   1 -11   82.51   41.04
  -3  -1 -11   28.58   38.03
   3  -1  11   17.12   43.60
   3  -1  11   44.59   36.67
   3  -1  11    7.84   21.37
   3  -1  11   19.63   35.06
   3   1  12   11.40   27.62
   3   1  12  -18.46   41.67
   3   1  12   33.21   49.27
  -3   1 -12   -6.33   24.73
  -3   1 -12   21.81   39.10
  -3  -1 -12   13.28   37.01
  -3  -1 -12   70.05   42.79
   3  -1  12  -10.94   37.61
   3  -1  12  -35.64   32.48
   3  -1  12   -3.63   20.58
   3  -1  12    8.79   30.48
   3   1  13 2381.74  204.13
   3   1  13 2577.73  175.16
   3   1  13 2859.78  183.80
  -3   1 -13 2071.14  158.80
  -3   1 -13 2675.62  162.36
  -3   1 -13 2669.94  222.74
  -3  -1 -13 2662.41  197.85
  -3  -1 -13 2820.12  235.84
   3  -1  13 2989.14  252.26
   3  -1  13 2396.94  134.09
   3  -1  13 2085.81  153.50
   3  -1  13 2517.16  159.16
   3   1  14   72.97   39.23
   3   1  14   88.61   56.89
  -3   1 -14   40.96   27.99
  -3   1 -14   78.39   44.98
  -3  -1 -14   63.98   37.38
  -3  -1 -14   -4.57   44.94
   3  -1  14   43.02   50.90
   3  -1  14   40.46   38.56
   3  -1  14   27.90   19.93
   3  -1  14   40.03   34.72
   3   1  15 3959.06  294.77
   3   1  15 3720.15  244.81
   3   1  15 3932.60  296.90
  -3   1 -15 4142.45  207.13
  -3   1 -15 4305.41  311.71
  -3  -1 -15 3834.23  227.97
  -3  -1 -15 4329.02  361.83
   3  -1  15 4090.72  279.88
   3  -1  15 3807.47  210.99
   3  -1  15 3031.10  189.54
   3  -1  15 3941.98  224.65
   3   1  16  -15.96   38.19
   3   1  16   13.52   37.49
   3   1  16   41.04   38.00
  -3   1 -16  -25.58   37.24
  -3   1 -16  -10.40   36.84
  -3  -1 -16  -11.83   38.03
  -3  -1 -16  -63.20   37.38
   3  -1  16    0.72   37.78
   3  -1  16   69.58   40.20
   3  -1  16  -10.97   38.32
   3  -1  16    9.84   37.92
   3   1  17 8622.00  511.14
   3   1  17 8408.49  507.07
   3   1  17 8429.87  415.06
  -3   1 -17 8030.06  375.32
  -3   1 -17 9940.17  585.96
  -3  -1 -17 7625.18  455.69
  -3  -1 -17 8697.46  600.97
   3  -1  17 8417.85  489.26
   3  -1  17 8654.42  468.90
   3  -1  17 8327.51  459.48
   3   1  18   54.88   44.21
   3   1  18  116.52   65.39
   3   1  18  125.40   67.55
  -3   1 -18   16.22   22.55
  -3   1 -18   88.93   66.46
  -3  -1 -18   72.05   49.15
  -3  -1 -18  -12.61   63.46
   3  -1  18   26.47   60.36
   3  -1  18  -12.58   49.10
   3  -1  18    3.89   43.95
   3   1  19 8236.51  569.69
   3   1  19 9514.29  522.29
  -3   1 -19 9743.75  641.73
  -3  -1 -19 7939.55  451.71
  -3  -1 -19 9599.22  605.60
   3  -1  19 9569.76  512.20
   3  -1  19 8728.56  520.71
   3  -1  19 7904.65  417.68
   3   1  20  146.65   52.84
   3   1  20  218.79   76.28
   3   1  20   93.09   66.68
  -3   1 -20  232.33   87.62
  -3  -1 -20  199.56   50.47
  -3  -1 -20  130.43   83.85
   3  -1  20  132.81   66.88
   3  -1  20   36.36   61.56
   3  -1  20  195.56   59.06
   3   1  21 2015.87  186.84
   3   1  21 2371.27  236.34
   3   1  21 2307.58  209.09
  -3   1 -21 2577.72  241.92
  -3  -1 -21 1872.22  163.10
  -3  -1 -21 2704.40  237.80
   3  -1  21 2159.76  188.32
   3  -1  21 2153.30  193.23
   3  -1  21 2263.31  158.23
   3   1  22  330.33   75.95
   3   1  22  430.57  106.93
   3   1  22  438.11   83.45
  -3   1 -22  355.70   91.16
  -3  -1 -22  302.86   57.08
  -3  -1 -22  407.92   99.38
   3  -1  22  322.17   64.64
   3  -1  22  462.82   79.42
   3  -1  22  479.99   78.92
   3   1  23  649.77  109.23
   3   1  23  805.07  140.62
   3   1  23  943.83  115.64
  -3   1 -23  700.31  123.15
  -3  -1 -23  742.33  123.64
   3  -1  23  645.03   98.66
   3  -1  23  824.51  114.10
   3   1  24  117.14   47.78
   3   1  24  164.66   81.40
  -3   1 -24   78.74   81.35
  -3  -1 -24  116.67   94.71
   3  -1  24   27.95   72.80
   3  -1  24  163.77   76.66
   3  -1  24  129.06   64.21
   3   1  25  434.20   84.51
   3   1  25  377.00  109.93
   3   1  25  498.71  106.21
  -3   1 -25  405.92   94.49
  -3  -1 -25  552.86  130.61
   3  -1  25  540.23   89.23
   3  -1  25  557.78  113.34
   3  -1  25  582.23   93.90
   3   1  26   32.34   53.30
   3   1  26  -88.32   71.21
  -3   1 -26  -27.68   79.45
  -3  -1 -26  -18.44   99.14
   3  -1  26   -2.74   66.97
   3  -1  26   31.38   88.88
   3  -1  26   92.29   67.07
   3   1  27 1083.42  112.51
   3   1  27 1691.37  168.18
  -3   1 -27 1447.91  195.74
  -3  -1 -27 1790.05  209.37
   3  -1  27 1317.35  155.41
   3  -1  27 1468.70  169.82
   3  -1  27 1310.81  155.01
   3   1  28   -4.84   49.75
   3   1  28   45.98   76.63
   3   1  28   65.72   89.24
  -3   1 -28  123.52   81.81
  -3  -1 -28  128.88  106.41
   3  -1  28  134.75   82.98
   3  -1  28   13.83   86.28
   3  -1  28  152.36   75.50
   3   1  29 1471.84  176.47
   3   1  29 1492.67  157.72
  -3   1 -29 1436.24  179.56
  -3  -1 -29 1467.09  191.75
   3  -1  29 1528.75  180.02
   3  -1  29 1425.84  158.31
   3   2   0  930.55   79.13
   3   2   0  757.06   88.02
   3   2   0  703.17   43.38
   3   2   0 1002.41  104.34
  -3   2   0  959.19   62.71
  -3   2   0  827.43   49.70
  -3   2   0  932.60   80.24
  -3   2   0  909.94   85.78
  -3  -2   0  790.10   94.65
  -3  -2   0 1098.68  131.00
  -3  -2   0  917.82   43.37
  -3  -2   0  838.57   64.05
   3  -2   0  996.97   78.70
   3  -2   0  879.53   91.50
   3  -2   0 1031.92   73.04
   3   2   126079.40 1087.05
   3   2   125241.46 1121.07
  -3   2  -125224.63 1127.73
  -3   2  -126344.73  886.62
  -3   2  -127615.37 1217.49
  -3   2  -131717.07 1261.53
  -3  -2  -125201.34 1268.02
  -3  -2  -128082.06 1298.47
  -3  -2  -122751.62  921.65
   3  -2   129193.73 1190.04
   3  -2   126958.22 1020.55
   3  -2   127348.90 1007.23
   3   2   2   37.29   32.89
   3   2   2   46.17   41.12
   3   2   2   22.81   13.56
   3   2   2    6.83   30.67
  -3   2  -2   71.96   21.17
  -3   2  -2   31.71   15.49
  -3   2  -2   48.69   39.37
  -3   2  -2   70.94   21.06
  -3  -2  -2   36.05   45.65
  -3  -2  -2   28.06   22.93
   3  -2   2   34.01   40.32
   3  -2   2   54.34   32.75
   3   2   3 2264.53  144.67
   3   2   3 2673.05  134.66
   3   2   3 2527.43  208.67
  -3   2  -3 2349.84  105.46
  -3   2  -3 2588.39  207.68
  -3   2  -3 2679.34  213.85
  -3  -2  -3 2218.51  176.58
  -3  -2  -3 2759.46  270.45
  -3  -2  -3 2431.95  180.77
   3  -2   3 2404.49  179.17
   3  -2   3 2447.05  125.77
   3  -2   3 2727.83  131.85
   3   2   4 1339.81   89.65
   3   2   4 1890.57  109.78
   3   2   4 1119.58   87.58
   3   2   4 1762.23  137.07
  -3   2  -4 1603.50   84.08
  -3   2  -4 1716.78  118.10
  -3  -2  -4 1198.63  107.78
  -3  -2  -4 1684.71  189.97
  -3  -2  -4 1522.67  133.30
   3  -2   4 1667.36  110.01
   3  -2   4 1562.48   97.49
   3  -2   4 1816.19  108.14
   3   2   5  656.57   57.71
   3   2   5  569.35   55.17
   3   2   5  695.57   93.95
  -3   2  -5  799.27   46.76
  -3   2  -5  705.41   79.06
  -3  -2  -5  583.41   63.21
  -3  -2  -5  650.91   96.91
  -3  -2  -5  635.27   69.29
   3  -2   5  790.94   85.21
   3  -2   5  827.57   73.99
   3  -2   5  673.43   53.71
   3   2   6  107.69   30.13
   3   2   6   49.41   32.40
   3   2   6   95.31   40.04
  -3   2  -6   77.16   17.11
  -3   2  -6   77.66   32.70
  -3   2  -6  112.45   38.61
  -3   2  -6   94.80   23.83
  -3  -2  -6   65.69   27.25
  -3  -2  -6   16.72   52.99
  -3  -2  -6   71.63   34.10
   3  -2   6  100.93   35.12
   3  -2   6  107.72   31.03
   3   2   7 2790.32  171.68
   3   2   7 2610.52  189.25
   3   2   7 3382.85  257.06
  -3   2  -7 3116.49  189.80
  -3   2  -7 3230.32  178.11
  -3   2  -7 2966.54  178.05
  -3  -2  -7 2681.51  181.33
  -3  -2  -7 3153.94  269.36
  -3  -2  -7 2997.71  211.85
   3  -2   7 3024.03  202.12
   3  -2   7 3081.79  170.45
   3   2   8   68.70   28.59
   3   2   8   79.90   44.35
   3   2   8   96.55   42.61
  -3   2  -8   28.44   36.61
  -3   2  -8  -10.50   35.82
  -3  -2  -8   12.81   27.08
  -3  -2  -8   52.05   49.08
  -3  -2  -8   48.61   33.47
   3  -2   8   82.04   25.33
   3  -2   8   90.48   26.60
   3   2   9 6390.86  327.99
   3   2   9 7393.49  365.38
   3   2   9 7353.53  502.23
  -3   2  -9 8587.21  406.16
  -3   2  -9 7165.39  303.94
  -3  -2  -9 6773.99  318.87
  -3  -2  -9 8413.10  526.27
  -3  -2  -9 7522.03  446.29
   3  -2   9 8358.82  384.86
   3  -2   9 7827.74  411.46
   3   2  10 2036.18  148.09
   3   2  10 2328.67  157.44
   3   2  10 1927.80  184.44
  -3   2 -10 2048.12  128.60
  -3   2 -10 1706.31  164.73
  -3   2 -10 2076.98  150.49
  -3   2 -10 1783.40  138.93
  -3  -2 -10 1518.07  113.99
  -3  -2 -10 2221.09  200.20
  -3  -2 -10 2284.64  189.73
   3  -2  10 2350.74  168.17
   3  -2  10 2114.58  113.74
   3  -2  10 1731.67  120.31
   3   2  1115721.92  738.81
   3   2  1115998.33  885.31
  -3   2 -1116660.98  661.00
  -3   2 -1114539.20  729.45
  -3   2 -1117833.95  761.84
  -3   2 -1115412.71  643.52
  -3  -2 -1115207.32  800.65
  -3  -2 -1116649.41  871.89
   3  -2  1116394.89  653.55
   3  -2  1116138.57  663.40
   3   2  12   40.68   29.74
   3   2  12   -2.61   29.56
   3   2  12  -24.33   29.64
  -3   2 -12   19.67   29.50
  -3   2 -12  -13.55   29.25
  -3   2 -12   12.63   29.27
  -3  -2 -12  -96.00   29.54
  -3  -2 -12 -118.91   30.23
   3  -2  12  -16.99   29.24
   3  -2  12  -23.66   29.43
   3  -2  12   17.43   29.50
   3   2  13 5392.32  385.39
   3   2  13 5889.76  338.18
   3   2  13 5881.18  330.29
  -3   2 -13 6376.38  256.52
  -3   2 -13 5055.69  307.17
  -3   2 -13 6400.16  367.93
  -3  -2 -13 5567.10  341.81
  -3  -2 -13 6049.35  419.51
   3  -2  13 6289.28  347.89
   3  -2  13 5308.07  275.84
   3   2  14  261.93   46.14
   3   2  14  381.49   75.58
   3   2  14  452.55   76.86
  -3   2 -14  301.02   37.57
  -3   2 -14  341.52   71.30
  -3  -2 -14  267.61   72.97
  -3  -2 -14  344.16   91.48
   3  -2  14  214.64   69.38
   3  -2  14  243.95   49.16
   3  -2  14  354.71   44.10
   3   2  15 5583.30  390.88
   3   2  15 5907.50  358.62
   3   2  15 6094.50  441.98
  -3   2 -15 6106.77  290.97
  -3   2 -15 6733.30  443.88
  -3  -2 -15 6315.22  369.36
  -3  -2 -15 6387.43  421.11
   3  -2  15 6468.23  406.28
   3  -2  15 5987.19  287.77
   3   2  16  723.77   89.92
   3   2  16  767.38  108.14
   3   2  16  922.10  115.12
  -3   2 -16  851.85   67.72
  -3   2 -16  807.37  127.46
  -3  -2 -16  900.34   97.31
  -3  -2 -16 1017.55  144.12
   3  -2  16  817.45  113.40
   3  -2  16  768.06   77.75
   3   2  17  135.42   60.47
   3   2  17  182.74   78.93
  -3   2 -17   63.79   58.64
  -3  -2 -17  194.94   48.38
  -3  -2 -17  283.47   91.23
   3  -2  17  172.21   64.98
   3  -2  17  113.86   42.48
   3   2  18   69.46   41.13
   3   2  18   68.25   62.10
   3   2  18   12.25   62.84
  -3   2 -18   55.67   53.84
  -3  -2 -18    5.98   60.43
  -3  -2 -18    5.11   85.64
   3  -2  18    6.85   57.40
   3  -2  18   34.11   43.87
   3  -2  18   77.32   40.73
   3   2  19  460.35   75.67
   3   2  19  408.76   95.61
   3   2  19  700.74  107.97
  -3   2 -19  442.99   96.88
  -3  -2 -19  547.00   88.27
  -3  -2 -19  628.42  128.46
   3  -2  19  391.48   94.12
   3  -2  19  430.96   72.10
   3  -2  19  428.52   59.85
   3   2  20   -2.73   35.12
   3   2  20   32.71   75.39
   3   2  20   33.74   60.07
  -3   2 -20   20.49   62.09
  -3  -2 -20   26.47   60.07
  -3  -2 -20   42.83   84.24
   3  -2  20   21.43   70.35
   3  -2  20   37.86   42.64
   3   2  21 2142.68  178.86
   3   2  21 3205.35  294.43
   3   2  21 2469.05  200.06
  -3   2 -21 2430.24  240.27
  -3  -2 -21 2251.02  161.21
  -3  -2 -21 2163.59  224.43
   3  -2  21 2353.12  210.16
   3  -2  21 2084.59  165.40
   3   2  22  -10.29   63.05
   3   2  22    7.62   62.94
  -3   2 -22   28.88   61.41
  -3  -2 -22  -14.02   62.99
  -3  -2 -22  -95.38   61.99
   3  -2  22   16.02   62.66
   3  -2  22  -32.54   62.51
   3   2  23 3158.34  292.80
   3   2  23 3789.69  291.56
  -3   2 -23 3252.27  285.91
  -3  -2 -23 2562.98  228.94
  -3  -2 -23 2712.56  282.89
   3  -2  23 3175.07  263.57
   3  -2  23 2836.46  205.40
   3   2  24  243.39   81.00
   3   2  24   91.17   83.77
  -3   2 -24   38.88   74.75
  -3  -2 -24  135.39   85.71
   3  -2  24  262.07   84.55
   3  -2  24  180.59   62.46
   3   2  25 2071.89  244.51
   3   2  25 2112.27  203.13
  -3   2 -25 2025.89  236.92
  -3  -2 -25 1848.01  232.37
   3  -2  25 2126.42  181.15
   3   2  26  178.06   80.07
  -3   2 -26  104.80   90.73
  -3  -2 -26  145.73   82.44
   3  -2  26  250.66   63.23
   3   2  27 1021.82  158.33
   3   2  27 1111.98  142.95
  -3   2 -27  832.03  126.43
  -3  -2 -27  695.39  136.27
   3  -2  27  800.99  152.43
   3   2  28    9.59   86.30
  -3   2 -28   76.26   69.14
  -3  -2 -28  -70.56   72.10
   3  -2  28   32.91   77.37
   3   3   0    0.22   37.64
   3   3   0   15.16   40.48
   3   3   0    4.44   16.97
   3   3   0   51.82   40.99
  -3   3   0   26.65   25.92
  -3   3   0    7.93   42.98
  -3  -3   0   61.48   55.80
  -3  -3   0   -7.11   19.52
   3  -3   0   25.79   29.43
   3  -3   0   49.58   42.08
   3  -3   0   26.09   22.99
   3  -3   0  -15.03   18.44
   3   3   1 2825.07  183.12
   3   3   1 2627.43  181.96
   3   3   1 2894.62  212.30
  -3   3  -1 2957.37  165.78
  -3   3  -1 2752.95  240.61
  -3  -3  -1 2600.72  219.09
  -3  -3  -1 2294.79  125.57
   3  -3   1 2770.23  177.83
   3  -3   1 3070.67  191.08
   3  -3   1 2800.45  137.11
   3   3   2  599.99   70.31
   3   3   2  685.69   74.14
   3   3   2  646.71   83.22
  -3   3  -2  691.20   69.38
  -3   3  -2  552.68   53.10
  -3   3  -2  749.76   77.24
  -3  -3  -2  671.50   87.63
  -3  -3  -2  583.01   47.55
   3  -3   2  722.19   70.96
   3  -3   2  856.19   94.67
   3  -3   2  700.02   45.19
   3  -3   2  540.44   46.67
   3   3   3 7417.46  352.40
   3   3   3 7516.44  385.58
   3   3   3 8800.68  499.40
  -3   3  -3 8865.30  404.02
  -3   3  -3 8230.66  493.21
  -3  -3  -3 8210.55  513.09
  -3  -3  -3 7711.60  347.99
   3  -3   3 8077.25  385.89
   3  -3   3 8335.72  409.95
   3  -3   3 8628.34  324.48
   3  -3   3 6826.26  290.55
   3   3   4  160.25   37.87
   3   3   4  328.54   60.30
   3   3   4  119.08   29.44
   3   3   4  236.10   59.11
  -3   3  -4  265.83   40.39
  -3   3  -4  245.11   59.94
  -3  -3  -4  213.85   75.95
  -3  -3  -4  245.19   42.99
   3  -3   4  371.02   51.08
   3  -3   4  273.46   52.47
   3  -3   4  226.90   28.78
   3   3   513289.72  539.22
   3   3   512791.18  616.09
   3   3   513122.98  711.13
  -3   3  -514585.01  602.19
  -3   3  -511293.85  525.17
  -3   3  -514195.12  786.00
  -3  -3  -513109.43  660.99
  -3  -3  -512672.42  620.88
   3  -3   514116.04  564.69
   3  -3   514313.08  649.62
   3  -3   513237.41  480.25
   3   3   6  297.74   38.63
   3   3   6  246.14   66.91
   3   3   6  334.86   60.63
  -3   3  -6  266.64   33.63
  -3   3  -6  303.84   56.48
  -3  -3  -6  140.81   39.95
  -3  -3  -6  192.51   88.57
  -3  -3  -6  228.49   49.97
   3  -3   6  342.42   57.36
   3  -3   6  209.82   25.54
   3   3   7 3939.86  222.91
   3   3   7 4366.99  275.06
   3   3   7 4249.32  283.94
  -3   3  -7 4436.97  209.91
  -3   3  -7 4684.65  294.66
  -3   3  -7 4536.66  229.04
  -3  -3  -7 4179.44  305.77
  -3  -3  -7 4061.17  258.64
   3  -3   7 4573.34  230.63
   3  -3   7 3705.26  159.30
   3   3   8 1415.89   89.72
   3   3   8 1650.34  142.70
   3   3   8 1670.30  146.55
  -3   3  -8 1592.69  139.68
  -3   3  -8 1698.65  132.59
  -3  -3  -8 1465.15  152.17
  -3  -3  -8 1471.40  117.69
   3  -3   8 1669.93  123.00
   3  -3   8 1296.94   66.44
   3   3   9 2057.30  129.91
   3   3   9 2559.52  207.41
   3   3   9 2438.26  205.03
  -3   3  -9 2396.68  152.90
  -3   3  -9 2621.32  192.20
  -3   3  -9 2807.82  170.29
  -3  -3  -9 2418.67  183.40
  -3  -3  -9 2207.06  173.67
   3  -3   9 2152.50  140.07
   3  -3   9 1988.55   89.87
   3   3  10  239.02   41.66
   3   3  10  471.21   75.88
   3   3  10  308.95   63.36
  -3   3 -10  385.13   47.89
  -3   3 -10  472.74   72.21
  -3   3 -10  444.96   71.62
  -3  -3 -10  305.65   75.24
  -3  -3 -10  311.23   59.01
   3  -3  10  287.10   65.00
   3  -3  10  304.35   27.55
   3   3  11 1010.87   94.56
   3   3  11 1653.09  148.03
   3   3  11 1725.20  160.06
  -3   3 -11 1486.37  132.94
  -3   3 -11 1699.99  160.88
  -3  -3 -11 1449.73  158.09
  -3  -3 -11 1264.93  122.19
   3  -3  11 1505.42  135.83
   3   3  12  189.26   40.64
   3   3  12  206.06   64.05
   3   3  12  167.84   62.50
  -3   3 -12  200.07   47.03
  -3   3 -12  260.59   58.87
  -3  -3 -12   92.84   69.88
  -3  -3 -12  238.49   70.15
   3  -3  12  257.73   65.33
   3  -3  12  216.22   44.17
   3   3  13  710.15   93.70
   3   3  13  594.58   85.20
  -3   3 -13  561.19   67.50
  -3   3 -13  656.50   96.09
  -3  -3 -13  527.72  108.10
  -3  -3 -13  529.51   96.88
   3  -3  13  671.73  101.77
   3  -3  13  590.12   68.78
   3   3  14   71.32   50.14
  -3   3 -14   82.00   37.62
  -3   3 -14  104.28   60.60
  -3  -3 -14  -22.99   62.44
  -3  -3 -14   86.74   64.73
   3  -3  14  128.12   68.97
   3  -3  14   65.05   44.91
   3   3  15 4702.35  296.65
   3   3  15 4373.37  370.78
  -3   3 -15 4734.35  339.23
  -3  -3 -15 3833.78  353.70
  -3  -3 -15 4002.03  292.96
   3  -3  15 4544.53  335.39
   3  -3  15 3542.56  235.69
   3   3  16   78.76   68.53
   3   3  16   28.27   66.12
  -3   3 -16   13.23   61.34
  -3  -3 -16  -19.63   59.32
  -3  -3 -16    8.26   69.19
   3  -3  16   64.33   71.16
   3   3  17 4737.34  376.40
   3   3  17 4187.67  275.93
  -3   3 -17 4865.50  348.96
  -3  -3 -17 4004.03  267.60
  -3  -3 -17 4651.75  351.19
   3  -3  17 5060.51  379.07
   3   3  18  127.67   75.60
   3   3  18  197.41   75.82
  -3   3 -18  144.01   78.01
  -3  -3 -18  195.68   72.54
  -3  -3 -18   17.39   81.79
   3  -3  18  130.69   60.43
   3   3  19 2520.87  248.25
   3   3  19 2385.05  221.07
  -3   3 -19 2629.90  230.04
  -3  -3 -19 1955.40  183.02
  -3  -3 -19 2267.53  233.16
   3  -3  19 2406.62  231.77
   3   3  20  363.15   91.49
   3   3  20  340.04   91.13
  -3   3 -20  115.56   65.63
  -3  -3 -20  173.70   79.96
  -3  -3 -20  187.59   95.08
   3  -3  20  279.42   94.13
   3   3  21 1507.44  207.02
   3   3  21 1387.03  151.31
  -3   3 -21 1701.55  212.35
  -3  -3 -21 1145.78  122.40
  -3  -3 -21 1120.25  169.68
   3  -3  21 1286.20  157.84
   3   3  22  277.29  105.05
   3   3  22  285.18   99.02
  -3   3 -22  122.52   73.40
  -3  -3 -22  113.24   60.93
  -3  -3 -22  198.77  110.25
   3  -3  22  168.81  102.45
   3   3  23  107.67   98.12
   3   3  23   -4.59   97.18
  -3   3 -23   16.41   95.83
  -3  -3 -23  -37.37   97.19
  -3  -3 -23  -52.08   99.81
   3  -3  23  -21.36   97.15
   3   3  24  -61.39   85.90
   3   3  24   53.91   85.17
  -3   3 -24  -65.12   84.00
  -3  -3 -24  -39.65   85.17
  -3  -3 -24 -100.44   86.98
   3  -3  24  -13.71   85.30
   3   3  25  270.54   98.47
   3   3  25   97.54   89.30
  -3   3 -25  108.76   81.54
  -3  -3 -25  214.25   85.74
   3  -3  25  113.84   93.20
   3   4   0  587.91  101.69
   3   4   0 1020.32  234.02
   3   4   0  170.82   44.29
  -3   4   0  258.59   47.40
  -3   4   0  230.46   64.95
  -3  -4   0  356.85  133.46
   3  -4   0  143.36   38.28
   3  -4   0  355.72   81.07
   3   4   1 4713.62  245.59
   3   4   1 5091.70  286.73
   3   4   1 4224.29  234.95
  -3   4  -1 4649.93  302.76
  -3   4  -1 5092.04  333.00
  -3  -4  -1 4880.22  334.39
   3  -4   1 4194.74  236.19
   3  -4   1 5725.54  375.91
   3   4   2  775.97   85.96
   3   4   2  869.64  158.70
   3   4   2  522.42   66.63
  -3   4  -2  491.40   64.53
  -3   4  -2  590.82   93.17
  -3  -4  -2  676.23  113.85
   3  -4   2  507.42   61.36
   3  -4   2  919.01  117.61
   3   4   3 1893.20  181.11
   3   4   3 1506.64  124.64
  -3   4  -3 1717.57  154.50
  -3   4  -3 1910.05  166.99
  -3  -4  -3 1632.79  158.63
   3  -4   3 1498.83  111.30
   3  -4   3 2014.88  172.72
   3   4   4  208.03   86.54
   3   4   4   54.85   48.47
  -3   4  -4    6.35   56.87
  -3  -4  -4   62.54   72.27
   3  -4   4   -2.85   40.66
   3   4   5  176.94   75.23
   3   4   5  111.86   44.80
  -3   4  -5  104.32   65.28
  -3  -4  -5    2.75   83.59
  -3  -4  -5   40.24   35.73
   3  -4   5   73.62   48.35
   3  -4   5   56.84   65.17
   3   4   6  518.55   88.12
   3   4   6  266.97   58.87
  -3   4  -6  476.77   85.84
  -3  -4  -6  464.02   96.95
  -3  -4  -6  390.33   51.30
   3  -4   6  388.16   66.68
   3   4   7  322.28   93.12
   3   4   7  285.21   69.31
  -3   4  -7  405.41   82.72
  -3   4  -7  445.88   72.93
  -3  -4  -7  346.82   97.41
  -3  -4  -7  313.44   51.33
   3  -4   7  387.94   69.27
   3   4   8  -28.05   67.27
   3   4   8   34.28   50.10
  -3   4  -8   43.89   51.44
  -3   4  -8  102.76   59.37
  -3  -4  -8   28.03   74.95
  -3  -4  -8  -23.80   39.19
   3  -4   8  -74.90   59.94
   3   4   9 1823.92  171.81
   3   4   9 1437.12  144.97
  -3   4  -9 1317.13  135.01
  -3   4  -9 1763.48  148.54
  -3  -4  -9 1320.63  155.43
  -3  -4  -9 1131.39  122.29
   3  -4   9 1277.53  124.42
   3   4  10    0.29   65.46
   3   4  10  -47.88   64.43
  -3   4 -10  -10.41   66.05
  -3   4 -10   69.25   65.36
  -3  -4 -10 -147.28   64.41
  -3  -4 -10  -25.74   65.58
   3  -4  10  -48.10   64.73
   3   4  11 3553.05  278.30
   3   4  11 2823.32  199.17
  -3   4 -11 2718.69  201.23
  -3   4 -11 3789.28  276.68
  -3  -4 -11 2917.61  241.43
  -3  -4 -11 2859.66  217.36
   3  -4  11 3096.78  231.51
   3   4  12  341.66   82.76
   3   4  12  317.46   68.73
  -3   4 -12  351.01   70.95
  -3   4 -12  489.34   89.60
  -3  -4 -12  295.12   70.78
  -3  -4 -12  313.25   74.17
   3  -4  12  263.80   82.42
   3   4  13 3327.27  284.04
   3   4  13 3005.41  191.37
  -3   4 -13 3442.28  288.40
  -3  -4 -13 2823.27  229.02
  -3  -4 -13 2549.49  204.09
   3  -4  13 2731.99  239.46
   3   4  14  334.46   81.86
   3   4  14  463.62   81.80
  -3   4 -14  419.07   92.89
  -3  -4 -14  379.47   79.59
  -3  -4 -14  250.34   86.86
   3  -4  14  225.10   87.93
   3   4  15 1285.34  146.62
   3   4  15  989.60  128.03
  -3   4 -15 1092.52  131.47
  -3  -4 -15 1011.97  142.26
  -3  -4 -15  845.10  131.84
   3  -4  15  978.65  134.97
   3   4  16  -17.10   73.55
   3   4  16  -50.22   72.40
  -3   4 -16   42.15   73.26
  -3  -4 -16  -18.92   72.74
  -3  -4 -16    2.25   78.82
   3  -4  16   76.11   72.81
   3   4  17   80.48   80.85
   3   4  17   65.10   72.30
  -3   4 -17  -26.21   62.93
  -3  -4 -17   17.64   90.35
  -3  -4 -17   46.99   67.40
   3  -4  17  134.27   74.46
   3   4  18  102.65   80.16
   3   4  18  138.71   67.72
  -3   4 -18  171.13   82.01
  -3  -4 -18    2.58   81.27
   3  -4  18   75.75   71.87
   3   4  19  492.68  108.14
   3   4  19  529.54  121.03
  -3   4 -19  406.08  100.14
  -3  -4 -19  279.75  100.15
   3  -4  19  520.77  105.50
   3   4  20  -39.33   72.49
   3   4  20   41.98   75.59
  -3   4 -20   77.94   64.22
  -3  -4 -20  -87.70   84.97
   3  -4  20    6.19   73.09
   3   5   0  157.40   80.13
  -3   5   0  105.44   73.92
  -3  -5   0  104.67   86.13
   3  -5   0  233.56   87.08
   3   5   1  735.32  126.80
  -3   5  -1  637.23  109.99
  -3  -5  -1  738.85  107.21
   3  -5   1  769.67  107.43
   3   5   2  713.33  129.81
  -3   5  -2  491.07  112.63
  -3  -5  -2  381.09  101.79
   3  -5   2  760.21  113.26
   3   5   3 1639.75  176.35
  -3   5  -3 1062.62  136.39
  -3  -5  -3 1062.17  132.21
  -3   5  -4  226.02   70.70
  -3  -5  -4  209.61  108.18
  -3   5  -5  591.85  101.79
  -3   5  -5  848.20  105.67
  -3  -5  -5  699.78  133.26
  -3   5  -6   59.65   64.80
  -3   5  -6  293.73   69.73
  -3  -5  -6   20.58   96.58
  -3   5  -7 1716.37  161.00
  -3  -5  -7 1832.34  191.66
   3   5   8  279.56  110.66
  -3   5  -8   68.70   66.02
  -3  -5  -8  105.87   84.13
   3   5   9  532.72  131.92
  -3  -5  -9  285.66  103.32
   3   5  10   38.62   80.95
  -3   5 -10   18.39   54.30
  -3  -5 -10   20.67   72.87
   3   5  11  -11.92   82.62
  -3   5 -11  -24.67   83.30
  -3  -5 -11   21.34   81.82
   3   5  12   20.65   78.73
  -3   5 -12  133.50   66.82
   4   0   0 2651.72  178.49
   4   0   0 2032.31  116.49
   4   0   0 2000.66  123.74
   4   0   0 2131.19  144.33
  -4   0   0 2279.76  166.34
  -4   0   0 2404.40  135.44
   4   0   1  -14.50   27.55
  -4   0  -1  -40.47   27.75
  -4   0  -1  -13.86   27.71
   4   0   2  400.27   44.84
   4   0   2  402.20   36.55
   4   0   2  318.87   28.97
   4   0   2  330.40   39.75
  -4   0  -2  328.42   63.74
  -4   0  -2  358.52   37.77
  -4   0  -2  328.13   44.17
   4   0   3   58.99   38.80
   4   0   3  -11.36   39.16
   4   0   3   -8.57   38.74
   4   0   3  -11.99   38.84
  -4   0  -3  -20.26   39.07
  -4   0  -3  -10.61   38.55
  -4   0  -3   -0.93   38.45
   4   0   419835.74  858.83
   4   0   420143.41  760.54
   4   0   418947.97  760.18
  -4   0  -420668.75  919.25
  -4   0  -418360.32  850.02
  -4   0  -419259.86  808.71
   4   0   5  -42.80   25.01
   4   0   5   -2.29   24.77
   4   0   5  -42.77   25.13
  -4   0  -5   49.81   25.05
  -4   0  -5  -11.02   24.91
  -4   0  -5  -28.63   24.70
   4   0   613889.46  640.53
   4   0   614232.16  596.15
   4   0   613462.99  625.66
  -4   0  -613198.43  699.63
  -4   0  -614536.15  673.52
  -4   0  -613544.38  620.25
   4   0   7  -36.95   29.71
   4   0   7  -16.00   29.15
   4   0   7   43.73   29.98
  -4   0  -7  -14.37   30.21
  -4   0  -7  -52.91   29.52
  -4   0  -7   37.73   29.47
   4   0   823747.42 1159.47
   4   0   823489.21  985.43
   4   0   822802.21 1026.41
  -4   0  -822709.98  946.74
  -4   0  -824638.21 1097.17
  -4   0  -824114.84 1024.56
   4   0   9  -28.98   30.87
   4   0   9   16.10   25.61
   4   0   9   54.85   39.58
  -4   0  -9  -17.24   33.76
  -4   0  -9  -10.30   38.76
   4   0  1015230.57  746.05
   4   0  1015527.64  660.51
   4   0  1014308.27  650.17
  -4   0 -1013215.06  653.87
  -4   0 -1015302.48  754.30
  -4   0 -1014474.09  661.78
   4   0  11   19.50   51.08
   4   0  11    6.49   50.62
   4   0  11   29.59   51.55
  -4   0 -11   14.80   51.18
  -4   0 -11  -36.53   49.99
  -4   0 -11  -45.00   49.98
   4   0  12 4252.42  341.30
   4   0  12 4359.70  248.77
  -4   0 -12 4529.65  278.09
  -4   0 -12 4553.00  300.33
   4   0  13   13.84   50.03
   4   0  13   12.74   40.42
  -4   0 -13   40.61   36.91
  -4   0 -13  -56.90   43.19
   4   0  14  335.91   72.76
   4   0  14  244.93   47.33
   4   0  14  212.10   61.74
  -4   0 -14  230.11   52.77
  -4   0 -14  249.92   68.17
   4   0  15   -3.35   45.93
   4   0  15   -7.51   46.00
  -4   0 -15   -9.24   45.18
  -4   0 -15 -119.49   44.81
   4   0  16 5869.73  418.56
   4   0  16 5994.92  366.23
   4   0  16 6007.80  357.28
  -4   0 -16 5302.16  342.21
  -4   0 -16 6197.69  432.19
   4   0  17  -16.78   45.39
   4   0  17    1.02   45.32
   4   0  17   39.19   45.36
  -4   0 -17  -16.98   44.41
   4   0  18 5377.57  379.38
   4   0  18 5154.49  348.60
   4   0  18 5720.76  391.90
  -4   0 -18 4760.36  297.63
  -4   0 -18 5864.56  434.33
   4   0  19  -54.51   61.82
   4   0  19  -58.33   61.72
  -4   0 -19   30.58   61.60
  -4   0 -19  -10.60   60.76
   4   0  20 8188.51  601.54
   4   0  20 7795.41  462.73
   4   0  20 9298.36  514.15
  -4   0 -20 7666.33  412.35
  -4   0 -20 9584.98  645.33
   4   0  21  -11.47   60.87
   4   0  21   55.26   60.90
   4   0  21  -24.35   58.71
  -4   0 -21   79.98   79.84
   4   0  22 2345.59  233.82
   4   0  22 2856.82  248.07
  -4   0 -22 3124.19  266.05
   4   0  23   28.68   60.02
   4   0  23   17.24   54.81
   4   0  23  -21.34   61.86
  -4   0 -23   -0.07   82.05
   4   0  24 1248.25  145.77
   4   0  24 1228.36  142.53
  -4   0 -24 1287.99  181.69
   4   0  25  -20.29   62.75
   4   0  25   72.00   62.75
  -4   0 -25  -89.65   62.26
   4   0  26  313.48   81.50
   4   0  26  534.89  102.74
  -4   0 -26  570.66  124.15
   4   0  27   60.91   62.34
   4   0  27   -4.08   78.30
  -4   0 -27   49.48   83.62
   4   0  28  587.82  108.56
   4   0  28  799.12  124.47
  -4   0 -28  671.25  113.92
   4   0  29   39.95   55.87
   4   0  29  -58.58   55.78
   4   1   015675.10  741.11
   4   1   015241.14  607.81
   4   1   013378.43  609.06
   4   1   014256.62  689.12
  -4   1   015636.35  845.97
  -4  -1   015634.82  850.46
  -4  -1   015254.81  615.17
  -4  -1   014192.91  562.24
   4  -1   015637.35  697.79
   4  -1   016190.54  488.26
   4  -1   015078.95  698.26
   4  -1   015563.63  619.80
   4   1   1 2942.34  189.72
   4   1   1 2565.27  143.50
   4   1   1 2238.46  152.43
   4   1   1 2659.28  177.41
  -4   1  -1 2875.48  199.43
  -4  -1  -1 2914.04  236.25
  -4  -1  -1 2769.73  171.95
  -4  -1  -1 2651.08  111.53
   4  -1   1 2945.48  159.68
   4  -1   1 2615.09  164.09
   4  -1   1 2753.54  156.05
   4   1   228920.79 1288.54
   4   1   232720.85 1218.41
   4   1   231934.43 1385.99
  -4   1  -232877.18 1336.92
  -4  -1  -234642.50 1668.04
  -4  -1  -232560.36 1306.09
  -4  -1  -230185.63 1143.36
   4  -1   233485.64 1255.57
   4  -1   231846.51 1373.28
   4  -1   232328.18 1242.46
   4   1   3   69.69   30.83
   4   1   3   16.93   37.87
  -4   1  -3   60.01   33.25
  -4  -1  -3   60.45   44.05
  -4  -1  -3   10.40   29.49
  -4  -1  -3   33.68   18.38
   4  -1   3   88.89   33.28
   4  -1   3   33.79   32.22
   4  -1   3   82.51   28.93
   4   1   4 8581.83  453.38
   4   1   4 9865.04  465.45
   4   1   410302.92  565.26
  -4   1  -410290.70  470.95
  -4   1  -4 9161.59  442.85
  -4  -1  -410905.14  609.06
  -4  -1  -410057.10  468.47
   4  -1   410797.06  429.09
   4  -1   410533.93  503.16
   4   1   5  573.86   56.48
   4   1   5  550.46   55.23
   4   1   5  329.73   49.77
   4   1   5  575.15   80.02
  -4   1  -5  433.93   56.21
  -4   1  -5  478.81   47.02
  -4  -1  -5  474.31   83.28
  -4  -1  -5  520.94   56.15
   4  -1   5  537.16   50.87
   4  -1   5  489.30   59.44
   4   1   6 6376.97  301.53
   4   1   6 6320.40  313.62
   4   1   6 6590.44  420.66
  -4   1  -6 6943.81  371.67
  -4   1  -6 6345.65  356.46
  -4  -1  -6 7589.89  432.96
  -4  -1  -6 6509.19  357.96
   4  -1   6 7243.77  424.54
   4  -1   6 6819.63  339.82
   4   1   7  481.26   54.67
   4   1   7  459.65   53.81
   4   1   7  231.92   43.01
   4   1   7  455.97   99.40
  -4   1  -7  507.31   51.01
  -4   1  -7  411.41   42.88
  -4  -1  -7  467.68   67.94
  -4  -1  -7  523.07   57.23
   4  -1   7  455.16   51.76
   4  -1   7  435.73   57.23
   4   1   8  170.16   43.09
   4   1   8  174.09   42.81
   4   1   8  239.08   57.16
  -4   1  -8  212.12   41.91
  -4   1  -8  250.59   42.87
  -4  -1  -8  252.60   53.94
  -4  -1  -8  195.78   46.71
   4  -1   8  265.92   57.39
   4  -1   8  193.80   45.23
   4   1   9  438.37   54.30
   4   1   9  429.75   58.33
   4   1   9  436.77   80.44
  -4   1  -9  321.58   35.88
  -4   1  -9  444.02   50.57
  -4   1  -9  411.84   56.45
  -4  -1  -9  353.40   58.10
  -4  -1  -9  393.41   58.84
   4  -1   9  435.24   62.61
   4  -1   9  484.47   58.69
   4   1  10 5853.11  328.55
   4   1  10 6186.96  345.39
   4   1  10 5414.94  363.39
  -4   1 -10 5018.42  285.78
  -4   1 -10 5843.86  279.33
  -4   1 -10 5813.37  325.02
  -4  -1 -10 6070.89  422.65
  -4  -1 -10 5546.63  334.74
   4  -1  10 5804.82  357.84
   4  -1  10 5492.61  324.48
   4   1  11   52.59   34.72
   4   1  11   90.69   48.05
   4   1  11   55.96   50.29
  -4   1 -11   31.54   30.24
  -4   1 -11   82.71   48.73
  -4  -1 -11  -14.99   43.80
  -4  -1 -11   98.84   50.14
   4  -1  11   27.31   49.27
   4  -1  11   75.62   50.93
   4   1  1214616.04  740.31
   4   1  1214376.44  681.48
   4   1  1213493.73  830.87
  -4   1 -1211520.46  620.40
  -4   1 -1214371.46  633.33
  -4   1 -1214006.61  721.58
  -4  -1 -1213995.70  603.54
  -4  -1 -1214085.93  725.36
   4  -1  1214765.63  729.00
   4  -1  1212979.72  589.09
   4   1  13  345.37   72.98
   4   1  13  456.11   66.42
   4   1  13  340.01   85.63
  -4   1 -13  170.97   37.78
  -4   1 -13  409.98   53.64
  -4   1 -13  334.16   65.60
  -4  -1 -13  337.42   58.67
  -4  -1 -13  296.48   76.89
   4  -1  13  377.60   82.52
   4  -1  13  343.46   54.59
   4   1  1412693.51  679.58
   4   1  1413142.97  743.97
  -4   1 -1413757.80  654.81
  -4   1 -1413254.21  720.37
  -4  -1 -1412846.56  623.23
  -4  -1 -1413465.06  775.90
   4  -1  1412958.36  692.41
   4  -1  1412440.94  609.82
   4   1  15   29.54   49.81
   4   1  15  -17.98   48.92
   4   1  15  -35.55   49.45
  -4   1 -15  -11.48   48.11
  -4   1 -15    6.90   48.11
  -4  -1 -15  -47.14   49.45
  -4  -1 -15  -37.42   48.96
   4  -1  15   53.23   49.40
   4  -1  15   20.33   49.78
   4   1  16 8906.36  545.68
   4   1  16 9331.39  507.89
   4   1  16 9641.75  513.19
  -4   1 -16 8951.34  433.84
  -4   1 -16 9844.26  593.97
  -4  -1 -16 9234.73  453.54
  -4  -1 -16 9028.22  595.83
   4  -1  16 9090.10  560.00
   4  -1  16 8446.79  436.50
   4  -1  16 8503.26  467.44
   4   1  17   75.90   53.20
   4   1  17   96.91   59.42
   4   1  17   76.22   61.50
  -4   1 -17   81.31   32.97
  -4   1 -17   95.08   66.80
  -4  -1 -17  114.56   51.94
  -4  -1 -17  200.12   77.08
   4  -1  17  129.00   62.34
   4  -1  17   32.70   46.00
   4  -1  17   91.20   48.61
   4   1  18  529.71   91.71
   4   1  18  556.27  112.46
  -4   1 -18  509.58   66.13
  -4   1 -18  614.33  106.64
  -4  -1 -18  542.89   83.18
  -4  -1 -18  389.55  101.61
   4  -1  18  613.06  103.84
   4  -1  18  641.62   80.10
   4  -1  18  625.74   77.94
   4   1  19  -60.31   49.80
   4   1  19  -52.09   61.62
   4   1  19   36.27   60.89
  -4   1 -19   45.88   67.95
  -4  -1 -19   35.12   45.18
  -4  -1 -19    7.51   74.27
   4  -1  19   11.58   60.64
   4  -1  19   17.28   52.06
   4  -1  19   37.12   50.10
   4   1  20  -26.10   53.22
   4   1  20  -14.84   52.26
   4   1  20  -46.22   52.90
  -4   1 -20   42.31   51.55
  -4  -1 -20   19.71   52.76
  -4  -1 -20  174.88   52.63
   4  -1  20   -7.97   52.87
   4  -1  20  -53.43   57.83
   4  -1  20  -21.80   52.94
   4   1  21  185.14   67.44
   4   1  21  208.25   78.73
   4   1  21  172.17   77.69
  -4   1 -21  259.49   82.47
  -4  -1 -21  149.49   50.84
  -4  -1 -21  252.39   96.95
   4  -1  21  274.07   73.84
   4  -1  21  160.01   74.00
   4  -1  21  194.66   63.63
   4   1  22 2010.73  207.78
   4   1  22 2655.50  223.93
  -4   1 -22 2456.47  275.66
  -4  -1 -22 1893.82  166.31
  -4  -1 -22 2429.05  264.55
   4  -1  22 2454.44  218.02
   4  -1  22 2427.60  207.78
   4  -1  22 2347.71  197.98
   4   1  23  134.73   58.14
   4   1  23   91.88   73.17
  -4   1 -23  188.82   89.15
  -4  -1 -23   66.57   74.76
   4  -1  23  -13.18   62.81
   4  -1  23  140.52   71.91
   4   1  24 2458.29  200.32
   4   1  24 2457.78  247.04
   4   1  24 2747.73  240.70
  -4   1 -24 2728.58  261.59
  -4  -1 -24 2654.57  279.81
   4  -1  24 2915.42  265.35
   4  -1  24 2558.18  212.61
   4   1  25   60.02   49.57
   4   1  25  105.01   84.84
   4   1  25  140.56   95.19
  -4   1 -25  150.08   96.01
  -4  -1 -25   59.34   81.66
   4  -1  25  161.54   68.93
   4  -1  25   91.62   79.66
   4  -1  25   31.25   55.84
   4   1  26 2039.46  194.65
   4   1  26 2610.64  258.44
  -4   1 -26 2532.86  232.85
  -4  -1 -26 2619.16  256.94
   4  -1  26 2381.62  245.10
   4  -1  26 2067.11  216.16
   4  -1  26 2376.45  217.04
   4   1  27   13.64   43.15
   4   1  27  -72.46   42.33
   4   1  27  126.08   43.20
  -4   1 -27   33.81   42.45
  -4  -1 -27  -17.64   42.78
   4  -1  27  -15.97   43.26
   4  -1  27  -32.51   43.16
   4   1  28  458.22   92.32
   4   1  28  610.34  105.55
   4   1  28  857.13  159.20
  -4   1 -28  873.46  143.73
  -4  -1 -28  618.38  168.17
   4  -1  28  657.91  109.59
   4  -1  28  614.19  110.57
   4   2   0  745.76   74.25
   4   2   0  819.06   70.93
   4   2   0  953.94   92.61
  -4   2   0  911.06   85.81
  -4  -2   0  821.86  106.34
   4  -2   0 1017.92   96.55
   4  -2   0 1031.72   87.21
   4  -2   0  805.00   60.74
   4   2   1   27.86   36.89
   4   2   1    4.61   33.74
   4   2   1    0.29   42.07
  -4   2  -1    2.86   39.84
  -4  -2  -1  -50.58   54.32
  -4  -2  -1   -6.45   14.83
  -4  -2  -1    1.79   10.25
   4  -2   1   -5.34   35.47
   4  -2   1   30.38   44.27
   4   2   2  122.18   37.21
   4   2   2   81.05   41.52
   4   2   2   36.30   13.45
   4   2   2   32.89   45.92
  -4   2  -2   94.61   45.30
  -4   2  -2   89.50   33.73
  -4  -2  -2   85.42   23.19
   4  -2   2   22.72   42.13
   4  -2   2   28.20   39.83
   4  -2   2   81.91   25.60
   4   2   3   53.21   34.25
   4   2   3   71.94   38.86
   4   2   3    5.03   13.98
   4   2   3   10.39   35.21
  -4   2  -3   31.87   45.18
  -4   2  -3  -23.08   23.59
  -4  -2  -3   61.17   49.03
   4  -2   3   -5.99   38.18
   4  -2   3   50.49   38.74
   4  -2   3   64.73   27.07
   4   2   4 2454.16  153.88
   4   2   4 2785.26  170.40
   4   2   4 2492.83  240.15
  -4   2  -4 3068.75  228.77
  -4   2  -4 3017.51  192.02
  -4  -2  -4 3032.80  284.11
  -4  -2  -4 2660.14  199.93
   4  -2   4 3384.35  190.48
   4  -2   4 2761.09  152.55
   4  -2   4 3065.72  166.31
   4   2   5  213.85   41.96
   4   2   5  231.60   44.24
   4   2   5  114.36   23.53
   4   2   5  270.45   61.36
  -4   2  -5  195.69   49.61
  -4   2  -5  145.96   36.79
  -4  -2  -5  215.78   64.64
  -4  -2  -5  134.90   34.48
   4  -2   5  201.67   56.13
   4  -2   5  198.14   50.19
   4  -2   5  250.57   37.38
   4   2   615389.34  646.62
   4   2   615662.95  739.78
   4   2   616521.91  864.39
  -4   2  -616208.37  841.13
  -4   2  -615837.13  623.70
  -4   2  -616691.72  730.87
  -4  -2  -616765.84  972.36
  -4  -2  -615906.24  938.57
   4  -2   617458.15  673.83
   4  -2   616494.96  756.90
   4   2   7  159.72   41.46
   4   2   7  195.99   48.51
   4   2   7   65.44   23.72
   4   2   7  189.46   64.42
  -4   2  -7  178.22   44.31
  -4   2  -7  215.32   49.85
  -4  -2  -7  171.33   62.33
  -4  -2  -7  114.74   54.82
   4  -2   7  200.85   55.98
   4  -2   7  145.45   37.76
   4   2   810500.79  532.94
   4   2   813380.82  622.22
   4   2   811837.92  729.15
  -4   2  -813048.73  604.45
  -4   2  -813147.72  578.37
  -4  -2  -813832.31  745.13
  -4  -2  -811819.66  644.70
   4  -2   813257.73  568.03
   4  -2   813513.55  604.46
   4   2   9  686.67   78.13
   4   2   9  654.75   75.94
   4   2   9  706.28  108.12
  -4   2  -9  749.66   61.28
  -4   2  -9  780.24   85.02
  -4  -2  -9  674.37   99.36
  -4  -2  -9  795.02   88.23
   4  -2   9  734.11   93.48
   4  -2   9  764.05   69.99
   4   2  10 8262.63  410.74
   4   2  1010002.82  523.14
   4   2  10 9929.59  654.53
  -4   2 -10 9414.73  478.66
  -4   2 -1010639.13  511.98
  -4  -2 -1010662.55  552.68
  -4  -2 -10 9042.01  537.59
   4  -2  1010598.05  525.69
   4  -2  10 8584.08  350.65
   4  -2  1010612.50  501.50
   4   2  11   17.66   40.35
   4   2  11   71.94   52.69
   4   2  11  -45.64   58.16
  -4   2 -11   46.34   35.91
  -4   2 -11   69.00   56.09
  -4  -2 -11   82.76   48.91
  -4  -2 -11    6.28   60.26
   4  -2  11   67.47   56.88
   4  -2  11    8.80   29.10
   4   2  12 2014.62  158.99
   4   2  12 2319.16  166.27
   4   2  12 2081.95  204.21
  -4   2 -12 2372.63  143.04
  -4   2 -12 2525.47  197.59
  -4  -2 -12 2059.26  207.63
  -4  -2 -12 1673.36  165.07
   4  -2  12 2168.62  209.32
   4  -2  12 2013.57  117.54
   4  -2  12 1979.58  148.01
   4   2  13  142.82   64.61
   4   2  13  182.04   60.23
  -4   2 -13  193.15   42.14
  -4   2 -13  135.25   65.87
  -4  -2 -13  208.72   67.29
  -4  -2 -13  151.49   61.19
   4  -2  13  215.20   61.06
   4  -2  13  102.28   36.35
   4   2  14  170.69   49.50
   4   2  14  224.83   66.95
   4   2  14  156.71   64.75
  -4   2 -14  168.60   37.34
  -4   2 -14  120.60   70.68
  -4  -2 -14  140.18   51.40
  -4  -2 -14  186.97   70.37
   4  -2  14  181.70   76.62
   4  -2  14  255.19   47.07
   4   2  15   24.21   41.00
   4   2  15    1.01   53.49
   4   2  15   24.59   52.42
  -4   2 -15    7.80   28.66
  -4   2 -15   55.74   54.88
  -4  -2 -15    4.25   51.46
  -4  -2 -15  -54.58   70.07
   4  -2  15   33.96   52.87
   4  -2  15    1.59   34.58
   4  -2  15   47.74   38.15
   4   2  16 1922.12  170.14
   4   2  16 1905.54  176.14
   4   2  16 1916.43  241.93
  -4   2 -16 1867.54  135.53
  -4   2 -16 2182.29  211.62
  -4  -2 -16 2166.16  176.14
  -4  -2 -16 1719.31  195.78
   4  -2  16 2038.65  179.85
   4  -2  16 1775.65  146.90
   4   2  17   65.27   48.68
   4   2  17  101.62   59.79
   4   2  17   -3.87   67.12
  -4   2 -17  121.96   69.73
  -4  -2 -17   98.79   63.18
  -4  -2 -17   78.70   83.44
   4  -2  17   -9.01   65.04
   4  -2  17   83.01   42.58
   4   2  18 5565.52  379.16
   4   2  18 6841.67  450.55
   4   2  18 7262.05  420.20
  -4   2 -18 7468.38  514.98
  -4  -2 -18 6138.44  395.69
  -4  -2 -18 6136.11  477.30
   4  -2  18 6864.99  404.41
   4  -2  18 6297.06  347.87
   4   2  19  137.46   60.66
   4   2  19  165.94   65.87
   4   2  19  145.65   78.70
  -4   2 -19  131.03   74.89
  -4  -2 -19  207.58   80.26
  -4  -2 -19  -19.69   91.29
   4  -2  19  127.85   72.70
   4  -2  19   76.02   46.43
   4  -2  19   93.60   49.62
   4   2  20 3703.24  306.66
   4   2  20 5623.98  427.38
   4   2  20 4961.96  327.41
  -4   2 -20 5766.98  400.70
  -4  -2 -20 4054.96  287.30
  -4  -2 -20 4600.66  403.16
   4  -2  20 4921.14  352.08
   4  -2  20 4295.84  246.03
   4   2  21   29.36   47.12
   4   2  21   29.20   65.82
  -4   2 -21   58.75   63.18
  -4  -2 -21   64.85   53.50
  -4  -2 -21   79.12   93.70
   4  -2  21    7.98   77.91
   4  -2  21   70.10   45.31
   4   2  22 1479.55  173.09
  -4   2 -22 1552.54  190.60
  -4  -2 -22 1205.07  122.87
  -4  -2 -22 1550.12  189.23
   4  -2  22 1299.76  163.45
   4  -2  22 1170.20  122.40
   4   2  23   98.04   80.86
   4   2  23  215.76   81.33
  -4   2 -23  238.34   78.31
  -4  -2 -23  187.38   72.56
  -4  -2 -23    7.31   85.44
   4  -2  23  247.74   81.64
   4  -2  23  188.25   58.15
   4   2  24  202.28   90.67
   4   2  24  185.49   88.97
  -4   2 -24  130.62   93.81
  -4  -2 -24  214.39  104.51
   4  -2  24  172.82   80.89
   4   2  25  -19.32   70.92
   4   2  25  166.45   89.42
  -4   2 -25    5.40   69.93
  -4  -2 -25   14.61   80.45
   4  -2  25   43.26   65.88
   4   2  26   47.41   78.69
   4   2  26   43.34   67.96
  -4   2 -26  133.37   76.59
  -4  -2 -26   -3.59   76.55
   4  -2  26   29.15   64.45
   4   2  27   18.74   70.74
  -4  -2 -27  -19.12   69.80
   4   3   0 6835.24  387.15
   4   3   0 8201.07  440.57
   4   3   0 7705.96  451.96
  -4   3   0 8446.51  438.58
  -4  -3   0 7238.97  484.03
   4  -3   0 7109.66  404.57
   4  -3   0 8285.01  445.21
   4  -3   0 8006.45  379.40
   4   3   1  223.59   50.56
   4   3   1  186.78   58.99
   4   3   1  132.37   51.15
  -4   3  -1   67.20   24.60
  -4   3  -1   28.23   54.89
  -4  -3  -1  126.63   72.74
   4  -3   1   94.78   37.10
   4  -3   1  203.61   54.06
   4  -3   1  102.72   29.87
   4   3   2 7400.34  378.09
   4   3   2 8194.64  438.54
   4   3   2 7915.82  476.08
  -4   3  -2 8268.34  473.29
  -4  -3  -2 7759.03  503.90
   4  -3   2 7629.81  456.34
   4  -3   2 8121.38  428.97
   4  -3   2 7658.06  333.85
   4   3   3  428.61   60.61
   4   3   3  530.78   71.92
   4   3   3  366.26   75.70
  -4   3  -3  326.76   70.72
  -4  -3  -3  273.01   75.29
  -4  -3  -3  311.74   35.06
   4  -3   3  389.33   64.26
   4  -3   3  372.84   57.72
   4  -3   3  422.10   46.47
   4   3   4 5399.31  288.42
   4   3   4 5148.74  306.30
   4   3   4 5582.27  344.53
  -4   3  -4 5525.11  326.39
  -4  -3  -4 5204.54  449.81
  -4  -3  -4 4527.30  246.86
   4  -3   4 5639.40  376.39
   4  -3   4 6034.19  302.03
   4  -3   4 5383.00  290.22
   4   3   5  531.78   63.21
   4   3   5  804.89  101.59
   4   3   5  689.00   94.44
  -4   3  -5  635.74   92.42
  -4  -3  -5  578.68  106.34
  -4  -3  -5  542.21   52.18
   4  -3   5  630.13   77.36
   4  -3   5  544.61   71.38
   4  -3   5  609.24   57.31
   4   3   6 2088.91  138.60
   4   3   6 2111.46  144.21
   4   3   6 2035.60  175.46
  -4   3  -6 2443.39  194.55
  -4  -3  -6 2022.40  215.18
  -4  -3  -6 2036.37  145.37
   4  -3   6 2413.03  183.39
   4  -3   6 2264.81  127.26
   4   3   7  -74.85   48.59
   4   3   7   47.31   49.92
  -4   3  -7  -29.28   51.56
  -4   3  -7   79.73   57.49
  -4  -3  -7   -7.26   68.20
  -4  -3  -7   -7.76   36.41
   4  -3   7    2.15   49.49
   4  -3   7   33.97   24.16
   4   3   8   82.91   37.82
   4   3   8   86.41   60.54
   4   3   8  190.04   60.29
  -4   3  -8  209.99   64.23
  -4   3  -8  112.34   54.02
  -4  -3  -8  135.57   74.77
  -4  -3  -8   86.56   46.93
   4  -3   8  159.56   54.51
   4  -3   8  114.36   25.75
   4   3   9   53.42   63.15
   4   3   9   20.25   50.92
  -4   3  -9   -9.46   45.19
  -4   3  -9   44.84   51.53
  -4  -3  -9   18.77   73.07
  -4  -3  -9   44.23   44.83
   4  -3   9   24.99   64.38
   4  -3   9   10.66   23.93
   4   3  10 1198.32   96.44
   4   3  10 1479.79  157.04
   4   3  10 1472.13  143.91
  -4   3 -10 1450.90  135.41
  -4   3 -10 1661.82  149.53
  -4  -3 -10 1388.46  158.99
  -4  -3 -10 1377.82  124.79
   4  -3  10 1579.90  150.83
   4  -3  10 1298.61   86.50
   4   3  11  113.22   45.52
   4   3  11   32.68   61.02
   4   3  11  214.74   71.11
  -4   3 -11  102.90   49.18
  -4   3 -11  189.17   59.25
  -4  -3 -11   66.50   58.42
  -4  -3 -11  170.21   63.83
   4  -3  11  117.12   81.56
   4   3  12 5339.89  344.28
   4   3  12 6577.93  406.22
   4   3  12 6647.27  424.54
  -4   3 -12 6678.02  382.72
  -4   3 -12 7968.54  447.56
  -4  -3 -12 5958.56  350.27
  -4  -3 -12 6423.08  388.59
   4  -3  12 7289.48  410.86
   4   3  13  498.76   77.80
   4   3  13  523.02   88.90
  -4   3 -13  379.96   61.40
  -4   3 -13  531.75   88.29
  -4  -3 -13  407.55   92.37
  -4  -3 -13  496.32   82.74
   4  -3  13  587.06  100.93
   4   3  14 5567.59  382.72
   4   3  14 5343.95  342.16
  -4   3 -14 4242.17  263.11
  -4   3 -14 6039.59  366.61
  -4  -3 -14 4801.74  320.25
  -4  -3 -14 4091.96  318.75
   4  -3  14 4974.37  345.77
   4   3  15   90.84   59.29
  -4   3 -15  278.83   82.28
  -4  -3 -15   97.65   76.10
  -4  -3 -15  129.53   71.86
   4  -3  15  233.19   76.98
   4   3  16 3496.93  272.80
   4   3  16 3309.62  289.02
  -4   3 -16 3589.57  309.43
  -4  -3 -16 3021.76  274.74
  -4  -3 -16 3014.16  244.86
   4  -3  16 3138.12  266.92
   4   3  17  314.88   88.86
   4   3  17  415.15   88.63
  -4   3 -17  384.78   82.58
  -4  -3 -17  318.57   88.25
  -4  -3 -17  277.11   96.57
   4  -3  17  195.81   87.00
   4   3  18  323.88   98.67
   4   3  18  261.52   81.80
  -4   3 -18  325.08   95.01
  -4  -3 -18  206.76   84.10
  -4  -3 -18  194.79   91.05
   4  -3  18  154.64   81.30
   4   3  19  102.43   73.58
   4   3  19  -39.10   85.20
  -4   3 -19    7.51   66.06
  -4  -3 -19    0.00   57.95
  -4  -3 -19  120.13   69.92
   4  -3  19  -25.80   66.73
   4   3  20  217.00   89.26
  -4   3 -20  133.79   80.97
  -4  -3 -20   47.62   73.50
  -4  -3 -20  153.66   79.86
   4  -3  20   11.37   77.77
   4   3  21  110.86   73.19
   4   3  21  -38.03   80.69
  -4   3 -21   43.66   72.74
  -4  -3 -21    0.28   68.09
  -4  -3 -21   22.20   81.52
   4  -3  21   93.03   78.95
   4   3  22  966.42  142.16
   4   3  22  696.35  137.66
  -4   3 -22  907.99  142.28
  -4  -3 -22  614.12  107.55
  -4  -3 -22  528.15  133.51
   4  -3  22  812.28  125.18
   4   3  23   86.44   78.56
   4   3  23   86.10   77.22
  -4   3 -23   -1.42   76.96
  -4  -3 -23  -34.98   77.21
  -4  -3 -23   -4.43   80.26
   4  -3  23  -50.15   77.37
   4   3  24 1155.09  154.41
  -4   3 -24 1282.11  173.16
  -4  -3 -24  708.61  103.94
  -4  -3 -24 1080.64  188.77
   4   4   0  463.96   60.13
   4   4   0  579.36   89.78
   4   4   0  499.22   76.40
  -4   4   0  530.51   86.39
  -4  -4   0  360.14  104.95
   4  -4   0  464.86   56.31
   4  -4   0  593.07   99.46
   4   4   1  195.79   80.61
   4   4   1   97.60   47.41
  -4   4  -1   51.05   58.35
  -4  -4  -1  118.03   74.59
   4  -4   1   -2.55   36.76
   4  -4   1   19.17   65.71
   4   4   2   81.82   42.21
   4   4   2  105.99   62.40
   4   4   2   25.51   44.87
  -4   4  -2  158.01   81.73
  -4  -4  -2   42.91   81.75
   4  -4   2   57.78   41.05
   4  -4   2  139.19   71.56
   4   4   3  -39.14   72.95
   4   4   3   18.28   47.12
  -4  -4  -3  -31.66   69.36
   4  -4   3    0.50   38.46
   4  -4   3  103.82   64.27
   4   4   4 1384.40  140.65
   4   4   4 1263.21  127.41
  -4   4  -4 1182.55  142.29
  -4  -4  -4 1387.02  163.59
   4  -4   4 1210.84  105.14
   4  -4   4 1520.37  141.73
   4   4   5  301.11  106.63
   4   4   5   44.71   48.49
  -4   4  -5  127.97   69.50
  -4  -4  -5  145.90   79.13
   4  -4   5   84.38   45.00
   4  -4   5  117.96   59.34
   4   4   6 2603.34  215.39
   4   4   6 2192.33  159.00
  -4   4  -6 2443.89  220.31
  -4   4  -6 2887.17  210.94
  -4  -4  -6 2080.44  240.96
   4  -4   6 2147.95  146.14
   4   4   7   58.04   90.38
   4   4   7    4.28   55.09
  -4   4  -7   38.45   61.99
  -4   4  -7   95.69   61.66
  -4  -4  -7  -13.36   85.67
   4  -4   7   14.74   55.81
   4   4   8 5297.75  397.59
   4   4   8 4118.32  284.69
  -4   4  -8 4200.98  323.19
  -4   4  -8 5165.73  348.98
  -4  -4  -8 3844.37  315.03
   4  -4   8 4094.58  288.23
   4   4   9 1341.29  173.49
   4   4   9  922.69  111.12
  -4   4  -9  914.00  123.81
  -4   4  -9 1342.85  148.33
  -4  -4  -9  926.45  139.10
   4  -4   9  963.11  124.02
   4   4  10 2277.30  210.06
   4   4  10 1659.73  174.38
  -4   4 -10 1800.76  172.99
  -4   4 -10 2334.80  203.44
  -4  -4 -10 1751.79  213.26
   4  -4  10 1846.84  198.34
   4   4  11  -19.22   82.30
   4   4  11   25.14   53.78
  -4   4 -11   -5.17   57.05
  -4   4 -11   66.01   64.57
  -4  -4 -11  -32.57   89.27
   4  -4  11   39.88   68.27
   4   4  12  330.14   86.52
   4   4  12  457.35   82.85
  -4   4 -12  396.64   90.03
  -4  -4 -12  338.16   79.38
   4  -4  12  361.81   74.31
   4   4  13  548.89  106.23
   4   4  13  428.56   81.42
  -4   4 -13  588.94  114.14
  -4  -4 -13  422.01  110.61
   4  -4  13  408.57   91.47
   4   4  14  -86.87   73.20
   4   4  14  -56.89   72.06
  -4   4 -14   27.96   73.12
  -4  -4 -14  -26.75   71.98
   4  -4  14    9.36   72.28
   4   4  15  133.07   85.97
   4   4  15   67.29   75.62
  -4   4 -15  246.15   83.50
  -4  -4 -15  147.60   84.09
   4  -4  15   -2.93   68.52
   4   4  16 1050.98  147.04
   4   4  16  899.05  127.09
  -4   4 -16 1068.96  141.32
  -4  -4 -16 1050.47  162.47
   4  -4  16  751.54  124.43
   4   4  17  131.45   72.57
   4   4  17  -35.88   72.91
  -4   4 -17   62.73   78.50
  -4  -4 -17  123.61   74.85
   4  -4  17   73.02   76.45
   4   4  18 1171.14  181.79
   4   4  18 1153.77  151.16
  -4   4 -18 1179.13  185.34
  -4  -4 -18  900.59  152.32
   4  -4  18 1167.42  149.64
   4   4  19  146.42   83.71
  -4   4 -19  120.10   83.75
  -4  -4 -19   75.25   82.95
   4  -4  19  134.95   80.40
   4   5   0 1705.47  174.20
  -4   5   0 1219.13  151.29
  -4  -5   0 1017.89  151.83
   4   5   1  245.50  112.62
  -4   5  -1   12.18   68.88
  -4  -5  -1  156.09   83.48
   4  -5   1  255.88   85.68
   4   5   2  919.20  136.29
  -4   5  -2  803.06  119.84
  -4  -5  -2  606.46  119.40
   4   5   3  222.23   95.83
  -4   5  -3   21.66   70.89
  -4  -5  -3   93.91   91.39
   4   5   4 1425.07  186.47
  -4   5  -4  801.25  114.42
  -4  -5  -4 1177.61  175.64
   4   5   5  316.32  102.62
  -4   5  -5  198.15   76.49
  -4  -5  -5  165.01  112.66
   4   5   6  163.03   80.20
  -4   5  -6   15.48   67.14
  -4  -5  -6  103.92   75.34
   4   5   7    0.07   76.10
  -4   5  -7   66.77   64.02
  -4  -5  -7  -15.59   76.21
   4   5   8  -32.43   74.35
  -4   5  -8   67.40   75.59
  -4   5  -8  -56.54   74.46
  -4  -5  -8   -9.10   73.00
  -4   5  -9  104.43   67.46
   5   0   0    2.58   32.42
   5   0   0   33.39   22.45
  -5   0   0   -4.84   40.55
  -5   0   0    4.67   21.37
   5   0   1 7553.63  402.33
   5   0   1 7576.76  350.90
   5   0   1 7412.48  359.81
  -5   0  -1 7373.17  388.18
  -5   0  -1 7161.50  335.84
  -5   0  -1 7443.23  326.71
   5   0   2  113.48   62.68
   5   0   2   64.51   28.69
   5   0   2  131.22   58.69
  -5   0  -2  102.53   66.31
  -5   0  -2   92.71   45.25
   5   0   348526.11 1838.02
   5   0   349110.40 1727.57
   5   0   345684.50 1794.47
   5   0   348641.44 1839.07
  -5   0  -349670.61 1863.37
  -5   0  -348084.29 1852.52
   5   0   4   47.60   47.17
   5   0   4   38.05   24.02
   5   0   4   41.13   42.07
  -5   0  -4    1.73   36.36
  -5   0  -4   20.10   35.09
   5   0   515002.95  723.19
   5   0   516293.90  651.75
   5   0   514189.91  729.67
  -5   0  -515356.01  772.99
  -5   0  -515088.74  746.80
   5   0   6    2.24   41.10
   5   0   6  -33.68   40.52
   5   0   6    9.20   41.48
   5   0   6  -17.06   41.40
  -5   0  -6  -23.95   40.97
  -5   0  -6   69.39   40.97
   5   0   7 5015.73  332.32
   5   0   7 5501.43  277.70
   5   0   7 4928.23  319.77
  -5   0  -7 5210.71  297.04
  -5   0  -7 5055.44  318.46
   5   0   8  -37.74   47.81
   5   0   8   -7.62   46.99
   5   0   8   36.44   48.39
  -5   0  -8   -3.09   47.43
  -5   0  -8  -24.44   47.44
   5   0   9  286.89   63.09
   5   0   9  166.10   30.74
   5   0   9  186.23   50.53
  -5   0  -9  194.46   28.06
  -5   0  -9  248.25   50.84
  -5   0  -9  234.17   49.77
   5   0  10   37.87   45.12
   5   0  10    7.74   33.69
   5   0  10   15.22   45.79
  -5   0 -10   13.16   36.83
  -5   0 -10  -36.98   48.42
   5   0  11 4183.03  304.38
   5   0  11 3624.95  221.33
   5   0  11 4220.32  244.92
  -5   0 -11 3739.63  266.06
  -5   0 -11 3890.12  269.64
   5   0  12  -15.32   31.73
   5   0  12   85.06   57.29
  -5   0 -12   58.62   49.71
  -5   0 -12   -7.05   50.06
   5   0  13 8251.99  562.28
   5   0  13 7730.09  389.43
   5   0  13 7984.92  449.15
  -5   0 -13 7590.07  502.85
  -5   0 -13 7950.45  529.00
   5   0  14   77.59   58.90
   5   0  14    6.00   59.30
  -5   0 -14  -92.87   57.60
  -5   0 -14  -34.88   57.55
   5   0  15 6440.04  514.14
   5   0  15 6587.90  390.12
  -5   0 -15 6159.23  380.28
  -5   0 -15 6873.03  407.21
   5   0  16   37.87   50.01
   5   0  16  -26.87   50.09
   5   0  16  -38.91   50.14
  -5   0 -16  -30.40   48.99
  -5   0 -16  -65.10   48.85
   5   0  17 7114.69  529.43
   5   0  17 7617.38  473.10
   5   0  17 7641.50  455.02
  -5   0 -17 7458.23  420.35
  -5   0 -17 7725.33  521.99
   5   0  18   67.12   46.81
   5   0  18  -31.55   67.16
  -5   0 -18   -7.07   37.72
  -5   0 -18  -15.13   78.91
   5   0  19 3043.92  263.76
   5   0  19 3401.96  254.52
  -5   0 -19 2959.94  204.87
  -5   0 -19 3445.02  347.63
   5   0  20  -23.66   54.98
   5   0  20   58.26   54.87
  -5   0 -20  -22.63   54.44
  -5   0 -20  -40.16   54.03
   5   0  21  126.66   79.65
   5   0  21   86.32   82.14
  -5   0 -21   48.36   78.30
   5   0  22   11.46   54.99
   5   0  22  -22.92   55.35
   5   0  22  -64.87   54.88
  -5   0 -22   -1.28   54.27
   5   0  23 1683.14  224.66
   5   0  23 1721.50  153.52
   5   0  23 2069.12  202.51
  -5   0 -23 1867.65  250.89
   5   0  24  -26.42   55.13
   5   0  24  -41.66   55.07
  -5   0 -24   77.66   54.62
   5   0  25  677.31  127.09
   5   0  25  831.09  134.41
  -5   0 -25  885.14  152.76
   5   0  26  -14.02   72.34
   5   0  26   -0.64   72.34
  -5   0 -26  -52.77   71.81
   5   0  27  989.38  160.24
   5   0  27 1210.15  183.24
  -5   0 -27  978.71  161.91
   5   1   0 1698.87  134.82
   5   1   0 1460.13  136.63
   5   1   0 1617.35  130.32
  -5   1   0 1509.90  109.74
  -5  -1   0 1524.95  141.67
  -5  -1   0 1325.58  110.52
  -5  -1   0 1295.72   85.02
   5  -1   0 1434.71  118.82
   5  -1   0 1607.55   57.99
   5  -1   0 1435.02   62.08
   5  -1   0 1418.87  108.44
   5  -1   0 1364.78  100.08
   5   1   1 6885.31  369.50
   5   1   1 6098.49  314.57
   5   1   1 5984.65  347.47
  -5   1  -1 6403.26  338.64
  -5  -1  -1 6149.88  455.62
  -5  -1  -1 6013.35  290.39
  -5  -1  -1 5873.06  249.63
   5  -1   1 6279.46  330.21
   5  -1   1 5727.07  338.75
   5  -1   1 6576.74  343.12
   5   1   2  167.26   44.57
   5   1   2  199.99   40.62
   5   1   2   65.88   41.55
  -5   1  -2  128.33   52.49
  -5  -1  -2  145.81   59.05
  -5  -1  -2   94.51   21.11
   5  -1   2  228.06   46.57
   5  -1   2   98.56   39.07
   5  -1   2  188.41   39.14
   5   1   3 1017.59  103.67
   5   1   3 1025.30   83.89
   5   1   3 1266.66  130.63
  -5   1  -3 1103.91  114.56
  -5  -1  -3 1210.08  115.34
  -5  -1  -3 1030.09   84.39
  -5  -1  -3  971.51   78.17
   5  -1   3 1157.73   84.27
   5   1   4  134.65   40.37
   5   1   4  140.48   34.16
   5   1   4  190.24   56.41
  -5   1  -4  180.10   48.28
  -5   1  -4  167.02   39.98
  -5  -1  -4  226.67   58.83
  -5  -1  -4  109.07   36.55
  -5  -1  -4  108.39   27.89
   5  -1   4  204.03   46.99
   5  -1   4  149.30   41.60
   5   1   5 3836.43  202.93
   5   1   5 3902.29  234.54
   5   1   5 4300.89  287.80
  -5   1  -5 4402.31  242.42
  -5   1  -5 4067.18  257.12
  -5  -1  -5 4600.29  321.66
  -5  -1  -5 3947.45  224.19
  -5  -1  -5 3410.61  230.84
   5  -1   5 4222.59  256.01
   5  -1   5 4077.28  266.50
   5   1   6  614.36   69.75
   5   1   6  710.04   69.59
   5   1   6  814.78  118.53
  -5   1  -6  614.92   68.23
  -5   1  -6  659.63   79.65
  -5  -1  -6  668.54  101.39
  -5  -1  -6  443.52   56.10
   5  -1   6  694.57   76.64
   5  -1   6  690.17   73.04
   5   1   717468.82  748.46
   5   1   717595.64  963.63
  -5   1  -716826.38  678.80
  -5   1  -716113.75  814.44
  -5  -1  -716946.03  945.41
  -5  -1  -715390.58  674.34
   5  -1   716061.07  857.88
   5  -1   717437.56  766.78
   5   1   8  -11.40   34.05
   5   1   8   50.02   41.13
   5   1   8   80.25   61.15
  -5   1  -8   17.87   31.94
  -5   1  -8   68.65   43.90
  -5  -1  -8    2.95   57.67
  -5  -1  -8    1.00   40.97
   5  -1   8   49.17   49.39
   5  -1   8   78.72   53.66
   5   1   916073.32  740.97
   5   1   915217.03  694.56
   5   1   915041.05  863.06
  -5   1  -916165.39  679.28
  -5   1  -915964.18  769.25
  -5  -1  -916639.35  815.79
  -5  -1  -915172.20  709.10
   5  -1   916970.75  923.77
   5  -1   917620.91  796.83
   5   1  10   -9.46   41.83
   5   1  10   16.07   38.20
   5   1  10   28.42   53.14
  -5   1 -10    9.89   13.58
  -5   1 -10   54.81   42.74
  -5   1 -10   48.20   42.47
  -5  -1 -10   43.52   45.10
  -5  -1 -10   -1.86   51.11
   5  -1  10   24.65   46.78
   5  -1  10   -6.49   42.50
   5   1  11 7542.97  427.35
   5   1  11 7813.08  407.39
   5   1  11 7764.62  523.96
  -5   1 -11 7946.89  401.04
  -5   1 -11 8415.17  468.84
  -5  -1 -11 8126.87  458.59
  -5  -1 -11 7942.76  523.91
   5  -1  11 8036.72  498.08
   5  -1  11 7605.25  419.20
   5   1  12   35.33   42.25
   5   1  12   70.40   41.20
   5   1  12   95.20   56.35
  -5   1 -12  107.16   43.18
  -5   1 -12  181.29   65.38
  -5  -1 -12  108.12   55.76
  -5  -1 -12   69.66   58.97
   5  -1  12  128.43   61.40
   5  -1  12  126.99   51.67
   5   1  13 3815.96  277.16
   5   1  13 3455.20  241.32
   5   1  13 4093.07  308.14
  -5   1 -13 3966.12  278.64
  -5   1 -13 3979.72  282.38
  -5  -1 -13 3836.69  216.54
  -5  -1 -13 3295.38  233.04
   5  -1  13 4083.97  316.40
   5  -1  13 4120.95  252.67
   5   1  14   81.00   47.97
   5   1  14   43.21   46.15
   5   1  14   34.04   63.31
  -5   1 -14  107.50   46.57
  -5   1 -14  120.47   59.95
  -5  -1 -14   86.36   49.81
  -5  -1 -14  185.13   59.08
   5  -1  14   39.47   70.27
   5  -1  14   77.25   49.30
   5   1  15  213.69   58.48
   5   1  15  194.79   59.59
   5   1  15  140.45   76.59
  -5   1 -15  269.61   55.17
  -5   1 -15  191.98   71.86
  -5  -1 -15  197.45   58.19
  -5  -1 -15  276.06   81.00
   5  -1  15  252.05   77.91
   5  -1  15  283.08   52.83
   5   1  16  305.27   75.29
   5   1  16  387.61   69.20
   5   1  16  288.83   69.74
  -5   1 -16  304.71   55.41
  -5   1 -16  381.76   78.03
  -5  -1 -16  335.97   66.95
  -5  -1 -16  405.24   87.05
   5  -1  16  223.32   76.20
   5  -1  16  322.23   54.91
   5  -1  16  430.35   72.43
   5   1  17 1401.11  146.12
   5   1  17 1321.78  130.48
   5   1  17 1414.36  159.60
  -5   1 -17 1340.89  128.66
  -5   1 -17 1466.96  166.93
  -5  -1 -17 1324.02  131.11
  -5  -1 -17 1186.62  171.06
   5  -1  17 1320.13  164.26
   5  -1  17 1213.32  116.40
   5  -1  17 1366.35  141.43
   5   1  18  -36.29   53.17
   5   1  18   15.06   56.18
   5   1  18   28.99   79.50
  -5   1 -18   32.48   34.88
  -5   1 -18   46.54   70.34
  -5  -1 -18   24.99   53.84
  -5  -1 -18  -18.30   73.14
   5  -1  18   86.93   71.21
   5  -1  18   54.57   60.58
   5   1  19 2958.25  258.18
   5   1  19 2812.10  233.70
   5   1  19 2727.09  255.24
  -5   1 -19 3483.24  299.10
  -5  -1 -19 2530.56  177.39
  -5  -1 -19 2570.46  264.60
   5  -1  19 2748.43  262.22
   5  -1  19 2636.84  213.74
   5  -1  19 2884.01  228.05
   5   1  20  191.05   67.02
   5   1  20  324.14   88.67
  -5   1 -20  437.60  101.21
  -5  -1 -20  300.17   64.47
  -5  -1 -20  432.49  105.44
   5  -1  20  464.99   87.64
   5  -1  20  330.87   71.46
   5  -1  20  346.37   84.91
   5   1  21 4621.82  386.83
   5   1  21 4708.62  346.49
   5   1  21 5227.51  349.69
  -5   1 -21 5655.81  442.20
  -5  -1 -21 4704.15  298.05
  -5  -1 -21 5083.39  405.35
   5  -1  21 5061.61  383.72
   5  -1  21 5085.10  354.54
   5   1  22  -33.37   47.35
   5   1  22  138.79   65.36
   5   1  22  124.19   72.75
  -5   1 -22   86.45   84.28
  -5  -1 -22   55.19   80.89
   5  -1  22  101.77   69.02
   5  -1  22   92.64   73.55
   5   1  23 1371.85  141.72
   5   1  23 1568.41  179.02
   5   1  23 1907.36  217.10
  -5   1 -23 1803.54  230.53
  -5  -1 -23 1812.97  212.07
   5  -1  23 2034.56  207.17
   5  -1  23 1697.50  199.40
   5   1  24  -10.03   46.73
   5   1  24  -35.20   46.55
  -5   1 -24   43.05   45.71
  -5  -1 -24 -104.20   46.57
   5  -1  24  -14.51   46.62
   5  -1  24   25.89   46.63
   5   1  25  693.79  123.77
   5   1  25  829.89  124.28
   5   1  25  811.90  123.82
  -5   1 -25  902.58  153.27
  -5  -1 -25 1023.96  143.21
   5  -1  25  866.69  140.48
   5  -1  25  907.64  136.42
   5   1  26   18.97   53.71
   5   1  26   89.61   71.90
   5   1  26   91.11   84.55
  -5   1 -26  -72.92   78.33
  -5  -1 -26  -56.09   88.83
   5  -1  26   19.78   62.68
   5  -1  26   37.11   71.58
   5   1  27  -33.75   57.74
   5   1  27  -11.09   61.90
   5   1  27   38.84   67.05
  -5  -1 -27   34.53   87.89
   5  -1  27   64.74   73.94
   5  -1  27    3.99   64.68
   5   2   0  222.64   46.04
   5   2   0  293.58   57.73
   5   2   0  228.47   54.80
  -5   2   0  250.48   65.26
  -5  -2   0  197.85   88.70
   5  -2   0  298.09   50.55
   5  -2   0  172.03   48.53
   5  -2   0  288.98   40.57
   5   2   1 9978.90  606.36
   5   2   110008.37  483.51
   5   2   110048.71  587.93
  -5   2  -110468.18  537.27
  -5  -2  -111218.84  780.45
  -5  -2  -110135.88  352.49
   5  -2   111161.72  560.76
   5  -2   110099.27  507.15
   5  -2   110420.54  504.94
   5   2   2  833.47   82.10
   5   2   2  861.33   84.00
   5   2   2  932.61  118.36
  -5   2  -2  749.99   83.87
  -5  -2  -2  756.38  125.90
  -5  -2  -2  637.27   54.71
  -5  -2  -2  618.80   40.35
   5  -2   2  919.18   99.37
   5  -2   2  965.50   85.29
   5  -2   2  755.83   64.85
   5   2   312192.69  604.91
   5   2   314465.13  710.67
   5   2   314780.11  785.95
  -5   2  -314128.44  657.04
  -5  -2  -314836.64  893.46
  -5  -2  -313593.51  599.91
   5  -2   315485.67  745.47
   5  -2   314168.45  588.28
   5  -2   314080.33  587.97
   5   2   4  210.62   50.87
   5   2   4  250.11   58.24
   5   2   4  212.54   55.63
  -5   2  -4  127.20   52.54
  -5  -2  -4  365.23   87.58
  -5  -2  -4  175.92   43.67
   5  -2   4  318.24   69.52
   5  -2   4  348.51   70.39
   5  -2   4  265.39   44.90
   5   2   510740.81  515.51
   5   2   510003.84  489.76
   5   2   511208.10  642.76
  -5   2  -510861.40  502.91
  -5  -2  -511705.73  743.77
  -5  -2  -510616.48  555.39
   5  -2   512452.92  650.92
   5  -2   511912.40  520.75
   5   2   6 1833.69  132.50
   5   2   6 1795.88  147.13
   5   2   6 1704.63  167.82
  -5   2  -6 1922.86  130.66
  -5   2  -6 1818.28  132.34
  -5  -2  -6 1626.91  151.75
  -5  -2  -6 1619.25  130.54
   5  -2   6 1991.25  151.70
   5  -2   6 1828.69  131.42
   5   2   7 7700.11  388.24
   5   2   7 7573.07  404.35
   5   2   7 7789.49  500.54
  -5   2  -7 7578.42  432.67
  -5   2  -7 7890.19  389.81
  -5  -2  -7 7909.54  500.37
  -5  -2  -7 6732.77  390.02
   5  -2   7 8196.03  430.37
   5  -2   7 7839.74  418.36
   5   2   8  494.55   65.04
   5   2   8  589.63   84.94
   5   2   8  457.79   83.56
  -5   2  -8  507.10   62.43
  -5   2  -8  506.69   69.59
  -5  -2  -8  548.62   90.61
  -5  -2  -8  390.44   67.09
   5  -2   8  550.74   80.24
   5  -2   8  517.71   63.18
   5   2   9   85.73   39.96
   5   2   9   70.55   51.32
   5   2   9   15.43   58.32
  -5   2  -9  125.39   42.07
  -5   2  -9  125.53   56.14
  -5  -2  -9  187.37   54.89
   5  -2   9   23.19   47.18
   5  -2   9   99.78   39.88
   5   2  10  167.57   43.24
   5   2  10  270.65   64.37
   5   2  10  179.78   60.58
  -5   2 -10  209.73   52.86
  -5   2 -10  214.04   55.84
  -5  -2 -10  133.94   67.77
  -5  -2 -10  146.25   57.98
   5  -2  10  217.44   60.04
   5  -2  10  139.71   40.86
   5   2  11 1306.85  127.07
   5   2  11 1263.72  141.00
   5   2  11 1400.15  151.44
  -5   2 -11 1500.65  111.01
  -5   2 -11 1505.18  140.21
  -5  -2 -11 1172.48  119.41
  -5  -2 -11 1240.65  120.58
   5  -2  11 1417.46  132.42
   5  -2  11 1433.47  116.24
   5   2  12  147.05   52.42
   5   2  12   87.08   62.68
   5   2  12  202.82   79.11
  -5   2 -12  149.52   48.20
  -5   2 -12  156.34   62.96
  -5  -2 -12  152.73   60.12
  -5  -2 -12   98.00   50.89
   5  -2  12   66.38   60.28
   5  -2  12  200.60   48.03
   5   2  13 6832.69  424.93
   5   2  13 6419.17  407.18
   5   2  13 6795.46  448.40
  -5   2 -13 6452.44  330.72
  -5   2 -13 6724.80  421.49
  -5  -2 -13 6378.15  365.08
  -5  -2 -13 4999.65  378.38
   5  -2  13 6679.48  425.16
   5  -2  13 6706.81  361.30
   5   2  14    4.88   51.81
   5   2  14   17.56   65.39
   5   2  14   94.62   66.04
  -5   2 -14   24.15   40.05
  -5   2 -14    3.52   69.88
  -5  -2 -14   43.87   59.65
  -5  -2 -14  -52.71   68.21
   5  -2  14  -16.12   72.09
   5  -2  14   75.77   44.11
   5   2  15 5304.46  391.66
   5   2  15 5641.61  376.68
   5   2  15 5279.34  389.41
  -5   2 -15 5820.88  312.70
  -5   2 -15 6504.94  445.78
  -5  -2 -15 5329.75  346.17
  -5  -2 -15 5077.98  357.51
   5  -2  15 5544.51  356.66
   5  -2  15 5236.57  333.92
   5   2  16  190.91   62.24
   5   2  16  231.41   81.87
   5   2  16  175.44   76.12
  -5   2 -16  112.19   37.35
  -5   2 -16  141.26   88.59
  -5  -2 -16   81.82   68.27
  -5  -2 -16   72.47   70.93
   5  -2  16  173.21   77.67
   5  -2  16  140.28   48.91
   5   2  17 4091.67  301.64
   5   2  17 5394.02  397.28
   5   2  17 5150.78  368.26
  -5   2 -17 6086.67  454.31
  -5  -2 -17 4880.53  382.94
  -5  -2 -17 4483.38  322.51
   5  -2  17 5645.84  406.16
   5  -2  17 4729.09  283.09
   5   2  18  361.61   76.97
   5   2  18  498.02   97.14
  -5   2 -18  533.25  113.78
  -5  -2 -18  341.78   82.45
  -5  -2 -18  342.07  105.54
   5  -2  18  384.30   97.12
   5  -2  18  332.41   63.94
   5   2  19  209.47   58.62
   5   2  19  266.47   91.03
   5   2  19  277.68   93.80
  -5   2 -19  421.77   87.14
  -5  -2 -19  167.41   59.60
  -5  -2 -19  159.24   91.31
   5  -2  19  208.34   79.26
   5  -2  19  278.04   63.26
   5   2  20   23.67   47.56
   5   2  20  425.04  133.95
   5   2  20   29.12   63.99
  -5   2 -20   74.85   74.92
  -5  -2 -20  117.20   63.92
  -5  -2 -20  -16.71   76.47
   5  -2  20  -73.56   86.31
   5  -2  20    9.14   53.96
   5   2  21   65.22   59.49
   5   2  21   68.83   76.91
   5   2  21  156.44   84.85
  -5   2 -21   99.64   76.96
  -5  -2 -21  165.26   67.91
  -5  -2 -21  113.00   88.05
   5  -2  21  209.54   70.16
   5  -2  21   97.24   53.00
   5   2  22    3.26   69.53
  -5   2 -22  -77.77   68.98
  -5  -2 -22   53.60   69.36
  -5  -2 -22  -44.64   70.07
   5  -2  22  -58.52   69.76
   5  -2  22  -23.97   69.77
   5   2  23  152.32   82.06
   5   2  23   11.12   63.45
  -5   2 -23  132.80   80.67
  -5  -2 -23  -46.62   77.51
   5  -2  23    6.68   69.87
   5   2  24   42.99   71.49
   5   2  24  105.44   82.16
  -5   2 -24   21.91   66.16
  -5  -2 -24   41.09   80.54
   5  -2  24  -55.15   71.92
   5   2  25 1015.68  150.85
  -5   2 -25 1203.16  193.60
  -5  -2 -25 1122.88  154.36
   5  -2  25  961.71  155.21
   5   3   0  593.44   87.26
   5   3   0  742.39  120.86
   5   3   0  486.40   85.05
  -5   3   0  555.30   90.57
  -5  -3   0  544.63  100.48
   5  -3   0  440.12   73.93
   5  -3   0  709.21   95.03
   5  -3   0  604.80   69.86
   5   3   1 3193.08  213.84
   5   3   1 4326.50  277.89
   5   3   1 3929.17  307.68
  -5   3  -1 3983.40  249.59
  -5  -3  -1 3553.40  279.84
   5  -3   1 3890.10  275.08
   5  -3   1 3871.58  259.10
   5  -3   1 3778.52  204.68
   5   3   2  239.37   55.13
   5   3   2  454.36   75.20
   5   3   2  242.29   59.78
  -5   3  -2  223.03   67.50
  -5  -3  -2  285.52   92.77
   5  -3   2  182.15   55.41
   5  -3   2  339.50   64.21
   5  -3   2  274.58   42.19
   5   3   3   19.12   46.00
   5   3   3   -9.17   46.29
   5   3   3   65.11   54.14
  -5   3  -3  107.19   60.16
  -5  -3  -3   17.63   83.70
   5  -3   3   79.57   46.51
   5  -3   3   77.89   53.21
   5  -3   3   13.89   31.66
   5   3   4  -18.53   45.96
   5   3   4   -9.53   57.20
   5   3   4  -19.82   50.17
  -5   3  -4   61.70   53.59
  -5  -3  -4    4.08   69.06
   5  -3   4   -4.13   45.54
   5  -3   4   40.51   56.15
   5  -3   4   12.00   31.30
   5   3   5 1104.32  112.58
   5   3   5 1185.12  108.05
   5   3   5 1201.47  144.26
  -5   3  -5 1146.62  133.15
  -5  -3  -5 1049.11  156.10
   5  -3   5  998.07  102.98
   5  -3   5 1072.95   95.24
   5   3   6  506.80   70.39
   5   3   6  492.78   79.09
   5   3   6  507.10   85.33
  -5   3  -6  455.27   79.43
  -5   3  -6  515.17   72.61
  -5  -3  -6  563.58  120.74
  -5  -3  -6  403.31   56.34
   5  -3   6  584.58   84.64
   5  -3   6  527.54   64.11
   5   3   7 3798.10  248.01
   5   3   7 3795.12  275.55
   5   3   7 3810.77  299.37
  -5   3  -7 3324.83  262.82
  -5   3  -7 4100.04  245.66
  -5  -3  -7 3552.74  338.06
  -5  -3  -7 2864.22  188.56
   5  -3   7 3960.28  261.48
   5  -3   7 3666.40  217.14
   5   3   8  105.49   44.33
   5   3   8  285.03   68.74
   5   3   8  231.01   70.37
  -5   3  -8  212.71   60.77
  -5   3  -8  235.25   76.68
  -5  -3  -8  186.38   83.76
  -5  -3  -8  104.18   44.89
   5  -3   8  284.55   73.54
   5  -3   8  180.36   41.90
   5   3   9 5483.95  288.59
   5   3   9 6232.00  397.91
   5   3   9 6285.29  438.68
  -5   3  -9 6449.15  432.95
  -5   3  -9 6862.94  421.14
  -5  -3  -9 5844.40  404.52
  -5  -3  -9 5299.64  310.49
   5  -3   9 6397.15  362.69
   5  -3   9 5518.35  309.29
   5   3  10  548.62   69.36
   5   3  10  869.21  123.36
   5   3  10  993.87  131.37
  -5   3 -10  804.48  102.17
  -5   3 -10  950.84  112.47
  -5  -3 -10  772.75  124.39
  -5  -3 -10  806.55   96.55
   5  -3  10  869.31  132.51
   5   3  11 7689.32  412.53
   5   3  11 9451.39  600.28
   5   3  11 8259.23  502.09
  -5   3 -11 7532.16  459.59
  -5   3 -11 9175.80  482.68
  -5  -3 -11 8226.87  559.61
  -5  -3 -11 6828.05  418.26
   5  -3  11 8646.28  527.48
   5   3  12   28.80   38.60
   5   3  12  100.99   68.05
  -5   3 -12  115.38   67.23
  -5  -3 -12   97.67   67.21
  -5  -3 -12  111.99   63.92
   5  -3  12  138.09   80.61
   5   3  13  866.82  119.47
   5   3  13  874.61  122.68
  -5   3 -13  931.69  122.90
  -5  -3 -13  902.79  133.79
  -5  -3 -13  948.87  112.67
   5  -3  13 1027.71  131.89
   5   3  14  421.60   88.74
   5   3  14  369.59   87.22
  -5   3 -14  454.58  100.19
  -5  -3 -14  444.35   89.52
  -5  -3 -14  329.01   89.40
   5  -3  14  524.93  115.25
   5   3  15  186.80   76.40
   5   3  15  195.61   82.21
  -5   3 -15  326.79   80.15
  -5  -3 -15  245.61   76.86
  -5  -3 -15  133.11   73.56
   5  -3  15  182.14   74.98
   5   3  16   18.92   63.20
   5   3  16  -52.27   61.94
  -5   3 -16  -21.35   62.11
  -5  -3 -16   73.19   79.68
  -5  -3 -16   61.62   70.85
   5  -3  16   15.97   61.39
   5   3  17  243.04   83.44
  -5   3 -17  347.66   90.56
  -5  -3 -17  372.79   99.35
  -5  -3 -17  202.89   86.42
   5  -3  17  393.91  101.12
   5   3  18   83.20   71.27
   5   3  18  -21.91   69.90
  -5   3 -18  110.06   70.79
  -5  -3 -18    0.71   70.04
  -5  -3 -18  -63.50   75.52
   5  -3  18 -109.73   69.85
   5   3  19 1166.21  155.19
   5   3  19 1303.69  157.14
  -5   3 -19 1271.25  179.52
  -5  -3 -19 1074.39  142.10
  -5  -3 -19  810.70  114.56
   5  -3  19 1300.76  148.91
   5   3  20   84.09   68.61
   5   3  20   -3.18   65.54
  -5   3 -20   16.00   63.49
  -5  -3 -20   52.73   72.05
  -5  -3 -20  -77.34   71.83
   5  -3  20   12.03   82.94
   5   3  21 1173.28  185.45
   5   3  21 1107.17  172.16
  -5   3 -21 1230.26  194.58
  -5  -3 -21 1072.69  122.32
  -5  -3 -21  819.25  131.82
   5  -3  21  926.06  160.10
   5   3  22   10.69   76.44
   5   3  22   48.25   86.41
  -5   3 -22   62.71   74.80
  -5  -3 -22  -22.50   78.05
   5  -3  22   87.11   71.47
   5   4   0  117.81   45.57
   5   4   0  105.92   78.43
   5   4   0   72.21   51.83
  -5   4   0   33.45   70.25
  -5  -4   0   43.25   79.54
   5   4   1 2195.73  166.61
   5   4   1 2678.09  219.82
   5   4   1 2316.76  174.53
  -5   4  -1 2353.28  196.11
  -5  -4  -1 2216.02  211.42
   5  -4   1 1822.72  122.92
   5   4   2  690.31   87.43
   5   4   2  734.09  141.48
   5   4   2  319.05   84.26
  -5   4  -2  302.30   91.84
  -5  -4  -2  562.81  126.46
   5  -4   2  287.92   64.91
   5  -4   2  604.51   93.30
   5   4   3 2915.40  240.63
   5   4   3 2321.26  213.49
  -5   4  -3 2475.39  211.48
  -5  -4  -3 1933.91  236.05
   5  -4   3 1751.55  145.94
   5  -4   3 2850.54  245.41
   5   4   4 1093.20  151.82
   5   4   4  543.62   93.61
  -5   4  -4  477.67  109.86
  -5  -4  -4  586.78  113.84
   5  -4   4  541.65   79.04
   5  -4   4  722.31  104.74
   5   4   5 3200.64  269.72
   5   4   5 2615.77  224.71
  -5   4  -5 2917.32  228.47
  -5  -4  -5 2713.86  231.44
   5  -4   5 2491.30  184.86
   5   4   6  408.96  112.67
   5   4   6   79.60   58.95
  -5   4  -6  118.85   74.71
  -5   4  -6  139.02   63.98
  -5  -4  -6  214.76  102.94
   5  -4   6   -3.58   58.14
   5   4   7 1396.10  161.29
   5   4   7 1247.37  133.51
  -5   4  -7 1369.91  151.39
  -5   4  -7 1505.48  145.72
  -5  -4  -7 1319.79  175.27
   5  -4   7 1213.50  127.19
   5   4   8  220.46   85.43
   5   4   8  210.03   59.02
  -5   4  -8  165.63   56.98
  -5   4  -8  109.68   75.14
  -5  -4  -8  125.97   91.78
   5  -4   8   62.46   66.19
   5   4   9   11.19   78.05
   5   4   9   46.65   55.72
  -5   4  -9   79.40   55.41
  -5   4  -9   87.75   70.19
  -5  -4  -9   92.41   82.11
   5  -4   9  102.09   59.71
   5   4  10   21.51   76.89
   5   4  10   55.45   55.31
  -5   4 -10   28.26   55.35
  -5  -4 -10  -62.56   67.15
   5  -4  10   38.99   65.75
   5   4  11  551.24  107.94
   5   4  11  474.95   79.45
  -5   4 -11  597.26  108.00
  -5  -4 -11  346.98   85.96
   5  -4  11  235.87   91.60
   5   4  12  302.61   99.41
   5   4  12  219.82   79.50
  -5   4 -12  388.91   89.78
  -5  -4 -12   97.79   80.67
   5  -4  12  224.50   85.53
   5   4  13 1964.67  226.60
   5   4  13 1754.69  218.39
  -5   4 -13 2133.46  210.24
  -5  -4 -13 1469.92  212.77
   5  -4  13 1620.35  176.01
   5   4  14  342.24   92.28
   5   4  14  196.23   87.53
  -5   4 -14  510.92   81.83
  -5  -4 -14  354.43   93.07
   5  -4  14  187.07   88.47
   5   4  15 2137.65  216.61
   5   4  15 1603.46  181.27
  -5   4 -15 2328.11  243.09
  -5  -4 -15 1570.91  180.79
   5  -4  15 1750.63  195.97
   5   4  16   43.34   75.56
   5   4  16   63.81   62.46
  -5   4 -16   17.56   64.19
  -5  -4 -16  -25.18   84.11
   5  -4  16  -19.88   60.86
   5   5   0  312.12  106.94
  -5   5   0  228.69   86.54
  -5  -5   0  296.71  120.08
   5   5   1  376.59  109.18
  -5   5  -1  163.86   98.60
  -5  -5  -1  326.89  112.28
   5   5   2  112.86   79.84
  -5   5  -2   44.67   79.72
  -5  -5  -2   -2.12  100.62
  -5   5  -3  -38.20   67.84
  -5  -5  -3  137.53   91.03
  -5   5  -4   68.45   69.90
   6   0   033302.93 1384.11
   6   0   034409.22 1206.26
   6   0   031616.14 1329.91
  -6   0   031829.01 1371.64
  -6   0   029211.55 1123.48
   6   0   1  -46.53   44.95
   6   0   1   -3.34   22.88
   6   0   1   43.26   42.76
  -6   0  -1   38.20   54.96
  -6   0  -1   61.70   32.75
   6   0   2 1637.87  116.72
   6   0   2 1575.58   98.83
   6   0   2 1307.42  121.37
  -6   0  -2 1488.26  106.18
  -6   0  -2 1473.88  130.31
   6   0   3   38.95   46.24
   6   0   3   -2.54   21.18
   6   0   3   16.97   46.07
  -6   0  -3    2.37   41.59
  -6   0  -3   22.25   29.30
   6   0   4  140.36   54.11
   6   0   4  123.91   28.69
   6   0   4  112.09   25.90
   6   0   4  160.30   48.51
  -6   0  -4  146.51   48.29
  -6   0  -4   86.17   39.84
   6   0   5   21.48   48.96
   6   0   5  -19.90   48.63
   6   0   5  -19.10   48.61
   6   0   5  -15.69   49.18
  -6   0  -5   41.51   48.71
  -6   0  -5  -17.62   48.90
   6   0   6   12.95   47.90
   6   0   6   -9.43   23.07
   6   0   6  -34.83   45.46
  -6   0  -6   46.96   51.57
  -6   0  -6   28.82   38.42
   6   0   7  -24.32   51.40
   6   0   7   -4.35   50.60
   6   0   7   19.30   51.90
  -6   0  -7  -27.74   51.03
  -6   0  -7   -7.50   51.21
   6   0   8 2658.71  212.52
   6   0   8 2607.10  164.66
   6   0   8 2514.23  208.31
  -6   0  -8 2720.70  208.93
  -6   0  -8 2637.95  191.24
   6   0   9  -26.22   50.34
   6   0   9   -8.02   29.49
   6   0   9  119.00   61.12
  -6   0  -9   15.77   61.09
  -6   0  -9    9.55   45.17
   6   0  1012354.53  693.11
   6   0  1011357.52  561.29
   6   0  1012294.38  663.80
  -6   0 -1012730.87  647.98
  -6   0 -1011300.80  611.09
   6   0  11   95.54   62.63
   6   0  11   13.10   56.23
  -6   0 -11    2.86   50.10
  -6   0 -11  -59.33   46.61
   6   0  12 8264.78  531.50
   6   0  12 7747.04  395.42
   6   0  12 8235.52  478.44
  -6   0 -12 8857.03  466.33
  -6   0 -12 8013.57  448.73
   6   0  13  -16.84   62.84
   6   0  13   32.12   59.53
  -6   0 -13   56.22   46.03
  -6   0 -13    6.55   74.79
   6   0  14 7667.28  508.58
   6   0  14 7188.91  393.13
   6   0  14 7823.96  437.36
  -6   0 -14 6964.59  436.13
  -6   0 -14 7446.60  464.04
   6   0  15   91.78   48.07
   6   0  15  -47.82   48.40
   6   0  15   55.88   48.48
  -6   0 -15  -53.20   47.09
  -6   0 -15  -39.88   47.06
   6   0  16 1672.87  181.23
   6   0  16 1657.90  176.20
  -6   0 -16 1678.89  165.67
  -6   0 -16 1772.80  184.59
   6   0  17   18.29   56.17
   6   0  17   53.65   66.85
  -6   0 -17   65.09   45.39
  -6   0 -17   15.99   73.05
   6   0  18  826.07  138.16
   6   0  18 1045.27  140.18
  -6   0 -18  935.43   98.76
  -6   0 -18  957.80  135.21
   6   0  19   51.67   62.62
   6   0  19  -67.73   62.66
  -6   0 -19   -7.06   61.57
  -6   0 -19  -17.56   61.42
   6   0  20  999.42  146.93
   6   0  20  852.92   95.49
   6   0  20  838.00  132.30
  -6   0 -20 1219.24  153.39
   6   0  21  -14.53   74.65
   6   0  21   -0.29   74.55
  -6   0 -21  -28.24   73.48
   6   0  22 3611.33  283.07
   6   0  22 3767.22  286.83
  -6   0 -22 4227.92  380.96
   6   0  23   -3.60   66.24
   6   0  23   10.42   62.53
  -6   0 -23   -2.28   81.97
   6   0  24 1166.92  176.89
   6   0  24 1351.53  178.30
  -6   0 -24 1264.53  182.91
   6   0  25  -18.07   71.64
   6   0  25   32.52   71.56
  -6   0 -25  -33.57   71.05
   6   1   0 3400.38  251.54
   6   1   0 3277.48  190.51
   6   1   0 3212.91  224.79
  -6   1   0 3336.38  219.93
  -6  -1   0 3213.98  264.71
  -6  -1   0 2982.25  215.97
  -6  -1   0 2923.54  181.89
   6  -1   0 3419.17  243.66
   6  -1   0 3279.21  115.30
   6  -1   0 2993.68  194.05
   6  -1   0 3379.73  201.53
   6   1   1 1713.12  155.02
   6   1   1 1656.91  104.10
   6   1   1 1942.56  168.45
  -6   1  -1 2016.06  161.32
  -6  -1  -1 1673.36  177.80
  -6  -1  -1 1526.67  130.10
   6  -1   1 1903.19  151.71
   6  -1   1 1546.66  111.54
   6   1   2 3880.32  305.24
   6   1   2 4288.47  240.85
   6   1   2 4362.32  286.79
  -6   1  -2 4921.55  323.15
  -6  -1  -2 4678.26  328.95
  -6  -1  -2 4085.72  256.55
  -6  -1  -2 3473.98  214.38
   6  -1   2 4592.41  266.94
   6  -1   2 4596.70  253.49
   6   1   3  324.07   65.58
   6   1   3  401.05   55.94
   6   1   3  482.45   92.08
  -6   1  -3  399.79   80.68
  -6   1  -3  498.94   74.91
  -6  -1  -3  501.14   91.61
  -6  -1  -3  307.63   52.91
  -6  -1  -3  267.74   39.48
   6  -1   3  395.24   66.15
   6  -1   3  450.29   71.46
   6   1   417560.90  808.68
   6   1   415957.25  726.81
   6   1   417186.53  949.20
  -6   1  -417643.68  759.99
  -6   1  -417180.17  859.30
  -6  -1  -418032.37  954.02
  -6  -1  -415171.05  761.79
   6  -1   418720.78  817.50
   6  -1   417576.51  827.89
   6   1   5 2012.81  129.32
   6   1   5 2022.88  145.33
   6   1   5 2337.41  215.45
  -6   1  -5 2120.56  152.34
  -6   1  -5 2263.58  148.51
  -6  -1  -5 2743.49  196.54
  -6  -1  -5 1734.47  148.17
   6  -1   5 2266.96  147.27
   6  -1   5 2198.22  190.02
   6   1   6 6255.21  340.70
   6   1   6 6033.55  354.97
   6   1   6 6177.02  454.49
  -6   1  -6 6681.01  351.09
  -6   1  -6 6373.50  383.84
  -6  -1  -6 7326.72  452.88
  -6  -1  -6 6212.86  294.18
   6  -1   6 7098.99  377.65
   6  -1   6 6258.63  405.75
   6   1   7  641.63   80.15
   6   1   7  594.50   75.27
   6   1   7  791.97  114.66
  -6   1  -7  733.19   80.13
  -6   1  -7  646.50   74.26
  -6  -1  -7  733.69  101.38
  -6  -1  -7  728.34   75.43
   6  -1   7  798.88   92.95
   6  -1   7  673.70   80.63
   6   1   8 5500.93  326.00
   6   1   8 5815.77  310.14
   6   1   8 6020.67  434.94
  -6   1  -8 5231.48  273.90
  -6   1  -8 5425.93  350.38
  -6  -1  -8 5554.60  389.81
  -6  -1  -8 5152.16  286.68
   6  -1   8 5628.10  344.72
   6  -1   8 5611.74  317.31
   6   1   9   39.09   35.68
   6   1   9   74.51   35.06
   6   1   9   75.70   63.33
  -6   1  -9   57.33   51.60
  -6   1  -9   25.64   50.70
  -6  -1  -9  -39.02   50.39
  -6  -1  -9   26.76   49.36
   6  -1   9   77.78   45.03
   6  -1   9   83.29   60.50
   6   1  10 2381.74  187.38
   6   1  10 1958.02  151.33
   6   1  10 2054.72  194.47
  -6   1 -10 2278.38  159.29
  -6   1 -10 2373.69  183.58
  -6  -1 -10 2554.29  161.75
  -6  -1 -10 2207.15  162.41
   6  -1  10 2507.85  205.49
   6  -1  10 2501.40  196.78
   6   1  11   40.53   45.47
   6   1  11    8.21   40.11
   6   1  11   44.47   72.06
  -6   1 -11  113.57   48.28
  -6   1 -11   65.82   55.86
  -6  -1 -11   62.84   56.35
  -6  -1 -11   55.79   51.21
   6  -1  11  132.64   68.19
   6  -1  11   46.74   52.64
   6   1  12   47.97   45.93
   6   1  12  -27.85   39.72
   6   1  12   71.20   71.42
  -6   1 -12   14.29   40.65
  -6   1 -12  -26.58   61.02
  -6  -1 -12   -6.27   53.68
  -6  -1 -12   63.00   59.34
   6  -1  12   -1.87   67.38
   6  -1  12  100.17   59.12
   6   1  13   83.34   53.96
   6   1  13   36.89   40.05
   6   1  13   -0.94   58.71
  -6   1 -13  107.69   59.03
  -6   1 -13   35.20   66.85
  -6  -1 -13   78.72   57.26
  -6  -1 -13   44.96   59.88
   6  -1  13  103.10   64.05
   6  -1  13   66.05   61.63
   6   1  14 3965.68  315.09
   6   1  14 3608.98  253.31
   6   1  14 3913.46  318.95
  -6   1 -14 4016.91  287.32
  -6   1 -14 4005.57  292.02
  -6  -1 -14 4461.47  294.09
  -6  -1 -14 3723.37  281.24
   6  -1  14 3988.86  341.13
   6  -1  14 4098.77  276.54
   6   1  15  130.08   77.02
   6   1  15  100.85   52.26
   6   1  15  302.40   85.26
  -6   1 -15   88.86   49.96
  -6   1 -15  122.89   69.32
  -6  -1 -15  147.37   61.58
  -6  -1 -15   95.11   61.45
   6  -1  15  250.43   81.71
   6  -1  15  269.94   69.80
   6   1  16 4505.51  365.30
   6   1  16 4687.24  323.24
   6   1  16 5099.14  382.12
  -6   1 -16 4871.85  348.33
  -6   1 -16 5173.57  414.71
  -6  -1 -16 4593.46  303.35
  -6  -1 -16 4543.37  348.36
   6  -1  16 5446.81  392.38
   6  -1  16 4794.73  303.25
   6   1  17   69.30   63.55
   6   1  17   69.09   57.50
   6   1  17  -32.33   72.81
  -6   1 -17   85.42   48.57
  -6   1 -17  148.03   75.75
  -6  -1 -17   17.90   64.00
  -6  -1 -17   -9.70   73.40
   6  -1  17  133.39   79.78
   6  -1  17   41.76   60.06
   6   1  18 6138.31  483.64
   6   1  18 5841.80  363.27
   6   1  18 5572.10  430.09
  -6   1 -18 6909.40  517.37
  -6  -1 -18 5739.03  378.06
  -6  -1 -18 7016.50  680.20
   6  -1  18 6315.97  419.27
   6  -1  18 5723.24  369.14
   6   1  19   85.97   77.18
   6   1  19  129.08   62.23
   6   1  19  161.28   81.11
  -6   1 -19  233.12   86.76
  -6  -1 -19   41.17   54.28
  -6  -1 -19   73.61   77.49
   6  -1  19  113.46   82.52
   6  -1  19   67.43   61.93
   6   1  20 1855.38  195.52
   6   1  20 1611.76  159.03
   6   1  20 2082.15  215.52
  -6   1 -20 1984.30  226.29
  -6  -1 -20 1419.40  147.68
  -6  -1 -20 1455.65  208.62
   6  -1  20 1734.25  186.93
   6  -1  20 1766.95  201.42
   6   1  21   69.16   66.27
   6   1  21   34.24   81.89
  -6   1 -21  -18.88   73.08
  -6  -1 -21    5.39   52.55
  -6  -1 -21   92.28   71.83
   6  -1  21  -56.91   61.22
   6  -1  21  108.18   71.16
   6   1  22  214.80   81.50
   6   1  22  550.05  116.70
  -6   1 -22  392.22  105.02
  -6  -1 -22  281.34   99.60
   6  -1  22  377.81  100.41
   6  -1  22  401.32  100.59
   6   1  23   72.92   63.91
   6   1  23  266.48  138.75
  -6   1 -23   35.38   88.52
  -6  -1 -23   51.93   85.95
   6  -1  23   43.37   71.06
   6  -1  23  -13.76   65.95
   6   1  24   34.27   55.97
   6   1  24    7.34   60.45
   6   1  24   39.53   77.14
  -6   1 -24   29.28   76.61
  -6  -1 -24   78.71   77.20
   6  -1  24   99.97   73.53
   6  -1  24   53.08   71.47
   6   1  25  -12.61   48.64
   6   1  25   13.53   47.86
   6   1  25  -35.14   48.40
  -6  -1 -25    9.07   48.51
   6  -1  25  -38.75   48.46
   6  -1  25  -51.99   48.49
   6   2   0 8015.23  463.03
   6   2   0 6909.81  408.42
   6   2   0 7596.63  471.97
  -6   2   0 8484.82  408.54
  -6  -2   0 8135.49  487.76
   6  -2   0 9206.21  497.52
   6  -2   0 7900.94  406.94
   6  -2   0 8094.07  396.13
   6   2   1  103.52   51.54
   6   2   1  226.42   66.88
   6   2   1  267.22   92.82
  -6   2  -1  156.71   60.35
  -6  -2  -1  138.93   82.05
   6  -2   1  122.17   57.05
   6  -2   1  229.02   58.82
   6  -2   1  240.17   46.17
   6   2   2 7031.02  483.97
   6   2   2 6724.23  389.29
   6   2   2 7411.28  475.96
  -6   2  -2 7198.10  403.15
  -6  -2  -2 7605.49  608.21
  -6  -2  -2 6481.20  319.69
   6  -2   2 7724.93  459.46
   6  -2   2 6992.02  384.84
   6  -2   2 7468.15  360.20
   6   2   3   84.17   44.38
   6   2   3   22.04   48.58
   6   2   3  117.62   61.26
  -6   2  -3   38.79   52.78
  -6  -2  -3   74.78   68.03
  -6  -2  -3    1.55   31.25
   6  -2   3   -8.99   53.71
   6  -2   3   70.52   51.16
   6  -2   3   34.69   37.56
   6   2   4  866.28   90.51
   6   2   4 1085.62  106.15
   6   2   4 1006.90  135.72
  -6   2  -4 1112.91   96.85
  -6  -2  -4 1368.07  156.68
  -6  -2  -4  938.02   79.55
   6  -2   4 1348.88  144.92
   6  -2   4 1023.31   93.41
   6   2   5  133.29   48.24
   6   2   5  139.69   56.95
   6   2   5   84.63   53.75
  -6   2  -5  145.87   43.74
  -6   2  -5  138.51   51.70
  -6  -2  -5  120.65   88.91
  -6  -2  -5   78.96   40.98
   6  -2   5  132.57   60.16
   6  -2   5   99.05   41.77
   6   2   6  517.49   75.98
   6   2   6  670.06   89.71
   6   2   6  685.35  104.81
  -6   2  -6  556.31   80.82
  -6   2  -6  600.82   85.91
  -6  -2  -6  882.75  110.41
  -6  -2  -6  608.57   65.92
   6  -2   6  695.91   97.45
   6  -2   6  576.60   74.95
   6   2   7   13.84   41.08
   6   2   7   64.47   47.22
   6   2   7  -15.58   56.70
  -6   2  -7   99.09   51.07
  -6   2  -7  123.29   57.84
  -6  -2  -7   95.98   63.45
  -6  -2  -7  -46.65   42.20
   6  -2   7  111.52   61.82
   6  -2   7   -0.95   45.23
   6   2   8 4668.77  308.28
   6   2   8 5099.61  314.62
   6   2   8 5176.94  390.63
  -6   2  -8 5323.53  315.99
  -6   2  -8 5193.38  285.62
  -6  -2  -8 5043.35  389.66
   6  -2   8 5619.81  326.20
   6  -2   8 5150.19  310.38
   6   2   9  726.74   84.38
   6   2   9  880.33   95.68
   6   2   9  837.72  117.12
  -6   2  -9  849.15   88.40
  -6   2  -9  842.05  102.04
  -6  -2  -9  811.36  105.10
  -6  -2  -9  538.89   85.97
   6  -2   9  937.42   93.63
   6  -2   9  970.46  106.03
   6   2  10 3654.93  276.53
   6   2  10 3389.62  223.80
   6   2  10 3399.10  288.36
  -6   2 -10 3677.53  238.65
  -6   2 -10 3897.56  261.40
  -6  -2 -10 3843.62  299.68
  -6  -2 -10 2982.10  208.79
   6  -2  10 4304.49  323.12
   6  -2  10 3674.46  258.46
   6   2  11  459.37   81.97
   6   2  11  503.35   79.25
   6   2  11  395.71   82.87
  -6   2 -11  584.23   88.50
  -6   2 -11  471.95   84.98
  -6  -2 -11  428.26   90.41
  -6  -2 -11  322.48   76.22
   6  -2  11  572.80  102.20
   6  -2  11  505.63   71.02
   6   2  12 6641.18  446.33
   6   2  12 7016.80  435.96
   6   2  12 6283.90  459.54
  -6   2 -12 6749.87  332.48
  -6   2 -12 7447.18  481.02
  -6  -2 -12 6218.35  450.88
  -6  -2 -12 5315.47  358.73
   6  -2  12 7605.17  450.93
   6  -2  12 6504.82  402.35
   6   2  13  608.53   92.56
   6   2  13  553.20   90.58
   6   2  13  598.88  109.27
  -6   2 -13  649.73   72.79
  -6   2 -13  781.91  108.98
  -6  -2 -13  628.71  100.36
  -6  -2 -13  492.66   80.39
   6  -2  13  771.97  116.37
   6  -2  13  578.31   88.35
   6   2  14 3312.16  272.80
   6   2  14 3121.66  250.12
   6   2  14 3468.23  288.87
  -6   2 -14 3381.86  204.90
  -6   2 -14 3867.92  285.93
  -6  -2 -14 3166.14  257.40
  -6  -2 -14 2550.26  221.66
   6  -2  14 3349.86  262.43
   6  -2  14 3307.90  220.74
   6   2  15   36.63   53.67
   6   2  15  107.92   57.39
   6   2  15  -60.88   68.52
  -6   2 -15   76.21   43.95
  -6   2 -15  126.90   75.64
  -6  -2 -15   34.69   65.86
  -6  -2 -15   93.95   72.38
   6  -2  15   40.16   73.69
   6  -2  15  117.26   54.34
   6   2  16  265.28   62.97
   6   2  16  279.69   79.54
   6   2  16  306.65   95.84
  -6   2 -16  354.79   96.09
  -6  -2 -16  464.13   96.06
  -6  -2 -16  117.47   78.27
   6  -2  16  283.39   86.56
   6  -2  16  339.95   76.40
   6   2  17   34.75   47.91
   6   2  17   -2.60   65.55
   6   2  17  -57.97   65.79
  -6   2 -17  -10.34   82.55
  -6  -2 -17   63.31   78.44
  -6  -2 -17   87.52   75.70
   6  -2  17  -58.71   72.60
   6  -2  17   16.82   45.42
   6   2  18  -41.15   44.06
   6   2  18   25.78   43.10
  -6   2 -18   -4.55   43.14
  -6  -2 -18   -0.57   43.17
  -6  -2 -18   -1.52   44.07
   6  -2  18   -5.62   43.20
   6  -2  18    2.52   43.67
   6   2  19   26.21   55.47
   6   2  19   51.01   55.35
   6   2  19  -13.33   54.31
  -6   2 -19  -24.10   54.30
  -6  -2 -19  -78.89   54.30
  -6  -2 -19    1.45   55.35
   6  -2  19  -44.45   54.47
   6  -2  19  -16.56   54.92
   6   2  20  661.04  108.06
   6   2  20  804.61  116.25
  -6   2 -20  692.44  134.83
  -6  -2 -20  526.81   93.86
  -6  -2 -20  705.09  126.01
   6  -2  20  865.14  121.19
   6  -2  20  518.17   87.02
   6   2  21   16.88   85.04
   6   2  21   44.06   67.25
  -6   2 -21   41.02   72.01
  -6  -2 -21   11.34   55.03
  -6  -2 -21    1.00   81.02
   6  -2  21   -2.98   69.63
   6   2  22 2413.44  235.73
  -6   2 -22 2427.12  268.14
  -6  -2 -22 1661.68  169.26
  -6  -2 -22 1949.41  233.55
   6  -2  22 1922.53  197.76
   6   2  23  -32.14   61.63
  -6  -2 -23  -32.16   60.97
   6  -2  23  -16.44   60.75
   6   3   0   62.79   56.99
   6   3   0   44.10   59.58
   6   3   0   92.50   67.19
  -6   3   0  140.41   69.53
  -6  -3   0   32.19   77.36
   6  -3   0  -39.22   51.54
   6  -3   0  -14.66   54.86
   6  -3   0   49.92   42.84
   6   3   1  297.55   70.07
   6   3   1  280.32   72.98
   6   3   1  326.66   72.80
  -6   3  -1  276.37   67.52
  -6  -3  -1  196.33   85.77
   6  -3   1  433.95   73.81
   6  -3   1  488.83   93.55
   6  -3   1  379.79   56.10
   6   3   2 3244.61  238.27
   6   3   2 2994.60  227.09
   6   3   2 3404.63  283.83
  -6   3  -2 3891.03  310.57
  -6  -3  -2 3511.92  339.49
   6  -3   2 3467.77  260.08
   6  -3   2 3858.72  257.93
   6  -3   2 3577.56  218.41
   6   3   3  320.88   83.21
   6   3   3  378.67   96.43
   6   3   3  252.78   79.28
  -6   3  -3  197.00   64.26
  -6  -3  -3  231.64   97.24
   6  -3   3  229.37   55.71
   6  -3   3  315.23   85.15
   6  -3   3  295.05   48.96
   6   3   4 3751.02  291.35
   6   3   4 4142.06  300.04
   6   3   4 3950.65  328.38
  -6   3  -4 3719.23  299.25
  -6  -3  -4 3700.11  327.58
   6  -3   4 4272.72  284.18
   6  -3   4 3863.25  271.26
   6  -3   4 3859.47  227.89
   6   3   5  124.91   60.77
   6   3   5  554.54  113.54
   6   3   5  108.62   72.12
  -6   3  -5  124.40   68.98
  -6   3  -5  280.87   84.38
  -6  -3  -5   76.57   77.72
   6  -3   5  180.50   71.24
   6  -3   5  139.97   47.63
   6   3   6 5567.60  345.57
   6   3   6 6709.38  420.91
   6   3   6 5732.87  453.02
  -6   3  -6 6161.60  425.09
  -6   3  -6 6998.91  395.71
  -6  -3  -6 5663.28  420.83
   6  -3   6 6360.63  421.65
   6  -3   6 5610.92  325.04
   6   3   7  166.08   72.83
   6   3   7  146.58   63.52
   6   3   7   52.45   66.81
  -6   3  -7   28.38   64.73
  -6   3  -7  105.77   75.37
  -6  -3  -7   52.49   90.88
   6  -3   7  104.85   70.17
   6  -3   7   16.93   43.72
   6   3   8 3403.93  244.92
   6   3   8 4328.50  306.21
   6   3   8 4414.09  351.53
  -6   3  -8 4495.27  345.21
  -6   3  -8 4693.89  316.44
  -6  -3  -8 4282.05  336.90
   6  -3   8 3934.07  318.36
   6  -3   8 3935.48  253.47
   6   3   9   37.85   47.13
   6   3   9  211.74   82.03
   6   3   9  134.85   82.84
  -6   3  -9   75.65   58.30
  -6   3  -9   42.82   65.84
  -6  -3  -9  -36.90   76.23
   6  -3   9  190.06   86.91
   6   3  10   69.85   35.15
   6   3  10  -62.55   60.24
   6   3  10   79.64   76.05
  -6   3 -10   37.86   43.82
  -6   3 -10   94.89   69.30
  -6  -3 -10  -66.57   75.75
   6  -3  10   16.51   72.63
   6   3  11   85.88   50.21
   6   3  11  169.99   64.16
   6   3  11  149.97   72.66
  -6   3 -11  148.12   56.87
  -6   3 -11  117.18   61.36
  -6  -3 -11  101.99   65.37
   6  -3  11  123.62   74.90
   6   3  12   99.51   58.25
   6   3  12  135.61   72.81
   6   3  12  158.76   75.21
  -6   3 -12  192.63   59.71
  -6   3 -12  189.16   85.97
  -6  -3 -12  201.86   88.44
   6  -3  12  157.74   94.04
   6   3  13   97.31   66.03
   6   3  13   68.49   81.94
  -6   3 -13  132.31   57.00
  -6   3 -13  136.10   82.63
  -6  -3 -13  195.53   87.11
   6  -3  13  103.58   75.45
   6   3  14  562.94  104.82
   6   3  14  621.44  121.65
  -6   3 -14  879.56  122.42
  -6  -3 -14  766.53  118.38
   6  -3  14  658.43  112.60
   6   3  15  238.49   85.91
   6   3  15  207.27   97.97
  -6   3 -15  383.53   89.84
  -6  -3 -15  258.04   92.18
   6  -3  15  375.26   92.55
   6   3  16 1342.35  170.49
   6   3  16 1483.74  189.01
  -6   3 -16 1557.84  185.72
  -6  -3 -16 1326.58  156.87
   6  -3  16 1267.63  157.12
   6   3  17   47.38   72.87
  -6   3 -17   65.75   69.99
  -6  -3 -17  142.56   76.50
   6  -3  17   77.78   68.32
   6   3  18 2537.82  217.23
   6   3  18 2254.50  212.74
  -6   3 -18 2591.49  266.31
  -6  -3 -18 1965.93  234.55
   6  -3  18 2233.38  269.29
   6   3  19  -20.39   58.52
   6   3  19  112.37   67.76
  -6   3 -19  153.24   95.87
  -6  -3 -19   -2.54   72.71
   6  -3  19   89.01   79.02
   6   4   0 1464.86  144.74
   6   4   0 2027.23  188.66
   6   4   0 1258.43  129.10
  -6   4   0 1517.69  188.36
  -6  -4   0 1456.53  149.54
   6   4   1  564.96   87.21
   6   4   1  322.35   99.95
   6   4   1  267.56   75.70
  -6   4  -1  325.67  102.60
  -6  -4  -1  224.99  121.66
   6  -4   1  290.71   81.05
   6   4   2 1741.18  159.93
   6   4   2 2396.17  217.42
   6   4   2 2021.23  191.97
  -6   4  -2 1922.84  187.81
  -6  -4  -2 1982.15  205.86
   6  -4   2 1623.66  150.18
   6  -4   2 2434.25  222.38
   6   4   3  314.81  102.49
   6   4   3   71.90   74.72
  -6   4  -3   37.82   73.92
  -6  -4  -3   41.56   88.13
   6  -4   3  -63.80   53.70
   6  -4   3    5.45   54.55
   6   4   4  738.02  112.99
   6   4   4  729.68  107.07
  -6   4  -4  565.31  106.26
  -6  -4  -4  388.05  113.63
   6  -4   4  441.39   75.39
   6   4   5  229.98   93.60
   6   4   5   22.48   83.81
  -6   4  -5    8.16   74.00
  -6  -4  -5  -17.00   83.45
   6  -4   5   42.77   60.82
   6   4   6  446.25  102.61
   6   4   6  327.27   78.65
  -6   4  -6  161.86   66.93
  -6   4  -6  247.50   69.70
  -6  -4  -6  295.67  100.55
   6  -4   6  212.27   65.51
   6   4   7   44.94   76.17
   6   4   7   39.50   65.27
  -6   4  -7   28.39   69.56
  -6   4  -7   31.95   62.35
  -6  -4  -7  119.56   93.04
   6  -4   7   12.57   57.65
   6   4   8 1230.95  167.93
   6   4   8  881.71  131.45
  -6   4  -8  910.48  121.65
  -6  -4  -8 1035.48  141.22
   6  -4   8  840.15  120.29
   6   4   9  180.69  100.48
   6   4   9  140.95   79.28
  -6   4  -9  125.97   65.00
  -6   4  -9  138.44   70.01
  -6  -4  -9   68.27   70.96
   6  -4   9   22.96   69.81
   6   4  10 2004.57  224.78
   6   4  10 1880.14  197.17
  -6   4 -10 1664.67  186.82
  -6   4 -10 2674.49  228.96
  -6  -4 -10 1930.87  213.95
   6  -4  10 2010.24  204.47
   6   4  11  566.27  119.80
   6   4  11  336.18   82.29
  -6   4 -11  316.12   90.67
  -6  -4 -11  108.61   85.96
   6  -4  11  152.59   90.17
   6   4  12 1037.47  150.03
   6   4  12 1040.28  133.68
  -6   4 -12 1343.80  156.16
  -6  -4 -12  825.75  130.91
   6  -4  12 1023.54  152.31
   6   4  13   74.73   89.99
   6   4  13   -6.75   70.35
  -6   4 -13   56.94   74.01
  -6  -4 -13   61.25   80.65
   6  -4  13   21.13   70.66
   7   0   0   51.53   50.53
   7   0   0  -12.70   51.37
   7   0   0  -59.40   50.91
  -7   0   0  -27.47   50.66
  -7   0   0   -5.64   50.56
   7   0   1  207.12   54.24
   7   0   1  167.64   34.87
   7   0   1  129.64   52.88
  -7   0  -1  140.61   55.10
  -7   0  -1  111.59   37.72
   7   0   2   18.54   56.91
   7   0   2  -31.50   57.35
   7   0   2  -24.20   57.04
  -7   0  -2   16.25   56.69
  -7   0  -2  -13.74   56.96
   7   0   3  312.12   65.06
   7   0   3  270.66   40.25
   7   0   3  347.54   66.78
  -7   0  -3  293.77   64.02
  -7   0  -3  270.77   45.50
   7   0   4  154.69   75.50
   7   0   4   39.84   28.05
   7   0   4  131.89   68.88
  -7   0  -4  -31.08   73.06
  -7   0  -4   64.69   60.79
   7   0   511957.02  653.38
   7   0   511869.06  480.31
   7   0   511669.09  639.12
  -7   0  -512090.94  589.81
  -7   0  -511516.93  598.69
   7   0   6   63.23   74.74
   7   0   6   -7.06   23.55
   7   0   6  261.73  125.59
  -7   0  -6   93.64   65.84
  -7   0  -6   41.29   53.85
   7   0   711698.27  635.06
   7   0   711142.44  642.37
  -7   0  -711404.01  533.95
  -7   0  -711306.57  580.30
   7   0   8   17.81   66.16
   7   0   8  -13.73   28.40
   7   0   8   95.63  105.52
  -7   0  -8  111.59   66.68
  -7   0  -8   31.52   50.88
   7   0   9 9145.27  547.26
   7   0   9 9052.72  582.24
  -7   0  -9 9432.04  543.85
  -7   0  -9 8362.11  463.02
   7   0  10   -0.94   55.97
   7   0  10   51.77   34.80
   7   0  10   62.41   60.27
  -7   0 -10   27.83   58.88
  -7   0 -10   48.52   52.46
   7   0  11 3718.44  287.47
   7   0  11 4011.40  292.84
  -7   0 -11 3788.60  285.07
  -7   0 -11 3690.75  271.00
   7   0  12   28.39   68.88
   7   0  12   -8.24   59.60
  -7   0 -12  -31.21   60.49
  -7   0 -12   25.20   65.32
   7   0  13    3.98   59.62
   7   0  13  -15.00   60.53
  -7   0 -13  -19.48   58.72
  -7   0 -13   25.31   58.67
   7   0  14  151.30   63.33
   7   0  14   -9.69   37.79
   7   0  14   21.16   68.54
  -7   0 -14  -23.03   61.74
  -7   0 -14  -18.51   79.04
   7   0  15 1448.29  178.52
   7   0  15 1525.82  176.00
  -7   0 -15 1589.90  164.35
  -7   0 -15 1550.18  180.08
   7   0  16  -56.16   65.07
   7   0  16   10.83   65.73
  -7   0 -16  -51.92   63.96
  -7   0 -16  -12.09   63.88
   7   0  17 3230.09  320.99
   7   0  17 3005.36  267.84
  -7   0 -17 3190.18  253.80
  -7   0 -17 3266.38  288.83
   7   0  18  -17.89   74.46
   7   0  18  -37.66   77.72
  -7   0 -18    6.98   61.26
  -7   0 -18   90.98   68.22
   7   0  19 5195.39  429.91
   7   0  19 4987.87  390.63
  -7   0 -19 4977.54  406.57
   7   0  20   30.23   69.93
   7   0  20   64.42   70.08
  -7   0 -20 -115.81   68.83
   7   0  21 1251.69  178.78
   7   0  21 1025.38  157.51
  -7   0 -21 1183.23  163.68
   7   0  22  -70.60   59.71
   7   0  22   63.10   81.34
  -7   0 -22  129.91   87.61
   7   0  23  121.74   68.39
   7   0  23   50.65   72.09
  -7   0 -23  114.32   86.83
   7   1   0  884.95  130.55
   7   1   0  621.82   69.51
   7   1   0  852.24  131.91
  -7   1   0  762.86  126.03
  -7  -1   0  589.73  120.90
  -7  -1   0  430.15   59.85
   7  -1   0  781.34  118.49
   7  -1   0  834.75   86.18
   7  -1   0  740.49   88.68
   7   1   110768.92  627.01
   7   1   110505.45  504.99
   7   1   1 9696.33  555.79
  -7   1  -110927.12  542.65
  -7  -1  -110774.77  676.52
  -7  -1  -1 9769.54  492.64
   7  -1   110897.01  557.48
   7  -1   1 9901.63  550.51
   7   1   2   67.66   53.04
   7   1   2   78.10   42.45
   7   1   2  102.69   82.47
  -7   1  -2   16.00   75.88
  -7   1  -2  144.02   69.95
  -7  -1  -2   80.23   69.53
  -7  -1  -2   66.31   37.34
   7  -1   2    9.88   53.84
   7  -1   2  221.79   64.28
   7   1   3 7313.82  402.04
   7   1   3 7370.88  380.49
   7   1   3 7434.79  446.61
  -7   1  -3 7459.14  414.47
  -7   1  -3 6852.56  403.99
  -7  -1  -3 6960.18  532.27
  -7  -1  -3 6345.36  377.42
   7  -1   3 7871.55  480.36
   7  -1   3 7732.27  446.22
   7   1   4  335.74   82.10
   7   1   4  335.74   46.39
   7   1   4  376.22   92.26
  -7   1  -4  334.83   62.74
  -7   1  -4  337.74   73.00
  -7  -1  -4  269.48   84.74
  -7  -1  -4  201.62   52.16
   7  -1   4  280.29   67.29
   7  -1   4  273.10   63.01
   7   1   5 3476.47  251.16
   7   1   5 3668.27  222.56
   7   1   5 3887.46  327.79
  -7   1  -5 3556.20  240.13
  -7   1  -5 3825.76  310.80
  -7  -1  -5 3870.89  264.26
  -7  -1  -5 3214.52  245.17
   7  -1   5 3993.07  258.11
   7  -1   5 4104.51  248.90
   7   1   6  374.61   61.41
   7   1   6  304.72   52.09
   7   1   6  539.58   97.86
  -7   1  -6  358.27   66.89
  -7   1  -6  374.91   74.53
  -7  -1  -6  400.17   83.99
  -7  -1  -6  184.63   46.77
   7  -1   6  457.50   76.31
   7  -1   6  298.69   68.47
   7   1   7  493.35   72.26
   7   1   7  543.68   66.58
   7   1   7  515.70   94.05
  -7   1  -7  619.52   85.76
  -7   1  -7  595.52   84.97
  -7  -1  -7  537.19   89.02
   7  -1   7  560.62   90.62
   7  -1   7  627.19   97.63
   7   1   8   35.49   47.92
   7   1   8   88.63   38.98
   7   1   8   80.80   62.08
  -7   1  -8   68.24   47.23
  -7   1  -8   72.47   57.60
  -7  -1  -8   88.96   65.52
  -7  -1  -8   87.01   52.21
   7  -1   8   95.11   65.56
   7  -1   8  103.56   77.12
   7   1   9 1866.51  161.43
   7   1   9 2131.18  158.46
   7   1   9 1854.23  191.89
  -7   1  -9 2125.46  158.13
  -7   1  -9 1964.06  162.31
  -7  -1  -9 2036.00  190.76
  -7  -1  -9 1846.43  164.59
   7  -1   9 2097.86  197.92
   7  -1   9 2123.16  176.33
   7   1  10   -2.61   53.41
   7   1  10   38.01   41.10
   7   1  10  -32.47   74.79
  -7   1 -10   11.94   49.91
  -7   1 -10   62.41   62.70
  -7  -1 -10  -37.55   60.11
  -7  -1 -10   -3.50   46.13
   7  -1  10   27.58   57.46
   7  -1  10  -24.23   59.54
   7   1  11 6406.53  399.21
   7   1  11 6707.46  455.55
  -7   1 -11 6650.59  378.73
  -7   1 -11 6472.21  440.44
  -7  -1 -11 6002.31  354.09
  -7  -1 -11 5524.05  372.04
   7  -1  11 6286.80  444.71
   7  -1  11 6466.31  410.38
   7   1  12   70.29   59.64
   7   1  12   64.87   40.13
   7   1  12   96.61   87.42
  -7   1 -12  151.48   61.63
  -7   1 -12  191.18   77.26
  -7  -1 -12   -0.79   63.16
  -7  -1 -12   11.16   61.07
   7  -1  12  -18.55   80.60
   7  -1  12   65.17   67.30
   7   1  13 6979.01  476.35
   7   1  13 5994.67  345.64
   7   1  13 6719.14  495.66
  -7   1 -13 6801.49  462.72
  -7   1 -13 6810.25  462.29
  -7  -1 -13 6470.90  462.72
  -7  -1 -13 6170.22  406.23
   7  -1  13 7513.17  461.66
   7  -1  13 7130.92  450.98
   7   1  14   95.93   62.62
   7   1  14   52.08   52.22
   7   1  14  123.23   87.73
  -7   1 -14  100.68   58.41
  -7   1 -14  109.26   87.42
  -7  -1 -14   61.92   74.74
  -7  -1 -14   89.75   61.31
   7  -1  14   94.42   70.24
   7  -1  14  201.82   69.48
   7   1  15 4587.41  378.96
   7   1  15 5003.17  405.12
  -7   1 -15 4297.26  296.84
  -7   1 -15 4934.84  365.94
  -7  -1 -15 4664.54  353.31
  -7  -1 -15 4169.61  321.79
   7  -1  15 4517.55  343.37
   7  -1  15 5223.73  392.58
   7   1  16  -56.72   64.42
   7   1  16  -47.85   77.21
  -7   1 -16  -31.35   50.60
  -7   1 -16   45.31   75.39
  -7  -1 -16   61.07   72.48
  -7  -1 -16  -27.04   72.51
   7  -1  16   60.45   59.66
   7  -1  16  170.99   69.56
   7   1  17  971.55  149.14
   7   1  17  949.84  112.23
   7   1  17 1123.59  151.83
  -7   1 -17 1133.38  145.61
  -7   1 -17 1113.52  157.20
  -7  -1 -17 1196.66  123.85
  -7  -1 -17  940.10  155.86
   7  -1  17 1067.64  148.03
   7  -1  17 1192.36  146.57
   7   1  18  133.79   71.25
   7   1  18  148.76   81.53
  -7   1 -18  146.92   85.14
  -7  -1 -18   39.58   66.01
  -7  -1 -18  108.86   70.33
   7  -1  18  227.84   82.28
   7  -1  18  125.16   80.37
   7   1  19  -21.85   66.72
   7   1  19   84.80   50.07
   7   1  19  -14.56   75.09
  -7   1 -19   76.50   71.08
  -7  -1 -19   61.55   74.73
  -7  -1 -19   23.90   80.96
   7  -1  19  183.48   82.08
   7  -1  19  132.77   73.09
   7   1  20  165.53   74.28
   7   1  20   91.37   53.45
   7   1  20   73.74   81.43
  -7   1 -20  177.72   87.07
  -7  -1 -20   92.88   63.81
  -7  -1 -20   57.61   82.15
   7  -1  20  120.55   76.39
   7  -1  20  184.56   83.58
   7   1  21  173.50   90.12
   7   1  21  260.54   92.05
  -7   1 -21  275.42   95.90
  -7  -1 -21  211.06   83.30
   7  -1  21  193.20   77.17
   7  -1  21  265.21   93.29
   7   1  22   36.16   46.86
  -7   1 -22   42.84   76.53
  -7  -1 -22  -60.87   70.91
   7  -1  22  -40.11   73.98
   7  -1  22   34.15   68.37
   7   2   0  151.09   60.40
   7   2   0  281.46   67.13
   7   2   0  385.12   78.15
  -7   2   0  290.39   67.40
  -7  -2   0  165.00  101.21
   7  -2   0  457.15   84.04
   7  -2   0  248.41   59.47
   7  -2   0  339.20   55.62
   7   2   1  134.94   52.31
   7   2   1   14.19   54.66
   7   2   1   90.98   55.73
  -7   2  -1  142.00   66.24
  -7  -2  -1  102.93   84.50
   7  -2   1   85.76   62.26
   7  -2   1   50.84   49.05
   7  -2   1   10.88   41.03
   7   2   2  114.99   58.00
   7   2   2   79.55   52.02
   7   2   2  137.63   69.29
  -7   2  -2  -50.69   50.47
  -7  -2  -2   81.06   85.64
   7  -2   2  113.51   62.33
   7  -2   2   65.43   49.47
   7  -2   2   94.02   46.51
   7   2   3 1472.94  151.77
   7   2   3 1502.90  132.92
   7   2   3 1752.60  176.65
  -7   2  -3 1563.98  160.70
  -7  -2  -3 1780.52  225.49
   7  -2   3 1894.97  176.12
   7  -2   3 1789.33  140.53
   7   2   4   81.19   75.52
   7   2   4   76.68   52.67
   7   2   4   70.41   99.68
  -7   2  -4   95.06   69.20
  -7   2  -4  152.39   66.32
  -7  -2  -4   38.66   92.33
   7  -2   4  117.48   77.52
   7  -2   4   67.69   46.23
   7   2   5 4303.34  301.38
   7   2   5 4104.81  278.85
   7   2   5 4732.25  390.92
  -7   2  -5 4812.38  302.21
  -7   2  -5 5295.35  282.37
  -7  -2  -5 4471.05  405.73
   7  -2   5 4570.00  337.22
   7  -2   5 4985.66  286.79
   7   2   6  159.82   81.39
   7   2   6   93.66   53.89
   7   2   6  197.28   82.23
  -7   2  -6   90.34   59.09
  -7   2  -6   83.32   63.67
  -7  -2  -6   90.41   84.61
   7  -2   6   29.23   68.92
   7  -2   6  103.70   64.43
   7   2   7 5069.65  331.43
   7   2   7 4799.37  302.20
   7   2   7 5733.15  419.38
  -7   2  -7 5364.08  330.81
  -7   2  -7 5555.44  334.43
  -7  -2  -7 4896.41  383.68
   7  -2   7 6296.82  371.26
   7  -2   7 5574.70  359.93
   7   2   8  927.85  111.38
   7   2   8  969.11  132.44
   7   2   8 1114.11  156.57
  -7   2  -8 1307.05  113.49
  -7   2  -8 1162.74  128.96
  -7  -2  -8 1087.91  135.16
   7  -2   8 1031.35  124.20
   7  -2   8 1149.62  125.03
   7   2   9 6358.69  403.28
   7   2   9 6182.40  393.52
   7   2   9 6236.18  469.02
  -7   2  -9 6474.65  385.76
  -7   2  -9 6826.43  369.28
  -7  -2  -9 5969.60  427.59
   7  -2   9 7186.19  456.93
   7  -2   9 6776.69  448.05
   7   2  10  112.08   67.14
   7   2  10  188.54   61.61
   7   2  10  224.24   81.05
  -7   2 -10  296.20   67.47
  -7   2 -10  155.08   59.86
  -7  -2 -10   86.51   86.87
  -7  -2 -10  105.87   60.14
   7  -2  10  240.16   68.34
   7  -2  10  170.16   56.70
   7   2  11 1375.91  159.82
   7   2  11 1278.91  134.90
   7   2  11 1459.94  177.27
  -7   2 -11 1343.12  131.17
  -7   2 -11 1420.36  163.27
  -7  -2 -11 1526.90  154.57
   7  -2  11 1563.76  155.77
   7  -2  11 1355.79  145.67
   7   2  12  -76.97   53.05
   7   2  12   10.92   55.20
   7   2  12   78.92   61.81
  -7   2 -12  -24.35   43.29
  -7   2 -12   15.47   60.03
  -7  -2 -12    9.19   62.76
  -7  -2 -12    2.54   49.26
   7  -2  12   64.42   70.04
   7  -2  12    9.60   56.14
   7   2  13   45.56   49.77
   7   2  13   70.06   54.02
   7   2  13  120.45   81.93
  -7   2 -13   75.74   42.98
  -7   2 -13   41.41   70.89
  -7  -2 -13   56.80   68.79
  -7  -2 -13  131.27   63.27
   7  -2  13  162.90   86.61
   7  -2  13   60.16   51.89
   7   2  14   83.51   53.45
   7   2  14   54.07   64.51
   7   2  14   61.66   70.11
  -7   2 -14  122.25   50.57
  -7   2 -14   44.92   71.62
  -7  -2 -14   51.41   70.30
  -7  -2 -14  -29.14   58.65
   7  -2  14  -83.96   80.69
   7  -2  14    6.28   50.54
   7   2  15 1481.93  158.56
   7   2  15 1511.27  162.92
   7   2  15 1562.37  175.76
  -7   2 -15 1659.09  193.17
  -7  -2 -15 1320.22  162.05
  -7  -2 -15 1228.12  135.88
   7  -2  15 1204.32  175.32
   7  -2  15 1331.44  144.61
   7   2  16  290.99   76.48
   7   2  16  207.95   69.11
   7   2  16  310.09   99.38
  -7   2 -16  329.82  103.30
  -7  -2 -16  316.43   91.52
  -7  -2 -16  174.56   71.61
   7  -2  16  220.69   86.55
   7  -2  16  262.15   74.98
   7   2  17 1292.73  172.61
   7   2  17 1106.08  150.76
   7   2  17 1839.51  178.89
  -7   2 -17 1707.49  210.47
  -7  -2 -17 1416.86  163.88
  -7  -2 -17 1077.57  162.61
   7  -2  17 1574.53  191.91
   7  -2  17 1384.05  154.76
   7   2  18  -19.32   50.84
   7   2  18   -5.05   58.96
   7   2  18   13.79   61.62
  -7   2 -18  117.77   72.64
  -7  -2 -18    5.55   59.67
  -7  -2 -18   -7.87   69.23
   7  -2  18   -3.55   66.00
   7  -2  18   41.22   55.42
   7   2  19 1953.04  213.55
   7   2  19 2162.04  213.21
   7   2  19 2354.26  242.41
  -7   2 -19 2484.39  277.15
  -7  -2 -19 1692.97  160.18
  -7  -2 -19 1859.80  226.40
   7  -2  19 2483.36  257.08
   7   2  20  -39.87   63.02
   7   2  20   -4.18   61.90
  -7   2 -20   -6.37   61.85
  -7  -2 -20  -12.42   61.69
  -7  -2 -20  -88.71   62.58
   7  -2  20   30.76   61.94
   7   3   0  213.47   87.26
   7   3   0  142.48   88.61
  -7   3   0   73.09   72.38
  -7  -3   0   26.14   91.15
   7  -3   0  115.81   62.33
   7  -3   0  154.47   64.30
   7  -3   0  107.13   51.75
   7   3   1 3189.70  269.13
   7   3   1 3168.99  254.59
   7   3   1 3711.48  329.77
  -7   3  -1 3389.82  256.37
  -7  -3  -1 3313.95  321.71
   7  -3   1 3787.09  319.36
   7  -3   1 3672.11  296.49
   7  -3   1 3575.67  216.34
   7   3   2  372.47   95.08
   7   3   2  211.11   85.10
   7   3   2  135.38   84.53
  -7   3  -2   10.80   64.61
  -7  -3  -2   91.50   87.91
   7  -3   2  172.69   70.65
   7  -3   2  228.62   72.53
   7  -3   2  182.67   50.68
   7   3   3 3004.11  267.99
   7   3   3 3329.35  263.51
   7   3   3 3319.73  320.68
  -7   3  -3 3455.09  288.82
  -7  -3  -3 3183.45  314.67
   7  -3   3 3466.39  299.53
   7  -3   3 3536.20  213.54
   7   3   4  302.57   80.54
   7   3   4  577.14   88.31
   7   3   4  362.20  101.42
  -7   3  -4  349.23   84.56
  -7  -3  -4  232.39  124.89
   7  -3   4  330.69   74.57
   7  -3   4  307.52   54.59
   7   3   5  851.54  108.24
   7   3   5 1204.51  122.33
   7   3   5 1215.28  160.29
  -7   3  -5  795.75  120.63
  -7   3  -5 1248.09  148.28
  -7  -3  -5  913.16  139.00
   7  -3   5  952.93  129.71
   7  -3   5 1069.38  105.21
   7   3   6  238.03   62.75
   7   3   6  303.45   68.53
   7   3   6  175.36   91.74
  -7   3  -6  171.00   72.95
  -7   3  -6  180.89   75.60
  -7  -3  -6  288.40   99.26
   7  -3   6  257.42   76.70
   7  -3   6  249.34   60.46
   7   3   7   46.77   46.69
   7   3   7   38.42   60.34
   7   3   7   36.96   69.59
  -7   3  -7   65.85   61.93
  -7  -3  -7  127.49   88.39
   7  -3   7  -18.10   63.27
   7   3   8   51.39   48.14
   7   3   8   17.49   73.26
   7   3   8 -105.52   62.38
  -7   3  -8   14.12   59.96
  -7   3  -8   23.49   67.03
  -7  -3  -8   16.96   82.92
   7  -3   8   71.46   76.11
   7   3   9  709.36  105.68
   7   3   9  781.65  124.08
  -7   3  -9  687.09  101.73
  -7  -3  -9  816.96  137.52
   7  -3   9  680.48  122.20
   7   3  10   16.58   47.86
   7   3  10  -16.22   59.36
   7   3  10   92.96   84.29
  -7   3 -10  -21.12   57.98
  -7   3 -10   73.56   73.71
  -7  -3 -10  135.36   84.31
   7  -3  10  -16.95   65.95
   7   3  11 1560.02  150.95
   7   3  11 1490.00  164.64
   7   3  11 1539.77  177.67
  -7   3 -11 1539.75  173.00
  -7   3 -11 1740.07  181.26
  -7  -3 -11 1409.61  181.64
   7  -3  11 1464.42  181.15
   7   3  12  810.22  129.77
   7   3  12  749.92  134.17
  -7   3 -12  669.93  108.44
  -7   3 -12  763.40  119.58
  -7  -3 -12  447.81  127.54
   7  -3  12  718.26  114.65
   7   3  13 2654.40  243.24
   7   3  13 2829.92  273.95
  -7   3 -13 3277.78  258.41
  -7  -3 -13 2731.48  292.86
   7  -3  13 2605.98  263.82
   7   3  14  143.62   72.10
   7   3  14   60.94   72.93
  -7   3 -14   80.35   65.32
  -7  -3 -14   42.99   79.53
   7  -3  14   25.83   73.48
   7   3  15 1057.87  145.63
   7   3  15 1272.10  186.67
  -7   3 -15 1516.67  192.87
  -7  -3 -15 1117.13  160.93
   7  -3  15 1085.87  154.14
   7   3  16  165.29   81.13
  -7   3 -16  162.46   77.72
  -7  -3 -16   53.01   91.79
   7  -3  16  107.04   79.82
   7   4   0  198.83   78.95
   7   4   0   46.50   72.02
  -7   4   0  -43.36   66.32
  -7  -4   0   71.18   71.33
   7  -4   0  -34.26   60.37
   7   4   1   34.25   42.88
  -7   4  -1  -56.81   63.47
  -7  -4  -1   62.85  110.99
   7  -4   1    0.99   58.03
   7   4   2  -22.89   58.07
  -7   4  -2  -30.72   57.35
  -7  -4  -2   -5.38   58.14
   7   4   3  823.14  126.32
   7   4   3  659.95  100.91
  -7   4  -3  615.75  131.25
  -7  -4  -3  577.71  143.23
   7   4   4  225.41   88.14
   7   4   4   69.02   65.76
  -7   4  -4  -54.04   78.90
  -7   4  -4   40.72   53.76
  -7  -4  -4   -9.73   89.58
   7   4   5  887.64  148.87
   7   4   5  889.07  123.89
  -7   4  -5  803.54  143.02
  -7   4  -5 1202.52  155.35
  -7  -4  -5  961.44  151.82
   7  -4   5  677.19  102.74
   7   4   6  397.55  101.11
   7   4   6  122.67   67.65
  -7   4  -6  119.06   74.00
  -7   4  -6  212.19   74.52
  -7  -4  -6  121.49  101.44
   7  -4   6  124.55   79.26
   7   4   7 1322.84  191.57
   7   4   7 1198.81  152.91
  -7   4  -7 1025.76  147.69
  -7   4  -7 1674.17  189.51
  -7  -4  -7 1189.46  153.65
   7  -4   7 1072.58  128.97
   7   4   8  432.46  110.20
   7   4   8  141.60   79.92
  -7   4  -8   41.07   69.43
   7  -4   8   21.48   71.40
   7   4   9  869.56  129.00
   7   4   9  748.21  126.43
  -7   4  -9  682.89  104.19
   7  -4   9  823.83  101.15
   8   0   0 3617.25  291.36
   8   0   0 3615.82  197.81
   8   0   0 4379.51  282.78
  -8   0   0 3846.44  286.84
  -8   0   0 3374.38  222.01
   8   0   1  367.11   99.86
   8   0   1  246.54   40.91
   8   0   1  393.80  119.91
  -8   0  -1  126.93   88.20
  -8   0  -1  143.09   55.39
   8   0   2 7891.45  444.34
   8   0   2 7917.66  364.38
   8   0   2 8510.17  477.07
  -8   0  -2 8421.57  412.19
  -8   0  -2 7660.30  437.87
   8   0   3  261.78  101.23
   8   0   3  100.79   43.84
   8   0   3  123.85   75.28
  -8   0  -3  169.41   93.04
  -8   0  -3  141.11   58.74
   8   0   4 7167.01  472.58
   8   0   4 6514.42  348.40
   8   0   4 6386.68  421.63
  -8   0  -4 7137.20  368.51
  -8   0  -4 6642.44  374.15
   8   0   5   55.74   83.36
   8   0   5  261.98  104.52
  -8   0  -5   -4.14   78.59
  -8   0  -5    2.02   57.02
   8   0   6 5620.22  407.59
   8   0   6 5335.92  361.05
  -8   0  -6 5457.66  291.68
  -8   0  -6 4889.26  318.35
   8   0   7    6.36   60.34
   8   0   7   26.47   60.89
  -8   0  -7  -26.41   59.60
  -8   0  -7   -2.59   60.04
   8   0   8  620.07  108.14
   8   0   8  704.00  110.63
  -8   0  -8  476.88   93.85
  -8   0  -8  569.53   85.96
   8   0   9  -13.16   61.41
   8   0   9  -35.16   62.19
  -8   0  -9   -3.14   60.62
  -8   0  -9  -21.78   60.82
   8   0  10 1326.31  134.66
   8   0  10 1005.34  138.05
  -8   0 -10 1143.24  123.53
  -8   0 -10  986.70  114.02
   8   0  11   32.26   53.74
   8   0  11   35.62   54.56
  -8   0 -11  -66.05   53.06
  -8   0 -11  -42.77   53.05
   8   0  12 3334.18  277.83
   8   0  12 3325.17  279.71
  -8   0 -12 3413.08  278.07
  -8   0 -12 3080.71  257.40
   8   0  13   26.19   54.12
   8   0  13   53.91   68.23
  -8   0 -13   20.48   67.45
  -8   0 -13  -12.18   73.00
   8   0  14 3145.95  267.08
   8   0  14 3224.65  298.25
  -8   0 -14 2827.87  244.16
  -8   0 -14 3085.41  287.52
   8   0  15  100.12   72.20
   8   0  15  -24.11   76.07
  -8   0 -15   18.91   52.08
  -8   0 -15   31.94   77.89
   8   0  16 2890.87  277.59
   8   0  16 3084.39  286.54
  -8   0 -16 2816.08  251.37
  -8   0 -16 2867.80  267.63
   8   0  17    2.68   61.97
   8   0  17   71.47   62.56
  -8   0 -17  -37.96   61.15
  -8   0 -17  -23.83   60.96
   8   0  18  726.61  146.03
   8   0  18  889.48  133.56
  -8   0 -18  669.58  134.87
   8   0  19   18.93   75.35
   8   0  19   23.69   73.17
  -8   0 -19   44.41   74.52
   8   0  20   -7.14   54.78
   8   0  20  -94.00   55.01
  -8   0 -20   30.62   54.04
   8   1   0 5640.81  403.01
   8   1   0 5766.58  314.68
   8   1   0 6393.78  388.76
  -8   1   0 6092.36  356.46
  -8   1   0 5656.78  373.44
  -8  -1   0 6122.48  523.57
  -8  -1   0 4735.29  256.49
   8  -1   0 6026.06  356.28
   8  -1   0 5978.51  359.26
   8   1   1   -3.26   37.25
   8   1   1   76.11   36.94
  -8   1  -1  -37.38   37.10
  -8   1  -1  -28.39   36.67
  -8  -1  -1   82.36   36.50
  -8  -1  -1  -36.19   36.61
   8  -1   1   25.92   36.71
   8  -1   1  -28.13   36.98
   8   1   2  116.92   62.29
   8   1   2   59.78   58.84
  -8   1  -2   53.17   52.09
  -8   1  -2   21.84   50.47
  -8  -1  -2  132.83   75.76
  -8  -1  -2   70.31   42.80
   8  -1   2   77.97   65.17
   8  -1   2  110.17   59.69
   8   1   3  119.65   52.94
   8   1   3   22.36   37.36
   8   1   3   62.95   66.85
  -8   1  -3  -46.95   56.48
  -8   1  -3   44.59   48.38
  -8  -1  -3   14.30   68.02
  -8  -1  -3   34.94   42.54
   8  -1   3   29.57   65.43
   8  -1   3   34.18   58.64
   8   1   4   16.95   57.40
   8   1   4   24.41   36.94
   8   1   4  112.94   71.92
  -8   1  -4   67.39   62.28
  -8   1  -4   30.20   52.10
  -8  -1  -4   55.03   63.51
  -8  -1  -4   17.82   42.74
   8  -1   4  123.09   67.06
   8  -1   4   98.92   64.77
   8   1   5  178.91   97.12
   8   1   5  105.61   55.83
   8   1   5  155.49   92.69
  -8   1  -5   14.91   61.52
  -8   1  -5  154.42   75.82
  -8  -1  -5   55.85   87.14
  -8  -1  -5   -0.07   43.29
   8  -1   5   12.19   69.76
   8  -1   5   41.80   70.97
   8   1   6 5112.35  336.26
   8   1   6 4638.28  274.17
   8   1   6 5068.24  424.90
  -8   1  -6 4760.73  302.36
  -8   1  -6 4798.20  332.40
  -8  -1  -6 5068.35  322.24
  -8  -1  -6 3900.22  316.23
   8  -1   6 5149.27  346.74
   8  -1   6 5054.71  357.80
   8   1   7  120.36   88.36
   8   1   7   -6.03   44.32
   8   1   7   41.72   82.06
  -8   1  -7  -39.66   58.20
  -8   1  -7    0.93   67.24
  -8  -1  -7   10.83   70.28
  -8  -1  -7  -51.05   50.34
   8  -1   7   25.62   76.01
   8  -1   7  219.08  111.22
   8   1   8 4799.43  340.87
   8   1   8 4546.42  273.97
   8   1   8 4944.95  424.50
  -8   1  -8 5123.25  336.91
  -8   1  -8 5559.51  390.18
  -8  -1  -8 4875.34  351.49
  -8  -1  -8 4275.95  280.31
   8  -1   8 5190.01  360.33
   8  -1   8 5224.48  354.60
   8   1   9  507.71   87.92
   8   1   9  491.41  109.81
  -8   1  -9  532.27   92.43
  -8   1  -9  616.62  116.34
  -8  -1  -9  515.64   93.96
   8  -1   9  539.01  107.46
   8  -1   9  772.10  108.13
   8   1  10 5971.39  386.69
   8   1  10 5560.47  454.41
  -8   1 -10 5868.45  437.88
  -8   1 -10 5868.33  437.84
  -8  -1 -10 5599.50  374.17
  -8  -1 -10 4703.40  302.55
   8  -1  10 6332.02  432.35
   8  -1  10 5943.52  432.41
   8   1  11  112.06   57.26
   8   1  11    1.65   43.45
   8   1  11   64.85   90.42
  -8   1 -11   22.82   63.55
  -8   1 -11   46.91   73.94
  -8  -1 -11   67.14   77.24
  -8  -1 -11    5.20   63.60
   8  -1  11   98.97   77.27
   8  -1  11   90.59   80.19
   8   1  12 2029.97  197.91
   8   1  12 1697.32  142.50
   8   1  12 2117.20  249.63
  -8   1 -12 2159.96  203.12
  -8   1 -12 2290.09  201.23
  -8  -1 -12 1964.86  200.92
  -8  -1 -12 1826.26  175.00
   8  -1  12 2172.61  249.02
   8  -1  12 2027.07  203.94
   8   1  13   27.02   71.53
   8   1  13   22.64   43.05
   8   1  13  154.22   82.44
  -8   1 -13  -21.59   52.56
  -8   1 -13  -49.41   64.65
  -8  -1 -13  -20.34   75.38
  -8  -1 -13   31.47   66.86
   8  -1  13   10.93   70.03
   8  -1  13    4.84   69.03
   8   1  14   -7.23   63.39
   8   1  14   95.40   89.35
  -8   1 -14   20.70   55.59
  -8   1 -14  -28.49   67.07
  -8  -1 -14  111.22   69.27
  -8  -1 -14   81.91   70.20
   8  -1  14  -46.82   63.29
   8  -1  14  108.15   80.04
   8   1  15   -8.39   62.27
   8   1  15  -31.29   60.76
  -8   1 -15   24.72   59.56
  -8   1 -15   85.22   84.01
  -8  -1 -15   95.25   72.00
  -8  -1 -15   -8.51   65.19
   8  -1  15   44.52   59.70
   8  -1  15  -67.05   71.15
   8   1  16  350.91   92.91
   8   1  16  444.73  128.67
  -8   1 -16  433.53   81.15
  -8   1 -16  342.40  108.63
  -8  -1 -16  388.34   96.69
  -8  -1 -16  447.88   95.37
   8  -1  16  319.37   88.97
   8  -1  16  347.57  102.34
   8   1  17  180.94   80.41
   8   1  17  489.60   99.06
  -8   1 -17  173.56   91.55
  -8  -1 -17  105.51   71.59
  -8  -1 -17  148.23   77.24
   8  -1  17   83.54   66.50
   8  -1  17  213.58   87.90
   8   1  18  354.57  106.06
   8   1  18  436.44  102.63
  -8   1 -18  320.51   98.43
  -8  -1 -18  269.71   84.59
  -8  -1 -18  237.77   89.86
   8  -1  18  293.45  107.58
   8  -1  18  319.29   99.52
   8   1  19  -35.98   68.63
   8   1  19   41.24   81.89
  -8   1 -19  -64.28   78.52
  -8  -1 -19   -2.43   62.95
  -8  -1 -19   10.03   75.84
   8  -1  19   80.35   71.30
   8  -1  19   89.09   71.78
   8   2   0 1644.44  174.47
   8   2   0 1929.17  164.61
   8   2   0 1886.21  184.56
  -8   2   0 2001.94  172.09
  -8  -2   0 1745.76  212.40
   8  -2   0 1901.40  184.68
   8  -2   0 1517.62  153.91
   8  -2   0 2004.91  173.21
   8   2   1  583.69  107.84
   8   2   1   80.39   45.72
   8   2   1  393.12  124.75
  -8   2  -1  135.67   93.47
  -8  -2  -1   19.65   94.75
   8  -2   1  196.41   76.78
   8  -2   1  282.37   66.02
   8   2   2 6079.86  436.83
   8   2   2 5795.16  344.51
   8   2   2 5867.22  450.32
  -8   2  -2 6292.56  357.38
  -8   2  -2 6112.58  457.23
  -8  -2  -2 5576.73  445.10
   8  -2   2 7106.94  485.02
   8  -2   2 6358.50  359.66
   8   2   3  675.56  122.73
   8   2   3  464.88   85.82
   8   2   3  655.07  141.84
  -8   2  -3  282.87   85.61
  -8  -2  -3  224.22  109.98
   8  -2   3  385.46   98.77
   8  -2   3  472.90   82.48
   8   2   4 5624.13  409.51
   8   2   4 5681.65  342.25
   8   2   4 5889.43  486.82
  -8   2  -4 5736.03  352.31
  -8   2  -4 6412.70  418.14
  -8  -2  -4 5971.80  516.99
   8  -2   4 6865.85  487.08
   8  -2   4 6155.05  370.10
   8   2   5  -34.32   56.65
   8   2   5  121.09   63.72
   8   2   5   68.18   86.36
  -8   2  -5   15.58   63.64
  -8   2  -5   42.56   50.10
  -8  -2  -5   42.41   75.04
   8  -2   5   60.29   68.71
   8  -2   5   13.96   49.28
   8   2   6 1061.56  131.66
   8   2   6 1018.22  105.51
   8   2   6 1235.66  162.06
  -8   2  -6 1213.02  138.12
  -8   2  -6 1214.88  133.45
  -8  -2  -6 1135.46  164.32
   8  -2   6 1106.68  136.63
   8  -2   6 1132.50  124.42
   8   2   7  146.22   62.37
   8   2   7  147.57   57.97
   8   2   7   68.18   77.24
  -8   2  -7  106.14   70.55
  -8   2  -7  188.42   67.94
  -8  -2  -7  154.05   90.22
   8  -2   7  109.53   66.15
   8  -2   7  256.08   65.35
   8   2   8  516.36   97.10
   8   2   8  366.61   73.70
   8   2   8  423.78  103.37
  -8   2  -8  342.32   80.56
  -8   2  -8  466.99   93.04
  -8  -2  -8  329.56   93.34
   8  -2   8  480.03  105.03
   8  -2   8  533.72   86.64
   8   2   9   65.93   61.69
   8   2   9   30.44   57.02
   8   2   9   28.30   73.82
  -8   2  -9  -24.40   55.51
  -8   2  -9    8.71   56.56
  -8  -2  -9   60.28   70.08
   8  -2   9  -40.42   65.58
   8  -2   9   56.10   57.70
   8   2  10  297.71   75.79
   8   2  10  353.63  104.83
  -8   2 -10  250.60   71.09
  -8   2 -10  451.12   77.80
  -8  -2 -10  408.49  113.50
   8  -2  10  329.29  106.91
   8  -2  10  451.49   82.52
   8   2  11   69.29   59.41
   8   2  11  -35.48   53.75
   8   2  11   72.40   80.56
  -8   2 -11   -3.38   48.99
  -8   2 -11  -67.65   68.16
  -8  -2 -11   30.68   81.38
   8  -2  11  127.90   65.98
   8  -2  11   33.91   63.58
   8   2  12 1330.73  162.86
   8   2  12 1243.59  139.51
   8   2  12 1791.27  186.40
  -8   2 -12 1389.45  144.56
  -8   2 -12 1757.46  179.73
  -8  -2 -12 1332.40  165.55
   8  -2  12 1528.84  183.14
   8  -2  12 1232.03  159.66
   8   2  13  391.66   83.19
   8   2  13  409.68   79.57
   8   2  13  537.33  114.71
  -8   2 -13  380.42   74.13
  -8   2 -13  510.37  111.91
  -8  -2 -13  621.69  137.06
   8  -2  13  450.44  122.36
   8  -2  13  466.56   85.62
   8   2  14 2280.46  237.33
   8   2  14 1936.29  178.18
   8   2  14 2449.77  260.46
  -8   2 -14 2738.69  248.41
  -8  -2 -14 2123.91  228.02
   8  -2  14 2422.07  265.02
   8  -2  14 2260.48  245.82
   8   2  15  -49.67   50.46
   8   2  15  -17.70   49.95
  -8   2 -15  -20.57   49.78
  -8  -2 -15    1.37   50.21
   8  -2  15   53.43   49.46
   8  -2  15  -21.17   50.71
   8   2  16  995.46  151.91
   8   2  16  894.48  109.32
   8   2  16 1033.62  162.76
  -8   2 -16 1495.81  198.61
  -8  -2 -16 1040.46  164.39
   8  -2  16 1233.11  173.73
   8  -2  16 1038.55  134.96
   8   2  17  124.18   60.53
   8   2  17   90.76   62.33
  -8   2 -17  120.57   82.68
  -8  -2 -17  144.09   64.97
   8   3   0 1210.04  147.97
   8   3   0 1458.12  155.18
   8   3   0 1322.29  171.43
  -8   3   0 1336.41  179.88
  -8  -3   0 1153.51  164.64
   8  -3   0 1625.84  177.07
   8  -3   0 1398.52  159.51
   8  -3   0 1273.06  116.82
   8   3   1  323.53   73.13
   8   3   1  226.70   75.21
   8   3   1  228.41   75.34
  -8   3  -1  173.67   92.68
  -8  -3  -1  224.27   99.65
   8  -3   1  225.84   77.24
   8  -3   1  180.44   60.15
   8  -3   1  185.96   55.83
   8   3   2  282.45   79.11
   8   3   2  254.74   80.79
   8   3   2  251.63   77.43
  -8   3  -2  156.21  101.18
  -8  -3  -2  198.82  103.30
   8  -3   2  454.04   93.64
   8  -3   2  266.74   62.06
   8   3   3   13.17   63.18
   8   3   3  -39.96   62.67
  -8   3  -3  -46.08   68.54
  -8   3  -3   57.94   60.37
  -8  -3  -3   14.62   93.69
   8  -3   3   87.58   78.16
   8  -3   3  -16.01   40.92
   8   3   4  114.34   61.31
   8   3   4  236.15   74.65
   8   3   4  193.33   79.33
  -8   3  -4  168.29   74.10
  -8   3  -4  350.00   84.37
  -8  -3  -4  139.37   81.75
   8  -3   4  260.96   92.72
   8   3   5  136.40   59.57
   8   3   5  182.35   91.40
   8   3   5  174.53   79.94
  -8   3  -5  -26.82   65.85
  -8   3  -5  163.09   68.38
  -8  -3  -5  106.76   92.96
   8  -3   5   67.68   84.04
   8   3   6 1266.09  139.68
   8   3   6 1438.18  169.83
   8   3   6 1400.83  169.87
  -8   3  -6 1360.63  176.60
  -8  -3  -6 1306.32  184.14
   8  -3   6 1572.39  204.03
   8   3   7  161.49   68.57
   8   3   7   51.28   74.50
  -8   3  -7   54.85   60.96
  -8  -3  -7  -91.12   75.26
   8  -3   7    4.81   69.08
   8   3   8 1889.72  166.84
   8   3   8 2465.50  221.54
   8   3   8 2292.26  219.89
  -8   3  -8 2297.78  239.04
  -8  -3  -8 2249.53  234.86
   8  -3   8 2514.75  244.82
   8   3   9  135.61   61.39
   8   3   9  287.34   96.10
   8   3   9  262.12  102.67
  -8   3  -9   37.81   67.31
  -8  -3  -9  272.18   99.79
   8  -3   9  147.53   84.76
   8   3  10 1059.43  128.13
   8   3  10 1281.61  139.88
   8   3  10 1103.02  177.73
  -8   3 -10 1108.95  145.56
  -8  -3 -10 1043.69  174.23
   8  -3  10 1156.85  171.08
   8   3  11  255.15   76.52
   8   3  11  335.53  108.44
  -8   3 -11  157.28   56.77
  -8  -3 -11  195.04   89.60
   8  -3  11  229.27   81.07
   8   3  12  283.92   75.85
   8   3  12  392.34   99.44
  -8  -3 -12  249.58  100.33
   8  -3  12  394.72   88.66
   9   0   0  376.18  114.47
   9   0   0  592.58  111.94
  -9   0   0    0.35   88.61
  -9   0   0  124.67   58.54
   9   0   1 6267.82  398.87
   9   0   1 6181.12  410.27
  -9   0  -1 6369.77  438.32
  -9   0  -1 5824.55  315.76
   9   0   2  153.02   81.94
   9   0   2   29.72   61.17
  -9   0  -2  -45.36   76.69
  -9   0  -2    1.94   53.48
   9   0   3 1367.64  144.22
   9   0   3 1302.76  141.42
  -9   0  -3 1415.22  152.21
  -9   0  -3 1214.57  123.12
   9   0   4  -11.19   62.11
   9   0   4   76.64   65.35
  -9   0  -4   29.31   65.71
  -9   0  -4   10.99   50.72
   9   0   5  -28.18   61.33
   9   0   5  185.64   82.74
  -9   0  -5   61.28   71.57
  -9   0  -5   12.63   49.16
   9   0   6   60.11   63.06
   9   0   6  219.60  106.68
  -9   0  -6  -28.29   78.17
  -9   0  -6   64.94   61.71
   9   0   7 3980.31  318.09
   9   0   7 3709.04  318.35
  -9   0  -7 3946.87  291.39
  -9   0  -7 3012.81  255.91
   9   0   8  -11.54   53.95
   9   0   8 -101.05   54.58
  -9   0  -8  -81.83   53.22
  -9   0  -8   55.58   53.44
   9   0   9 1822.98  189.38
   9   0   9 1709.16  185.46
  -9   0  -9 1698.03  197.18
  -9   0  -9 1668.74  162.33
   9   0  10   83.45   65.70
   9   0  10   64.60   82.82
  -9   0 -10    3.35   64.83
  -9   0 -10   53.28   58.98
   9   0  11 2340.73  211.68
   9   0  11 2223.26  226.04
  -9   0 -11 2291.90  229.74
  -9   0 -11 2017.27  204.12
   9   0  12  -77.47   66.43
   9   0  12  -34.13   67.37
  -9   0 -12  -18.04   65.59
  -9   0 -12  -10.88   65.40
   9   0  13 2465.13  248.54
   9   0  13 2481.95  268.19
  -9   0 -13 2648.84  263.76
  -9   0 -13 2707.56  239.74
   9   0  14 -106.34   78.83
   9   0  14   14.41   66.79
  -9   0 -14   44.95   64.64
  -9   0 -14   65.12   83.87
   9   0  15  619.37  118.99
   9   0  15  531.42  118.60
  -9   0 -15  514.93  103.51
  -9   0 -15  508.89  109.59
   9   0  16   60.54   71.15
   9   0  16   41.65   77.25
  -9   0 -16   -3.71   62.33
  -9   0 -16    8.59   66.12
   9   1   0  185.88   65.96
   9   1   0   97.77   45.04
   9   1   0   90.82   61.46
  -9   1   0  -67.35   61.46
  -9   1   0   71.19   53.05
  -9  -1   0   40.40   81.43
   9  -1   0   89.93   63.10
   9  -1   0  156.35   70.53
   9   1   1  974.08  109.98
   9   1   1 1021.82   98.66
   9   1   1  998.32  114.45
  -9   1  -1  927.79  147.53
  -9   1  -1  941.37  100.13
  -9  -1  -1  899.84  158.58
   9  -1   1  936.14  120.08
   9  -1   1 1060.53  155.10
   9   1   2  476.87   94.58
   9   1   2  365.17   63.43
   9   1   2  468.99   97.45
  -9   1  -2  312.37   93.56
  -9   1  -2  290.51   77.40
  -9  -1  -2  206.28   97.41
   9  -1   2  317.22   96.16
   9  -1   2  371.84   68.15
   9   1   3 3152.65  277.25
   9   1   3 2786.39  212.99
   9   1   3 3266.90  269.62
  -9   1  -3 3306.12  228.62
  -9   1  -3 3344.52  245.69
  -9  -1  -3 3179.18  288.58
   9  -1   3 3783.63  290.03
   9  -1   3 3420.51  253.89
   9   1   4 1096.46  125.91
   9   1   4 1067.10  173.69
  -9   1  -4  835.03  107.47
  -9   1  -4  805.97  129.43
  -9  -1  -4  869.95  144.62
   9  -1   4  764.47  120.96
   9  -1   4 1322.49  146.21
   9   1   5 4500.05  338.87
   9   1   5 4569.98  375.78
  -9   1  -5 4569.80  298.70
  -9   1  -5 4287.74  331.66
  -9  -1  -5 4770.55  379.33
   9  -1   5 4857.65  366.60
   9  -1   5 4174.65  394.87
   9   1   6   53.33   56.93
   9   1   6  216.12  101.38
  -9   1  -6   11.30   67.72
  -9   1  -6  108.45   74.91
  -9  -1  -6   57.34   63.34
   9  -1   6   65.93   77.32
   9  -1   6  316.26   96.29
   9   1   7 2738.43  272.98
  -9   1  -7 2850.19  250.15
  -9   1  -7 2490.43  239.78
  -9  -1  -7 2508.50  239.83
   9  -1   7 2873.28  289.03
   9  -1   7 2642.10  236.02
   9   1   8  -10.50   56.91
   9   1   8  -13.34   66.91
  -9   1  -8  -65.03   60.39
  -9   1  -8   83.63   72.10
  -9  -1  -8   58.75   82.99
   9  -1   8   29.20   74.05
   9  -1   8    1.09   69.65
   9   1   9  847.42  122.78
   9   1   9  977.31  138.75
  -9   1  -9  810.13  128.66
  -9   1  -9  926.54  133.39
  -9  -1  -9  791.36  147.54
   9  -1   9  856.65  130.18
   9  -1   9  947.80  123.31
   9   1  10    6.84   62.69
   9   1  10 1075.27  257.67
  -9   1 -10   79.04   69.09
  -9   1 -10  -11.64   67.20
  -9  -1 -10   59.47   86.75
   9  -1  10   41.60   64.38
   9  -1  10  -19.02   54.72
   9   1  11   57.81   70.84
   9   1  11    6.86   65.70
  -9   1 -11   65.15   64.51
  -9   1 -11   -6.27   67.71
  -9  -1 -11  -31.78   71.71
   9  -1  11   83.29   74.31
   9  -1  11   32.16   72.71
   9   1  12   81.50   56.44
   9   1  12   31.31   66.05
  -9   1 -12   55.92   70.38
  -9   1 -12  124.75   75.18
  -9  -1 -12   39.88   81.35
   9  -1  12  132.98   86.48
   9  -1  12   13.28   64.21
   9   1  13  356.12   90.45
   9   1  13  369.61  104.67
  -9   1 -13  245.15   82.41
  -9   1 -13  333.13   87.68
  -9  -1 -13  331.61  101.73
   9  -1  13  388.80   92.83
   9  -1  13  249.29   90.83
   9   1  14  -70.88   66.77
   9   1  14   -3.72   65.94
  -9   1 -14   80.29   76.90
  -9   1 -14   32.87   61.43
  -9  -1 -14  -84.08   83.07
   9  -1  14   12.73   64.86
   9  -1  14   40.68   77.79
   9   1  15  877.93  148.47
   9   1  15  850.41  153.43
  -9   1 -15  831.19  137.49
  -9   1 -15  952.52  145.05
  -9  -1 -15  926.55  155.77
   9  -1  15 1087.62  164.81
   9  -1  15 1058.33  159.75
   9   2   0  198.36   81.90
   9   2   0  219.83   65.42
   9   2   0  268.05   95.53
  -9   2   0  116.86   76.92
  -9   2   0  164.92   63.50
  -9  -2   0  -97.62   99.57
   9  -2   0  226.25   73.66
   9  -2   0  166.69   70.58
   9   2   1 1887.22  232.35
   9   2   1 1645.81  165.51
   9   2   1 2143.71  219.57
  -9   2  -1 1965.41  220.01
  -9   2  -1 1801.84  220.96
  -9  -2  -1 1945.16  264.97
   9  -2   1 2166.43  225.35
   9  -2   1 2221.37  209.96
   9   2   2   88.84   77.26
   9   2   2  114.76   62.96
   9   2   2  293.55  104.13
  -9   2  -2  182.74   69.70
  -9   2  -2   71.06   64.16
  -9  -2  -2   88.75   96.31
   9  -2   2  122.83   73.50
   9  -2   2  100.61   68.00
   9   2   3  159.89   63.08
   9   2   3  214.06   78.62
  -9   2  -3  125.09   77.13
  -9  -2  -3   75.45   76.89
   9  -2   3  157.12   70.94
   9  -2   3  203.34   68.05
   9   2   4  -22.41   46.90
   9   2   4  -21.16   66.52
  -9   2  -4   26.55   69.00
  -9  -2  -4  -47.55   85.95
   9  -2   4  122.71   69.26
   9  -2   4    0.86   57.38
   9   2   5  -32.06   45.07
   9   2   5  129.28   66.71
  -9   2  -5    6.29   57.31
  -9  -2  -5  -57.26   85.16
   9  -2   5  -39.25   65.02
   9  -2   5   82.61   58.65
   9   2   6   11.28   56.46
   9   2   6   53.00   56.37
   9   2   6    2.54   57.01
  -9   2  -6    4.33   56.74
  -9  -2  -6  -22.89   56.75
   9  -2   6  -78.92   56.04
   9  -2   6    7.50   56.70
   9   2   7  191.65   75.72
   9   2   7  198.73   66.32
   9   2   7  378.27   96.20
  -9   2  -7  234.02   70.57
  -9   2  -7  326.44   83.59
  -9  -2  -7   98.76   75.26
   9  -2   7  321.28   94.18
   9  -2   7  293.34   83.26
   9   2   8   11.64   52.38
   9   2   8   18.17   45.50
   9   2   8   52.13   68.74
  -9   2  -8   51.32   63.34
  -9  -2  -8   77.74  104.09
   9  -2   8   55.73   75.73
   9  -2   8   44.67   68.45
   9   2   9 2053.20  194.19
   9   2   9 1768.26  228.03
  -9   2  -9 1877.24  197.42
  -9   2  -9 1920.54  197.64
  -9  -2  -9 1723.20  248.48
   9  -2   9 2320.17  277.34
   9  -2   9 1915.95  200.08
   9   2  10   64.46   64.89
   9   2  10   58.70   56.98
   9   2  10  139.22   89.05
  -9   2 -10    6.23   54.22
  -9   2 -10  134.36   73.15
  -9  -2 -10   91.86   85.63
   9  -2  10   72.87   73.58
   9  -2  10  176.37   72.04
   9   2  11 2127.08  210.19
   9   2  11 1472.41  157.65
   9   2  11 2371.65  280.36
  -9   2 -11 2171.40  213.13
  -9   2 -11 2338.00  234.47
  -9  -2 -11 2165.10  250.59
   9  -2  11 2397.61  225.29
   9  -2  11 2044.34  214.65
   9   2  12  -11.08   50.06
   9   2  12  -31.34   50.26
  -9   2 -12  -11.83   49.60
  -9   2 -12  -71.51   49.87
  -9  -2 -12  -13.34   50.45
   9  -2  12   94.53   49.43
   9  -2  12  -26.66   50.69
   9   3   0   69.78   76.67
   9   3   0   48.64   66.28
   9   3   0   -7.28   65.62
  -9   3   0   38.59   73.06
  -9  -3   0  187.82   94.21
   9  -3   0   35.67   60.82
   9   3   1  218.57   86.61
   9   3   1  321.58   85.88
   9   3   1  350.80   96.84
  -9   3  -1  336.23  105.38
  -9   3  -1  372.02   92.09
  -9  -3  -1  266.01  105.52
   9  -3   1  445.03  103.36
   9   3   2  213.89   75.41
   9   3   2  167.03   92.37
  -9   3  -2  151.04   77.70
  -9   3  -2  153.30   82.94
  -9  -3  -2  174.01   74.66
   9  -3   2  112.25   77.86
   9   3   3  885.28  109.05
   9   3   3  812.56  159.14
  -9   3  -3  969.20  153.65
  -9   3  -3 1020.54  144.65
  -9  -3  -3  784.23  175.81
   9  -3   3  958.56  150.80
   9   3   4  160.65   62.13
   9   3   4  297.99   75.81
   9   3   4   57.40   77.55
  -9   3  -4   68.88   83.85
  -9   3  -4  210.12   83.78
   9  -3   4    4.60   77.10
   9   3   5 1128.63  127.48
   9   3   5 1370.35  193.10
  -9   3  -5 1183.27  161.49
   9  -3   5 1479.81  188.68
  10   0   0  421.22   97.24
  10   0   0  267.79   89.73
 -10   0   0  378.44   97.43
  10   0   1   65.79   74.58
  10   0   1   16.82   71.77
 -10   0  -1  -31.90   73.53
  10   0   2  663.25  111.08
  10   0   2  639.49  122.77
 -10   0  -2  471.59  112.41
  10   0   3   49.07   69.91
 -10   0  -3  118.82   87.74
  10   0   4 1354.07  145.42
  10   0   4 1364.15  163.87
 -10   0  -4 1585.02  177.76
  10   0   5   22.18   58.88
  10   0   5  252.95   90.06
 -10   0  -5   93.04   81.30
  10   0   6 2450.23  243.34
  10   0   6 2724.91  272.98
 -10   0  -6 2569.57  261.06
  10   0   7   50.39   77.24
  10   0   7  124.28   87.68
 -10   0  -7   29.06   73.72
  10   0   8 2001.53  227.87
  10   0   8 2048.65  242.10
 -10   0  -8 2304.71  238.21
 -10   0  -8 1736.52  184.93
  10   0   9   17.48   60.49
  10   0   9   15.75   61.32
 -10   0  -9  -48.42   59.71
 -10   0  -9  -66.95   59.65
  10   0  10 1378.30  219.51
  10   0  10 1613.53  193.02
 -10   0 -10 1256.97  187.55
 -10   0 -10 1104.29  149.52
  10   0  11  -67.65   81.81
 -10   0 -11   -2.06   79.72
 -10   0 -11  -34.48   79.38
  10   1   0 1691.32  202.68
  10   1   0 2113.28  216.59
 -10   1   0 2040.33  205.75
 -10   1   0 1728.03  178.31
 -10  -1   0 1837.35  214.89
  10  -1   0 2055.15  211.25
  10  -1   0 2064.67  215.29
  10   1   1  440.04  107.71
  10   1   1  377.21  104.22
 -10   1  -1  175.92   87.64
 -10   1  -1  193.46   74.44
 -10  -1  -1  166.43   95.87
  10  -1   1  371.63   88.78
  10  -1   1  493.22  105.33
  10   1   2 3215.57  330.21
  10   1   2 3215.78  303.67
 -10   1  -2 3858.99  333.90
 -10   1  -2 2799.22  241.08
 -10  -1  -2 3258.54  318.04
  10  -1   2 3655.51  323.77
  10  -1   2 3729.51  309.01
  10   1   3  170.98   89.32
  10   1   3   58.39   72.85
 -10   1  -3    9.20   69.60
 -10   1  -3   65.75   59.38
 -10  -1  -3  107.45   88.78
  10  -1   3  -13.85   56.46
  10  -1   3   76.26   58.20
  10   1   4  690.50  116.10
  10   1   4  746.30  114.65
 -10   1  -4  678.68  133.55
 -10   1  -4  660.18  113.29
 -10  -1  -4  661.73  128.90
  10  -1   4  939.20  128.25
  10  -1   4  698.59  119.68
  10   1   5   89.11   68.97
  10   1   5   -8.99   62.52
 -10   1  -5   -9.47   59.07
 -10   1  -5  -46.25   56.42
 -10  -1  -5    2.56   74.56
  10  -1   5   -2.50   71.08
  10  -1   5   13.16   53.29
  10   1   6  220.57   80.58
  10   1   6  343.20   90.73
 -10   1  -6  262.22   83.89
 -10   1  -6  354.64   80.15
 -10  -1  -6  378.59  124.93
  10  -1   6  456.10  102.76
  10  -1   6  315.14   84.04
  10   1   7  -42.56   55.26
  10   1   7   46.84   72.58
 -10   1  -7   55.45   57.08
 -10   1  -7   62.74   63.96
 -10  -1  -7  -14.43   70.14
  10  -1   7  -79.34   64.05
  10  -1   7   61.59   67.39
  10   1   8  164.75   73.01
  10   1   8  215.58   83.00
 -10   1  -8  141.00   71.58
 -10  -1  -8  174.11   96.22
  10  -1   8  176.29   66.78
  10  -1   8  280.86   86.11
  10   1   9  -23.41   67.13
 -10   1  -9   39.23   69.83
 -10   1  -9   84.06   68.32
 -10  -1  -9  118.88   91.19
  10  -1   9  149.34   67.16
  10   2   0   31.67   65.64
  10   2   0   49.01   51.92
  10   2   0    9.44   55.29
 -10   2   0  -36.06   65.42
 -10   2   0   75.65   60.65
 -10  -2   0  -29.27   93.90
  10  -2   0  119.78   58.42
  10  -2   0  -40.36   52.64
  10   2   1   45.62   60.76
  10   2   1   28.44   72.84
 -10   2  -1  -39.96   69.38
 -10   2  -1   31.44   54.23
 -10  -2  -1   55.38  102.10
  10  -2   1   53.88   56.74
  10  -2   1   -8.69   56.49
  10   2   2    3.46   62.56
  10   2   2   58.26   68.38
 -10   2  -2   70.86   75.47
 -10   2  -2  -19.47   59.72
 -10  -2  -2  -12.02   79.16
  10  -2   2  -11.52   66.26
  10  -2   2    5.24   56.00
  10   2   3  131.64   74.90
  10   2   3   -1.23   69.83
 -10   2  -3  -58.41   76.78
 -10   2  -3   -9.38   51.43
  10  -2   3  -11.93   59.10
  10  -2   3  101.29   57.26
  10   2   4  733.23  135.42
 -10   2  -4  629.44  108.71
 -10   2  -4  617.43  103.83
  10  -2   4  870.61  153.35
  10  -2   4  592.50  103.53

;
_shelx_hkl_checksum              13110
loop_
_space_group_symop_operation_xyz
'x, y, z'
'-x+1/2, y+1/2, -z+1/2'
'-x, -y, -z'
'x-1/2, -y-1/2, z-1/2'
loop_
_atom_site_label
_atom_site_type_symbol
_atom_site_fract_x
_atom_site_fract_y
_atom_site_fract_z
_atom_site_U_iso_or_equiv
_atom_site_adp_type
_atom_site_occupancy
_atom_site_site_symmetry_order
_atom_site_calc_flag
_atom_site_refinement_flags_posn
_atom_site_refinement_flags_adp
_atom_site_refinement_flags_occupancy
_atom_site_disorder_assembly
_atom_site_disorder_group
Br1 Br 0.57850(3) 0.73832(6) 0.20838(2) 0.02760(10) Uani 1 1 d . . . . .
N1 N 0.2877(3) 0.0473(6) -0.03388(10) 0.0325(5) Uani 1 1 d . . . . .
C1 C 0.2547(3) 0.3525(6) 0.06770(11) 0.0244(4) Uani 1 1 d . . . . .
C2 C 0.4052(3) 0.4407(6) 0.10450(11) 0.0238(4) Uani 1 1 d . . . . .
H2 H 0.5218 0.3867 0.0932 0.029 Uiso 1 1 calc R U . . .
C3 C 0.3784(3) 0.6087(6) 0.15775(11) 0.0235(4) Uani 1 1 d . . . . .
C4 C 0.2088(3) 0.6911(6) 0.17523(12) 0.0263(5) Uani 1 1 d . . . . .
H4 H 0.1939 0.8078 0.2120 0.032 Uiso 1 1 calc R U . . .
C5 C 0.0614(3) 0.6000(7) 0.13810(12) 0.0292(5) Uani 1 1 d . . . . .
H5 H -0.0550 0.6545 0.1496 0.035 Uiso 1 1 calc R U . . .
C6 C 0.0830(3) 0.4307(6) 0.08461(12) 0.0279(5) Uani 1 1 d . . . . .
H6 H -0.0180 0.3678 0.0595 0.033 Uiso 1 1 calc R U . . .
C7 C 0.2762(3) 0.1802(7) 0.01113(12) 0.0273(5) Uani 1 1 d . . . . .
loop_
_atom_site_aniso_label
_atom_site_aniso_U_11
_atom_site_aniso_U_22
_atom_site_aniso_U_33
_atom_site_aniso_U_23
_atom_site_aniso_U_13
_atom_site_aniso_U_12
Br1 0.02254(14) 0.02807(15) 0.03161(15) -0.00306(9) -0.00355(9) -0.00049(9)
N1 0.0231(9) 0.0372(12) 0.0366(12) -0.0014(10) -0.0031(8) 0.0006(9)
C1 0.0201(10) 0.0246(10) 0.0283(11) 0.0025(9) -0.0018(8) 0.0001(9)
C2 0.0180(9) 0.0228(11) 0.0306(12) 0.0013(9) 0.0002(8) 0.0006(8)
C3 0.0191(10) 0.0219(11) 0.0291(11) 0.0007(9) -0.0032(8) -0.0004(8)
C4 0.0237(11) 0.0267(12) 0.0286(12) 0.0018(9) 0.0025(9) 0.0027(9)
C5 0.0174(10) 0.0320(13) 0.0383(14) 0.0026(11) 0.0020(9) 0.0029(9)
C6 0.0184(10) 0.0302(13) 0.0344(13) 0.0049(10) -0.0032(9) -0.0007(9)
C7 0.0204(10) 0.0275(11) 0.0333(13) 0.0023(9) -0.0033(9) 0.0002(9)
loop_
_atom_type_symbol
_atom_type_description
_atom_type_scat_dispersion_real
_atom_type_scat_dispersion_imag
_atom_type_scat_source
C C 0.0033 0.0016 'International Tables Vol C Tables 4.2.6.8 and 6.1.1.4'
H H 0.0000 0.0000 'International Tables Vol C Tables 4.2.6.8 and 6.1.1.4'
Br Br -0.2901 2.4595 'International Tables Vol C Tables 4.2.6.8 and 6.1.1.4'
N N 0.0061 0.0033 'International Tables Vol C Tables 4.2.6.8 and 6.1.1.4'
loop_
_geom_angle_atom_site_label_1
_geom_angle_atom_site_label_2
_geom_angle_atom_site_label_3
_geom_angle
_geom_angle_site_symmetry_1
_geom_angle_site_symmetry_3
_geom_angle_publ_flag
C6 C1 C2 121.0(2) . . ?
C6 C1 C7 119.2(2) . . ?
C2 C1 C7 119.8(2) . . ?
C3 C2 C1 117.8(2) . . ?
C3 C2 H2 121.1 . . ?
C1 C2 H2 121.1 . . ?
C2 C3 C4 122.1(2) . . ?
C2 C3 Br1 119.25(17) . . ?
C4 C3 Br1 118.63(19) . . ?
C5 C4 C3 119.0(2) . . ?
C5 C4 H4 120.5 . . ?
C3 C4 H4 120.5 . . ?
C6 C5 C4 120.5(2) . . ?
C6 C5 H5 119.8 . . ?
C4 C5 H5 119.8 . . ?
C5 C6 C1 119.6(2) . . ?
C5 C6 H6 120.2 . . ?
C1 C6 H6 120.2 . . ?
N1 C7 C1 177.8(3) . . ?
loop_
_geom_bond_atom_site_label_1
_geom_bond_atom_site_label_2
_geom_bond_distance
_geom_bond_site_symmetry_2
_geom_bond_publ_flag
Br1 C3 1.897(2) . ?
N1 C7 1.137(3) . ?
C1 C6 1.399(3) . ?
C1 C2 1.402(3) . ?
C1 C7 1.447(4) . ?
C2 C3 1.382(3) . ?
C2 H2 0.9500 . ?
C3 C4 1.392(3) . ?
C4 C5 1.391(4) . ?
C4 H4 0.9500 . ?
C5 C6 1.382(4) . ?
C5 H5 0.9500 . ?
C6 H6 0.9500 . ?
loop_
_geom_torsion_atom_site_label_1
_geom_torsion_atom_site_label_2
_geom_torsion_atom_site_label_3
_geom_torsion_atom_site_label_4
_geom_torsion
_geom_torsion_site_symmetry_1
_geom_torsion_site_symmetry_2
_geom_torsion_site_symmetry_3
_geom_torsion_site_symmetry_4
_geom_torsion_publ_flag
C6 C1 C2 C3 -0.4(4) . . . . ?
C7 C1 C2 C3 179.2(2) . . . . ?
C1 C2 C3 C4 -0.1(4) . . . . ?
C1 C2 C3 Br1 -179.14(18) . . . . ?
C2 C3 C4 C5 0.3(4) . . . . ?
Br1 C3 C4 C5 179.38(19) . . . . ?
C3 C4 C5 C6 -0.1(4) . . . . ?
C4 C5 C6 C1 -0.4(4) . . . . ?
C2 C1 C6 C5 0.6(4) . . . . ?
C7 C1 C6 C5 -179.0(2) . . . . ?
