#------------------------------------------------------------------------------
#$Date: 2020-11-06 15:13:06 +0200 (Fri, 06 Nov 2020) $
#$Revision: 258972 $
#$URL: file:///home/coder/svn-repositories/cod/cif/7/15/76/7157691.cif $
#------------------------------------------------------------------------------
#
# This file is available in the Crystallography Open Database (COD),
# http://www.crystallography.net/
#
# All data on this site have been placed in the public domain by the
# contributors.
#
data_7157691
loop_
_publ_author_name
'Chan, Chieh-Kai'
'Lai, Chien-Yu'
'Wang, Cheng-Chung'
_publ_section_title
;
 TMSOTf-catalyzed synthesis of substituted quinazolines using
 hexamethyldisilazane as a nitrogen source under neat and microwave
 irradiation conditions.
;
_journal_issue                   36
_journal_name_full               'Organic &amp; biomolecular chemistry'
_journal_page_first              7201
_journal_page_last               7212
_journal_paper_doi               10.1039/d0ob01507e
_journal_volume                  18
_journal_year                    2020
_chemical_formula_moiety         'C20 H13 F N2'
_chemical_formula_sum            'C20 H13 F N2'
_chemical_formula_weight         300.32
_space_group_crystal_system      triclinic
_space_group_IT_number           2
_space_group_name_Hall           '-P 1'
_space_group_name_H-M_alt        'P -1'
_atom_sites_solution_hydrogens   geom
_audit_creation_method           SHELXL-2018/3
_audit_update_record
;
2020-05-07 deposited with the CCDC.	2020-08-31 downloaded from the CCDC.
;
_cell_angle_alpha                112.103(4)
_cell_angle_beta                 96.044(4)
_cell_angle_gamma                93.256(4)
_cell_formula_units_Z            2
_cell_length_a                   6.0455(5)
_cell_length_b                   11.0023(10)
_cell_length_c                   11.7294(10)
_cell_measurement_reflns_used    6556
_cell_measurement_temperature    100.0(2)
_cell_measurement_theta_max      27.17
_cell_measurement_theta_min      3.25
_cell_volume                     714.87(11)
_computing_cell_refinement       'SAINT V8.40A (Bruker Nano, Inc., 2019)'
_computing_data_collection       'Bruker Instrument Service v2012.12.0.3'
_computing_data_reduction        'SAINT V8.40A (Bruker Nano, Inc., 2019)'
_computing_molecular_graphics    'shelXle (C.B. Huebschle, rev 958)'
_computing_publication_material  'WinGX publication routines (Farrugia, 2014)'
_computing_structure_refinement  'SHELXL-2018/3 (Sheldrick, 2018)'
_computing_structure_solution    'SHELXT 2014/5 (Sheldrick, 2014)'
_diffrn_ambient_temperature      100.0(2)
_diffrn_measured_fraction_theta_full 0.999
_diffrn_measured_fraction_theta_max 0.999
_diffrn_measurement_device_type  'Bruker APEX-II CCD'
_diffrn_measurement_method       '\f and \w scans'
_diffrn_radiation_type           MoK\a
_diffrn_radiation_wavelength     0.71073
_diffrn_reflns_av_R_equivalents  0.0942
_diffrn_reflns_av_unetI/netI     0.0442
_diffrn_reflns_Laue_measured_fraction_full 0.999
_diffrn_reflns_Laue_measured_fraction_max 0.999
_diffrn_reflns_limit_h_max       7
_diffrn_reflns_limit_h_min       -7
_diffrn_reflns_limit_k_max       14
_diffrn_reflns_limit_k_min       -14
_diffrn_reflns_limit_l_max       15
_diffrn_reflns_limit_l_min       -15
_diffrn_reflns_number            29678
_diffrn_reflns_point_group_measured_fraction_full 0.999
_diffrn_reflns_point_group_measured_fraction_max 0.999
_diffrn_reflns_theta_full        25.242
_diffrn_reflns_theta_max         27.096
_diffrn_reflns_theta_min         2.009
_exptl_absorpt_coefficient_mu    0.092
_exptl_absorpt_correction_T_max  1
_exptl_absorpt_correction_T_min  0.8496
_exptl_absorpt_correction_type   numerical
_exptl_absorpt_process_details   'Bruker SADABS, 1996'
_exptl_crystal_colour            colourless
_exptl_crystal_density_diffrn    1.395
_exptl_crystal_density_meas      ?
_exptl_crystal_density_method    'not measured'
_exptl_crystal_description       prism
_exptl_crystal_F_000             312
_exptl_crystal_size_max          0.248
_exptl_crystal_size_mid          0.208
_exptl_crystal_size_min          0.166
_refine_diff_density_max         0.280
_refine_diff_density_min         -0.240
_refine_diff_density_rms         0.054
_refine_ls_extinction_method     none
_refine_ls_goodness_of_fit_ref   1.052
_refine_ls_hydrogen_treatment    constr
_refine_ls_matrix_type           full
_refine_ls_number_parameters     208
_refine_ls_number_reflns         3149
_refine_ls_number_restraints     0
_refine_ls_restrained_S_all      1.052
_refine_ls_R_factor_all          0.0783
_refine_ls_R_factor_gt           0.0472
_refine_ls_shift/su_max          0.000
_refine_ls_shift/su_mean         0.000
_refine_ls_structure_factor_coef Fsqd
_refine_ls_weighting_details
'w=1/[\s^2^(Fo^2^)+(0.0583P)^2^+0.4044P] where P=(Fo^2^+2Fc^2^)/3'
_refine_ls_weighting_scheme      calc
_refine_ls_wR_factor_gt          0.1189
_refine_ls_wR_factor_ref         0.1408
_reflns_Friedel_coverage         0.000
_reflns_number_gt                2244
_reflns_number_total             3149
_reflns_threshold_expression     'I > 2\s(I)'
_cod_data_source_file            d0ob01507e2.cif
_cod_data_source_block           i17869
_cod_depositor_comments
;
The following automatic conversions were performed:

data item '_exptl_crystal_density_meas' value 'none' was changed to
'?' -- the value is perceived as not measured.

Automatic conversion script
Id: cif_fix_values 7556 2019-12-06 15:28:31Z antanas 

 Adding full bibliography for 7157689--7157694.cif.
;
_cod_database_code               7157691
_shelx_shelxl_version_number     2018/3
_shelx_space_group_comment
;
The symmetry employed for this shelxl refinement is uniquely defined
by the following loop, which should always be used as a source of
symmetry information in preference to the above space-group names.
They are only intended as comments.
;
_shelx_estimated_absorpt_t_min   0.978
_shelx_estimated_absorpt_t_max   0.985
_shelx_res_file
;
TITL i17869_a.res in P-1
    i17869.res
    created by SHELXL-2018/3 at 13:40:53 on 28-Apr-2020
REM Old TITL i17869 in P-1
REM SHELXT solution in P-1
REM R1 0.126,  Rweak 0.002,  Alpha 0.031,  Orientation as input
REM Formula found by SHELXT:  C20 F N2
CELL  0.71073   6.0455  11.0023  11.7294  112.103   96.044   93.256
ZERR    2.000   0.0005   0.0010   0.0010    0.004    0.004    0.004
LATT  1
SFAC C H F N
UNIT 40 26 2 4
ACTA
TEMP -173.150
SIZE 0.166 0.208 0.248
L.S. 10
BOND $H
LIST 6
FMAP 2
PLAN 2
WGHT    0.058300    0.404400
FVAR       0.87396
F1    3    0.242018   -0.008489    0.035615    11.00000    0.03204    0.04073 =
         0.01823    0.00154   -0.00117   -0.00160
N1    4    0.651489    0.333032    0.584707    11.00000    0.01871    0.01961 =
         0.02086    0.00611    0.00002    0.00047
N2    4    0.613125    0.392790    0.799737    11.00000    0.01841    0.02220 =
         0.02091    0.00659    0.00076    0.00131
C1    1    0.718633    0.399785    0.709321    11.00000    0.01865    0.01796 =
         0.01872    0.00633    0.00011    0.00276
C2    1    0.460416    0.255888    0.550225    11.00000    0.01848    0.01542 =
         0.02267    0.00648    0.00013    0.00447
C3    1    0.329823    0.240845    0.639292    11.00000    0.01930    0.01732 =
         0.02249    0.00701    0.00137    0.00204
C4    1    0.126521    0.158483    0.609348    11.00000    0.02194    0.01920 =
         0.02382    0.00561   -0.00055    0.00129
AFIX  43
H4    2    0.066413    0.110357    0.524827    11.00000   -1.20000
AFIX   0
C5    1    0.016277    0.147871    0.701483    11.00000    0.01971    0.01903 =
         0.03041    0.00785    0.00271    0.00030
AFIX  43
H5    2   -0.120363    0.092392    0.680571    11.00000   -1.20000
AFIX   0
C6    1    0.103177    0.218370    0.827192    11.00000    0.02323    0.02425 =
         0.02782    0.01018    0.00722    0.00351
AFIX  43
H6    2    0.025475    0.209306    0.890327    11.00000   -1.20000
AFIX   0
C7    1    0.298829    0.299950    0.859318    11.00000    0.02160    0.02388 =
         0.02107    0.00635    0.00298    0.00358
AFIX  43
H7    2    0.354994    0.348225    0.944395    11.00000   -1.20000
AFIX   0
C8    1    0.416724    0.312198    0.766032    11.00000    0.01714    0.01865 =
         0.02447    0.00707    0.00161    0.00340
C9    1    0.929983    0.488537    0.743691    11.00000    0.01763    0.01836 =
         0.02094    0.00737    0.00037    0.00202
C10   1    1.050742    0.497968    0.651839    11.00000    0.02229    0.02243 =
         0.01959    0.00660    0.00125    0.00196
AFIX  43
H10   2    0.996047    0.448080    0.566853    11.00000   -1.20000
AFIX   0
C11   1    1.249796    0.579414    0.683316    11.00000    0.02224    0.02380 =
         0.02953    0.01199    0.00519    0.00104
AFIX  43
H11   2    1.330215    0.585984    0.620159    11.00000   -1.20000
AFIX   0
C12   1    1.330888    0.651141    0.807198    11.00000    0.01827    0.02021 =
         0.03249    0.00871    0.00061   -0.00142
AFIX  43
H12   2    1.468279    0.706092    0.829140    11.00000   -1.20000
AFIX   0
C13   1    1.211837    0.642866    0.899254    11.00000    0.02255    0.02286 =
         0.02430    0.00385   -0.00259    0.00036
AFIX  43
H13   2    1.267216    0.693006    0.984099    11.00000   -1.20000
AFIX   0
C14   1    1.012513    0.561861    0.868179    11.00000    0.02061    0.02257 =
         0.02182    0.00682    0.00210    0.00227
AFIX  43
H14   2    0.932038    0.556258    0.931668    11.00000   -1.20000
AFIX   0
C15   1    0.395504    0.184317    0.413962    11.00000    0.01982    0.01652 =
         0.02203    0.00696    0.00087   -0.00160
C16   1    0.195538    0.199518    0.352777    11.00000    0.02190    0.02126 =
         0.02388    0.00642    0.00097    0.00068
AFIX  43
H16   2    0.093844    0.254273    0.399134    11.00000   -1.20000
AFIX   0
C17   1    0.142626    0.135682    0.224787    11.00000    0.02139    0.02515 =
         0.02434    0.00834   -0.00214   -0.00136
AFIX  43
H17   2    0.007799    0.147582    0.182584    11.00000   -1.20000
AFIX   0
C18   1    0.291274    0.054716    0.160959    11.00000    0.02670    0.02376 =
         0.01546    0.00243   -0.00073   -0.00569
C19   1    0.489265    0.036181    0.217613    11.00000    0.02350    0.02343 =
         0.02367    0.00430    0.00471    0.00121
AFIX  43
H19   2    0.587822   -0.020891    0.170825    11.00000   -1.20000
AFIX   0
C20   1    0.541771    0.102858    0.344848    11.00000    0.01934    0.02368 =
         0.02349    0.00730    0.00034    0.00002
AFIX  43
H20   2    0.679751    0.092858    0.385606    11.00000   -1.20000
AFIX   0
HKLF 4




REM  i17869_a.res in P-1
REM wR2 = 0.140765, GooF = S = 1.05169, Restrained GooF = 1.05169 for all data
REM R1 = 0.047180 for 2244 Fo > 4sig(Fo) and 0.078266 for all 3149 data
REM 208 parameters refined using 0 restraints

END

WGHT      0.0580      0.4045

REM Highest difference peak  0.280,  deepest hole -0.240,  1-sigma level  0.054
Q1    1   0.6847  0.4611  0.9192  11.00000  0.05    0.28
Q2    1   0.3969  0.2570  0.7029  11.00000  0.05    0.25
;
_shelx_res_checksum              68231
_shelx_hkl_file
;
  -1   0   0   51.29    4.60
  -1   0   0   49.99    4.60
  -1   0   0   52.19    4.60
  -1   0   0   61.19    5.00
  -1   0   0   51.19    4.60
   1   0   0   56.39    4.90
   1   0   0   60.99    4.60
   1   0   0   66.29    5.60
   1   0   0   60.99    4.70
   1   0   0   54.39    4.80
  -2   0   0   30.30    3.50
  -2   0   0   22.10    2.70
  -2   0   0   21.60    2.70
  -2   0   0   27.40    2.80
  -2   0   0   25.90    2.80
   2   0   0   20.60    2.60
   2   0   0   25.90    3.40
   2   0   0   24.40    2.60
  -3   0   0  302.57   22.70
  -3   0   0  320.47   24.00
  -3   0   0  276.47   22.70
  -3   0   0  283.97   22.60
  -3   0   0  274.37   22.40
  -3   0   0  296.87   22.80
   3   0   0  269.67   22.40
  -4   0   0   34.30    4.30
  -4   0   0   46.80    6.90
  -4   0   0   34.60    4.10
  -4   0   0   31.50    4.20
  -4   0   0   35.00    3.80
  -4   0   0   41.20    4.20
   4   0   0   36.80    3.70
   4   0   0   60.99   10.90
   4   0   0   42.70    6.00
   4   0   0   28.00    3.70
   4   0   0   35.30    3.90
   4   0   0   28.50    3.80
  -5   0   0    8.40    2.40
  -5   0   0    7.20    2.70
  -5   0   0    6.40    2.30
  -5   0   0    6.00    2.30
  -5   0   0   11.60    4.00
   5   0   0    7.80    1.80
   5   0   0   10.30    3.90
   5   0   0    9.00    2.10
   5   0   0    5.80    1.90
  -6   0   0    1.00    2.50
  -6   0   0    0.80    2.00
  -6   0   0   -1.50    2.30
  -6   0   0    2.20    2.10
  -6   0   0   -3.50    3.90
   6   0   0   -0.40    4.40
  -7   0   0    4.60    4.20
  -7   0   0    3.20    3.40
  -7   0   0    0.90    2.40
  -7   0   0    1.90    3.00
  -7   0   0   -9.50    5.30
  -7   0   0   -1.60    2.60
   7   0   0   -4.60    4.90
  -7   1   0   15.60    3.50
  -7   1   0   17.80    4.40
  -7   1   0   23.80    4.10
  -7   1   0   21.80    4.50
  -7   1   0    8.80    6.10
  -7   1   0   19.00    4.70
   6  -1   0    7.80    4.70
  -6   1   0   18.10    3.70
  -6   1   0   12.70    4.00
  -6   1   0   12.20    3.00
  -6   1   0   22.60    6.20
  -6   1   0   14.10    3.10
   5  -1   0   22.70    3.40
   5  -1   0   16.60    3.00
   5  -1   0   22.30    7.90
   5  -1   0   25.90    3.30
   5  -1   0   26.30    5.40
  -5   1   0   29.00    4.40
  -5   1   0   29.90    4.00
  -5   1   0   21.50    4.00
  -5   1   0   29.40    4.10
  -5   1   0   25.40    5.50
   4  -1   0    0.70    1.20
   4  -1   0    1.60    4.40
   4  -1   0    0.80    1.10
   4  -1   0    0.50    1.20
   4  -1   0   -0.10    1.20
   4  -1   0    1.70    2.10
  -4   1   0    2.70    1.40
  -4   1   0    1.90    1.40
  -4   1   0    0.60    1.10
  -4   1   0    1.10    2.20
  -4   1   0    4.30    1.60
  -4   1   0    1.50    1.20
   3  -1   0   54.89    6.30
   3  -1   0   69.59    7.10
   3  -1   0   86.19    9.30
   3  -1   0   75.19    6.20
   3  -1   0   74.89    6.30
   3  -1   0   66.99    6.40
  -3   1   0   72.09    6.70
  -3   1   0   70.69    6.60
  -3   1   0   76.99    6.50
  -3   1   0   73.99    6.50
  -3   1   0   75.09    7.60
  -3   1   0   68.09    6.30
   2  -1   0  205.88   15.20
   2  -1   0  190.48   15.50
   2  -1   0  165.88   15.10
   2  -1   0  178.58   15.20
   2  -1   0  195.18   17.00
   2  -1   0  202.18   15.10
  -2   1   0  185.28   15.20
  -2   1   0  203.08   15.20
  -2   1   0  209.78   15.20
  -2   1   0  196.98   15.40
   1  -1   0    9.90    2.60
   1  -1   0   14.50    2.00
   1  -1   0    9.50    1.60
   1  -1   0    9.70    1.50
  -1   1   0   11.80    1.60
  -1   1   0   12.00    1.60
  -1   1   0   13.40    1.70
  -1   1   0   10.50    1.60
  -1   1   0   15.00    1.90
  -1   1   0    8.10    1.40
   0  -1   0  105.09    8.70
   0   1   0  111.99    8.80
  -1  -1   0  741.63   55.39
  -1  -1   0  812.02   55.69
  -1  -1   0  723.33   55.39
  -1  -1   0  713.53   55.29
  -1  -1   0  750.62   55.39
   1   1   0  692.93   55.29
   1   1   0  691.23   55.29
  -2  -1   0  271.87   21.60
  -2  -1   0  255.87   21.50
  -2  -1   0  260.17   21.60
  -2  -1   0  263.07   21.60
  -2  -1   0  306.47   22.40
   2   1   0  283.97   21.60
   2   1   0  263.97   21.50
   2   1   0  261.67   21.40
   2   1   0  307.17   22.20
   2   1   0  267.57   21.50
   2   1   0  305.27   22.20
  -3  -1   0 1656.13  134.69
  -3  -1   0 1686.93  134.69
  -3  -1   0 1899.31  135.89
  -3  -1   0 1670.73  134.59
  -3  -1   0 1628.24  134.59
   3   1   0 1938.21  135.59
   3   1   0 1754.82  134.49
   3   1   0 1810.82  134.49
   3   1   0 1887.91  134.59
   3   1   0 1866.21  135.59
   3   1   0 1844.22  134.49
  -4  -1   0   54.49    6.20
  -4  -1   0   59.39    7.50
  -4  -1   0   56.69    6.10
  -4  -1   0   56.69    6.30
  -4  -1   0   54.29    6.00
   4   1   0   62.39    5.70
   4   1   0   63.89    7.60
   4   1   0   59.69    5.80
  -5  -1   0   12.60    3.40
  -5  -1   0   13.80    3.20
  -5  -1   0    7.80    4.00
  -5  -1   0    9.70    3.00
  -5  -1   0   15.20    2.80
  -5  -1   0   17.70    3.60
   5   1   0   14.30    2.70
   5   1   0    3.00    3.80
   5   1   0   10.40    3.10
   5   1   0   16.90    2.50
  -6  -1   0   69.89   11.70
  -6  -1   0   76.39    8.00
  -6  -1   0   78.29    8.60
  -6  -1   0   73.29    7.70
  -6  -1   0   77.39    8.30
   6   1   0   70.39   11.10
  -7  -1   0   10.40    3.40
  -7  -1   0   14.20    3.80
  -7  -1   0    9.70    4.20
  -7  -1   0    8.30    3.10
  -7  -1   0   13.20    7.20
   7   1   0    5.40    6.10
   7  -2   0   43.90    8.80
  -7   2   0   21.90    4.70
  -7   2   0   20.80    4.50
  -7   2   0   23.90    7.60
  -7   2   0   17.30    4.00
  -7   2   0   29.50    5.40
  -7   2   0   17.40    4.80
   6  -2   0   -3.20    3.80
   6  -2   0   -1.70    1.80
   6  -2   0   -0.70    5.90
  -6   2   0   -0.10    2.00
  -6   2   0    4.30    2.20
  -6   2   0   -0.40    2.00
  -6   2   0    1.50    2.50
  -6   2   0    0.50    4.00
  -6   2   0    1.60    2.40
   5  -2   0   56.29    5.80
   5  -2   0   56.69    6.10
   5  -2   0   57.49    8.10
   5  -2   0   62.69   12.00
   5  -2   0   49.10    6.00
   5  -2   0   49.90    6.10
  -5   2   0   69.79    6.60
  -5   2   0   54.89    6.60
  -5   2   0   56.79    7.00
  -5   2   0   60.89    6.00
  -5   2   0   66.49    5.90
  -5   2   0   53.29    8.40
  -5   2   0   77.19    6.50
   4  -2   0  731.03   58.79
   4  -2   0  636.84   54.39
   4  -2   0  718.73   55.59
   4  -2   0  630.94   54.69
   4  -2   0  659.73   55.59
  -4   2   0  770.12   55.39
  -4   2   0  787.72   54.89
  -4   2   0  744.63   55.29
  -4   2   0  747.03   54.69
  -4   2   0  721.13   54.79
  -4   2   0  717.43   56.39
   3  -2   0    2.50    1.30
   3  -2   0    1.00    4.40
   3  -2   0    1.30    1.20
   3  -2   0    2.90    2.20
   3  -2   0    3.40    1.30
   3  -2   0    3.40    1.70
   3  -2   0   -0.20    1.30
  -3   2   0    4.30    1.40
  -3   2   0    5.70    1.70
  -3   2   0    3.50    1.50
   2  -2   0   26.50    3.30
   2  -2   0   33.00    6.30
   2  -2   0   29.50    3.30
   2  -2   0   30.40    3.40
   2  -2   0   26.30    3.40
  -2   2   0   34.50    3.50
  -2   2   0   36.20    3.40
  -2   2   0   32.70    3.70
  -2   2   0   32.00    3.40
  -2   2   0   29.50    3.50
  -2   2   0   28.50    3.20
   1  -2   0 5954.30  461.95
   1  -2   0 5972.70  460.95
   1  -2   0 6121.19  461.05
  -1   2   0 6571.64  461.15
   0  -2   0   21.20    2.80
   0  -2   0   23.80    2.70
   0  -2   0   23.50    3.20
   0  -2   0   22.30    3.00
   0  -2   0   25.90    2.80
   0  -2   0   21.80    2.90
   0   2   0   27.40    2.90
   0   2   0   24.90    3.20
   0   2   0   21.80    2.70
   0   2   0   21.00    3.00
  -1  -2   0 1223.78   93.49
  -1  -2   0 1234.98   93.59
  -1  -2   0 1248.08   93.49
  -1  -2   0 1287.97   93.59
  -1  -2   0 1230.78   93.49
   1   2   0 1259.27   93.49
   1   2   0 1146.39   93.39
   1   2   0 1168.38   93.39
   1   2   0 1325.77   93.49
  -2  -2   0    5.00    1.90
  -2  -2   0    7.00    2.20
  -2  -2   0    1.90    1.50
   2   2   0    5.40    1.60
   2   2   0    2.50    1.50
   2   2   0    7.30    2.20
   2   2   0    8.70    2.50
   2   2   0    2.80    1.30
  -3  -2   0    1.90    1.50
  -3  -2   0    2.50    2.30
  -3  -2   0    0.80    1.60
  -3  -2   0    2.50    1.60
  -3  -2   0    2.50    1.70
   3   2   0    1.40    1.30
   3   2   0    2.00    1.40
   3   2   0    0.50    1.20
   3   2   0    2.10    1.50
   3   2   0    1.30    2.20
  -4  -2   0  133.89   12.90
  -4  -2   0  139.09   12.80
  -4  -2   0  142.39   12.90
  -4  -2   0  149.99   14.30
  -4  -2   0  136.89   12.90
   4   2   0  144.99   12.60
   4   2   0  142.69   12.50
   4   2   0  172.68   12.70
   4   2   0  155.08   14.10
   4   2   0  147.69   14.40
   4   2   0  149.69   12.60
  -5  -2   0   31.10    5.00
  -5  -2   0   27.50    4.70
  -5  -2   0   26.50    4.60
  -5  -2   0   29.50    5.00
  -5  -2   0   23.80    3.90
  -5  -2   0   26.10    6.10
   5   2   0   24.60    3.80
   5   2   0   39.10    7.30
   5   2   0   30.00    4.40
  -6  -2   0   77.69    9.00
  -6  -2   0   93.69    9.10
  -6  -2   0   80.09    9.00
  -6  -2   0  102.79   12.60
  -6  -2   0   87.09    9.50
  -7  -2   0    1.10    2.80
  -7  -2   0    4.30    3.40
  -7  -2   0   -4.30    5.90
  -7  -2   0   -3.30    2.80
  -7  -2   0    3.20    3.80
   7   2   0   -7.60    5.00
   7  -3   0    9.90    5.60
   7  -3   0   23.50   11.20
  -7   3   0    6.40    3.50
  -7   3   0   12.60    3.30
  -7   3   0    6.50    6.90
  -7   3   0   13.40    4.50
  -7   3   0   10.20    3.30
   6  -3   0   -1.70    2.20
   6  -3   0    0.00    2.40
   6  -3   0    6.80    4.20
   6  -3   0    5.90   11.00
   6  -3   0    0.80    2.60
   6  -3   0   -1.20    3.50
  -6   3   0    5.90    2.60
  -6   3   0    4.50    2.10
  -6   3   0    0.80    3.10
  -6   3   0    3.10    2.60
  -6   3   0   -0.90    2.90
   5  -3   0   66.39    7.70
   5  -3   0   60.29    7.60
   5  -3   0   72.69   13.70
   5  -3   0   92.09    9.30
   5  -3   0   59.79    7.50
   5  -3   0   73.69    7.40
  -5   3   0   86.49    7.60
  -5   3   0   75.29    6.90
  -5   3   0   92.29    8.00
  -5   3   0   76.99   10.00
  -5   3   0   81.69    8.50
  -5   3   0   85.49    8.70
   4  -3   0   56.59    6.70
   4  -3   0   56.39    6.70
   4  -3   0   58.39    6.70
   4  -3   0   62.99    6.80
   4  -3   0   77.19   10.80
   4  -3   0   70.69    7.50
  -4   3   0   61.79    5.70
  -4   3   0   77.09    6.80
  -4   3   0   76.09    6.90
  -4   3   0   75.59    6.80
   3  -3   0    7.50    2.20
   3  -3   0    7.70    2.10
   3  -3   0    2.70    4.00
   3  -3   0    6.40    1.90
   3  -3   0    6.10    2.10
   3  -3   0    6.90    2.00
  -3   3   0    8.20    2.10
  -3   3   0   11.70    2.70
  -3   3   0   10.90    2.60
  -3   3   0    5.80    1.80
  -3   3   0    7.20    1.00
  -3   3   0    7.20    2.00
   2  -3   0  281.27   23.00
   2  -3   0  290.47   23.00
   2  -3   0  262.87   24.90
   2  -3   0  283.17   23.20
   2  -3   0  262.17   23.10
  -2   3   0  319.17   23.60
  -2   3   0  309.07   23.10
  -2   3   0  261.27   22.40
  -2   3   0  334.07   23.40
  -2   3   0  290.07   23.00
  -2   3   0  311.67   23.30
   1  -3   0 8605.34  671.83
   1  -3   0 8449.25  672.03
   1  -3   0 9496.65  671.93
   1  -3   0 8170.88  672.83
   1  -3   0 8923.21  672.03
  -1   3   0 9154.28  672.13
  -1   3   0 9999.00  672.13
   0  -3   0   31.60    3.60
   0  -3   0   28.20    3.80
   0  -3   0   24.90    3.40
   0  -3   0   25.30    3.70
   0  -3   0   25.00    3.90
   0  -3   0   24.80    3.60
   0   3   0   32.00    3.70
   0   3   0   23.40    3.30
   0   3   0   34.00    4.70
   0   3   0   26.70    3.70
   0   3   0   28.30    3.90
   0   3   0   25.70    3.40
  -1  -3   0  227.68   16.90
  -1  -3   0  190.68   16.80
  -1  -3   0  204.28   16.90
  -1  -3   0  195.68   17.00
  -1  -3   0  212.58   16.90
  -1  -3   0  200.98   16.80
   1   3   0  214.68   16.90
   1   3   0  194.38   16.90
   1   3   0  215.28   17.10
   1   3   0  215.78   17.00
   1   3   0  196.78   17.00
  -2  -3   0 2144.09  169.88
  -2  -3   0 2276.87  169.68
  -2  -3   0 2267.97  169.78
  -2  -3   0 2378.56  170.28
  -2  -3   0 2092.89  169.68
  -2  -3   0 2563.44  169.58
   2   3   0 2054.69  169.68
   2   3   0 2424.86  169.68
   2   3   0 2239.48  169.88
   2   3   0 2039.40  169.58
  -3  -3   0  106.29   10.70
  -3  -3   0  104.79   10.70
  -3  -3   0  130.89   11.60
  -3  -3   0  123.69   10.80
  -3  -3   0  109.39   10.80
  -3  -3   0  130.59   10.50
   3   3   0  126.09   11.70
   3   3   0  105.69   10.40
   3   3   0  105.09   10.50
   3   3   0  117.89   11.20
   3   3   0  136.99   10.90
  -4  -3   0   32.20    5.20
  -4  -3   0   33.50    5.30
  -4  -3   0   32.60    5.90
  -4  -3   0   26.80    4.90
  -4  -3   0   30.20    4.10
  -4  -3   0   25.40    4.90
   4   3   0   32.90    5.10
   4   3   0   25.30    4.40
   4   3   0   34.00    6.20
   4   3   0   33.00    5.00
  -5  -3   0    5.50    3.90
  -5  -3   0    5.60    3.40
  -5  -3   0    7.10    3.00
  -5  -3   0    6.40    2.30
  -5  -3   0    5.50    2.90
  -5  -3   0    9.90    3.60
   5   3   0   10.10    3.10
   5   3   0    8.80    2.90
   5   3   0   -1.70    3.70
   5   3   0    6.60    2.60
   5   3   0    6.00    2.70
   5   3   0    5.20    4.80
  -6  -3   0   -1.60    2.70
  -6  -3   0    9.30    3.20
  -6  -3   0    0.00    2.70
  -6  -3   0   -2.70    1.90
  -6  -3   0   -2.40    2.90
  -6  -3   0   -1.10    4.80
   6   3   0   -2.60    4.40
  -7  -3   0    4.70    4.30
  -7  -3   0    1.90    4.30
  -7  -3   0    4.70    6.90
  -7  -3   0    2.30    4.40
  -7  -3   0    8.30    4.00
   7   3   0    7.10    7.10
   7  -4   0   56.29   13.90
  -7   4   0   44.20    4.60
  -7   4   0   44.10    6.50
  -7   4   0   48.10    5.20
  -7   4   0   41.80    7.10
  -7   4   0   30.20    9.10
  -7   4   0   46.10    7.00
  -7   4   0   41.00    6.70
   6  -4   0   74.19    8.50
   6  -4   0   68.59    8.50
   6  -4   0   65.29   15.50
   6  -4   0   69.09    8.90
  -6   4   0   70.79    6.50
  -6   4   0   79.99    9.20
  -6   4   0   93.69    8.90
  -6   4   0   79.29   11.20
  -6   4   0   80.79    9.50
  -6   4   0   69.89    8.50
  -6   4   0   83.89    6.80
  -6   4   0   84.89   11.10
   5  -4   0    8.80    3.20
   5  -4   0    7.50    6.80
   5  -4   0    6.50    3.00
   5  -4   0    1.20    2.50
   5  -4   0    8.10    2.80
  -5   4   0    8.30    2.80
  -5   4   0    6.30    2.60
  -5   4   0    5.10    2.30
   4  -4   0  132.99   13.40
   4  -4   0  128.59   13.40
   4  -4   0  134.49   16.80
   4  -4   0  139.39   13.20
  -4   4   0  150.08   13.50
  -4   4   0  179.58   13.70
  -4   4   0  175.38   13.50
  -4   4   0  171.48   13.60
   3  -4   0  122.29   11.80
   3  -4   0  130.69   11.80
   3  -4   0  130.19   12.10
   3  -4   0  117.89   14.30
   3  -4   0  116.79   11.90
  -3   4   0  129.29   11.00
  -3   4   0  147.19   12.00
  -3   4   0  141.79   12.10
  -3   4   0  150.08   12.40
  -3   4   0  148.59   12.20
  -3   4   0  144.99   12.00
   2  -4   0   19.70    3.70
   2  -4   0   18.30    3.30
   2  -4   0   19.70    3.60
   2  -4   0   18.40    3.40
   2  -4   0   23.40    3.60
   2  -4   0   13.60    5.10
  -2   4   0   18.00    2.40
  -2   4   0   23.00    3.70
  -2   4   0   22.50    3.50
  -2   4   0   20.90    3.80
   1  -4   0    1.90    1.70
   1  -4   0    3.30    2.00
   1  -4   0    2.30    2.70
   1  -4   0    0.80    1.50
   1  -4   0    0.80    1.60
   1  -4   0    0.60    1.70
  -1   4   0    2.80    1.70
  -1   4   0    1.90    1.80
  -1   4   0   -0.40    1.70
  -1   4   0    1.00    1.50
  -1   4   0    3.00    1.50
   0  -4   0    8.30    2.20
   0  -4   0    8.40    2.60
   0  -4   0    9.80    3.70
   0  -4   0    8.30    2.40
   0  -4   0    7.70    2.10
   0  -4   0    6.50    2.60
   0   4   0    4.50    2.20
   0   4   0    9.50    2.70
   0   4   0    8.40    2.70
   0   4   0   10.20    2.40
   0   4   0    8.50    2.40
   0   4   0    9.10    3.00
  -1  -4   0   93.89    9.10
  -1  -4   0  101.79    9.30
  -1  -4   0  100.79    9.10
  -1  -4   0  106.99    9.90
  -1  -4   0   99.89    9.30
  -1  -4   0  111.59    9.30
  -1  -4   0   91.29    9.40
   1   4   0   94.89    9.10
   1   4   0   90.89    9.30
   1   4   0   92.19    9.20
   1   4   0   88.49    9.30
   1   4   0   96.19    9.30
  -2  -4   0  295.17   21.60
  -2  -4   0  266.67   21.80
  -2  -4   0  262.57   21.70
  -2  -4   0  276.27   21.60
  -2  -4   0  255.97   21.80
  -2  -4   0  241.18   21.60
   2   4   0  286.57   21.70
   2   4   0  233.48   21.50
   2   4   0  264.37   21.80
   2   4   0  244.08   21.60
   2   4   0  242.38   22.40
  -3  -4   0   29.60    4.00
  -3  -4   0   26.90    4.70
  -3  -4   0   16.90    4.10
  -3  -4   0   26.40    4.90
  -3  -4   0   25.40    4.90
  -3  -4   0   25.40    4.70
   3   4   0   25.90    4.80
   3   4   0   19.70    4.40
   3   4   0   16.80    5.10
   3   4   0   21.30    4.80
  -4  -4   0   17.80    4.50
  -4  -4   0   14.20    3.60
  -4  -4   0   17.10    4.90
  -4  -4   0   13.60    3.90
  -4  -4   0   12.80    3.10
  -4  -4   0    5.30    3.30
   4   4   0   11.70    4.60
   4   4   0    9.40    3.20
   4   4   0   16.70    4.10
   4   4   0   15.90    4.20
   4   4   0   17.40    3.80
   4   4   0   10.70    3.10
  -5  -4   0  197.58   18.30
  -5  -4   0  216.18   20.30
  -5  -4   0  198.08   18.20
  -5  -4   0  193.48   18.00
  -5  -4   0  205.48   17.60
   5   4   0  216.08   19.70
   5   4   0  194.28   17.80
   5   4   0  213.48   17.50
   5   4   0  211.48   18.00
   5   4   0  198.48   17.80
   5   4   0  214.28   20.50
  -6  -4   0    2.10    3.50
  -6  -4   0    1.10    3.70
  -6  -4   0   -5.30    3.00
  -6  -4   0   -1.80    3.50
  -6  -4   0   13.60    5.00
  -6  -4   0   -5.90    2.50
   6   4   0   -3.40    4.80
   6   4   0    1.00    3.70
   6   4   0   -3.20    2.90
  -7  -4   0   15.40    7.70
  -7  -4   0   14.70    5.30
  -7  -4   0   12.90    5.10
   7   4   0    8.70    7.70
   7  -5   0   20.30    5.00
   7  -5   0   19.20    9.10
   7  -5   0   15.60    5.50
  -7   5   0   18.00    5.50
  -7   5   0   15.90    5.10
  -7   5   0   24.00    5.90
   6  -5   0   14.50    6.70
   6  -5   0   17.10    4.90
   6  -5   0   14.90    8.40
   6  -5   0   16.30    4.50
  -6   5   0   15.60    4.10
  -6   5   0   17.90    4.50
  -6   5   0   14.30    4.60
  -6   5   0   21.40    6.80
  -6   5   0   18.60    4.20
  -6   5   0   20.50    5.00
   5  -5   0    3.50    3.30
   5  -5   0    7.60    3.40
   5  -5   0    4.10    3.20
   5  -5   0   19.60    8.50
   5  -5   0   11.50    3.90
   5  -5   0    8.00    3.30
  -5   5   0    8.90    3.10
  -5   5   0    9.30    3.20
  -5   5   0    8.90    3.00
   4  -5   0   47.50    6.60
   4  -5   0   41.50    6.30
   4  -5   0   55.89    6.80
   4  -5   0   47.30   10.50
   4  -5   0   57.69    6.90
  -4   5   0   54.59    7.00
  -4   5   0   60.29    6.80
  -4   5   0   56.99    6.70
  -4   5   0   68.49    7.00
  -4   5   0   58.59    7.50
   3  -5   0   47.40   10.30
   3  -5   0   36.30    7.00
   3  -5   0   35.80    5.20
   3  -5   0   38.50    5.40
  -3   5   0   31.30    4.00
  -3   5   0   39.70    5.20
  -3   5   0   46.10    6.00
  -3   5   0   44.40    6.00
  -3   5   0   44.60    5.50
   2  -5   0 1559.94  111.99
   2  -5   0 1420.46  112.19
   2  -5   0 1648.04  112.09
   2  -5   0 1363.66  114.09
   2  -5   0 1323.57  111.79
   2  -5   0 1350.06  110.19
   2  -5   0 1300.87  112.09
  -2   5   0 1660.83  112.39
  -2   5   0 1576.64  112.59
  -2   5   0 1559.24  112.19
  -2   5   0 1416.36  111.89
   1  -5   0   64.49    8.00
   1  -5   0   74.09    8.00
   1  -5   0   75.79    7.90
   1  -5   0   81.29    8.00
   1  -5   0   79.19    9.30
   1  -5   0   90.19    8.20
  -1   5   0   61.59    7.70
  -1   5   0   89.19    8.50
  -1   5   0   85.09    8.60
  -1   5   0   82.09    8.10
  -1   5   0   78.99    8.00
   0  -5   0  127.19   11.70
   0  -5   0  113.79   11.30
   0  -5   0  131.89   11.40
   0  -5   0  101.39   11.60
   0  -5   0  135.09   12.20
   0  -5   0  130.09   11.40
   0   5   0  111.89   11.60
   0   5   0  127.59   11.50
   0   5   0  150.08   11.60
   0   5   0  118.99   11.40
   0   5   0  108.59   11.10
   0   5   0  122.49   11.50
  -1  -5   0  111.29   10.00
  -1  -5   0   99.59   10.10
  -1  -5   0   91.09    9.80
  -1  -5   0   81.69    9.80
  -1  -5   0  108.99    9.90
  -1  -5   0  121.69   10.10
  -1  -5   0  108.19   10.20
   1   5   0   98.19   10.00
   1   5   0  100.49   10.30
   1   5   0  107.09   10.10
   1   5   0   99.49    9.80
   1   5   0   97.79    9.90
  -2  -5   0    1.10    1.80
  -2  -5   0    2.50    1.90
  -2  -5   0    1.20    2.00
  -2  -5   0   -0.90    1.40
  -2  -5   0   -1.10    2.00
   2   5   0   -2.90    1.40
   2   5   0   -1.30    1.90
   2   5   0   -3.00    1.80
   2   5   0    0.70    1.80
   2   5   0   -0.60    2.00
  -3  -5   0    2.60    2.70
  -3  -5   0    0.10    2.00
  -3  -5   0    1.70    2.40
  -3  -5   0    0.60    2.60
  -3  -5   0   -2.40    2.20
  -3  -5   0    2.90    2.50
   3   5   0    0.50    2.30
   3   5   0    0.30    2.60
   3   5   0    2.80    2.50
   3   5   0   -1.40    2.80
   3   5   0   -1.00    2.30
   3   5   0   -1.10    2.30
  -4  -5   0    2.40    2.60
  -4  -5   0   -0.60    3.10
  -4  -5   0    1.70    3.60
  -4  -5   0   -1.00    2.80
  -4  -5   0   -5.10    2.80
  -4  -5   0    2.20    3.20
   4   5   0    0.70    3.00
   4   5   0   -0.30    2.70
   4   5   0   -0.30    2.90
   4   5   0   -0.40    2.60
   4   5   0   -3.70    3.30
  -5  -5   0   68.49   16.00
  -5  -5   0   54.39    8.70
  -5  -5   0   64.89    9.20
  -5  -5   0   65.99    8.90
  -5  -5   0   62.39    7.80
  -5  -5   0   64.39    8.40
   5   5   0   51.49    8.40
   5   5   0   73.89    8.70
   5   5   0   64.59    8.80
   5   5   0   64.09   10.00
   5   5   0   83.19   10.80
  -6  -5   0    2.00    4.80
  -6  -5   0   -4.90    3.60
  -6  -5   0   -1.80    3.20
  -6  -5   0   -4.20    4.90
  -6  -5   0    0.20    4.00
   6   5   0    4.80    4.70
   6   5   0   -3.60    5.00
   6   5   0    6.90    6.50
   6   5   0   -4.10    3.40
   7  -6   0   20.30    7.80
   7  -6   0    7.60    8.80
  -7   6   0    1.80    6.30
  -7   6   0   15.00    5.80
  -7   6   0    9.10    5.00
  -7   6   0    7.30    5.50
   6  -6   0    2.90    4.10
   6  -6   0    2.80    4.20
   6  -6   0    5.00    6.50
   6  -6   0    3.70    4.60
  -6   6   0    1.60    3.40
  -6   6   0   -1.20    3.90
  -6   6   0    6.50    4.00
  -6   6   0    1.30    3.80
   5  -6   0   42.30    7.30
   5  -6   0   28.40    5.80
   5  -6   0   39.50    7.70
   5  -6   0   26.20    6.40
   5  -6   0   24.30    5.90
  -5   6   0   60.29    9.80
  -5   6   0   57.39    6.80
  -5   6   0   45.70    6.80
  -5   6   0   49.99    7.20
   4  -6   0   29.50    5.90
   4  -6   0   34.80    7.10
   4  -6   0   43.30   10.30
   4  -6   0   31.50    5.30
   4  -6   0   29.80    5.60
  -4   6   0   47.60    6.30
  -4   6   0   39.30    6.20
  -4   6   0   35.40    6.60
  -4   6   0   47.50    6.30
  -4   6   0   39.00    6.70
   3  -6   0   46.40    6.40
   3  -6   0   42.20    6.10
   3  -6   0   38.10    5.70
   3  -6   0   48.80    6.20
   3  -6   0   46.90    6.00
   3  -6   0   25.90    8.70
  -3   6   0   43.30    6.20
  -3   6   0   49.70    6.30
  -3   6   0   37.80    4.10
  -3   6   0   54.39    6.60
  -3   6   0   61.49    7.20
  -3   6   0   26.00    5.20
   2  -6   0    5.40    4.80
   2  -6   0    6.40    2.60
   2  -6   0    4.80    2.40
   2  -6   0   10.70    3.10
   2  -6   0    2.00    2.40
   2  -6   0    5.60    3.00
   2  -6   0    3.00    1.10
  -2   6   0    7.00    2.90
  -2   6   0    0.40    2.70
  -2   6   0    5.10    2.40
  -2   6   0    3.90    2.40
  -2   6   0    7.00    2.80
   1  -6   0   23.50    4.80
   1  -6   0   29.60    6.70
   1  -6   0   24.50    4.60
   1  -6   0   35.70    5.60
   1  -6   0   32.20    5.50
  -1   6   0   32.50    5.40
  -1   6   0   28.20    5.30
  -1   6   0   29.20    5.90
  -1   6   0   22.50    4.40
  -1   6   0   25.50    5.00
   0  -6   0  210.58   17.90
   0  -6   0  181.48   17.60
   0  -6   0  229.68   17.90
   0  -6   0  189.88   17.90
   0  -6   0  186.18   17.50
   0  -6   0  199.68   18.20
   0   6   0  210.48   17.90
   0   6   0  227.38   18.80
   0   6   0  194.08   17.60
   0   6   0  181.68   17.60
   0   6   0  223.48   17.90
   0   6   0  190.98   17.60
  -1  -6   0  211.38   21.10
  -1  -6   0  226.98   21.10
  -1  -6   0  262.17   21.40
  -1  -6   0  257.17   21.00
  -1  -6   0  249.78   21.10
  -1  -6   0  263.67   21.20
   1   6   0  238.08   21.00
   1   6   0  217.78   20.80
   1   6   0  243.98   21.30
   1   6   0  266.47   21.80
   1   6   0  259.97   21.30
  -2  -6   0   21.60    4.90
  -2  -6   0   34.60    6.50
  -2  -6   0   13.90    4.20
  -2  -6   0   18.20    5.00
  -2  -6   0   24.50    5.10
  -2  -6   0   18.50    4.80
  -2  -6   0   15.60    3.80
   2   6   0   17.10    4.30
   2   6   0   19.80    4.80
   2   6   0   12.90    4.40
   2   6   0   27.00    5.80
   2   6   0   18.90    4.70
  -3  -6   0    5.60    3.10
  -3  -6   0   -3.70    2.80
  -3  -6   0    3.90    3.10
  -3  -6   0    4.70    3.10
  -3  -6   0    2.90    3.20
   3   6   0   10.80    5.60
   3   6   0    1.00    2.90
   3   6   0    2.80    3.50
   3   6   0    4.20    2.90
   3   6   0    2.80    2.80
  -4  -6   0   28.30    5.40
  -4  -6   0   19.60    5.70
  -4  -6   0   22.70    5.10
  -4  -6   0   29.60    5.80
  -4  -6   0   16.60    5.70
  -4  -6   0   25.70    5.60
   4   6   0   22.60    6.60
   4   6   0   17.10    6.20
   4   6   0   34.20    6.90
   4   6   0   23.50    5.80
   4   6   0   22.10    5.60
  -5  -6   0   -0.30    3.40
  -5  -6   0    7.50    4.80
  -5  -6   0    4.00    3.60
  -5  -6   0   -3.30    4.50
  -5  -6   0    0.70    3.60
  -5  -6   0   17.90    5.40
   5   6   0   -2.70    4.10
   5   6   0   10.20    4.90
   5   6   0    1.60    5.30
   5   6   0    1.10    5.00
   5   6   0   12.80    4.70
  -6  -6   0   -3.50    5.60
  -6  -6   0    1.70    6.00
  -6  -6   0   -3.40    4.30
  -6  -6   0   -7.20    3.90
   6   6   0    8.00    7.90
   6   6   0    4.50    5.60
   6   6   0   -0.90    5.00
   6   6   0    1.80    8.70
   6  -7   0    3.90    5.10
   6  -7   0    2.70    7.20
   6  -7   0    2.40    5.30
  -6   7   0   -4.30    3.80
  -6   7   0   -4.20    4.30
  -6   7   0   -1.90    4.70
   5  -7   0   33.10    6.50
   5  -7   0   29.20   10.30
   5  -7   0   35.80    7.10
   5  -7   0   25.20    6.90
   5  -7   0   30.70    6.60
   5  -7   0   21.10    8.20
  -5   7   0   49.70    7.90
  -5   7   0   26.60    6.80
  -5   7   0   41.80    7.20
  -5   7   0   40.50    7.10
   4  -7   0    0.70    3.40
   4  -7   0    0.30    4.10
   4  -7   0    8.10    6.50
   4  -7   0    0.40    3.00
   4  -7   0   -2.40    2.80
   4  -7   0   -4.20    3.10
  -4   7   0    4.60    3.10
  -4   7   0    3.70    3.80
  -4   7   0   -5.30    3.20
  -4   7   0    6.40    3.50
  -4   7   0    8.20    3.30
   3  -7   0    3.60    3.30
   3  -7   0   -2.00    2.70
   3  -7   0    3.00    2.80
   3  -7   0   -1.10    2.90
   3  -7   0    0.10    2.20
   3  -7   0   -0.70    4.80
  -3   7   0    3.20    2.60
  -3   7   0   -0.20    2.50
  -3   7   0   -6.20    2.90
  -3   7   0   -2.40    1.30
  -3   7   0   -0.80    3.20
   2  -7   0   41.20    6.30
   2  -7   0   29.40    6.30
   2  -7   0   38.30    8.60
   2  -7   0   33.30    6.30
   2  -7   0   28.60    5.60
   2  -7   0   31.10    3.40
  -2   7   0   38.30    6.50
  -2   7   0   44.20    6.20
  -2   7   0   28.40    5.70
  -2   7   0   36.20    6.90
  -2   7   0   27.60    5.40
   1  -7   0   86.49   11.90
   1  -7   0   82.59   10.80
   1  -7   0  106.79   10.70
   1  -7   0   89.99   10.60
   1  -7   0  110.99   11.00
   1  -7   0   94.39   10.30
  -1   7   0  121.29   11.00
  -1   7   0   86.49   10.40
  -1   7   0   94.29   10.80
  -1   7   0   94.09   10.50
  -1   7   0  118.49   11.20
   0  -7   0    0.50    2.50
   0  -7   0   -0.90    2.50
   0  -7   0    6.00    4.30
   0  -7   0    2.90    3.00
   0  -7   0    2.10    3.00
   0  -7   0    1.90    2.30
   0   7   0    0.20    2.60
   0   7   0    1.60    2.50
   0   7   0    1.10    2.40
   0   7   0    0.00    2.50
   0   7   0    6.20    3.70
   0   7   0   -0.80    2.40
  -1  -7   0   35.20    6.30
  -1  -7   0   36.50    7.50
  -1  -7   0   20.80    5.10
  -1  -7   0   15.80    4.70
  -1  -7   0   20.50    5.20
  -1  -7   0   16.30    3.80
   1   7   0   21.70    5.00
   1   7   0   27.70    5.70
   1   7   0   18.90    5.10
   1   7   0   21.60    4.40
  -2  -7   0   31.00    6.40
  -2  -7   0   31.60    5.70
  -2  -7   0   51.09    7.60
  -2  -7   0   37.00    8.00
  -2  -7   0   39.90    6.80
  -2  -7   0   29.70    6.70
  -2  -7   0   23.70    5.00
   2   7   0   34.40    6.30
   2   7   0   26.70    8.90
   2   7   0   30.70    6.20
   2   7   0   32.70    6.60
   2   7   0   31.30    6.50
  -3  -7   0   11.30    7.10
  -3  -7   0    3.60    4.30
  -3  -7   0    7.90    3.40
  -3  -7   0   22.70    7.30
  -3  -7   0    9.20    5.70
  -3  -7   0    9.70    4.50
   3   7   0   21.60    6.10
   3   7   0   15.00    4.90
   3   7   0    8.40    4.90
   3   7   0   16.20    5.00
   3   7   0   15.60    4.80
   3   7   0   13.90    4.70
  -4  -7   0  143.79   15.80
  -4  -7   0  145.29   14.50
  -4  -7   0  154.58   15.40
  -4  -7   0  154.18   14.80
  -4  -7   0  128.19   14.20
  -4  -7   0  125.39   15.10
   4   7   0  147.09   15.70
   4   7   0  150.88   14.70
   4   7   0  106.99   14.60
   4   7   0  166.08   17.10
   4   7   0  150.88   15.30
   4   7   0  123.09   18.40
  -5  -7   0    2.00    4.40
  -5  -7   0    9.90    5.90
  -5  -7   0    2.10    4.40
  -5  -7   0    4.20    4.80
  -5  -7   0   10.80    6.20
  -5  -7   0    0.50    4.20
   5   7   0   -1.30    4.50
   5   7   0    3.80    6.00
   5   7   0   -6.20    6.20
   5   7   0    5.10    4.90
  -6  -7   0    5.40    7.00
  -6  -7   0   20.00    7.70
  -6  -7   0    3.00    7.10
  -6  -7   0   -0.20    5.20
  -6  -7   0   -1.20    4.80
  -6  -7   0    1.10    5.00
   6   7   0    7.50    6.90
   6   7   0   -9.80    5.70
   6  -8   0    8.50    6.00
   6  -8   0    9.40    6.50
   6  -8   0    3.10    5.90
   6  -8   0   16.40    9.00
  -6   8   0   -2.10    5.70
  -6   8   0   -7.40    9.90
  -6   8   0   -3.20    4.50
   5  -8   0   30.90    6.80
   5  -8   0   27.60    6.30
   5  -8   0   29.20    7.20
   5  -8   0   30.70   12.30
   5  -8   0   23.70    7.40
  -5   8   0   25.60    6.50
  -5   8   0   35.90    7.40
  -5   8   0   32.20    7.40
  -5   8   0   31.10    6.60
  -5   8   0   38.40    7.90
   4  -8   0   -6.20    6.20
   4  -8   0    5.10    7.30
   4  -8   0    1.40    3.80
   4  -8   0    1.50    3.20
   4  -8   0    4.80    4.50
  -4   8   0   -1.70    3.10
  -4   8   0    0.90    3.90
  -4   8   0    0.60    3.70
  -4   8   0    5.80    4.10
  -4   8   0    4.30    4.40
   3  -8   0    2.90    4.00
   3  -8   0    5.20    4.50
   3  -8   0    8.90    4.20
   3  -8   0    5.60    3.90
   3  -8   0    2.50    5.50
  -3   8   0   -0.20    4.80
  -3   8   0    6.80    3.80
  -3   8   0    3.00    3.50
  -3   8   0    6.70    4.70
   2  -8   0    8.20    3.40
   2  -8   0    4.60    4.00
   2  -8   0    6.80    3.80
   2  -8   0    0.40    4.00
   2  -8   0    2.10    1.60
   2  -8   0    4.40    3.30
   2  -8   0    9.50    6.80
  -2   8   0    4.30    3.70
  -2   8   0    5.70    3.90
  -2   8   0    3.00    4.10
  -2   8   0   -0.30    2.80
  -2   8   0    2.10    3.30
   1  -8   0   43.70    8.00
   1  -8   0   47.20   12.30
   1  -8   0   43.70    6.60
   1  -8   0   55.79    7.50
   1  -8   0   46.90   10.20
   1  -8   0   37.30    6.90
  -1   8   0   35.00    6.60
  -1   8   0   46.30    8.10
  -1   8   0   39.50    7.20
  -1   8   0   41.70    7.80
  -1   8   0   46.30    7.50
  -1   8   0   48.00    6.90
   0  -8   0    9.50    4.60
   0  -8   0   17.60    5.20
   0  -8   0   15.50    4.40
   0  -8   0   16.60    4.90
   0  -8   0   19.60    4.80
   0   8   0   13.00    4.80
   0   8   0   18.20    4.40
   0   8   0   22.70    5.70
   0   8   0   14.50    4.30
   0   8   0    9.90    4.60
  -1  -8   0    0.70    5.60
  -1  -8   0    2.90    4.70
  -1  -8   0    0.30    3.30
  -1  -8   0    5.30    3.40
  -1  -8   0    1.00    3.50
   1   8   0    7.70    8.40
   1   8   0    3.80    3.50
   1   8   0    5.00    4.00
   1   8   0    8.00    3.40
   1   8   0    0.10    3.50
  -2  -8   0    7.10    3.90
  -2  -8   0   10.40    5.80
  -2  -8   0    7.50    5.30
  -2  -8   0   10.20    3.90
  -2  -8   0   13.40    5.20
  -2  -8   0   13.10    6.20
  -2  -8   0   17.60    5.60
   2   8   0   15.00    5.20
   2   8   0   10.00    4.60
   2   8   0    9.50    4.40
   2   8   0   21.10    6.00
   2   8   0    8.30    4.50
   2   8   0   11.90    5.80
  -3  -8   0   64.69   11.00
  -3  -8   0   70.89   10.20
  -3  -8   0   87.59   10.80
  -3  -8   0  104.89   12.70
  -3  -8   0   63.09    9.50
  -3  -8   0   83.89   11.40
  -3  -8   0   82.19   10.40
   3   8   0   72.79   12.30
   3   8   0   91.79   11.60
   3   8   0   75.59   11.40
   3   8   0   64.79   10.90
   3   8   0  101.69   11.20
  -4  -8   0    0.60    5.40
  -4  -8   0   -3.10    4.10
  -4  -8   0   -4.70    3.90
  -4  -8   0   -5.40    4.00
  -4  -8   0  -16.50    8.40
  -4  -8   0    5.30    5.70
  -4  -8   0   -1.80    4.00
   4   8   0   -1.40    6.50
   4   8   0   -2.50    4.60
   4   8   0   -4.60    5.10
   4   8   0   11.20    5.20
  -5  -8   0   -1.10    4.80
  -5  -8   0   -1.90    6.90
  -5  -8   0   -1.90    5.30
   5   8   0  -19.00    8.20
   5   8   0    6.80    6.90
   5   8   0    3.10    7.50
   5   8   0    6.30    7.70
   6  -9   0   10.90    8.60
   6  -9   0   15.40    8.50
   6  -9   0    9.10    9.10
  -6   9   0    8.10    6.30
  -6   9   0   -2.70    6.60
  -6   9   0    9.00    6.70
  -6   9   0   15.50    7.40
   5  -9   0   18.00    6.30
   5  -9   0   17.10    9.00
   5  -9   0    5.80    5.80
  -5   9   0    4.80    5.80
  -5   9   0    5.40    6.60
  -5   9   0    8.00    5.10
  -5   9   0   12.00    6.00
   4  -9   0    2.70    5.20
   4  -9   0   -0.70    5.60
   4  -9   0    0.90    4.80
   4  -9   0    0.20    6.70
   4  -9   0    3.80    5.00
   4  -9   0    4.80    4.90
  -4   9   0   -8.90    4.90
  -4   9   0    1.00    4.60
  -4   9   0   -7.30    4.30
  -4   9   0    8.60    5.40
  -4   9   0    0.70    4.00
   3  -9   0    8.40    7.20
   3  -9   0    9.90    4.30
   3  -9   0   14.70    5.50
   3  -9   0   13.20    5.20
   3  -9   0   17.50    5.30
   3  -9   0   16.20    5.00
  -3   9   0   10.70    5.00
  -3   9   0    9.80    4.70
  -3   9   0   14.50    6.10
  -3   9   0   21.80    5.80
  -3   9   0   14.30    5.10
   2  -9   0    8.30    4.50
   2  -9   0    2.10    4.50
   2  -9   0   12.90    5.10
   2  -9   0    6.80    4.80
   2  -9   0    1.30    6.10
   2  -9   0   -1.40    4.20
   2  -9   0    5.10    2.00
  -2   9   0    4.70    4.70
  -2   9   0    7.90    5.20
  -2   9   0    0.90    4.10
  -2   9   0    2.20    5.60
  -2   9   0    3.40    5.20
   1  -9   0    5.60    3.70
   1  -9   0   16.60    5.40
   1  -9   0    2.60    4.50
   1  -9   0    6.80    4.20
   1  -9   0    4.40    6.60
   1  -9   0    9.30    4.30
  -1   9   0   12.30    4.80
  -1   9   0   17.40    5.70
  -1   9   0   15.10    5.10
  -1   9   0    9.20    4.60
  -1   9   0    8.00    5.30
   0  -9   0    4.70    4.90
   0  -9   0   -1.20    4.40
   0  -9   0   -6.20    5.90
   0  -9   0    4.10    3.10
   0  -9   0    3.10    4.00
   0  -9   0    8.00    3.80
   0   9   0   -3.80    3.60
   0   9   0   -4.10    5.10
   0   9   0    5.40    4.20
   0   9   0    0.70    3.80
   0   9   0    0.40    4.00
  -1  -9   0    0.20    5.60
  -1  -9   0  -15.80    8.30
  -1  -9   0   -0.70    6.40
  -1  -9   0   -3.90    4.10
  -1  -9   0    0.30    3.80
  -1  -9   0    3.00    4.10
   1   9   0    1.10    3.90
   1   9   0    3.10    5.50
   1   9   0   -0.30    4.50
   1   9   0    0.70    4.60
   1   9   0    3.50    4.60
  -2  -9   0   10.70    7.20
  -2  -9   0   19.90    5.90
  -2  -9   0   20.50    5.70
  -2  -9   0   24.10    7.80
  -2  -9   0   10.70    4.60
  -2  -9   0    9.60    6.80
   2   9   0   21.50    6.70
   2   9   0   20.40    6.80
   2   9   0   19.20    5.80
   2   9   0   17.60    6.30
   2   9   0   26.00    9.60
   2   9   0   25.30    6.20
  -3  -9   0    7.00    4.70
  -3  -9   0    0.20    7.30
  -3  -9   0   -2.20    4.20
  -3  -9   0    0.80    6.70
  -3  -9   0    8.90    4.90
  -3  -9   0   10.10    4.90
  -3  -9   0    2.30    6.20
   3   9   0    3.00    4.60
   3   9   0    4.50    6.50
   3   9   0    0.40    7.40
   3   9   0    4.40    6.60
   3   9   0    7.90    6.10
   3   9   0   10.90    6.40
  -4  -9   0   -5.80    6.30
  -4  -9   0   -3.60    8.70
  -4  -9   0   -1.40    4.90
  -4  -9   0    3.10    7.40
  -4  -9   0   -0.30    4.30
  -4  -9   0   -2.80   13.40
  -4  -9   0    3.80    4.90
   4   9   0    3.80    5.70
   4   9   0   -1.40    5.70
  -5  -9   0   -2.30    5.60
  -5  -9   0   -7.90    6.00
  -5  -9   0    6.60    6.20
   5   9   0    4.80    6.60
   5 -10   0    6.10    7.80
   5 -10   0  -14.70    6.40
   5 -10   0   -0.30    6.70
   5 -10   0   -4.80    7.70
  -5  10   0   -7.90    6.80
  -5  10   0   -4.00    8.40
  -5  10   0    5.30    6.30
  -5  10   0    1.70    7.10
   4 -10   0    1.90    6.50
   4 -10   0    2.60    5.40
   4 -10   0   -3.80    5.90
   4 -10   0   -0.40    6.70
  -4  10   0   -2.80    5.60
  -4  10   0   -6.90    5.50
  -4  10   0   -1.00    5.90
  -4  10   0    3.30    5.50
  -4  10   0    5.50    7.20
   3 -10   0   13.50    5.70
   3 -10   0   11.00    7.20
   3 -10   0   18.00    7.90
   3 -10   0    8.50    1.80
   3 -10   0   12.30    5.30
   3 -10   0   10.40    6.20
   3 -10   0    7.90    6.20
  -3  10   0   18.40    6.50
  -3  10   0    7.70    8.10
  -3  10   0    7.20    5.80
  -3  10   0   10.40    6.50
  -3  10   0   10.30    5.80
   2 -10   0   -6.80    6.40
   2 -10   0   -5.10    5.20
   2 -10   0    4.60    4.80
   2 -10   0   -2.20    4.40
   2 -10   0   -1.10    5.00
   2 -10   0    0.50    2.00
  -2  10   0   -1.60    4.10
  -2  10   0   -1.30    5.10
  -2  10   0    7.10    5.90
  -2  10   0   -1.90    5.10
  -2  10   0   10.90    5.90
   1 -10   0   11.70    6.00
   1 -10   0   10.00    4.70
   1 -10   0   12.20    7.20
   1 -10   0   16.70    6.70
   1 -10   0   -1.00    7.20
   1 -10   0   14.60    6.10
  -1  10   0    9.30    6.60
  -1  10   0   23.80    6.50
  -1  10   0   14.50    5.80
  -1  10   0   12.30    5.50
  -1  10   0   16.20    6.50
   0 -10   0    5.90    4.70
   0 -10   0    7.80    5.40
   0 -10   0  -10.10    5.80
   0 -10   0    3.70    3.90
   0 -10   0    3.20    6.40
   0 -10   0    5.40    8.10
   0  10   0   -6.10    5.40
   0  10   0   -0.70    5.20
   0  10   0    2.50    5.40
   0  10   0    3.20    4.80
   0  10   0   -0.60    5.10
  -1 -10   0   -1.10    7.00
  -1 -10   0    4.90    7.10
  -1 -10   0  -15.20    5.70
  -1 -10   0   -5.90    7.80
  -1 -10   0   -3.20    3.70
  -1 -10   0   -2.20    4.40
   1  10   0   -5.80    5.70
   1  10   0    8.30    5.50
   1  10   0    6.10    5.50
   1  10   0    3.30    4.20
   1  10   0  -15.40    5.40
  -2 -10   0   29.70    9.50
  -2 -10   0   34.30    7.30
  -2 -10   0   22.60    6.40
  -2 -10   0   46.70   11.00
  -2 -10   0   28.60    9.40
  -2 -10   0   43.20    8.60
   2  10   0   17.10    8.50
   2  10   0   28.10    7.80
   2  10   0   41.70    7.80
   2  10   0   26.40    7.70
   2  10   0   25.70    8.00
   2  10   0   27.40    8.70
  -3 -10   0   30.10    9.30
  -3 -10   0   27.80    7.70
  -3 -10   0   23.50    7.60
  -3 -10   0   13.40   10.10
  -3 -10   0   13.80    7.10
  -3 -10   0   37.60   10.00
   3  10   0   18.00    6.80
   3  10   0   27.80    8.00
   3  10   0    7.80    7.70
  -4 -10   0    8.50    9.40
  -4 -10   0   -5.00    5.80
  -4 -10   0   -7.20    5.20
  -4 -10   0   10.20   10.70
  -4 -10   0   -1.40    6.00
   4  10   0   -9.00    8.60
   4  10   0    1.20    7.70
   4  10   0  -14.80    9.00
   4  10   0    1.50    6.20
   4 -11   0    1.70    8.00
   4 -11   0    6.00    8.50
   4 -11   0    5.30   10.60
  -4  11   0   -3.90    5.40
  -4  11   0   -2.50    9.50
  -4  11   0   -0.30    6.90
  -4  11   0   11.00    8.90
   3 -11   0   54.89    5.60
   3 -11   0   60.49   10.50
   3 -11   0   59.09   14.70
   3 -11   0   79.59    7.30
   3 -11   0   73.59   11.70
  -3  11   0   61.09   11.60
  -3  11   0   53.39   12.50
  -3  11   0   47.10   10.10
  -3  11   0   65.59   11.70
   2 -11   0    0.50    2.60
   2 -11   0   -2.40    5.90
   2 -11   0   -5.60    5.20
   2 -11   0   -9.30    7.60
   2 -11   0   -1.40    6.60
   2 -11   0   -3.80    5.60
  -2  11   0   -7.40    5.80
  -2  11   0   -8.50    6.80
  -2  11   0   -4.70    6.20
  -2  11   0   -5.60    7.30
  -2  11   0    5.70    7.00
   1 -11   0   -3.00    8.20
   1 -11   0   -6.50    8.10
   1 -11   0    3.60    5.70
   1 -11   0    7.40   10.70
   1 -11   0   11.60    7.30
  -1  11   0   15.60    8.40
  -1  11   0    8.50    7.30
  -1  11   0   13.40    7.00
  -1  11   0    4.50    6.20
  -1  11   0    8.10    4.60
  -1  11   0    2.40    8.20
   0 -11   0   71.89   14.10
   0 -11   0   45.00   11.40
   0 -11   0   60.19   10.60
   0 -11   0   84.59   14.50
   0 -11   0   86.19   15.50
   0  11   0   95.09   14.10
   0  11   0   78.89   13.30
   0  11   0   39.20   14.00
   0  11   0   59.79   11.70
   0  11   0   88.29   10.40
  -1 -11   0   13.40    6.40
  -1 -11   0   22.70    9.70
  -1 -11   0    4.20    9.50
  -1 -11   0   11.90    6.80
  -1 -11   0   22.10    9.50
   1  11   0   11.60    6.20
   1  11   0   -0.20    7.70
   1  11   0   16.40    8.50
   1  11   0   23.90    8.00
   1  11   0   17.40    8.60
  -2 -11   0   -5.00    5.40
  -2 -11   0   20.40   10.40
  -2 -11   0    5.20    6.30
  -2 -11   0   28.30   12.60
  -2 -11   0   -1.60    9.10
   2  11   0    7.50    8.50
   2  11   0   12.70    7.80
   2  11   0   -5.70    5.00
   2  11   0  -15.20    7.10
  -3 -11   0   -9.80   10.70
  -3 -11   0   25.20   12.00
  -3 -11   0   -6.40    6.10
   3  11   0   -8.00   10.00
   3  11   0   -8.90   10.20
   3  11   0    2.00    8.30
   3  11   0   -1.20    6.10
   3 -12   0    9.70    8.80
   3 -12   0   25.20    4.00
   3 -12   0   22.70    3.60
   3 -12   0   22.90   12.20
   3 -12   0   36.90    8.40
  -3  12   0   34.50   13.60
  -3  12   0   14.00   10.10
  -3  12   0   19.80   12.20
  -3  12   0   14.30   10.60
   2 -12   0    4.80    6.30
   2 -12   0    0.00    3.20
   2 -12   0    6.80   13.60
  -2  12   0   -5.00    4.40
  -2  12   0    3.90    9.70
  -2  12   0   -4.50    7.80
  -2  12   0   -0.50    7.20
  -2  12   0    7.50   11.40
   1 -12   0   24.80    5.00
   1 -12   0   19.40    9.60
   1 -12   0    8.30   10.70
   1 -12   0   29.90   12.90
   1 -12   0   15.30    7.70
  -1  12   0   31.00   10.60
  -1  12   0   24.10    6.20
  -1  12   0   17.60    9.10
  -1  12   0   23.00    9.40
  -1  12   0   28.40   11.00
   0 -12   0   31.50   12.40
   0 -12   0   19.30   11.90
   0 -12   0   21.40   12.90
   0 -12   0   18.50    8.00
   0 -12   0   25.00    9.10
   0  12   0   26.00   10.80
   0  12   0   28.40    9.80
   0  12   0   25.40   10.20
   0  12   0   31.70   12.00
  -1 -12   0   12.40    7.60
  -1 -12   0   17.00    8.70
  -1 -12   0   26.50   12.40
  -1 -12   0   26.20   12.50
  -1 -12   0   25.70   11.60
   1  12   0    8.70    8.10
   1  12   0   20.50    9.60
   1  12   0    8.50    9.80
  -2 -12   0   47.70   15.20
  -2 -12   0    0.90    8.40
  -2 -12   0   12.60    8.60
  -2 -12   0   36.80   13.30
   2  12   0   -6.70    6.30
   2  12   0   -2.60   11.40
   2  12   0    5.50    9.20
   1 -13   0    5.70   11.60
   1 -13   0   14.10    9.60
   1 -13   0   -2.10    8.30
   1 -13   0   -4.00    4.40
  -1  13   0   11.70    6.30
  -1  13   0    6.80   11.70
  -1  13   0   32.30   13.50
  -1  13   0   20.70   10.30
   1  13  -1   -3.30    6.30
   1  13  -1   -4.90   12.70
   1  13  -1   -5.70    9.50
  -1 -13   1   13.60    8.40
  -1 -13   1  -24.10   17.20
  -1 -13   1   19.00   16.90
  -1 -13   1  -37.00   14.80
   0  13  -1    7.70    9.90
   0  13  -1   24.80    6.80
   0 -13   1   33.40    6.60
   0 -13   1   22.90   15.00
   0 -13   1   25.10    9.70
   0 -13   1   11.20    8.20
   0 -13   1   27.10   11.40
   0 -13   1   20.60   18.40
  -1  13  -1   23.40    5.80
  -1  13  -1    8.90   10.30
  -1  13  -1   16.00   10.30
  -1  13  -1   -3.30   11.40
   1 -13   1   10.60    9.30
   1 -13   1   -0.60    9.50
   1 -13   1    4.80   14.20
   1 -13   1    8.20    4.80
   1 -13   1    4.50    7.20
  -2  13  -1   20.70   11.50
  -2  13  -1    2.40   10.30
  -2  13  -1   28.60   12.30
  -2  13  -1  -15.30   12.30
  -2  13  -1   18.50    5.00
   2 -13   1   26.00   11.80
   2 -13   1   21.20    4.90
   2 -13   1   11.30    9.30
   2 -13   1   28.00   11.70
   2  12  -1   -7.00    5.90
   2  12  -1    4.70    9.00
   2  12  -1  -10.10    9.70
  -2 -12   1    6.50   22.20
  -2 -12   1    3.20    7.10
  -2 -12   1   16.30   11.10
   1  12  -1   -1.90    5.70
   1  12  -1   -3.40    7.60
   1  12  -1    4.00    8.70
   1  12  -1   -2.80    9.40
  -1 -12   1   -7.70    5.90
  -1 -12   1   -9.10    5.70
  -1 -12   1   -3.50   10.60
  -1 -12   1   -3.20   10.00
  -1 -12   1   -7.60   16.10
   0  12  -1   59.69    9.20
   0  12  -1   61.29   16.00
   0  12  -1   50.79   13.10
   0  12  -1   40.60   10.10
   0  12  -1   57.09   11.70
   0  12  -1   47.00   11.60
   0 -12   1   53.09    9.40
   0 -12   1   64.29   11.80
   0 -12   1   70.09   14.40
   0 -12   1   53.29   14.70
   0 -12   1   60.19   13.90
  -1  12  -1   -2.80    7.30
  -1  12  -1   -0.30    7.70
  -1  12  -1    8.90    8.20
  -1  12  -1    7.10   11.50
  -1  12  -1    3.50    4.10
  -1  12  -1   -0.90    8.00
   1 -12   1    8.70    6.10
   1 -12   1  -15.40    9.20
   1 -12   1   -2.10    3.40
   1 -12   1  -12.20    7.90
   1 -12   1   -0.90    6.60
   1 -12   1  -14.00    8.30
  -2  12  -1    7.30    9.40
  -2  12  -1    3.80    3.50
  -2  12  -1   -1.30    7.50
  -2  12  -1    4.00   12.10
  -2  12  -1   -0.50    8.30
  -2  12  -1    2.30    8.20
   2 -12   1    4.40    9.30
   2 -12   1   13.00   10.70
   2 -12   1    6.10    6.30
   2 -12   1    5.10    3.10
  -3  12  -1   25.50    8.20
  -3  12  -1   24.50    9.80
  -3  12  -1   21.30   10.50
  -3  12  -1    7.90    8.90
   3 -12   1   13.30    9.60
   3 -12   1    8.50    3.90
   3 -12   1   14.60    7.90
   3 -12   1    4.70    6.80
  -4  12  -1  -28.60   10.80
  -4  12  -1   -3.20    7.50
  -4  12  -1  -25.40   10.40
   4 -12   1   -1.80    9.30
   4 -12   1    3.30    9.30
   4 -12   1  -19.50    8.70
   3  11  -1   15.50    8.30
   3  11  -1    4.90    9.20
   3  11  -1    8.80    6.90
  -3 -11   1   11.70    6.80
  -3 -11   1   15.30    9.80
   2  11  -1    4.70    7.00
   2  11  -1    2.50    6.70
   2  11  -1    3.10    9.50
   2  11  -1    3.10    7.30
  -2 -11   1   -6.70    4.60
  -2 -11   1    1.80    8.30
  -2 -11   1    5.60    8.90
  -2 -11   1   -7.40    8.70
  -2 -11   1    1.90    5.80
   1  11  -1    7.80    6.80
   1  11  -1   -4.90    4.50
   1  11  -1   -2.10    6.20
   1  11  -1    4.80    7.10
   1  11  -1    1.10    6.00
   1  11  -1    1.80   11.60
  -1 -11   1    0.50    6.10
  -1 -11   1    2.20    5.10
  -1 -11   1   -6.90    4.40
  -1 -11   1   10.60   11.10
  -1 -11   1  -16.10    6.70
   0  11  -1    8.20    6.20
   0  11  -1    4.60    6.70
   0  11  -1   -0.40    4.00
   0  11  -1    7.70    8.80
   0  11  -1    5.90    6.70
   0  11  -1   11.50    6.20
   0 -11   1   11.70    6.10
   0 -11   1   10.50    7.90
   0 -11   1    5.90    5.00
   0 -11   1    4.20    6.90
   0 -11   1    8.70    8.10
   0 -11   1    0.90    6.00
  -1  11  -1   19.60    9.40
  -1  11  -1   18.20    4.40
  -1  11  -1   15.70    7.40
  -1  11  -1   26.60    8.10
  -1  11  -1   22.30    7.40
  -1  11  -1   14.30    6.60
   1 -11   1   29.00    9.10
   1 -11   1   20.30    6.10
   1 -11   1   16.70    4.20
   1 -11   1   18.10    8.10
   1 -11   1   21.00    6.50
   1 -11   1   14.30    9.40
   1 -11   1   13.40    5.70
  -2  11  -1    3.30    6.80
  -2  11  -1    6.20    6.80
  -2  11  -1    3.90    2.60
  -2  11  -1   -1.30    6.50
  -2  11  -1   -4.30    6.30
  -2  11  -1   18.40    7.80
   2 -11   1    8.20    6.70
   2 -11   1    2.90    7.10
   2 -11   1   -0.60    5.00
   2 -11   1   -2.40    5.50
   2 -11   1    1.00    2.60
   2 -11   1    9.80    7.50
   2 -11   1    3.40    5.70
  -3  11  -1   -2.30    7.60
  -3  11  -1    9.80    7.80
  -3  11  -1   -0.80    6.40
  -3  11  -1   -0.30    6.00
   3 -11   1    6.20    5.80
   3 -11   1    1.00    8.60
   3 -11   1   -0.40    5.70
   3 -11   1    4.70    6.80
   3 -11   1   -0.40    1.70
   3 -11   1    9.10    8.50
  -4  11  -1   15.40    7.80
  -4  11  -1    3.50    6.70
  -4  11  -1    6.80    7.70
  -4  11  -1   10.70    9.10
   4 -11   1    9.00    7.60
   4 -11   1    6.90    5.70
   4 -11   1   18.20   10.00
  -5  11  -1   -6.70    6.60
  -5  11  -1   12.30    9.20
  -5  11  -1   -8.30    8.70
   5 -11   1    2.20    8.50
   5 -11   1    0.00    8.30
   5 -11   1    5.80    8.10
   4  10  -1   17.90    7.20
   4  10  -1   11.40    7.00
  -4 -10   1   23.60   10.50
  -4 -10   1    8.40    5.60
  -4 -10   1    7.90    6.50
   3  10  -1   51.79    9.80
   3  10  -1   45.40    9.50
   3  10  -1   70.49   10.40
  -3 -10   1   36.80    7.90
  -3 -10   1   55.09   11.00
  -3 -10   1   36.00    9.20
  -3 -10   1   50.69    9.20
  -3 -10   1   35.90    9.80
   2  10  -1    4.60    7.00
   2  10  -1   12.30    7.80
   2  10  -1    5.20    5.10
   2  10  -1    6.20    6.60
   2  10  -1   10.80    5.80
   2  10  -1    2.40    5.40
  -2 -10   1    3.70    4.10
  -2 -10   1   -3.00    6.20
  -2 -10   1    5.20    6.00
  -2 -10   1    0.10    7.40
  -2 -10   1    5.70    4.90
  -2 -10   1   15.30    6.70
   1  10  -1   -5.40    3.20
   1  10  -1   -2.50    5.30
   1  10  -1    6.30    5.60
   1  10  -1    8.40    5.40
   1  10  -1   -1.90    4.50
   1  10  -1   -1.00    4.30
  -1 -10   1    4.70    4.40
  -1 -10   1   -0.40    4.50
  -1 -10   1   -3.60    5.40
  -1 -10   1    0.80    6.70
  -1 -10   1   13.50    7.30
   0  10  -1    8.00    4.00
   0  10  -1   -0.10    5.30
   0  10  -1    4.20    4.70
   0  10  -1    6.70    5.10
   0  10  -1    7.20    5.80
   0  10  -1    6.90    5.30
   0 -10   1   17.20   10.80
   0 -10   1    2.40    5.50
   0 -10   1   10.10    4.90
   0 -10   1   10.40    7.70
   0 -10   1    2.90    4.40
   0 -10   1    5.80    4.70
  -1  10  -1    4.90    4.50
  -1  10  -1    5.50    5.20
  -1  10  -1   -9.80    4.10
  -1  10  -1   -6.60    4.40
  -1  10  -1   -1.40    2.80
  -1  10  -1   -4.30    5.30
   1 -10   1   -0.90    3.50
   1 -10   1    1.20    2.30
   1 -10   1    0.40    5.40
   1 -10   1    2.90    4.70
   1 -10   1    7.50    7.40
   1 -10   1    5.60    4.80
   1 -10   1   -6.00    3.50
  -2  10  -1   -2.80    5.40
  -2  10  -1   -0.10    1.90
  -2  10  -1    1.30    4.60
  -2  10  -1   -0.90    4.80
  -2  10  -1   -2.60    5.20
   2 -10   1    0.90    1.90
   2 -10   1   -3.10    6.30
   2 -10   1   -0.30    4.00
   2 -10   1   -0.90    3.50
   2 -10   1   -2.60    5.30
   2 -10   1    0.40    3.70
   2 -10   1   -7.00    4.60
  -3  10  -1    3.30    6.00
  -3  10  -1    6.80    5.90
  -3  10  -1   13.00    6.00
  -3  10  -1   11.80    9.40
   3 -10   1    4.10    4.00
   3 -10   1    6.20    6.20
   3 -10   1    7.80    5.50
   3 -10   1    4.20    7.10
   3 -10   1    6.20    1.60
   3 -10   1    7.40    5.20
  -4  10  -1   -5.80    5.40
  -4  10  -1   -8.00    5.90
  -4  10  -1   -5.20    5.10
  -4  10  -1   -2.40    5.40
   4 -10   1    4.40    5.60
   4 -10   1  -12.40    5.40
   4 -10   1   -0.40    7.10
   4 -10   1    7.40    5.80
  -5  10  -1    7.10    6.50
  -5  10  -1   16.10   10.50
  -5  10  -1    1.00    8.00
   5 -10   1   14.50    7.50
   5 -10   1   21.40   10.00
   5 -10   1    3.40    6.90
   5 -10   1    2.10    8.80
   5   9  -1   -4.50    6.50
   5   9  -1    0.90    8.40
   5   9  -1   -8.80    6.00
   5   9  -1    3.00    7.00
  -5  -9   1   -0.40    5.50
  -5  -9   1    7.10    8.10
  -5  -9   1    4.20    5.20
  -5  -9   1   -5.90    4.90
  -5  -9   1   11.80    9.20
  -5  -9   1   -9.40    5.30
   4   9  -1    1.90    5.70
   4   9  -1    3.00    5.50
   4   9  -1    1.30    5.30
   4   9  -1   -4.50    7.40
  -4  -9   1   -8.70    4.10
  -4  -9   1   -1.50    4.40
  -4  -9   1    4.40    4.80
  -4  -9   1    6.30    6.20
  -4  -9   1   -7.70    6.40
   3   9  -1   83.69   11.40
   3   9  -1   70.99   11.10
   3   9  -1   78.69   10.80
   3   9  -1   96.29   14.50
   3   9  -1   52.09   10.40
   3   9  -1   60.39   10.30
  -3  -9   1   47.70    9.70
  -3  -9   1   66.39   11.20
  -3  -9   1   81.99   10.40
  -3  -9   1   82.29   10.70
  -3  -9   1   85.99   10.70
  -3  -9   1   79.49   12.40
   2   9  -1   24.50    6.20
   2   9  -1   16.90    5.90
   2   9  -1   22.80    7.20
   2   9  -1   23.80    6.40
   2   9  -1   25.00    5.90
   2   9  -1   24.00    6.40
  -2  -9   1   21.20    6.70
  -2  -9   1   21.90    6.70
  -2  -9   1   23.40    5.40
  -2  -9   1   24.90    5.70
   1   9  -1   -0.20    3.70
   1   9  -1   -2.00    4.00
   1   9  -1   -4.10    4.30
   1   9  -1   -0.60    3.80
   1   9  -1    2.00    4.10
   1   9  -1    0.10    3.10
  -1  -9   1    4.20    6.00
  -1  -9   1   -1.30    3.30
  -1  -9   1   -2.20    3.20
  -1  -9   1   -3.20    4.30
  -1  -9   1    1.60    4.80
  -1  -9   1    3.00    3.70
   0   9  -1   24.70    5.80
   0   9  -1   25.80    6.40
   0   9  -1   20.70    5.20
   0   9  -1   17.40    5.20
   0   9  -1   24.50    6.80
   0   9  -1   21.80    4.90
   0  -9   1   24.40    5.70
   0  -9   1   22.40    4.60
   0  -9   1   12.30    4.00
   0  -9   1   20.50    6.30
   0  -9   1   41.50    8.50
   0  -9   1   23.90   13.20
  -1   9  -1   11.00    4.50
  -1   9  -1    6.10    3.40
  -1   9  -1   13.20    4.90
  -1   9  -1    5.80    4.50
  -1   9  -1    4.80    4.10
  -1   9  -1   14.40    4.80
   1  -9   1    7.20    4.00
   1  -9   1    1.90    4.20
   1  -9   1    3.80    3.90
   1  -9   1    3.90    2.20
   1  -9   1    7.70    3.50
   1  -9   1   11.30    5.10
   1  -9   1    4.20    6.30
  -2   9  -1   25.70    6.30
  -2   9  -1   28.40    3.70
  -2   9  -1   37.10    7.60
  -2   9  -1   25.60    6.30
  -2   9  -1   29.90    7.10
   2  -9   1   16.90    5.30
   2  -9   1   25.90    8.50
   2  -9   1   38.00    7.40
   2  -9   1   31.00    4.00
   2  -9   1   20.30    4.80
   2  -9   1   27.10    6.80
   2  -9   1   15.50    5.60
  -3   9  -1    4.40    4.70
  -3   9  -1   -0.30    3.60
  -3   9  -1   -3.70    3.70
  -3   9  -1    3.10    4.10
   3  -9   1   -0.50    3.90
   3  -9   1   -1.30    3.50
   3  -9   1    5.80    5.80
   3  -9   1   -1.80    4.10
   3  -9   1    0.30    1.10
   3  -9   1    3.80    4.40
   3  -9   1    4.00    4.60
  -4   9  -1    8.30    4.50
  -4   9  -1    2.30    4.10
  -4   9  -1    1.60    4.70
  -4   9  -1    6.70    5.70
  -4   9  -1   -4.80    5.00
   4  -9   1    1.30    8.40
   4  -9   1   -3.00    6.50
   4  -9   1   -5.80    4.90
   4  -9   1   -3.20    4.40
   4  -9   1   -0.30    4.50
   4  -9   1    1.50    3.70
  -5   9  -1    5.70    6.50
  -5   9  -1   -4.00    4.30
  -5   9  -1   -0.80    6.30
  -5   9  -1   21.70    6.10
   5  -9   1    7.10    9.10
   5  -9   1   14.30    7.30
   5  -9   1    2.00    5.40
   5  -9   1    4.10    5.20
  -6   9  -1    1.70    6.40
   6  -9   1    8.60   14.90
   6  -9   1    8.30    7.20
   6  -9   1    7.40    8.70
   6  -9   1   -3.30   10.50
   5   8  -1   10.00    6.70
   5   8  -1   -4.70    6.00
   5   8  -1    4.60    5.60
  -5  -8   1   -2.00    4.10
  -5  -8   1    0.40    5.30
  -5  -8   1   11.30    7.10
  -5  -8   1   -3.80    3.90
  -5  -8   1   -2.80    4.30
  -5  -8   1   17.50    7.10
   4   8  -1   26.60    6.70
   4   8  -1   26.80    6.90
   4   8  -1   48.30    8.10
   4   8  -1   33.80    7.30
   4   8  -1   32.50    7.60
   4   8  -1   24.30    6.90
  -4  -8   1   26.50    5.80
  -4  -8   1   19.30    5.40
  -4  -8   1   27.80    5.70
  -4  -8   1   37.90    7.90
  -4  -8   1   28.60    6.80
  -4  -8   1   31.10    7.70
  -4  -8   1   43.20   10.60
   3   8  -1    2.90    4.00
   3   8  -1   -3.90    3.70
   3   8  -1    3.40    4.20
   3   8  -1    2.50    4.30
   3   8  -1   -2.10    3.50
   3   8  -1   -0.10    4.00
  -3  -8   1    2.90    4.40
  -3  -8   1    5.50    3.80
  -3  -8   1    6.00    3.20
  -3  -8   1   -1.40    6.80
  -3  -8   1   -2.20    5.30
  -3  -8   1   -0.10    3.30
  -3  -8   1   -1.80    2.90
   2   8  -1   20.30    5.80
   2   8  -1    5.30    4.00
   2   8  -1   13.80    5.10
   2   8  -1    3.10    3.80
   2   8  -1   12.60    4.90
   2   8  -1    6.70    4.40
  -2  -8   1   14.20    4.90
  -2  -8   1   14.20    5.30
  -2  -8   1    9.20    4.30
  -2  -8   1   13.60    4.80
  -2  -8   1   17.70    4.70
  -2  -8   1    9.00    3.70
   1   8  -1    3.20    3.00
   1   8  -1    3.40    3.30
   1   8  -1    2.90    4.00
   1   8  -1    6.80    4.00
   1   8  -1    4.90    3.40
   1   8  -1   -1.50    3.30
  -1  -8   1    3.40    4.10
  -1  -8   1   -2.20    4.70
  -1  -8   1   12.70    4.20
  -1  -8   1    6.20    4.10
  -1  -8   1   11.30    3.90
  -1  -8   1    4.50    2.80
   0   8  -1   14.80    5.00
   0   8  -1   18.40    3.80
   0   8  -1   20.10    4.80
   0   8  -1   16.50    4.40
   0   8  -1   16.70    4.50
   0   8  -1   18.80    5.20
   0  -8   1   15.90    4.60
   0  -8   1   23.30    4.90
   0  -8   1   26.20    6.20
   0  -8   1   14.40    4.40
   0  -8   1   16.20    5.10
   0  -8   1   20.50    5.40
  -1   8  -1    5.00    3.40
  -1   8  -1   -3.90    2.60
  -1   8  -1    0.90    3.10
  -1   8  -1    3.80    3.80
   1  -8   1    4.90    3.10
   1  -8   1    1.30    4.60
   1  -8   1   -1.30    2.50
   1  -8   1    2.80    3.20
   1  -8   1    0.70    2.20
   1  -8   1    2.20    3.80
   1  -8   1   -1.70    1.50
  -2   8  -1   84.49   10.30
  -2   8  -1   77.29    9.00
  -2   8  -1   73.59    9.10
  -2   8  -1   69.39    6.30
  -2   8  -1   67.79    9.30
  -2   8  -1   65.69    9.20
   2  -8   1   89.69    9.60
   2  -8   1   87.49   10.60
   2  -8   1   69.49    9.60
   2  -8   1   64.29    6.50
   2  -8   1   73.39    9.30
   2  -8   1   71.89   13.30
   2  -8   1   68.79    8.70
  -3   8  -1  311.27   26.10
  -3   8  -1  333.37   26.10
  -3   8  -1  284.07   25.60
  -3   8  -1  303.37   25.80
  -3   8  -1  302.17   25.30
   3  -8   1  304.17   25.40
   3  -8   1  272.57   28.40
   3  -8   1  256.67   25.10
   3  -8   1  279.57   25.40
   3  -8   1  256.27   25.40
  -4   8  -1   16.80    4.60
  -4   8  -1    4.10    4.20
  -4   8  -1    7.70    4.60
  -4   8  -1   25.60    5.80
  -4   8  -1   16.70    5.60
   4  -8   1    9.50    4.50
   4  -8   1   14.70    4.80
   4  -8   1   11.20    4.30
   4  -8   1   20.90    5.70
   4  -8   1   19.30    8.40
   4  -8   1   11.50    4.70
  -5   8  -1    1.70    3.90
  -5   8  -1   -4.10    4.10
  -5   8  -1   -3.60    4.20
   5  -8   1    0.40    4.50
   5  -8   1   -1.40    5.90
   5  -8   1   -3.30    3.90
   5  -8   1    2.60    4.20
   5  -8   1   -3.70    6.90
  -6   8  -1  -15.10    5.40
  -6   8  -1    2.60    5.10
   6  -8   1    9.80    8.40
   6  -8   1    2.50    6.30
   6  -8   1    6.30    5.40
   6   7  -1   18.50    7.90
   6   7  -1   20.20    8.50
  -6  -7   1   17.90    7.50
  -6  -7   1   21.70    7.10
  -6  -7   1   10.20    5.10
  -6  -7   1   12.40    6.10
  -6  -7   1   -1.80   10.80
   5   7  -1    2.50    4.80
   5   7  -1    3.80    5.00
   5   7  -1   -3.20    4.40
   5   7  -1   -4.00    4.90
   5   7  -1   -2.80    5.20
  -5  -7   1   -5.50    4.70
  -5  -7   1   -2.70    3.40
  -5  -7   1    1.30    3.60
  -5  -7   1    4.60    4.30
  -5  -7   1   -7.40    4.30
  -5  -7   1    0.10    4.70
   4   7  -1    4.30    4.20
   4   7  -1   -0.40    4.80
   4   7  -1    6.50    4.60
  -4  -7   1    3.90    3.20
  -4  -7   1   -0.10    3.30
  -4  -7   1    0.20    4.70
  -4  -7   1   -1.30    4.10
  -4  -7   1   -4.70    2.60
  -4  -7   1    2.30    3.40
   3   7  -1   39.80    7.50
   3   7  -1   42.00    7.50
   3   7  -1   70.79   12.40
   3   7  -1   35.60    7.50
   3   7  -1   55.79    7.10
  -3  -7   1   41.30    7.50
  -3  -7   1   36.20    6.70
  -3  -7   1   62.59    8.50
  -3  -7   1   39.10    7.60
  -3  -7   1   48.10    7.80
  -3  -7   1   39.90    6.80
  -3  -7   1   53.99    7.40
   2   7  -1   19.30    4.90
   2   7  -1   28.60    5.70
   2   7  -1   27.40    6.20
   2   7  -1   19.60    4.90
   2   7  -1   16.30    4.50
   2   7  -1   29.50    5.30
  -2  -7   1   18.20    5.20
  -2  -7   1   21.80    4.60
  -2  -7   1   30.30    5.60
  -2  -7   1   23.20    4.80
  -2  -7   1   23.30    4.90
  -2  -7   1   28.20    5.90
  -2  -7   1   16.20    3.90
   1   7  -1   44.80    8.50
   1   7  -1   55.19    7.10
   1   7  -1   59.29    7.40
   1   7  -1   59.69    9.20
   1   7  -1   71.19    8.50
   1   7  -1   69.59    8.10
  -1  -7   1   47.30    7.60
  -1  -7   1   51.89    7.50
  -1  -7   1   62.59    7.60
  -1  -7   1   58.79    7.80
  -1  -7   1   81.59    8.10
  -1  -7   1   58.99    7.90
   0   7  -1  103.99   11.00
   0   7  -1   95.79   10.60
   0   7  -1  118.89   11.40
   0   7  -1  100.59   14.60
   0   7  -1  108.99   11.20
   0  -7   1   80.79   11.60
   0  -7   1  104.69   11.20
   0  -7   1  127.09   11.50
   0  -7   1  104.19   11.40
   0  -7   1  139.89   11.50
   0  -7   1   98.69   11.20
  -1   7  -1   28.30    5.40
  -1   7  -1   44.20    6.10
  -1   7  -1   46.60    6.20
  -1   7  -1   46.90    6.70
  -1   7  -1   38.70    6.30
   1  -7   1   29.20    8.50
   1  -7   1   39.50    5.80
   1  -7   1   40.90    8.90
   1  -7   1   31.30    4.60
   1  -7   1   31.20    6.40
   1  -7   1   48.90    6.60
   1  -7   1   48.60    6.50
  -2   7  -1  201.68   18.80
  -2   7  -1  205.68   18.60
  -2   7  -1  248.58   19.50
  -2   7  -1  225.58   19.00
  -2   7  -1  220.58   19.50
   2  -7   1  188.88   18.70
   2  -7   1  194.38   20.20
   2  -7   1  191.28   16.60
   2  -7   1  213.28   22.20
   2  -7   1  253.37   19.20
  -3   7  -1   64.89    8.10
  -3   7  -1   53.19    8.10
  -3   7  -1   68.49    8.90
  -3   7  -1   77.49    8.70
  -3   7  -1   85.69    9.10
   3  -7   1   56.29    8.60
   3  -7   1   51.99   11.40
   3  -7   1   76.59    9.00
   3  -7   1   76.59    8.70
   3  -7   1   71.79    8.60
  -4   7  -1   46.60    9.60
  -4   7  -1   72.09    8.30
  -4   7  -1   65.19    8.40
  -4   7  -1   57.79    8.10
   4  -7   1   73.99    8.50
   4  -7   1   51.99    9.60
   4  -7   1   43.70   11.70
   4  -7   1   65.99    8.40
   4  -7   1   55.49    8.30
   4  -7   1   68.19    8.70
  -5   7  -1   10.50    4.10
  -5   7  -1   20.90    5.40
  -5   7  -1   13.60    4.10
   5  -7   1   12.90    5.50
   5  -7   1    0.80    4.00
   5  -7   1    9.10    4.20
   5  -7   1   15.90    6.90
   5  -7   1    6.80    4.20
   5  -7   1   10.10    4.50
  -6   7  -1   12.30    5.30
  -6   7  -1    9.60    4.90
  -6   7  -1    8.90    4.90
  -6   7  -1   21.40    7.00
   6  -7   1   17.40   10.60
   6  -7   1   10.30    5.60
   6  -7   1   21.20    6.30
   6   6  -1    8.70    5.70
   6   6  -1   19.40    5.40
   6   6  -1   -0.40    5.30
  -6  -6   1    7.70    4.40
  -6  -6   1   19.10    5.80
  -6  -6   1    2.10    3.80
  -6  -6   1    5.50    5.30
  -6  -6   1    4.10    4.90
  -6  -6   1    1.80    4.10
   5   6  -1   -3.40    3.00
   5   6  -1    2.80    4.10
   5   6  -1    4.10    3.70
   5   6  -1    8.10    4.70
   5   6  -1    3.80    4.30
   5   6  -1    1.40    4.70
  -5  -6   1    0.50    3.10
  -5  -6   1    7.80    4.20
  -5  -6   1    3.60    3.90
  -5  -6   1   -3.80    3.70
  -5  -6   1    8.80    4.50
  -5  -6   1   -1.10    3.00
   4   6  -1   50.19    7.70
   4   6  -1   56.69    9.50
   4   6  -1   63.39    8.80
   4   6  -1   51.49    7.80
   4   6  -1   62.39    8.30
   4   6  -1   53.79    8.20
  -4  -6   1   69.59    8.50
  -4  -6   1   55.89    8.70
  -4  -6   1   59.79    8.90
  -4  -6   1   67.69    7.70
  -4  -6   1   55.39    7.60
  -4  -6   1   63.89    9.00
   3   6  -1   58.69    7.20
   3   6  -1   54.29    8.20
   3   6  -1   56.59    7.10
   3   6  -1   46.50    7.00
   3   6  -1   50.59    7.40
  -3  -6   1   41.50    7.90
  -3  -6   1   52.39    6.80
  -3  -6   1   41.80    7.20
  -3  -6   1   54.39    7.30
  -3  -6   1   64.29    7.30
  -3  -6   1   54.89    8.00
   2   6  -1  155.38   14.70
   2   6  -1  171.68   14.60
   2   6  -1  172.88   15.00
   2   6  -1  152.08   14.30
   2   6  -1  129.89   14.50
   2   6  -1  154.08   14.60
  -2  -6   1  161.48   14.70
  -2  -6   1  154.58   14.60
  -2  -6   1  155.98   14.20
  -2  -6   1  160.08   14.50
  -2  -6   1  137.99   14.70
  -2  -6   1  179.48   14.80
  -2  -6   1  162.48   14.40
   1   6  -1   22.10    4.50
   1   6  -1   20.10    4.20
   1   6  -1   19.80    4.30
   1   6  -1   29.70    5.60
   1   6  -1   23.40    4.70
   1   6  -1   21.70    4.10
  -1  -6   1   30.50    5.40
  -1  -6   1   26.90    4.70
  -1  -6   1   37.10    5.80
  -1  -6   1   23.40    4.60
  -1  -6   1   16.90    4.10
  -1  -6   1   33.70    5.30
   0   6  -1  112.89   11.10
   0   6  -1  133.49   11.90
   0   6  -1  111.99   10.90
   0   6  -1  102.49   11.00
   0  -6   1  101.59   11.10
   0  -6   1  125.79   11.30
   0  -6   1  119.89   11.10
   0  -6   1  103.99   11.30
   0  -6   1  143.89   11.50
   0  -6   1  114.19   11.20
  -1   6  -1  459.85   40.00
  -1   6  -1  514.25   40.20
  -1   6  -1  541.95   40.50
  -1   6  -1  540.05   40.80
  -1   6  -1  568.54   40.60
   1  -6   1  469.05   41.20
   1  -6   1  486.55   40.20
   1  -6   1  571.74   40.40
   1  -6   1  494.55   38.70
   1  -6   1  476.15   40.10
   1  -6   1  445.96   40.30
  -2   6  -1  103.29   10.00
  -2   6  -1  116.09   11.00
  -2   6  -1   98.59    9.90
  -2   6  -1  107.59   10.20
  -2   6  -1   96.39   10.20
   2  -6   1   97.39   10.00
   2  -6   1  111.99   10.20
   2  -6   1   74.39    9.80
   2  -6   1  114.19   12.50
   2  -6   1   79.99   10.20
   2  -6   1  107.89   10.20
  -3   6  -1    8.20    3.10
  -3   6  -1    5.50    2.60
  -3   6  -1    5.00    2.60
  -3   6  -1    6.70    2.50
   3  -6   1    5.60    3.20
   3  -6   1    4.80    2.10
   3  -6   1    2.40    2.40
   3  -6   1    0.70    2.70
   3  -6   1    6.80    2.80
   3  -6   1    4.40    5.70
  -4   6  -1  487.15   37.50
  -4   6  -1  529.95   37.00
  -4   6  -1  483.15   36.90
  -4   6  -1  465.25   36.90
  -4   6  -1  464.65   37.00
   4  -6   1  442.56   36.90
   4  -6   1  444.16   41.10
   4  -6   1  445.96   37.00
   4  -6   1  423.86   36.60
   4  -6   1  371.76   36.70
  -5   6  -1    9.10    3.30
  -5   6  -1    9.20    3.70
  -5   6  -1    6.70    3.60
   5  -6   1    6.00    8.60
   5  -6   1    4.40    3.60
   5  -6   1    7.20    3.20
   5  -6   1    9.70    4.10
  -6   6  -1   13.10    5.00
  -6   6  -1    4.90    3.40
  -6   6  -1   11.40    5.10
  -6   6  -1    4.10    3.70
  -6   6  -1    9.00    4.70
   6  -6   1   16.80    8.30
   6  -6   1    1.20    4.50
   6  -6   1   -2.20    4.40
  -7   6  -1   11.00    5.00
  -7   6  -1    0.20    6.00
  -7   6  -1    7.30    6.70
  -7   6  -1    1.70    4.90
   7  -6   1    0.50    7.30
   7  -6   1    3.70    7.20
   7  -6   1    9.80   10.70
   6   5  -1   -7.00    4.40
   6   5  -1   -0.30    3.30
   6   5  -1    1.70    6.00
  -6  -5   1   -0.50    4.90
  -6  -5   1   -3.40    3.30
  -6  -5   1   -1.30    2.90
  -6  -5   1    2.00    3.90
  -6  -5   1   -3.10    3.20
   5   5  -1   26.30    5.10
   5   5  -1   22.00    4.30
   5   5  -1   18.90    8.30
   5   5  -1   30.20    5.10
   5   5  -1   33.30    5.40
   5   5  -1   34.30    6.90
  -5  -5   1   25.60    6.10
  -5  -5   1   31.10    5.40
  -5  -5   1   19.70    4.70
  -5  -5   1   30.80    5.70
  -5  -5   1   29.90    5.10
  -5  -5   1   34.80    6.20
   4   5  -1   34.30    5.50
   4   5  -1   34.20    5.80
   4   5  -1   32.30    5.70
   4   5  -1   25.40    6.40
   4   5  -1   36.30    5.70
   4   5  -1   39.60    7.50
  -4  -5   1   30.70    5.60
  -4  -5   1   44.60    5.70
  -4  -5   1   35.10    6.40
  -4  -5   1   32.00    5.50
  -4  -5   1   24.70    5.60
  -4  -5   1   34.80    6.80
   3   5  -1   43.60    5.90
   3   5  -1   40.10    6.00
   3   5  -1   48.40    6.00
   3   5  -1   42.50    6.90
   3   5  -1   43.80    5.70
  -3  -5   1   51.69    6.20
  -3  -5   1   47.70    5.90
  -3  -5   1   52.09    6.30
  -3  -5   1   36.40    6.40
  -3  -5   1   47.80    5.90
  -3  -5   1   41.90    6.60
   2   5  -1  115.59   14.00
   2   5  -1  128.49   13.00
   2   5  -1  132.89   13.00
   2   5  -1  151.78   13.60
   2   5  -1  156.38   13.20
   2   5  -1  161.48   13.20
  -2  -5   1  147.49   13.00
  -2  -5   1  137.29   13.30
  -2  -5   1  153.18   13.20
  -2  -5   1  168.18   13.30
  -2  -5   1  164.58   13.40
  -2  -5   1  122.89   13.60
   1   5  -1  101.89    9.80
   1   5  -1  101.29    9.50
   1   5  -1   86.89    9.40
   1   5  -1  100.09    9.50
   1   5  -1   88.69    9.20
  -1  -5   1  103.49    9.50
  -1  -5   1   98.79    9.50
  -1  -5   1  120.79    9.50
  -1  -5   1   89.89    9.50
  -1  -5   1   97.99    9.40
   0   5  -1  189.38   16.20
   0   5  -1  181.58   15.80
   0   5  -1  168.18   15.60
   0   5  -1  191.88   15.70
   0   5  -1  192.68   16.00
   0  -5   1  201.78   16.00
   0  -5   1  157.88   15.70
   0  -5   1  186.18   16.10
   0  -5   1  177.18   15.70
   0  -5   1  205.58   15.90
  -1   5  -1   11.30    2.90
  -1   5  -1   12.70    4.40
  -1   5  -1   13.30    3.20
  -1   5  -1   14.40    3.20
  -1   5  -1    8.80    2.60
   1  -5   1   10.10    1.70
   1  -5   1    8.70    3.00
   1  -5   1    5.60    2.80
   1  -5   1   10.70    4.00
   1  -5   1    8.60    2.60
   1  -5   1   20.20    3.50
  -2   5  -1 1884.91  137.19
  -2   5  -1 1960.50  137.59
  -2   5  -1 2049.20  137.29
  -2   5  -1 1805.72  137.19
  -2   5  -1 1795.12  137.09
   2  -5   1 1639.14  137.19
   2  -5   1 1899.41  137.19
   2  -5   1 1615.04  135.49
   2  -5   1 1627.04  136.89
   2  -5   1 1740.43  137.09
   2  -5   1 1875.61  137.19
  -3   5  -1    4.10    2.30
  -3   5  -1    2.60    1.80
  -3   5  -1    2.70    1.80
  -3   5  -1    3.30    2.40
  -3   5  -1    1.80    1.90
   3  -5   1    0.00    2.10
   3  -5   1   -0.80    1.90
   3  -5   1    5.30    5.00
   3  -5   1    1.10    1.70
  -4   5  -1  325.07   26.50
  -4   5  -1  362.36   26.50
  -4   5  -1  376.96   26.40
  -4   5  -1  348.87   26.50
   4  -5   1  261.37   26.10
   4  -5   1  317.87   30.30
   4  -5   1  288.87   26.00
   4  -5   1  297.27   26.20
   4  -5   1  305.17   26.40
  -5   5  -1    6.90    2.90
  -5   5  -1    3.90    2.80
  -5   5  -1    3.60    2.90
  -5   5  -1    7.70    3.80
  -5   5  -1    4.10    2.40
   5  -5   1    6.70    6.80
   5  -5   1    3.00    2.50
   5  -5   1    7.90    3.30
   5  -5   1    1.10    2.80
   5  -5   1    5.90    3.20
   5  -5   1    6.10    3.40
  -6   5  -1   -2.20    3.50
  -6   5  -1   -2.50    2.90
  -6   5  -1    0.20    3.30
  -6   5  -1   -2.30    4.50
  -6   5  -1    3.20    2.90
   6  -5   1   -4.00    3.50
   6  -5   1    3.80    5.80
   6  -5   1   -1.20    4.10
   6  -5   1    0.80    3.80
   6  -5   1   -0.90    4.10
  -7   5  -1   29.80    6.50
  -7   5  -1   19.10    5.90
  -7   5  -1   31.30    7.10
  -7   5  -1   42.20   12.80
   7  -5   1   22.30    9.70
   7  -5   1   23.90    6.80
   7   4  -1   -6.40    5.70
  -7  -4   1    9.70    6.60
  -7  -4   1   -1.10    3.60
  -7  -4   1    1.30    3.70
  -7  -4   1   -4.80    3.20
  -7  -4   1    2.20    3.70
  -7  -4   1   -7.00    3.30
  -7  -4   1    1.20    3.70
   6   4  -1   -0.40    5.00
  -6  -4   1    2.00    4.70
  -6  -4   1    0.10    2.60
  -6  -4   1    2.30    3.20
  -6  -4   1    2.00    2.90
  -6  -4   1    2.40    3.00
  -6  -4   1   -0.90    2.60
   5   4  -1    4.30    3.60
   5   4  -1    6.20    2.70
   5   4  -1    0.00    2.10
   5   4  -1    3.60    2.40
   5   4  -1    3.80    4.80
   5   4  -1    7.50    2.70
  -5  -4   1    5.60    3.90
  -5  -4   1    3.30    2.50
  -5  -4   1    2.50    3.10
  -5  -4   1    3.80    2.80
  -5  -4   1    5.40    3.10
   4   4  -1    4.90    3.90
   4   4  -1    3.20    2.20
   4   4  -1    5.20    2.50
   4   4  -1    1.00    2.20
   4   4  -1    2.20    1.80
   4   4  -1   -0.10    2.40
  -4  -4   1   -3.00    2.20
  -4  -4   1   -0.10    2.00
  -4  -4   1    1.70    2.10
  -4  -4   1   -0.50    2.20
  -4  -4   1    1.60    2.30
  -4  -4   1    2.70    2.30
   3   4  -1  145.79   13.50
   3   4  -1  151.08   13.60
   3   4  -1  125.19   14.60
   3   4  -1  135.89   13.10
   3   4  -1  159.08   14.00
   3   4  -1  176.08   15.10
  -3  -4   1  155.58   14.00
  -3  -4   1  185.58   14.70
  -3  -4   1  154.88   13.80
  -3  -4   1  173.38   13.80
  -3  -4   1  170.98   13.90
   2   4  -1  231.38   18.70
   2   4  -1  229.68   18.10
   2   4  -1  198.88   17.90
   2   4  -1  202.98   18.00
   2   4  -1  210.48   18.00
  -2  -4   1  202.58   18.10
  -2  -4   1  217.28   18.10
  -2  -4   1  232.38   18.10
  -2  -4   1  225.78   18.10
  -2  -4   1  205.48   18.20
  -2  -4   1  240.88   18.30
   1   4  -1  130.59   11.50
   1   4  -1  132.09   11.60
   1   4  -1  132.69   11.40
   1   4  -1  125.49   11.40
   1   4  -1  121.99   11.20
   1   4  -1  134.19   11.40
  -1  -4   1  125.49   11.50
  -1  -4   1  136.09   11.90
  -1  -4   1  142.19   11.50
  -1  -4   1  119.29   10.70
  -1  -4   1  138.09   11.20
   0   4  -1   78.69    7.10
   0   4  -1   76.59    7.30
   0   4  -1   74.59    7.40
   0   4  -1   66.59    7.00
   0  -4   1   53.69    7.10
   0  -4   1   82.39    7.20
   0  -4   1   74.29    7.20
   0  -4   1   82.69    7.10
   0  -4   1   67.79    7.30
   0  -4   1   75.99    7.20
  -1   4  -1  432.46   32.70
  -1   4  -1  424.66   32.70
  -1   4  -1  416.06   32.60
  -1   4  -1  480.65   32.90
  -1   4  -1  407.46   32.90
   1  -4   1  367.46   33.50
   1  -4   1  386.66   32.80
   1  -4   1  424.86   32.70
   1  -4   1  441.66   32.70
   1  -4   1  433.56   32.70
   1  -4   1  389.06   31.60
   1  -4   1  385.06   32.60
  -2   4  -1  427.86   30.60
  -2   4  -1  434.66   30.60
  -2   4  -1  401.66   30.80
  -2   4  -1  394.96   31.10
  -2   4  -1  416.66   30.70
   2  -4   1  397.56   30.60
   2  -4   1  399.56   30.60
   2  -4   1  340.57   30.30
   2  -4   1  343.27   29.20
   2  -4   1  347.27   30.60
   2  -4   1  367.16   32.40
   2  -4   1  367.66   30.40
  -3   4  -1  130.59   10.30
  -3   4  -1  123.39   10.60
  -3   4  -1  103.59    8.60
  -3   4  -1  107.19   10.20
  -3   4  -1  125.09   10.00
  -3   4  -1  116.89   10.20
   3  -4   1   95.89    9.80
   3  -4   1  113.09   13.00
   3  -4   1  101.59   10.20
   3  -4   1   99.39    9.80
   3  -4   1  103.89   10.10
  -4   4  -1   69.39    6.90
  -4   4  -1   74.39    6.50
  -4   4  -1   63.39    7.00
  -4   4  -1   57.79    5.40
   4  -4   1   59.69    6.50
   4  -4   1   54.89    6.60
   4  -4   1   56.19    6.40
   4  -4   1   56.19    6.90
   4  -4   1   51.99    6.90
   4  -4   1   72.29   10.50
  -5   4  -1  538.55   40.00
  -5   4  -1  591.34   41.50
  -5   4  -1  541.75   41.40
  -5   4  -1  577.84   43.40
   5  -4   1  467.15   40.80
   5  -4   1  432.76   41.00
   5  -4   1  541.45   41.50
   5  -4   1  472.95   41.40
   5  -4   1  568.34   47.10
  -6   4  -1    2.70    2.00
  -6   4  -1   -2.70    2.70
  -6   4  -1   -8.50    4.10
  -6   4  -1    2.70    3.50
  -6   4  -1    1.00    2.80
  -6   4  -1    2.40    3.10
   6  -4   1   12.50    4.30
   6  -4   1    6.90    5.90
   6  -4   1    4.60    3.30
   6  -4   1    2.70    3.60
   6  -4   1    2.60    3.30
   6  -4   1    1.80    3.80
  -7   4  -1    3.80    4.10
  -7   4  -1    0.00    2.50
  -7   4  -1    0.40    3.90
  -7   4  -1   -4.50    3.50
  -7   4  -1   -0.60    3.40
  -7   4  -1    2.30    6.00
   7  -4   1    5.30    4.60
   7  -4   1    1.30    4.60
   7  -4   1   -6.80    4.20
   7   3  -1   -5.10    5.80
  -7  -3   1    5.50    3.20
  -7  -3   1    1.70    6.80
  -7  -3   1    4.60    3.40
  -7  -3   1    0.00    2.60
  -7  -3   1    0.20    3.00
   6   3  -1    2.40    4.70
  -6  -3   1    2.20    2.70
  -6  -3   1    1.20    2.50
  -6  -3   1    8.20    5.40
  -6  -3   1    3.50    2.50
  -6  -3   1    1.50    2.70
   5   3  -1   13.50    2.60
   5   3  -1   11.60    1.90
   5   3  -1    9.50    4.90
  -5  -3   1    7.80    2.90
  -5  -3   1   10.10    3.00
  -5  -3   1   11.40    3.30
  -5  -3   1    8.90    4.00
   4   3  -1  395.56   31.60
   4   3  -1  453.95   33.30
   4   3  -1  432.76   31.50
   4   3  -1  413.36   31.70
   4   3  -1  374.86   31.70
   4   3  -1  431.36   33.90
  -4  -3   1  371.06   32.10
  -4  -3   1  364.06   32.00
  -4  -3   1  404.36   32.00
  -4  -3   1  439.56   33.80
  -4  -3   1  406.96   32.10
   3   3  -1   31.80    4.30
   3   3  -1   26.30    3.70
   3   3  -1   34.20    3.60
   3   3  -1   33.30    5.50
   3   3  -1   24.50    3.80
   3   3  -1   23.30    3.40
  -3  -3   1   34.30    5.30
  -3  -3   1   25.70    3.70
  -3  -3   1   26.20    3.80
  -3  -3   1   30.70    4.40
  -3  -3   1   28.70    4.00
   2   3  -1    1.20    1.20
   2   3  -1    0.20    1.70
   2   3  -1    0.50    1.10
   2   3  -1    0.60    1.20
   2   3  -1   -1.50    1.00
  -2  -3   1    1.60    1.30
  -2  -3   1   -1.30    1.20
  -2  -3   1   -0.80    1.00
  -2  -3   1    1.50    1.30
  -2  -3   1    0.90    1.30
   1   3  -1  426.16   35.40
   1   3  -1  442.76   34.90
   1   3  -1  444.56   34.90
   1   3  -1  457.95   34.80
   1   3  -1  446.06   34.80
   1   3  -1  436.36   34.70
  -1  -3   1  438.66   34.80
  -1  -3   1  478.25   34.90
  -1  -3   1  460.35   34.70
  -1  -3   1  466.45   34.90
  -1  -3   1  454.55   35.00
   0   3  -1 4960.50  375.56
   0   3  -1 5243.08  375.56
   0   3  -1 4769.82  375.16
   0   3  -1 4965.70  375.56
   0   3  -1 5023.30  375.76
   0  -3   1 4440.06  375.46
   0  -3   1 5685.23  375.76
   0  -3   1 4568.54  375.86
   0  -3   1 5420.26  375.66
   0  -3   1 5177.88  375.56
   0  -3   1 4855.01  375.86
  -1   3  -1  171.78   12.30
  -1   3  -1  146.49   12.60
  -1   3  -1  141.49   12.30
  -1   3  -1  155.28   12.30
   1  -3   1  137.39   11.40
   1  -3   1  135.49   12.20
   1  -3   1  145.89   12.30
   1  -3   1  135.89   13.20
   1  -3   1  153.58   12.20
   1  -3   1  131.89   12.30
   1  -3   1  159.08   12.20
  -2   3  -1  651.43   44.30
  -2   3  -1  611.24   43.80
  -2   3  -1  635.04   43.90
  -2   3  -1  658.73   43.60
  -2   3  -1  550.64   42.80
   2  -3   1  499.05   42.70
   2  -3   1  527.35   43.60
   2  -3   1  559.94   43.90
   2  -3   1  561.74   43.80
   2  -3   1  503.25   43.70
   2  -3   1  562.74   43.60
   2  -3   1  509.95   42.80
   2  -3   1  563.04   45.60
  -3   3  -1   40.50    4.60
  -3   3  -1   44.80    4.10
  -3   3  -1   42.70    4.60
  -3   3  -1   37.80    3.50
   3  -3   1   35.70    4.40
   3  -3   1   35.10    4.50
   3  -3   1   33.20    4.20
   3  -3   1   44.20    8.90
   3  -3   1   30.40    4.00
  -4   3  -1   11.40    2.80
  -4   3  -1    5.80    2.40
  -4   3  -1   11.20    2.90
  -4   3  -1    9.20    1.80
  -4   3  -1    5.70    2.90
  -4   3  -1    8.20    2.70
  -4   3  -1    7.80    1.90
   4  -3   1    3.20    2.40
   4  -3   1    5.00    2.20
   4  -3   1    8.10    5.50
   4  -3   1    6.60    2.50
   4  -3   1    7.00    2.20
  -5   3  -1   17.40    3.60
  -5   3  -1   21.40    4.00
  -5   3  -1   16.50    3.90
  -5   3  -1   14.60    3.90
  -5   3  -1   20.10    3.10
  -5   3  -1   10.60    3.80
   5  -3   1   17.70    7.80
   5  -3   1   16.00    3.40
   5  -3   1   16.50    4.30
   5  -3   1   15.30    4.70
   5  -3   1   21.50    4.00
   5  -3   1   12.20    3.20
  -6   3  -1   16.50    4.10
  -6   3  -1    5.80    5.10
  -6   3  -1   23.10    4.20
  -6   3  -1   17.80    3.70
  -6   3  -1   11.30    4.20
  -6   3  -1   18.90    4.50
   6  -3   1   13.20    3.70
   6  -3   1   16.70    3.70
   6  -3   1   16.40    4.10
   6  -3   1   11.40   12.60
   6  -3   1   16.30    4.40
   6  -3   1   28.60    6.20
  -7   3  -1   24.70    4.80
  -7   3  -1   26.10    7.30
  -7   3  -1   19.90    5.20
  -7   3  -1   26.30    7.20
  -7   3  -1   30.90    6.00
  -7   3  -1   13.80    4.50
   7  -3   1   21.50    4.50
   7  -3   1   34.40    7.50
   7   2  -1   -7.60    5.00
  -7  -2   1   -0.40    2.90
  -7  -2   1   -1.30    2.50
  -7  -2   1   -1.00    6.00
  -7  -2   1   -0.10    2.30
   6   2  -1   63.59   11.10
  -6  -2   1   40.60    7.10
  -6  -2   1   47.50    5.60
  -6  -2   1   48.70    5.90
  -6  -2   1   49.20    6.90
  -6  -2   1   55.99    9.30
   5   2  -1    4.00    3.80
  -5  -2   1    1.80    2.10
  -5  -2   1   -1.10    1.70
  -5  -2   1   -0.70    1.70
  -5  -2   1    1.80    1.80
  -5  -2   1    0.10    3.00
   4   2  -1   48.50    7.30
   4   2  -1   54.59    4.60
   4   2  -1   50.59    4.90
  -4  -2   1   50.99    6.70
  -4  -2   1   50.49    5.40
  -4  -2   1   52.49    5.60
  -4  -2   1   56.79    5.50
  -4  -2   1   48.00    5.40
   3   2  -1    4.00    1.30
   3   2  -1    4.00    1.40
   3   2  -1    4.50    2.30
   3   2  -1    5.30    1.30
   3   2  -1    4.00    1.90
   3   2  -1    4.60    1.30
  -3  -2   1    2.20    1.40
  -3  -2   1    6.00    1.60
  -3  -2   1    4.90    1.60
  -3  -2   1    8.10    2.20
  -3  -2   1    4.00    1.50
   2   2  -1  314.17   23.50
   2   2  -1  301.17   22.60
   2   2  -1  301.87   23.00
   2   2  -1  263.17   22.50
   2   2  -1  303.57   22.40
   2   2  -1  264.17   22.50
  -2  -2   1  273.17   22.60
  -2  -2   1  286.87   22.70
  -2  -2   1  290.67   22.60
  -2  -2   1  295.57   22.60
  -2  -2   1  301.57   23.20
   1   2  -1  413.26   31.70
   1   2  -1  409.06   31.70
   1   2  -1  418.16   32.00
   1   2  -1  393.96   31.60
  -1  -2   1  434.36   31.70
  -1  -2   1  415.36   31.70
  -1  -2   1  408.96   31.80
  -1  -2   1  395.06   31.70
  -1  -2   1  428.06   31.70
  -1  -2   1  423.36   32.00
   0   2  -1 2848.81  209.38
   0   2  -1 2672.93  209.08
   0   2  -1 3217.88  209.48
   0   2  -1 2852.71  209.48
   0  -2   1 2896.41  209.28
   0  -2   1 2781.52  209.48
   0  -2   1 2539.55  209.18
   0  -2   1 2541.65  208.98
   0  -2   1 2912.51  209.38
   0  -2   1 2714.63  209.28
   0  -2   1 2726.63  208.98
  -1   2  -1 7466.35  533.55
   1  -2   1 7499.05  533.65
   1  -2   1 6411.96  534.45
  -2   2  -1    6.10    1.70
  -2   2  -1    7.50    1.40
  -2   2  -1    6.30    1.80
   2  -2   1    6.20    1.50
   2  -2   1    5.80    1.70
   2  -2   1    5.20    1.80
   2  -2   1    4.10    3.30
   2  -2   1    6.40    1.80
   2  -2   1    4.70    1.30
  -3   2  -1  145.59   12.10
  -3   2  -1  135.69   11.70
  -3   2  -1  131.69   12.00
  -3   2  -1  145.39   11.00
  -3   2  -1  146.49   11.70
  -3   2  -1  150.38   12.60
  -3   2  -1  123.69   11.00
   3  -2   1  163.68   15.10
   3  -2   1  127.09   11.60
   3  -2   1  137.59   11.50
   3  -2   1  112.89   11.60
   3  -2   1  138.09   11.60
  -4   2  -1  245.68   20.70
  -4   2  -1  258.57   20.30
  -4   2  -1  243.48   19.70
  -4   2  -1  239.38   20.60
  -4   2  -1  267.37   20.30
  -4   2  -1  252.97   21.60
   4  -2   1  237.08   20.70
   4  -2   1  252.47   20.60
   4  -2   1  250.07   19.90
   4  -2   1  214.78   20.10
   4  -2   1  224.38   20.20
   4  -2   1  301.07   24.50
  -5   2  -1   27.70    4.50
  -5   2  -1   23.90    4.70
  -5   2  -1   30.50    4.40
  -5   2  -1   20.80    5.90
  -5   2  -1   28.00    4.60
  -5   2  -1   19.90    4.50
   5  -2   1   19.10    3.40
   5  -2   1   24.30    4.30
   5  -2   1   26.50    5.20
   5  -2   1   24.00    4.00
   5  -2   1   31.30    8.50
   5  -2   1   22.10    4.00
  -6   2  -1   29.10    4.60
  -6   2  -1   19.50    4.80
  -6   2  -1   26.60    5.00
  -6   2  -1   38.10    5.40
  -6   2  -1   29.30    6.80
   6  -2   1   28.70    4.50
   6  -2   1   35.10    7.40
   6  -2   1   18.30    4.00
   6  -2   1   31.80    4.90
   6  -2   1   26.60    4.00
  -7   2  -1   16.40    7.50
  -7   2  -1   21.70    4.80
  -7   2  -1   31.90    5.20
  -7   2  -1   22.40    5.00
  -7   2  -1   23.40    5.30
  -7   2  -1   25.00    4.60
   7  -2   1   23.90    7.30
   7   1  -1    4.90    5.70
  -7  -1   1    0.80    6.20
  -7  -1   1    8.50    3.10
  -7  -1   1    4.80    2.50
   6   1  -1   -0.30    4.20
  -6  -1   1    3.00    1.70
  -6  -1   1    2.70    1.80
  -6  -1   1    2.50    4.20
  -6  -1   1    4.00    2.10
  -6  -1   1    2.60    2.10
  -6  -1   1   -0.20    2.20
   5   1  -1    1.60    3.80
  -5  -1   1    3.30    1.90
  -5  -1   1    1.30    1.90
  -5  -1   1    3.40    1.60
  -5  -1   1    2.60    1.60
  -5  -1   1    5.20    2.20
  -5  -1   1    1.20    3.10
   4   1  -1   23.30    6.00
   4   1  -1   16.00    4.30
  -4  -1   1   16.10    2.80
  -4  -1   1   17.30    2.70
  -4  -1   1   16.20    2.70
  -4  -1   1   13.90    2.60
  -4  -1   1   16.20    3.90
   3   1  -1  481.45   36.30
   3   1  -1  541.05   37.50
  -3  -1   1  435.46   34.90
  -3  -1   1  429.66   34.80
  -3  -1   1  412.16   34.70
  -3  -1   1  493.65   36.20
  -3  -1   1  428.66   34.80
   2   1  -1  292.47   22.70
   2   1  -1  330.57   23.40
   2   1  -1  309.57   21.50
  -2  -1   1  261.27   21.70
  -2  -1   1  269.67   21.70
  -2  -1   1  293.47   22.50
  -2  -1   1  299.47   22.60
  -2  -1   1  259.87   21.70
  -2  -1   1  255.37   21.70
   1   1  -1  667.73   49.80
   1   1  -1  656.63   49.50
   1   1  -1  621.64   49.70
   1   1  -1  632.64   49.20
   1   1  -1  682.53   49.20
   1   1  -1  671.03   49.30
  -1  -1   1  669.53   49.20
  -1  -1   1  651.83   49.20
  -1  -1   1  652.43   49.80
  -1  -1   1  664.83   49.30
  -1  -1   1  632.44   49.50
  -1  -1   1  652.73   49.20
  -1   1  -1  551.64   39.80
  -1   1  -1  529.85   39.70
  -1   1  -1  548.65   39.80
  -1   1  -1  515.65   39.60
  -1   1  -1  482.65   39.30
  -1   1  -1  516.95   39.60
   1  -1   1  587.44   40.50
   1  -1   1  478.05   39.20
   1  -1   1  477.95   39.60
  -2   1  -1  903.91   70.79
  -2   1  -1  891.61   70.39
  -2   1  -1  902.11   70.89
  -2   1  -1  947.91   71.29
  -2   1  -1  909.41   70.79
  -2   1  -1  924.31   70.99
   2  -1   1 1063.59   72.69
  -3   1  -1   25.90    3.80
  -3   1  -1   26.80    4.50
  -3   1  -1   18.30    3.50
  -3   1  -1   26.80    4.00
  -3   1  -1   20.60    3.60
   3  -1   1   35.10    7.20
   3  -1   1   17.50    3.30
   3  -1   1   20.60    3.20
   3  -1   1   25.00    4.10
  -4   1  -1  615.34   46.20
  -4   1  -1  618.84   47.70
  -4   1  -1  590.74   46.50
  -4   1  -1  560.84   46.40
  -4   1  -1  616.94   46.20
   4  -1   1  641.54   46.90
   4  -1   1  530.45   46.00
   4  -1   1  552.24   46.10
   4  -1   1  620.94   45.70
  -5   1  -1    8.50    2.80
  -5   1  -1    7.40    3.20
  -5   1  -1    8.40    3.90
  -5   1  -1    8.50    3.10
  -5   1  -1   11.20    2.70
  -5   1  -1   11.20    2.80
   5  -1   1    7.00    2.80
   5  -1   1    9.40    2.70
   5  -1   1   18.00    4.40
   5  -1   1    6.80    2.70
   5  -1   1    6.90    2.30
  -6   1  -1   20.80    4.30
  -6   1  -1   12.20    3.90
  -6   1  -1   19.90    5.80
  -6   1  -1   16.60    3.80
  -6   1  -1   19.20    4.10
   6  -1   1    9.50    2.80
   6  -1   1   15.50    3.50
   6  -1   1   11.80    5.40
   6  -1   1   15.20    3.90
   6  -1   1    8.60    3.10
  -7   1  -1   53.39    7.90
  -7   1  -1   62.49    7.20
  -7   1  -1   42.80    7.70
  -7   1  -1   58.19    8.30
  -7   1  -1   52.79   10.40
   7  -1   1   77.69   15.00
   7   0  -1   14.70    5.70
  -7   0   1    4.30    5.90
  -7   0   1   12.10    3.40
  -7   0   1   11.10    3.50
   6   0  -1   -2.20    3.70
  -6   0   1    0.50    2.00
  -6   0   1   -0.80    3.90
  -6   0   1   -0.50    1.70
  -6   0   1    0.80    2.10
  -6   0   1    1.40    1.60
  -6   0   1    2.70    1.70
   5   0  -1   33.10    8.70
   5   0  -1   35.20    6.80
  -5   0   1   26.00    3.80
  -5   0   1   35.50    6.10
  -5   0   1   28.40    4.10
  -5   0   1   25.40    3.40
  -5   0   1   24.50    3.50
  -5   0   1   30.90    4.70
   4   0  -1   51.39   10.10
   4   0  -1   60.79    7.20
  -4   0   1   48.00    5.00
  -4   0   1   55.29    5.00
  -4   0   1   57.69    5.00
  -4   0   1   52.19    5.60
  -4   0   1   45.60    6.60
  -4   0   1   51.69    5.20
   3   0  -1   27.60    6.30
  -3   0   1   22.80    3.20
  -3   0   1   24.80    2.50
  -3   0   1   23.30    2.60
  -3   0   1   22.70    3.80
  -3   0   1   22.10    2.70
  -3   0   1   32.50    4.80
   2   0  -1  257.97   22.20
   2   0  -1  258.57   21.20
  -2   0   1  263.27   20.20
  -2   0   1  251.27   20.90
  -2   0   1  260.47   21.10
  -2   0   1  277.67   20.20
  -2   0   1  284.47   20.30
   1   0  -1  104.39    9.30
   1   0  -1  103.39    8.20
  -1   0   1  100.89    8.20
  -1   0   1  105.19    7.70
  -1   0   1   95.29    7.50
  -1   0   1   94.29    7.60
  -1   0   1   92.49    8.20
  -1   0   1   97.89    7.60
  -1   0   1   98.79    7.50
  -1   0  -1  239.68   19.10
  -1   0  -1  240.58   19.10
  -1   0  -1  236.88   19.10
  -1   0  -1  242.78   19.20
  -1   0  -1  264.17   19.40
   1   0   1  270.67   19.30
   1   0   1  238.38   19.10
   1   0   1  237.78   19.10
   1   0   1  229.78   19.10
  -2   0  -1  455.85   37.30
  -2   0  -1  457.45   37.20
  -2   0  -1  510.05   37.90
  -2   0  -1  459.45   37.30
  -2   0  -1  458.75   37.30
   2   0   1  499.25   37.30
   2   0   1  520.95   37.80
   2   0   1  503.15   37.30
  -3   0  -1   25.20    3.80
  -3   0  -1   32.40    4.10
  -3   0  -1   30.00    4.00
  -3   0  -1   36.90    4.90
  -3   0  -1   31.40    4.20
   3   0   1   32.70    3.90
   3   0   1   22.70    3.90
   3   0   1   38.60    4.90
   3   0   1   25.20    3.80
   3   0   1   35.00    4.00
   3   0   1   40.60    5.60
  -4   0  -1  181.98   15.80
  -4   0  -1  168.48   15.90
  -4   0  -1  211.88   17.70
  -4   0  -1  189.48   15.90
  -4   0  -1  175.28   16.00
   4   0   1  174.78   15.70
   4   0   1  196.98   17.40
   4   0   1  208.18   16.90
  -5   0  -1   43.90    6.00
  -5   0  -1   31.90    7.00
  -5   0  -1   46.60    5.70
  -5   0  -1   43.50    6.20
  -5   0  -1   37.80    5.60
   5   0   1   36.20    5.20
   5   0   1   41.50    5.50
   5   0   1   38.60    5.40
   5   0   1   48.80    5.10
   5   0   1   62.69    7.90
  -6   0  -1   21.40    6.70
  -6   0  -1   35.50    8.40
  -6   0  -1   31.50    5.50
  -6   0  -1   33.90    5.40
  -6   0  -1   36.10    6.20
  -6   0  -1   32.00    6.20
   6   0   1   29.00    4.20
   6   0   1   34.40    4.70
   6   0   1   27.70    7.10
   6   0   1   31.90    7.10
   6   0   1   31.90    4.70
  -7   0  -1   25.30    5.70
  -7   0  -1   37.90    6.80
  -7   0  -1   33.70    5.10
  -7   0  -1   33.30    9.00
  -7   0  -1   26.40    5.70
   7   0   1   35.30    8.60
   7  -1  -1    6.60    9.50
  -7   1   1    2.90    2.30
  -7   1   1    3.70    3.20
  -7   1   1    7.70    3.20
  -7   1   1    2.80    2.50
  -7   1   1    4.10    5.20
  -7   1   1    0.00    2.20
   6  -1  -1   89.89   13.60
   6  -1  -1   98.19   11.90
  -6   1   1   83.09   12.30
  -6   1   1   95.39    8.50
  -6   1   1   83.29    8.30
  -6   1   1   75.49    8.40
   5  -1  -1   71.69    8.50
   5  -1  -1   56.19   12.10
  -5   1   1   59.89    9.20
  -5   1   1   68.49    6.10
  -5   1   1   51.59    6.20
  -5   1   1   59.49    6.50
  -5   1   1   62.29    6.00
  -5   1   1   62.69    6.50
   4  -1  -1   47.90    6.40
   4  -1  -1   40.60    4.20
   4  -1  -1   38.00    8.40
  -4   1   1   48.60    5.00
  -4   1   1   48.20    4.70
  -4   1   1   45.20    5.20
  -4   1   1   48.20    5.00
  -4   1   1   59.69    6.80
  -4   1   1   56.09    4.70
   3  -1  -1   -1.20    0.80
   3  -1  -1    1.90    2.80
   3  -1  -1   -1.30    1.30
   3  -1  -1   -0.10    0.70
   3  -1  -1    0.10    0.80
   3  -1  -1    0.30    0.90
  -3   1   1    0.30    1.80
  -3   1   1    0.30    0.80
  -3   1   1    1.00    0.90
  -3   1   1   -0.30    0.90
   2  -1  -1   43.20    4.90
   2  -1  -1   59.29    4.40
   2  -1  -1   50.39    6.70
   2  -1  -1   50.29    5.20
   2  -1  -1   52.19    4.50
   2  -1  -1   50.79    4.40
   2  -1  -1   42.50    4.40
  -2   1   1   54.19    4.40
  -2   1   1   50.29    4.40
  -2   1   1   41.70    4.90
  -2   1   1   47.40    5.00
  -2   1   1   54.89    4.60
  -2   1   1   51.09    4.50
   1  -1  -1   18.10    4.00
   1  -1  -1    8.50    1.80
   1  -1  -1   12.40    1.90
   1  -1  -1   11.30    1.80
  -1   1   1    5.90    1.50
  -1   1   1   11.20    1.80
  -1   1   1    7.70    1.00
  -1   1   1   10.40    1.60
  -1   1   1    9.80    1.80
  -1   1   1    9.90    1.60
   0  -1  -1  425.86   28.50
   0  -1  -1  341.57   27.80
   0  -1  -1  329.97   27.90
   0  -1  -1  343.57   27.80
   0  -1  -1  355.66   27.80
   0  -1  -1  348.27   27.90
   0  -1  -1  412.06   28.00
   0   1   1  361.16   27.90
   0   1   1  372.36   27.80
   0   1   1  335.27   27.80
   0   1   1  336.47   27.80
   0   1   1  403.06   28.00
   0   1   1  348.57   27.90
  -1  -1  -1   73.89    5.60
  -1  -1  -1   62.09    6.00
  -1  -1  -1   63.49    6.20
  -1  -1  -1   67.29    6.20
  -1  -1  -1   63.49    6.20
  -1  -1  -1   54.29    6.00
   1   1   1   78.69    5.60
   1   1   1   60.09    6.00
   1   1   1   62.19    6.00
   1   1   1   62.69    6.10
   1   1   1   71.09    6.20
   1   1   1   53.79    6.00
  -2  -1  -1   71.09    5.50
  -2  -1  -1   60.59    6.30
  -2  -1  -1   57.09    6.20
  -2  -1  -1   68.89    6.90
  -2  -1  -1   61.49    6.70
  -2  -1  -1   67.79    6.70
   2   1   1   70.49    6.60
   2   1   1   59.19    6.10
   2   1   1   57.79    6.10
  -3  -1  -1  943.21   78.39
  -3  -1  -1  992.00   78.39
  -3  -1  -1  986.20   78.49
  -3  -1  -1  993.30   78.49
  -3  -1  -1 1116.69   79.59
  -3  -1  -1 1115.59   78.39
   3   1   1 1002.40   78.39
   3   1   1 1026.30   78.39
   3   1   1 1011.30   78.29
   3   1   1 1084.39   79.19
  -4  -1  -1   36.40    5.30
  -4  -1  -1   38.70    5.30
  -4  -1  -1   52.69    6.80
  -4  -1  -1   41.40    5.40
  -4  -1  -1   42.20    5.80
   4   1   1   44.60    6.60
   4   1   1   44.80    5.20
   4   1   1   36.20    8.00
   4   1   1   39.70    5.20
   4   1   1   42.80    5.10
  -5  -1  -1   63.59   10.00
  -5  -1  -1   52.09    6.80
  -5  -1  -1   44.90    6.70
  -5  -1  -1   46.60    7.00
  -5  -1  -1   56.89    6.80
   5   1   1   67.99    6.50
   5   1   1   48.10    6.20
   5   1   1   56.59    8.80
  -6  -1  -1   11.30    3.80
  -6  -1  -1    9.60    5.10
  -6  -1  -1   13.80    3.90
  -6  -1  -1   13.70    4.10
   6   1   1   12.00    5.20
   6   1   1   23.20    3.70
   6   1   1   12.30    3.30
   6   1   1    7.60    2.80
  -7  -1  -1    9.10    4.30
  -7  -1  -1    6.20    5.00
  -7  -1  -1    5.60    3.70
  -7  -1  -1   -4.10    5.50
  -7  -1  -1    0.50    3.20
   7   1   1    4.80    6.00
   7  -2  -1    6.10    5.30
   7  -2  -1   -0.70    7.70
  -7   2   1   -2.80    2.30
  -7   2   1   -1.90    2.40
  -7   2   1   -0.30    2.50
  -7   2   1    0.00    2.70
  -7   2   1    1.00    2.90
  -7   2   1   -0.10    2.50
   6  -2  -1   25.40    6.00
   6  -2  -1   22.40    8.70
  -6   2   1    8.30    3.80
  -6   2   1    7.20    4.60
  -6   2   1    5.40    2.40
  -6   2   1   11.10    2.60
  -6   2   1   11.00    2.70
   5  -2  -1   71.69    6.90
   5  -2  -1   69.39    7.00
   5  -2  -1   81.39   12.10
   5  -2  -1   84.89    9.70
  -5   2   1   78.69    7.90
  -5   2   1   97.29   10.10
  -5   2   1   90.09    7.70
  -5   2   1   89.29    8.30
   4  -2  -1  173.88   18.40
   4  -2  -1  179.28   14.30
   4  -2  -1  160.38   14.40
   4  -2  -1  160.58   14.30
   4  -2  -1  181.88   15.80
   4  -2  -1  161.28   14.40
  -4   2   1  192.28   15.30
  -4   2   1  194.88   14.60
  -4   2   1  206.58   14.60
  -4   2   1  175.58   15.60
   3  -2  -1   30.10    4.10
   3  -2  -1   30.50    3.70
   3  -2  -1   32.50    3.70
   3  -2  -1   34.80    4.60
   3  -2  -1   38.00    8.30
   3  -2  -1   30.30    3.60
   3  -2  -1   34.70    3.80
  -3   2   1   31.80    4.40
  -3   2   1   36.20    3.70
  -3   2   1   33.50    4.10
  -3   2   1   41.60    4.10
  -3   2   1   33.80    3.90
  -3   2   1   39.30    3.80
   2  -2  -1   57.29    7.50
   2  -2  -1   58.59    5.50
   2  -2  -1   54.89    5.40
   2  -2  -1   50.19    5.70
   2  -2  -1   65.19    5.40
  -2   2   1   60.69    5.80
  -2   2   1   56.99    5.50
  -2   2   1   57.09    5.60
  -2   2   1   64.29    5.50
  -2   2   1   64.19    6.10
  -2   2   1   56.69    5.40
  -2   2   1   56.79    4.50
   1  -2  -1  955.40   68.79
   1  -2  -1  775.82   67.99
   1  -2  -1  857.71   68.99
   1  -2  -1  865.41   68.69
   1  -2  -1  914.51   69.99
   1  -2  -1 1014.30   68.89
   1  -2  -1  868.41   68.89
  -1   2   1  940.11   69.09
  -1   2   1  887.21   68.69
  -1   2   1  899.31   68.69
  -1   2   1  962.20   68.89
  -1   2   1  942.81   68.99
   0  -2  -1   59.89    6.20
   0  -2  -1   64.29    5.70
   0  -2  -1   53.49    5.40
   0  -2  -1   50.39    5.70
   0  -2  -1   54.39    5.60
   0  -2  -1   56.79    6.20
   0  -2  -1   53.39    5.60
   0   2   1   56.49    5.90
   0   2   1   64.59    5.60
   0   2   1   61.69    5.70
   0   2   1   52.19    5.70
   0   2   1   60.39    5.80
  -1  -2  -1   73.09    7.30
  -1  -2  -1   74.29    7.30
  -1  -2  -1   70.59    7.20
  -1  -2  -1   77.29    7.20
  -1  -2  -1   82.59    6.90
  -1  -2  -1   71.79    7.20
   1   2   1   80.89    7.30
   1   2   1   76.59    7.30
   1   2   1   90.99    7.00
   1   2   1   66.79    7.10
   1   2   1   75.59    7.20
   1   2   1   66.89    7.10
  -2  -2  -1    4.20    2.00
  -2  -2  -1    2.60    1.70
  -2  -2  -1    5.30    1.50
  -2  -2  -1    7.10    2.60
  -2  -2  -1    2.10    1.70
  -2  -2  -1    3.30    1.80
   2   2   1    5.60    2.10
   2   2   1    5.50    2.00
   2   2   1    7.40    2.20
   2   2   1    5.60    2.10
  -3  -2  -1   -1.10    1.90
  -3  -2  -1   -0.10    1.60
  -3  -2  -1    0.50    1.90
  -3  -2  -1    2.20    1.20
  -3  -2  -1   -0.40    1.80
  -3  -2  -1   -0.40    1.40
   3   2   1   -1.60    1.60
   3   2   1   -0.50    1.40
   3   2   1    1.50    1.60
   3   2   1    1.00    1.60
  -4  -2  -1   39.30    5.60
  -4  -2  -1   32.50    5.00
  -4  -2  -1   41.20    6.20
  -4  -2  -1   34.20    5.70
  -4  -2  -1   33.60    6.40
  -4  -2  -1   36.30    4.10
   4   2   1   33.20    4.90
   4   2   1   42.30    7.20
   4   2   1   35.60    5.20
   4   2   1   33.80    5.30
   4   2   1   42.50    6.70
   4   2   1   40.60    5.90
  -5  -2  -1    3.30    2.70
  -5  -2  -1   -3.40    3.00
  -5  -2  -1    1.80    2.70
  -5  -2  -1    3.40    3.00
  -5  -2  -1    1.30    4.20
   5   2   1   -5.20    3.30
   5   2   1    3.80    2.70
   5   2   1    3.90    2.70
   5   2   1   -4.20    3.20
   5   2   1   -0.40    2.40
   5   2   1    0.80    2.40
  -6  -2  -1   94.99   11.20
  -6  -2  -1   97.19   11.70
  -6  -2  -1  104.89   11.30
  -6  -2  -1  107.69   14.20
   6   2   1  110.09   12.40
   6   2   1  114.89   14.40
   6   2   1  126.39   10.80
  -7  -2  -1   20.50    8.10
  -7  -2  -1   18.50    5.70
  -7  -2  -1   13.10    5.70
  -7  -2  -1   20.00    4.90
   7   2   1   23.20    8.20
   7  -3  -1   13.50    8.80
  -7   3   1    1.50    3.00
  -7   3   1    2.40    3.40
  -7   3   1    2.00    3.10
  -7   3   1    3.10    2.30
  -7   3   1   -1.20    3.60
  -7   3   1    2.10    3.50
  -7   3   1    3.20    6.20
   6  -3  -1   85.99   22.00
  -6   3   1  154.38   16.10
  -6   3   1  146.09   12.90
  -6   3   1  147.19   12.10
  -6   3   1  156.18   12.30
  -6   3   1  163.68   13.60
  -6   3   1  142.79   13.10
  -6   3   1  147.19   13.60
  -6   3   1  144.59   13.80
   5  -3  -1  231.08   18.40
   5  -3  -1  207.38   18.60
   5  -3  -1  208.08   18.50
   5  -3  -1  198.38   18.30
   5  -3  -1  210.48   23.90
  -5   3   1  220.18   17.90
  -5   3   1  249.08   19.50
  -5   3   1  248.68   19.60
  -5   3   1  242.78   18.90
  -5   3   1  240.58   17.80
  -5   3   1  259.67   18.90
   4  -3  -1   14.00    6.30
   4  -3  -1   12.70    3.10
   4  -3  -1   12.00    2.80
   4  -3  -1   19.70    4.00
   4  -3  -1   11.10    2.70
  -4   3   1   15.00    3.50
  -4   3   1   19.30    3.10
  -4   3   1   14.10    2.90
  -4   3   1   14.40    1.80
  -4   3   1   18.30    1.80
  -4   3   1   18.30    3.60
  -4   3   1   21.60    3.70
  -4   3   1   21.60    3.50
   3  -3  -1    3.20    1.40
   3  -3  -1    0.20    1.10
   3  -3  -1    0.10    1.40
   3  -3  -1    2.50    3.80
   3  -3  -1    0.40    0.90
   3  -3  -1   -0.30    1.30
  -3   3   1    2.40    1.70
  -3   3   1    0.80    1.80
  -3   3   1    1.10    1.50
  -3   3   1    0.50    1.20
  -3   3   1   -0.10    1.30
   2  -3  -1  432.96   34.60
   2  -3  -1  399.66   35.00
   2  -3  -1  411.66   36.70
   2  -3  -1  429.76   34.80
   2  -3  -1  489.15   34.70
  -2   3   1  484.45   34.80
  -2   3   1  428.66   34.20
  -2   3   1  443.86   34.60
  -2   3   1  446.26   34.60
  -2   3   1  463.35   35.10
  -2   3   1  457.25   35.00
   1  -3  -1   54.89    5.80
   1  -3  -1   51.89    7.20
   1  -3  -1   53.59    5.90
   1  -3  -1   52.49    6.00
   1  -3  -1   55.49    5.90
   1  -3  -1   66.59    6.00
  -1   3   1   54.89    6.00
  -1   3   1   59.59    5.90
  -1   3   1   57.29    6.30
  -1   3   1   61.19    6.00
   0  -3  -1  122.09   11.00
   0  -3  -1  119.69   10.70
   0  -3  -1  120.29   11.10
   0  -3  -1  121.19   11.00
   0  -3  -1  139.49   11.70
   0  -3  -1  122.79   10.90
   0   3   1  139.19   11.10
   0   3   1  109.19   10.70
   0   3   1  112.59   11.00
   0   3   1  128.59   11.10
   0   3   1  143.39   11.00
   0   3   1  112.29   11.00
  -1  -3  -1   21.70    3.60
  -1  -3  -1   17.30    3.80
  -1  -3  -1   19.80    3.70
  -1  -3  -1   19.20    2.90
  -1  -3  -1   18.80    4.00
  -1  -3  -1   14.70    3.50
   1   3   1   21.10    3.70
   1   3   1   13.90    3.30
   1   3   1   15.50    3.50
   1   3   1   17.00    3.50
   1   3   1   23.40    3.70
   1   3   1   21.40    4.10
  -2  -3  -1   24.60    4.70
  -2  -3  -1   29.40    4.90
  -2  -3  -1   29.00    3.90
  -2  -3  -1   31.10    4.50
  -2  -3  -1   31.60    4.70
  -2  -3  -1   29.90    4.90
   2   3   1   31.70    4.70
   2   3   1   36.60    4.90
   2   3   1   32.50    5.10
   2   3   1   33.70    4.60
   2   3   1   31.90    5.00
  -3  -3  -1    6.60    2.40
  -3  -3  -1    8.50    2.40
  -3  -3  -1   11.00    3.40
  -3  -3  -1    4.80    2.70
  -3  -3  -1   11.60    3.20
  -3  -3  -1    6.10    2.90
   3   3   1    9.50    3.50
   3   3   1    8.20    2.90
   3   3   1    6.40    2.40
   3   3   1   10.90    3.20
   3   3   1    3.60    2.30
  -4  -3  -1   10.70    3.50
  -4  -3  -1    8.70    3.40
  -4  -3  -1    7.10    3.00
  -4  -3  -1    5.60    3.40
  -4  -3  -1   10.30    2.50
  -4  -3  -1    6.30    3.50
   4   3   1    9.10    4.00
   4   3   1    5.60    2.70
   4   3   1    7.70    3.20
   4   3   1   14.00    3.60
   4   3   1    8.50    5.40
   4   3   1    5.60    2.60
  -5  -3  -1   18.90    4.70
  -5  -3  -1   19.40    3.60
  -5  -3  -1   16.00    4.50
  -5  -3  -1   13.60    4.20
  -5  -3  -1   19.40    5.10
  -5  -3  -1   14.80    5.70
   5   3   1   19.60    5.90
   5   3   1   25.60    5.20
   5   3   1   20.50    5.50
   5   3   1   17.50    4.50
   5   3   1   26.30    4.90
   5   3   1   28.80    5.90
  -6  -3  -1    2.00    5.30
  -6  -3  -1    7.70    3.60
  -6  -3  -1    4.20    3.80
  -6  -3  -1   -7.40    3.10
   6   3   1   -2.60    4.50
   6   3   1   -5.10    3.90
   6   3   1   -0.60    3.40
   6   3   1    3.30    4.40
  -7  -3  -1   27.40    6.00
  -7  -3  -1    8.00    4.70
  -7  -3  -1   30.20    9.60
  -7  -3  -1   18.50    5.10
   7   3   1   24.60    8.40
   7  -4  -1   46.90   13.30
  -7   4   1   37.70    9.60
  -7   4   1   72.39    9.30
  -7   4   1   65.09    8.50
  -7   4   1   63.99    8.20
  -7   4   1   74.69    8.10
   6  -4  -1   12.60    3.20
   6  -4  -1   12.70    8.00
   6  -4  -1   11.30    3.30
   6  -4  -1    4.30    2.80
  -6   4   1    9.80    3.70
  -6   4   1    3.40    3.20
  -6   4   1    4.30    3.40
  -6   4   1    8.30    3.80
  -6   4   1   11.50    3.50
  -6   4   1   12.60    5.40
   5  -4  -1   77.09    8.60
   5  -4  -1   86.29    8.70
   5  -4  -1   82.19    8.50
   5  -4  -1   59.19   13.50
   5  -4  -1   81.69    8.60
   5  -4  -1   75.19    9.50
  -5   4   1   85.89    8.70
  -5   4   1  104.99    9.00
  -5   4   1  104.39    9.60
   4  -4  -1   -3.00    1.90
   4  -4  -1    0.00    1.90
   4  -4  -1    0.50    4.00
   4  -4  -1    1.30    1.90
   4  -4  -1    0.00    1.80
   4  -4  -1   -2.10    1.80
  -4   4   1    0.90    2.00
  -4   4   1    0.80    2.40
  -4   4   1   -1.40    1.80
  -4   4   1    0.00    1.60
  -4   4   1    1.50    2.20
   3  -4  -1    7.00    2.20
   3  -4  -1    5.90    2.60
   3  -4  -1    5.20    3.00
   3  -4  -1    6.70    4.70
   3  -4  -1    6.40    2.30
   3  -4  -1    3.00    2.10
  -3   4   1   10.80    3.50
  -3   4   1    9.90    2.50
  -3   4   1    8.30    2.40
  -3   4   1    9.70    2.70
  -3   4   1    8.70    2.80
  -3   4   1   10.80    2.70
   2  -4  -1  324.87   25.20
   2  -4  -1  348.57   25.30
   2  -4  -1  279.87   25.10
   2  -4  -1  287.67   25.50
   2  -4  -1  286.37   25.30
  -2   4   1  324.57   25.70
  -2   4   1  331.07   25.40
  -2   4   1  303.07   25.10
  -2   4   1  331.77   25.70
   1  -4  -1   76.69    8.20
   1  -4  -1   77.99    9.60
   1  -4  -1   76.39    8.00
   1  -4  -1   86.39    8.10
   1  -4  -1   92.79    8.30
   1  -4  -1   72.79    8.20
  -1   4   1   94.79    8.60
  -1   4   1   79.99    8.00
  -1   4   1   75.79    8.00
  -1   4   1   84.69    8.10
   0  -4  -1   12.50    3.30
   0  -4  -1    8.60    2.60
   0  -4  -1    9.70    2.80
   0  -4  -1   15.70    4.50
   0  -4  -1    3.10    2.20
   0  -4  -1    8.20    2.60
   0   4   1    8.80    2.70
   0   4   1    8.80    2.70
   0   4   1   11.30    3.50
   0   4   1    4.80    2.20
   0   4   1    9.20    2.40
   0   4   1    7.90    2.60
  -1  -4  -1   14.90    3.40
  -1  -4  -1   18.60    3.80
  -1  -4  -1   13.50    3.40
  -1  -4  -1   16.10    3.70
  -1  -4  -1   13.50    3.20
  -1  -4  -1   24.80    4.80
  -1  -4  -1   20.60    4.10
   1   4   1   15.20    3.30
   1   4   1   14.20    3.70
   1   4   1   14.70    3.60
   1   4   1   20.30    4.00
   1   4   1   10.80    3.30
   1   4   1   15.80    3.70
  -2  -4  -1   60.39    6.50
  -2  -4  -1   61.59    7.10
  -2  -4  -1   59.69    7.20
  -2  -4  -1   50.39    6.70
  -2  -4  -1   61.79    7.20
  -2  -4  -1   62.19    7.10
   2   4   1   56.29    6.90
   2   4   1   62.79    7.20
   2   4   1   75.99    7.60
   2   4   1   59.69    7.10
   2   4   1   50.79    7.20
  -3  -4  -1    1.10    2.30
  -3  -4  -1   -1.10    1.60
  -3  -4  -1    1.20    1.80
  -3  -4  -1    0.60    2.30
  -3  -4  -1   -0.40    2.40
  -3  -4  -1   -0.10    2.30
   3   4   1    5.50    2.80
   3   4   1    1.10    2.10
   3   4   1   -1.70    2.30
   3   4   1   -0.40    1.90
  -4  -4  -1   11.70    3.30
  -4  -4  -1   15.00    4.30
  -4  -4  -1    7.70    3.80
  -4  -4  -1    5.80    3.10
  -4  -4  -1    6.60    3.80
  -4  -4  -1    5.60    3.60
   4   4   1   10.10    3.80
   4   4   1    5.40    4.90
   4   4   1    1.80    3.90
   4   4   1    7.70    2.90
   4   4   1    7.60    3.60
  -5  -4  -1   19.30    6.20
  -5  -4  -1   23.30    5.10
  -5  -4  -1   18.60    5.40
  -5  -4  -1   17.80    3.90
  -5  -4  -1    9.20    4.60
  -5  -4  -1   27.60    5.50
   5   4   1   25.30    5.50
   5   4   1   27.40    6.60
   5   4   1   16.60    4.70
   5   4   1   34.70   10.30
   5   4   1   20.30    5.40
  -6  -4  -1   37.60    7.10
  -6  -4  -1   38.80    7.70
  -6  -4  -1   48.20    9.10
  -6  -4  -1   33.70    8.40
  -6  -4  -1   47.10    7.60
  -6  -4  -1   35.50    5.70
   6   4   1   44.00    6.80
   6   4   1   57.09   10.00
   6   4   1   59.69    8.20
   6   4   1   51.09   10.30
   6   4   1   44.30    8.00
   7  -5  -1   40.90   13.90
  -7   5   1   50.79    8.40
  -7   5   1   73.29    8.60
  -7   5   1   58.99    8.60
  -7   5   1   61.59    9.30
   6  -5  -1    4.20    3.50
   6  -5  -1   -2.50    3.30
   6  -5  -1    4.30    3.80
   6  -5  -1    8.20    8.20
   6  -5  -1   -1.70    3.60
  -6   5   1    1.70    3.10
  -6   5   1   -0.30    3.10
  -6   5   1   -2.50    3.50
  -6   5   1   -0.10    3.30
   5  -5  -1    5.90    3.20
   5  -5  -1    3.70    6.60
   5  -5  -1    3.30    2.70
   5  -5  -1    5.90    3.20
   5  -5  -1    3.60    3.00
  -5   5   1    0.30    2.80
  -5   5   1    3.00    2.70
  -5   5   1   -0.50    2.90
  -5   5   1   -1.60    2.60
   4  -5  -1  132.19   12.80
   4  -5  -1  130.29   12.90
   4  -5  -1  122.69   13.10
   4  -5  -1  109.79   16.50
   4  -5  -1  128.99   12.70
  -4   5   1  163.38   13.50
  -4   5   1  141.39   12.80
  -4   5   1  160.58   13.30
  -4   5   1  145.79   13.40
  -4   5   1  132.09   12.10
  -4   5   1  146.39   13.00
   3  -5  -1   18.40    4.20
   3  -5  -1   15.80    3.50
   3  -5  -1   19.70    6.50
   3  -5  -1   22.10    4.30
   3  -5  -1   16.10    4.20
  -3   5   1   35.80    5.60
  -3   5   1   28.10    5.10
  -3   5   1   29.60    4.10
  -3   5   1   23.80    5.10
  -3   5   1   25.20    4.50
   2  -5  -1  107.49    9.60
   2  -5  -1  106.49   11.40
   2  -5  -1  116.79   11.50
   2  -5  -1  132.29   11.60
   2  -5  -1  145.29   11.60
   2  -5  -1  117.49   14.00
   2  -5  -1  110.69   11.60
  -2   5   1  146.79   12.10
  -2   5   1  125.19   11.60
  -2   5   1  124.49   12.10
  -2   5   1  133.19   11.80
   1  -5  -1  261.97   20.80
   1  -5  -1  227.28   20.70
   1  -5  -1  244.18   21.10
   1  -5  -1  229.48   22.10
   1  -5  -1  268.67   20.90
   1  -5  -1  227.28   20.60
  -1   5   1  233.78   20.70
  -1   5   1  250.87   21.00
  -1   5   1  255.27   21.30
  -1   5   1  276.47   21.10
  -1   5   1  229.88   20.60
   0  -5  -1   24.90    4.60
   0  -5  -1   21.50    4.80
   0  -5  -1   23.30    4.90
   0  -5  -1   19.20    4.40
   0  -5  -1   15.40    3.80
   0  -5  -1   24.30    5.80
   0   5   1   20.00    4.60
   0   5   1   14.60    3.80
   0   5   1   17.90    4.40
   0   5   1   14.50    3.90
   0   5   1   17.10    4.30
   0   5   1   15.60    3.50
  -1  -5  -1   50.69    6.80
  -1  -5  -1   53.39    6.50
  -1  -5  -1   48.10    6.10
  -1  -5  -1   57.39    6.70
  -1  -5  -1   54.89    6.70
  -1  -5  -1   54.59    7.00
  -1  -5  -1   51.39    7.20
   1   5   1   48.90    7.00
   1   5   1   45.20    6.90
   1   5   1   51.59    6.70
   1   5   1   52.19    6.90
   1   5   1   59.99    6.60
   1   5   1   62.09    6.90
  -2  -5  -1   32.80    5.80
  -2  -5  -1   23.20    5.50
  -2  -5  -1   31.20    5.50
  -2  -5  -1   26.50    5.10
  -2  -5  -1   37.50    6.30
  -2  -5  -1   25.70    5.40
   2   5   1   29.50    5.80
   2   5   1   20.70    4.80
   2   5   1   26.00    4.90
   2   5   1   23.20    6.50
  -3  -5  -1   11.70    3.40
  -3  -5  -1   12.60    3.90
  -3  -5  -1   10.10    3.60
  -3  -5  -1   13.10    4.20
  -3  -5  -1    5.90    3.10
  -3  -5  -1    7.70    3.80
   3   5   1   14.10    4.20
   3   5   1   15.50    4.50
   3   5   1   12.70    4.00
   3   5   1    9.40    3.70
   3   5   1    8.50    3.80
  -4  -5  -1    3.90    3.40
  -4  -5  -1    2.70    2.90
  -4  -5  -1    2.90    3.30
  -4  -5  -1    4.70    3.00
  -4  -5  -1   -1.30    3.30
   4   5   1    3.00    3.70
   4   5   1    8.30    3.90
   4   5   1    2.20    3.50
   4   5   1    3.10    3.40
   4   5   1    1.60    3.40
   4   5   1    9.10    4.20
  -5  -5  -1   25.20    4.90
  -5  -5  -1   25.40    5.60
  -5  -5  -1   23.30    7.20
  -5  -5  -1   19.00    6.10
  -5  -5  -1   28.20    6.20
  -5  -5  -1   21.10    6.00
   5   5   1   25.10    7.20
   5   5   1   35.60    8.30
   5   5   1   26.20    6.40
   5   5   1   23.80    6.00
   5   5   1   27.20    7.40
   5   5   1   24.70    5.90
  -6  -5  -1    1.10    4.70
  -6  -5  -1    1.60    3.50
  -6  -5  -1    4.30    5.70
  -6  -5  -1    1.80    5.40
  -6  -5  -1   10.40    5.40
  -6  -5  -1    8.50    6.20
   6   5   1    2.10    5.00
   6   5   1    8.50    7.30
   6   5   1   11.70    6.80
   6   5   1   14.60   11.20
   7  -6  -1    6.00    9.20
   7  -6  -1    6.50    6.10
  -7   6   1    9.40    5.30
  -7   6   1    3.30    5.00
  -7   6   1   10.20    5.50
  -7   6   1   -1.00    4.60
  -7   6   1   12.60    6.90
   6  -6  -1   36.00    6.50
   6  -6  -1   39.40    6.70
   6  -6  -1   39.80    8.00
   6  -6  -1   54.99   14.90
   6  -6  -1   36.90    6.90
  -6   6   1   44.60    7.20
  -6   6   1   59.49    8.30
  -6   6   1   55.69    7.80
   5  -6  -1   -0.20    3.50
   5  -6  -1   -1.00    3.30
   5  -6  -1    0.80    3.60
   5  -6  -1   -1.50    7.50
   5  -6  -1   -1.10    3.00
  -5   6   1   -1.20    3.30
  -5   6   1    5.00    3.40
  -5   6   1    1.00    3.20
  -5   6   1    7.70    3.90
  -5   6   1   -3.80    3.10
   4  -6  -1   29.50    5.80
   4  -6  -1   32.10    5.70
   4  -6  -1   31.10    5.60
   4  -6  -1   22.60    8.90
   4  -6  -1   30.30    5.50
   4  -6  -1   37.90    7.40
  -4   6   1   28.00    4.40
  -4   6   1   42.60    6.80
  -4   6   1   33.00    6.60
  -4   6   1   26.90    5.40
  -4   6   1   35.80    6.20
   3  -6  -1    5.70    2.90
   3  -6  -1    5.10    3.10
   3  -6  -1    8.60    3.30
   3  -6  -1    9.80    6.70
   3  -6  -1   13.20    5.30
   3  -6  -1   11.50    3.80
  -3   6   1   10.20    3.20
  -3   6   1   13.20    3.70
  -3   6   1    9.70    3.60
  -3   6   1    9.80    3.20
  -3   6   1   13.80    4.50
  -3   6   1    9.50    2.60
   2  -6  -1    1.30    1.80
   2  -6  -1    1.20    2.30
   2  -6  -1    4.70    5.50
   2  -6  -1    0.70    2.50
   2  -6  -1    1.90    3.20
   2  -6  -1    0.20    4.20
  -2   6   1   -1.00    2.10
  -2   6   1    2.00    3.20
  -2   6   1   -0.60    1.50
  -2   6   1   -1.30    2.80
  -2   6   1    0.90    2.50
   1  -6  -1  115.69   12.50
   1  -6  -1  152.08   13.00
   1  -6  -1  146.19   13.70
   1  -6  -1  123.89   12.80
   1  -6  -1  146.39   14.90
   1  -6  -1  101.69   12.70
  -1   6   1  131.29   12.80
  -1   6   1  122.09   12.80
  -1   6   1  144.99   13.20
  -1   6   1  134.99   13.30
  -1   6   1  148.49   13.10
  -1   6   1  142.89   13.20
   0  -6  -1   -3.40    2.30
   0  -6  -1    2.20    2.50
   0  -6  -1    1.30    4.00
   0  -6  -1    2.00    2.70
   0  -6  -1    0.10    1.80
   0  -6  -1    1.80    2.20
   0   6   1   -0.20    1.50
   0   6   1    0.60    2.80
   0   6   1   -1.00    1.90
   0   6   1    2.10    2.80
   0   6   1   -2.50    2.40
   0   6   1   -0.70    1.80
  -1  -6  -1   14.70    4.90
  -1  -6  -1   10.90    3.10
  -1  -6  -1    8.20    3.80
  -1  -6  -1   17.10    5.50
  -1  -6  -1   10.40    3.70
  -1  -6  -1    8.60    3.00
  -1  -6  -1   12.10    3.80
   1   6   1   16.70    4.60
   1   6   1   14.00    4.60
   1   6   1   13.20    3.70
   1   6   1   13.80    4.60
   1   6   1   13.70    3.60
   1   6   1    7.50    3.60
  -2  -6  -1  116.29   12.80
  -2  -6  -1  125.49   12.40
  -2  -6  -1  105.39   13.40
  -2  -6  -1  138.79   12.80
  -2  -6  -1  121.79   13.10
  -2  -6  -1  113.49   12.70
  -2  -6  -1  141.09   13.10
   2   6   1  125.29   12.80
   2   6   1  115.49   13.90
   2   6   1  132.29   13.20
   2   6   1  117.19   12.80
   2   6   1   95.99   12.20
  -3  -6  -1   69.49    9.10
  -3  -6  -1   76.39    9.80
  -3  -6  -1   72.39    8.80
  -3  -6  -1   64.99    8.00
  -3  -6  -1   61.09   13.50
  -3  -6  -1   59.49    9.00
   3   6   1   66.89    9.10
   3   6   1   62.69    9.10
   3   6   1   71.69    9.30
   3   6   1   64.89    9.00
   3   6   1   70.49    9.40
  -4  -6  -1    0.60    4.10
  -4  -6  -1    1.60    3.50
  -4  -6  -1   -3.40    4.20
  -4  -6  -1    0.30    3.50
  -4  -6  -1    2.80    3.40
  -4  -6  -1   10.90    4.70
   4   6   1   12.10    5.40
   4   6   1   -0.10    4.70
   4   6   1    1.60    4.50
   4   6   1    2.30    4.40
   4   6   1   -2.50    3.80
   4   6   1    3.00    4.30
  -5  -6  -1    7.70    5.20
  -5  -6  -1   11.80    6.20
  -5  -6  -1   14.80    5.30
  -5  -6  -1   24.50    7.40
  -5  -6  -1    5.60    7.60
  -5  -6  -1   20.10    5.20
   5   6   1   11.70    7.00
   5   6   1   17.60    6.50
   5   6   1   19.90    6.60
   5   6   1   18.50    6.60
  -6  -6  -1    3.90    6.20
  -6  -6  -1   -6.60    5.70
  -6  -6  -1   -0.90    5.40
  -6  -6  -1  -14.70    6.10
  -6  -6  -1   -9.20    4.20
  -6  -6  -1  -10.80    4.10
   6   6   1   -7.90   10.20
   6   6   1    2.10    5.30
   6   6   1    8.80    7.60
   6  -7  -1   28.60    8.10
   6  -7  -1   27.20    6.90
   6  -7  -1   23.40    6.50
   6  -7  -1   23.40   10.30
  -6   7   1   33.10    7.10
  -6   7   1   23.20    6.10
  -6   7   1   29.50    6.20
   5  -7  -1    5.60    4.20
   5  -7  -1    3.40    3.90
   5  -7  -1    0.40    4.00
   5  -7  -1    9.90    7.30
  -5   7   1    1.50    3.40
  -5   7   1    0.50    3.90
  -5   7   1    5.50    4.30
  -5   7   1    2.00    4.20
   4  -7  -1   14.40    4.20
   4  -7  -1    9.50    4.10
   4  -7  -1    9.30    4.10
   4  -7  -1   11.80    4.40
   4  -7  -1    7.20    7.10
  -4   7   1   17.30    4.60
  -4   7   1   10.40    3.10
  -4   7   1   17.70    5.00
  -4   7   1    9.50    3.70
  -4   7   1   15.00    4.40
  -4   7   1   15.90    5.00
   3  -7  -1    3.90    3.50
   3  -7  -1   14.00    4.50
   3  -7  -1    8.90    3.90
   3  -7  -1    7.70    6.50
   3  -7  -1   18.60    4.40
   3  -7  -1   22.70    5.80
  -3   7   1   16.80    4.70
  -3   7   1   17.00    4.40
  -3   7   1   15.50    4.50
  -3   7   1    9.10    4.60
  -3   7   1   11.30    4.00
  -3   7   1    8.00    2.80
   2  -7  -1    1.50    3.00
   2  -7  -1    3.20    2.50
   2  -7  -1   -0.70    3.00
   2  -7  -1    8.60    5.80
   2  -7  -1    0.40    3.50
  -2   7   1    3.50    3.10
  -2   7   1    0.50    3.00
  -2   7   1    3.90    2.80
  -2   7   1    3.50    3.50
  -2   7   1    0.40    3.20
   1  -7  -1   27.10    5.60
   1  -7  -1   20.40    5.40
   1  -7  -1   14.80    4.00
   1  -7  -1   16.10    6.30
   1  -7  -1   17.00    4.40
   1  -7  -1   10.10    5.10
  -1   7   1   17.40    4.70
  -1   7   1   22.30    5.40
  -1   7   1   15.70    4.80
  -1   7   1   11.00    4.10
  -1   7   1   12.50    4.30
  -1   7   1   19.70    4.90
   0  -7  -1   -1.10    5.30
   0  -7  -1    2.30    3.10
   0  -7  -1   -0.70    3.00
   0  -7  -1   -1.00    1.90
   0  -7  -1   -0.80    3.00
   0  -7  -1   -4.30    3.00
   0   7   1   -2.70    2.90
   0   7   1    1.00    3.30
   0   7   1   -0.20    2.70
   0   7   1   -0.90    3.30
   0   7   1    2.80    2.60
   0   7   1    0.10    2.50
  -1  -7  -1   43.10    7.50
  -1  -7  -1   43.50    7.70
  -1  -7  -1   41.90    7.10
  -1  -7  -1   38.70    7.00
  -1  -7  -1   51.89    9.30
  -1  -7  -1   35.40    7.00
   1   7   1   41.40    7.90
   1   7   1   45.00    7.30
   1   7   1   30.00    5.90
   1   7   1   33.40    6.70
   1   7   1   28.50    5.80
   1   7   1   62.89   14.50
  -2  -7  -1   36.20    6.70
  -2  -7  -1   31.40    8.30
  -2  -7  -1   18.70    5.80
  -2  -7  -1   25.70    5.20
  -2  -7  -1   30.80    6.60
  -2  -7  -1   34.90    6.50
  -2  -7  -1   23.70    5.20
   2   7   1   26.20    5.90
   2   7   1   16.20    5.50
   2   7   1   33.10    7.10
   2   7   1   12.70    5.00
  -3  -7  -1    5.70    9.10
  -3  -7  -1    1.90    3.40
  -3  -7  -1   10.00    5.30
  -3  -7  -1    3.30    3.90
  -3  -7  -1   -1.10    3.50
  -3  -7  -1   -1.40    2.70
  -3  -7  -1    0.10    3.50
   3   7   1   -3.50    3.80
   3   7   1    7.90    5.00
   3   7   1   -0.90    4.10
   3   7   1    1.30    4.30
   3   7   1    1.90    4.10
  -4  -7  -1    9.40    4.30
  -4  -7  -1   12.60    5.30
  -4  -7  -1   -7.30    5.30
  -4  -7  -1    6.50    4.60
  -4  -7  -1   12.90    5.90
  -4  -7  -1   10.90    4.50
   4   7   1    8.50    5.40
   4   7   1    7.40    5.20
   4   7   1   -0.50    5.10
   4   7   1    2.00    5.90
   4   7   1   -5.30    4.80
  -5  -7  -1   72.79   10.50
  -5  -7  -1   85.09   11.80
  -5  -7  -1   48.30    9.60
  -5  -7  -1   50.79   10.90
  -5  -7  -1   69.69   11.80
  -5  -7  -1   90.49   12.70
   5   7   1   69.59   11.90
   5   7   1   65.19   12.60
   5   7   1   79.39   12.30
   6  -8  -1   -3.40    6.90
   6  -8  -1    5.00    6.60
   6  -8  -1    2.10    6.30
  -6   8   1   -7.60    4.40
  -6   8   1   15.10    6.20
  -6   8   1    9.90    8.90
   5  -8  -1  111.49   15.10
   5  -8  -1  133.59   14.20
   5  -8  -1  118.39   14.00
   5  -8  -1   77.89   18.40
  -5   8   1  130.79   14.10
  -5   8   1  150.08   15.40
  -5   8   1  113.09   14.60
  -5   8   1  150.58   15.00
  -5   8   1  151.38   14.80
   4  -8  -1    0.60    3.90
   4  -8  -1    4.40    8.10
   4  -8  -1    7.60    4.00
   4  -8  -1   -0.50    4.00
   4  -8  -1    2.00    4.80
  -4   8   1    3.10    4.10
  -4   8   1   -0.40    4.10
  -4   8   1   -1.90    4.00
  -4   8   1   -3.10    4.80
  -4   8   1   -4.10    4.10
  -4   8   1    0.10    2.40
   3  -8  -1   12.70    4.00
   3  -8  -1   17.80    4.90
   3  -8  -1   14.10    6.20
   3  -8  -1    9.20    4.90
   3  -8  -1   22.40    5.50
   3  -8  -1    7.60    6.50
  -3   8   1   16.00    5.90
  -3   8   1   26.80    6.20
  -3   8   1   15.90    5.30
  -3   8   1   20.30    5.80
   2  -8  -1   76.79   11.40
   2  -8  -1   85.19   11.00
   2  -8  -1  103.69   12.80
   2  -8  -1   95.29   13.70
   2  -8  -1   84.59   11.70
   2  -8  -1  110.89   12.00
  -2   8   1  112.19   12.50
  -2   8   1   95.39   11.60
  -2   8   1  106.59   11.70
  -2   8   1  110.19   12.20
  -2   8   1   96.09   12.10
   1  -8  -1    7.90    4.40
   1  -8  -1    7.50    4.50
   1  -8  -1    1.30    3.80
   1  -8  -1   -1.80    5.90
   1  -8  -1    6.50    2.80
   1  -8  -1    6.80    3.80
  -1   8   1    7.00    4.60
  -1   8   1    3.30    3.00
  -1   8   1    7.20    4.40
  -1   8   1    1.50    3.80
  -1   8   1   11.80    4.80
  -1   8   1    4.00    3.60
   0  -8  -1    2.50    2.70
   0  -8  -1    8.30    4.90
   0  -8  -1   19.50    7.20
   0  -8  -1   10.40    4.20
   0  -8  -1   25.40    6.00
   0  -8  -1   12.60    5.10
   0   8   1   14.10    4.30
   0   8   1   11.40    4.70
   0   8   1    9.30    4.20
   0   8   1    2.10    4.50
   0   8   1   23.70    6.10
  -1  -8  -1    9.60    7.30
  -1  -8  -1   12.20    5.90
  -1  -8  -1    8.60    4.40
  -1  -8  -1    5.60    4.20
  -1  -8  -1   11.50    4.30
  -1  -8  -1    7.60    4.70
   1   8   1    5.90    5.20
   1   8   1   10.10    4.80
   1   8   1   10.40    5.30
   1   8   1    9.60    4.50
   1   8   1    5.90    5.10
  -2  -8  -1  146.39   16.50
  -2  -8  -1  197.38   22.30
  -2  -8  -1  146.89   15.50
  -2  -8  -1  170.78   18.20
  -2  -8  -1  191.88   17.50
  -2  -8  -1  133.19   15.00
  -2  -8  -1  158.78   17.30
   2   8   1  155.18   16.40
   2   8   1  123.09   15.60
   2   8   1  134.19   16.20
   2   8   1  170.88   16.80
   2   8   1  129.09   15.80
  -3  -8  -1   18.50    5.70
  -3  -8  -1   21.50    7.30
  -3  -8  -1   10.00    4.40
  -3  -8  -1   20.10    5.80
  -3  -8  -1   24.30    6.30
  -3  -8  -1   20.20    5.70
   3   8   1   17.10    7.00
   3   8   1   29.60   10.40
   3   8   1   24.20    6.90
   3   8   1   14.80    5.40
   3   8   1   17.80    9.70
  -4  -8  -1    0.30    4.20
  -4  -8  -1    1.90    4.40
  -4  -8  -1    1.10   10.20
  -4  -8  -1   13.80    7.80
  -4  -8  -1   -0.20    4.50
  -4  -8  -1   15.00    8.00
  -4  -8  -1    2.50    4.90
   4   8   1    0.70    5.60
   4   8   1   10.00   10.20
   4   8   1    3.70    5.20
   4   8   1   -9.20    6.80
  -5  -8  -1   36.90    9.30
  -5  -8  -1   55.99    9.90
  -5  -8  -1   79.49   12.00
  -5  -8  -1   36.50   10.70
  -5  -8  -1   47.40    9.80
  -5  -8  -1   38.00    8.50
   5   8   1   46.10   14.70
   5   8   1   61.79   11.80
   5   8   1   47.50   11.90
   5  -9  -1    3.40    7.50
   5  -9  -1  -12.90    6.90
   5  -9  -1   -1.10    6.10
  -5   9   1    6.30    6.50
  -5   9   1  -13.50    5.30
  -5   9   1   -5.20    4.70
  -5   9   1   -0.30    6.50
  -5   9   1    3.10    5.90
   4  -9  -1    3.00    4.90
   4  -9  -1    3.10    4.40
   4  -9  -1    4.90    6.30
   4  -9  -1   -1.80    7.00
   4  -9  -1    1.80    6.70
   4  -9  -1   -4.90    5.80
  -4   9   1    0.70    4.30
  -4   9   1    5.80    6.10
  -4   9   1   -2.80    5.30
  -4   9   1   -0.10    4.80
  -4   9   1    0.20    5.30
   3  -9  -1    0.10    4.30
   3  -9  -1    0.00    9.20
   3  -9  -1   -8.20    5.80
   3  -9  -1   -4.10    5.30
   3  -9  -1   -1.20    4.10
   3  -9  -1    2.20    3.40
  -3   9   1   -0.40    4.30
  -3   9   1   -6.90    4.00
  -3   9   1   -9.90    4.60
  -3   9   1   -6.80    5.00
  -3   9   1   -2.00    3.20
   2  -9  -1  162.18   15.40
   2  -9  -1  123.59   14.60
   2  -9  -1  112.39   15.80
   2  -9  -1  107.19   13.80
   2  -9  -1  110.59   14.60
   2  -9  -1  141.29   14.30
  -2   9   1  137.59   14.90
  -2   9   1  120.19   14.30
  -2   9   1  143.09   15.40
  -2   9   1  119.39   14.80
  -2   9   1  153.08   20.30
   1  -9  -1    0.50    4.70
   1  -9  -1   -0.70    4.10
   1  -9  -1    1.00    4.40
   1  -9  -1   -1.00    4.10
   1  -9  -1    2.50    4.00
   1  -9  -1    4.90    5.80
  -1   9   1   -2.10    5.30
  -1   9   1    6.20    4.50
  -1   9   1   -7.80    4.00
  -1   9   1   -1.60    3.00
  -1   9   1    1.80    4.20
  -1   9   1   -5.20    4.30
   0  -9  -1   19.20    5.90
   0  -9  -1   10.30    5.70
   0  -9  -1   25.60    9.00
   0  -9  -1   18.50    5.40
   0  -9  -1    8.90    6.10
   0  -9  -1   12.40    6.50
   0   9   1   22.10    6.90
   0   9   1    7.80    4.20
   0   9   1    6.50    5.10
   0   9   1   15.60    7.00
   0   9   1   27.20    6.80
   0   9   1   10.60    5.30
  -1  -9  -1  492.45   44.20
  -1  -9  -1  516.25   44.40
  -1  -9  -1  512.55   44.70
  -1  -9  -1  596.14   44.40
  -1  -9  -1  475.25   43.40
   1   9   1  590.54   45.20
   1   9   1  608.94   44.90
   1   9   1  512.15   44.00
   1   9   1  474.85   43.90
   1   9   1  478.15   44.30
  -2  -9  -1    4.50    3.80
  -2  -9  -1    6.70    8.10
  -2  -9  -1   11.50   12.10
  -2  -9  -1    8.80    5.10
  -2  -9  -1    9.20    6.50
  -2  -9  -1    4.70    4.40
   2   9   1    3.70    7.20
   2   9   1    8.60    6.70
   2   9   1    9.20    5.60
   2   9   1   16.20    6.50
   2   9   1    5.50    6.10
  -3  -9  -1    5.60    6.40
  -3  -9  -1    0.70    4.60
  -3  -9  -1   -3.30   11.10
  -3  -9  -1    1.10    4.80
  -3  -9  -1    7.20    8.00
  -3  -9  -1    3.10    4.50
   3   9   1    3.30    6.00
   3   9   1    2.60   10.60
   3   9   1    1.70    7.00
   3   9   1    3.00    5.10
  -4  -9  -1   57.39   12.30
  -4  -9  -1   40.50    8.60
  -4  -9  -1   53.59   12.10
  -4  -9  -1   90.59   18.30
  -4  -9  -1   28.40   10.20
  -4  -9  -1   26.80    8.40
   4   9   1   57.09    9.90
   4   9   1   50.99   10.90
   4   9   1   56.99   11.50
   4   9   1   46.90   10.90
   5 -10  -1    1.70    8.00
   5 -10  -1   11.60   10.20
   5 -10  -1   27.60   12.50
  -5  10   1    6.60    8.10
  -5  10   1    4.70    8.10
  -5  10   1    8.10    6.60
  -5  10   1   33.10    9.90
  -5  10   1   11.10    6.70
   4 -10  -1   21.70    9.50
   4 -10  -1   28.70    7.80
   4 -10  -1   26.80    7.00
   4 -10  -1   25.80    9.00
  -4  10   1   27.40    9.20
  -4  10   1   29.00    8.30
  -4  10   1   39.40    8.10
  -4  10   1   20.20    7.90
  -4  10   1   15.50    7.10
   3 -10  -1   10.90    8.50
   3 -10  -1   19.20    7.60
   3 -10  -1   31.50    7.80
   3 -10  -1   19.50    9.00
   3 -10  -1   29.40    3.00
   3 -10  -1   30.70    9.60
   3 -10  -1   13.50    5.30
  -3  10   1   26.10    7.40
  -3  10   1   16.70    7.20
  -3  10   1   42.40    9.00
  -3  10   1   29.40    7.40
  -3  10   1   21.40    7.70
   2 -10  -1   17.90    3.40
   2 -10  -1   -2.70    6.70
   2 -10  -1    9.90    7.60
   2 -10  -1   14.80    8.10
   2 -10  -1   21.90    6.50
   2 -10  -1   15.40    3.20
   2 -10  -1   11.30    5.20
   2 -10  -1   13.20    6.50
  -2  10   1   14.90    7.30
  -2  10   1   11.70    7.80
  -2  10   1   19.50    6.20
  -2  10   1   10.90    7.00
  -2  10   1    5.00    4.60
  -2  10   1   -4.80    5.90
   1 -10  -1    6.30    7.20
   1 -10  -1   11.20    6.10
   1 -10  -1    9.00    4.80
   1 -10  -1    4.70    6.70
   1 -10  -1   10.90    4.90
   1 -10  -1    1.40    6.20
  -1  10   1   15.60    7.00
  -1  10   1    5.00    5.30
  -1  10   1   10.60    6.40
  -1  10   1   14.00    7.10
  -1  10   1    3.50    6.10
  -1  10   1    4.10    4.10
   0 -10  -1   -8.80    7.50
   0 -10  -1   -1.00    4.80
   0 -10  -1    0.80    7.10
   0 -10  -1    0.20    4.80
   0 -10  -1    0.50    7.30
   0  10   1    8.80    6.70
   0  10   1  -11.50    4.80
   0  10   1    3.60    5.80
   0  10   1    0.80    5.70
   0  10   1    9.80    7.20
  -1 -10  -1  133.29   18.70
  -1 -10  -1  126.99   16.40
  -1 -10  -1  159.38   16.40
  -1 -10  -1  118.99   17.40
  -1 -10  -1  123.09   14.90
  -1 -10  -1  137.39   16.80
   1  10   1  139.49   16.70
   1  10   1  115.49   21.70
   1  10   1  123.79   16.50
   1  10   1  139.29   16.60
   1  10   1  153.18   17.80
  -2 -10  -1   -6.70    5.00
  -2 -10  -1    7.20    7.80
  -2 -10  -1   25.70    9.40
  -2 -10  -1   -2.00    5.10
  -2 -10  -1    5.40    5.30
  -2 -10  -1   -5.40    8.70
   2  10   1    2.80    7.90
   2  10   1   -0.10    4.60
   2  10   1    1.80    6.90
   2  10   1    1.50    7.60
   2  10   1    3.30    7.50
  -3 -10  -1    5.10   11.10
  -3 -10  -1   -0.30    5.20
  -3 -10  -1   -4.00    7.70
  -3 -10  -1    6.20   12.30
  -3 -10  -1   -3.40    9.10
  -3 -10  -1   -4.20    5.40
   3  10   1    6.40    8.50
   3  10   1    2.60    6.50
   3  10   1    3.60    7.40
   3  10   1   -2.00    8.80
   4 -11  -1   10.20    8.30
   4 -11  -1    0.70    7.40
   4 -11  -1   -2.60    7.80
  -4  11   1    0.60    7.20
  -4  11   1   -5.30    8.70
  -4  11   1   -2.30    6.30
  -4  11   1    0.10    9.90
   3 -11  -1  136.79   11.70
   3 -11  -1  177.88   18.50
   3 -11  -1  144.99   18.10
   3 -11  -1   96.29   22.20
   3 -11  -1  152.88   13.10
  -3  11   1  158.18   18.30
  -3  11   1  151.38   19.00
  -3  11   1  147.29   24.80
  -3  11   1  145.09   20.60
   2 -11  -1   21.60    7.70
   2 -11  -1   29.80    4.50
   2 -11  -1   26.10   10.70
   2 -11  -1   30.30    4.60
   2 -11  -1   30.00    8.70
   2 -11  -1   18.00   14.10
  -2  11   1   23.60    8.00
  -2  11   1   30.10   10.20
  -2  11   1   32.40    9.90
  -2  11   1   20.40    8.10
  -2  11   1   24.80    8.70
   1 -11  -1   14.10    9.40
   1 -11  -1    9.90    9.00
   1 -11  -1   20.00    6.80
   1 -11  -1    9.40    9.30
  -1  11   1    1.00    8.10
  -1  11   1   10.80    8.10
  -1  11   1    8.30    8.50
  -1  11   1   28.30    8.20
  -1  11   1   10.20    8.70
   0 -11  -1   32.50   11.10
   0 -11  -1   19.00    8.00
   0 -11  -1   15.80   11.60
   0 -11  -1   21.40   10.30
   0 -11  -1   31.20    9.20
   0  11   1   34.10    9.10
   0  11   1   11.80    8.60
   0  11   1   58.89   11.80
   0  11   1   36.50    9.60
   0  11   1   28.00    9.60
  -1 -11  -1   36.60   12.20
  -1 -11  -1   29.80   10.40
  -1 -11  -1   49.80   12.40
  -1 -11  -1   33.00    8.10
  -1 -11  -1   31.00    8.30
   1  11   1   36.30   10.60
   1  11   1   13.10    9.60
   1  11   1   24.50    9.50
   1  11   1   33.40   10.60
  -2 -11  -1   62.99   14.70
  -2 -11  -1   45.70   10.60
  -2 -11  -1   64.79   14.00
  -2 -11  -1   75.09   14.80
  -2 -11  -1   30.40    9.00
   2  11   1   45.40   13.30
   2  11   1   62.69   11.00
   2  11   1   74.99   12.50
  -3 -11  -1   24.70   14.30
  -3 -11  -1    4.90    7.50
   3  11   1    6.80    9.70
   3 -12  -1    5.90    9.50
   3 -12  -1    8.80    3.00
   3 -12  -1   21.80    8.80
   3 -12  -1   -0.60    9.20
  -3  12   1   21.40   13.70
  -3  12   1   13.80    9.50
  -3  12   1    9.40   10.80
  -3  12   1   18.50   12.20
  -3  12   1    0.50    7.10
   2 -12  -1    3.70    9.20
   2 -12  -1   14.10    4.30
   2 -12  -1    1.60    7.30
   2 -12  -1   11.60    5.30
   2 -12  -1   22.50   10.00
  -2  12   1   23.50   11.10
  -2  12   1   11.40    8.20
  -2  12   1   14.30   10.50
   1 -12  -1  -17.50   11.70
   1 -12  -1   -1.10   10.70
   1 -12  -1   10.70   12.90
   1 -12  -1   19.80    9.50
  -1  12   1   16.20    9.60
  -1  12   1    1.10   11.40
  -1  12   1    7.40    8.30
  -1  12   1   11.70   11.50
   0 -12  -1  516.25   50.79
   0 -12  -1  534.65   51.09
   0 -12  -1  493.35   46.60
   0 -12  -1  561.54   46.40
   0  12   1  561.94   44.20
   0  12   1  526.45   47.10
   0  12   1  419.26   46.10
   0  12   1  542.65   48.60
  -1 -12  -1   86.29   13.80
  -1 -12  -1   93.69   16.60
  -1 -12  -1   92.49   19.10
   1  12   1   93.19   15.10
   1  12   1   62.19   14.10
   1  12   1  102.69   13.70
   1  13  -2   -9.50    8.80
   1  13  -2   -1.80    6.90
   1  13  -2  -28.80   11.70
   1  13  -2    2.60    9.70
  -1 -13   2   -9.60    6.60
  -1 -13   2  -15.70    9.50
  -1 -13   2    5.20   13.60
  -1 -13   2  -23.80   13.00
  -1 -13   2   11.70    5.30
   0  13  -2    5.50    5.60
   0  13  -2  -21.10    8.00
   0  13  -2   -7.10    9.20
   0 -13   2   -8.10    9.90
   0 -13   2   -1.90    4.80
   0 -13   2  -20.20   10.60
   0 -13   2   -2.40    7.40
   0 -13   2   -8.80    6.10
   0 -13   2  -10.20   12.30
  -1  13  -2   -0.60   10.10
  -1  13  -2   11.50   10.00
  -1  13  -2   11.70   10.70
  -1  13  -2   -3.40    8.30
  -1  13  -2    3.90    4.50
   1 -13   2   -4.00    8.70
   1 -13   2   11.80    8.10
   1 -13   2   -7.40   18.60
   1 -13   2   -1.10    4.90
   1 -13   2    0.60    7.50
  -2  13  -2   -4.80    9.80
  -2  13  -2   -2.70   10.60
  -2  13  -2   15.80    9.00
  -2  13  -2   -1.00   10.90
   2 -13   2    9.60    7.50
   2 -13   2   -4.00    7.70
   2 -13   2    1.40    3.60
  -3  13  -2  -24.60    8.80
  -3  13  -2   -4.00   11.10
  -3  13  -2  -24.30   14.50
   3 -13   2    2.30    8.80
   3 -13   2  -18.40    9.40
   3 -13   2   12.00   10.50
   3  12  -2   36.40   12.40
   3  12  -2   20.40   10.00
   3  12  -2   33.30    9.00
   3  12  -2   33.00   12.00
  -3 -12   2   42.60   13.30
  -3 -12   2   49.60   14.70
  -3 -12   2   33.10    9.40
  -3 -12   2   20.50    7.90
   2  12  -2   69.59   11.80
   2  12  -2   73.99   11.60
   2  12  -2   56.29   12.60
   2  12  -2   67.19   12.00
  -2 -12   2   40.00   12.30
  -2 -12   2   26.40   13.30
  -2 -12   2   60.99   11.60
  -2 -12   2   49.90   10.10
   1  12  -2  -17.70   10.80
   1  12  -2    1.20    5.50
   1  12  -2   -2.30    7.90
   1  12  -2    2.50    6.50
   1  12  -2  -13.30    7.00
  -1 -12   2    0.10    9.30
  -1 -12   2   -8.70    9.60
  -1 -12   2    7.40    5.80
  -1 -12   2   -8.80    7.80
  -1 -12   2    2.80    5.90
   0  12  -2   -1.30    7.40
   0  12  -2   -1.20    8.20
   0  12  -2   -7.70    7.10
   0  12  -2    1.50    4.40
   0  12  -2   -6.50    6.40
   0 -12   2    3.40    8.70
   0 -12   2    0.20    8.20
   0 -12   2   -4.20    4.80
   0 -12   2    6.90    4.10
   0 -12   2    0.90    6.10
   0 -12   2    3.00    8.40
  -1  12  -2   26.50   10.30
  -1  12  -2   38.00    6.10
  -1  12  -2   10.30   11.10
  -1  12  -2   45.40   10.80
  -1  12  -2   29.70    9.50
   1 -12   2   37.90    9.30
   1 -12   2   31.60   11.30
   1 -12   2   27.80   10.20
   1 -12   2   36.80    6.10
   1 -12   2   25.80    7.50
  -2  12  -2   16.70    8.70
  -2  12  -2   24.40    7.90
  -2  12  -2   10.10    8.00
  -2  12  -2   13.30    8.90
  -2  12  -2    8.20    7.80
   2 -12   2   11.60    7.20
   2 -12   2    5.80   10.30
   2 -12   2    8.50   11.20
   2 -12   2    4.60    8.30
   2 -12   2   11.60    3.60
  -3  12  -2  -17.70    8.30
  -3  12  -2   -4.30    6.70
  -3  12  -2   -3.00    8.10
  -3  12  -2  -11.00    8.30
   3 -12   2   19.90   10.00
   3 -12   2   -0.50    6.60
  -4  12  -2   -8.60   10.00
  -4  12  -2   -0.40    8.90
   4 -12   2    4.30    8.70
   4 -12   2    1.20    8.90
   4 -12   2    9.10    9.10
   4  11  -2    3.70   14.50
   4  11  -2    5.00    6.60
   4  11  -2   -5.20    7.50
  -4 -11   2   -2.70    6.10
  -4 -11   2    0.90    6.10
  -4 -11   2    8.70   10.90
  -4 -11   2    0.40   17.30
   3  11  -2    6.90   10.10
   3  11  -2   29.30    7.70
   3  11  -2   25.40    9.60
   3  11  -2   14.00    7.70
  -3 -11   2   23.70    6.60
  -3 -11   2   11.70    7.00
  -3 -11   2   16.00    8.70
  -3 -11   2   19.70    9.70
   2  11  -2   -4.00    8.30
   2  11  -2    5.20    6.60
   2  11  -2   -5.90    7.30
   2  11  -2    4.80    6.30
   2  11  -2    7.90    5.40
  -2 -11   2    1.30    4.70
  -2 -11   2    7.60    6.60
  -2 -11   2   -1.80    6.30
  -2 -11   2   -3.50    8.20
   1  11  -2   -4.30    5.90
   1  11  -2    5.60    6.00
   1  11  -2   -2.50    6.00
   1  11  -2   10.70    5.60
   1  11  -2    1.70    4.40
  -1 -11   2    4.70    4.80
  -1 -11   2    5.00    6.90
  -1 -11   2   -1.40    7.00
  -1 -11   2    3.30    4.60
  -1 -11   2   -6.70    6.20
  -1 -11   2    0.90    4.40
   0  11  -2    3.70    5.70
   0  11  -2    5.20    6.20
   0  11  -2    5.00    6.30
   0  11  -2   19.00    7.50
   0  11  -2   12.60    4.40
   0  11  -2    3.90    6.00
   0 -11   2    5.00    6.40
   0 -11   2   -0.30    4.10
   0 -11   2   10.30    5.50
   0 -11   2    4.70    5.10
   0 -11   2    4.60    7.20
   0 -11   2    7.00    7.60
   0 -11   2    8.50    3.60
  -1  11  -2   18.80    7.10
  -1  11  -2   14.90    6.90
  -1  11  -2   13.80    7.20
  -1  11  -2    9.00    6.00
  -1  11  -2   29.10    8.90
   1 -11   2   27.80    4.40
   1 -11   2   20.00    6.30
   1 -11   2   30.20    7.10
   1 -11   2   17.70    5.60
   1 -11   2   13.60    8.70
   1 -11   2   17.30    7.00
   1 -11   2   12.80    7.50
  -2  11  -2   -2.80    6.30
  -2  11  -2    8.00    5.80
  -2  11  -2   -0.10    5.60
  -2  11  -2    4.90    8.20
   2 -11   2   -3.80    4.90
   2 -11   2    1.70    6.60
   2 -11   2   -0.10    2.40
   2 -11   2   -2.30    7.10
   2 -11   2    5.30    4.90
   2 -11   2    5.10    5.10
  -3  11  -2    5.30    7.50
  -3  11  -2   -5.60    6.50
  -3  11  -2   -1.40    6.10
  -3  11  -2    1.70    5.80
   3 -11   2   -0.20    5.90
   3 -11   2    2.80    2.30
   3 -11   2    5.20    6.70
   3 -11   2    1.00    6.90
   3 -11   2   12.20   11.20
   3 -11   2   -7.50    7.20
   3 -11   2    3.10    5.70
  -4  11  -2   50.09    9.60
  -4  11  -2   35.30    9.60
  -4  11  -2   49.70   10.70
  -4  11  -2   49.00   10.00
   4 -11   2   44.80    9.40
   4 -11   2   62.69   12.30
   4 -11   2   36.30    8.90
   4 -11   2   61.49   13.40
  -5  11  -2    0.40    8.20
  -5  11  -2  -13.70   10.00
  -5  11  -2   15.70    7.50
   5 -11   2   -6.70    7.80
   5 -11   2    2.20    8.80
   5 -11   2   -7.50    7.30
   5 -11   2   -2.70    7.50
   4  10  -2    8.80    6.10
   4  10  -2    4.70    6.50
   4  10  -2   15.00    8.30
   4  10  -2    9.80    7.10
  -4 -10   2   -0.10    7.40
  -4 -10   2    6.20    6.10
  -4 -10   2    9.20    6.90
  -4 -10   2   -8.10    5.40
   3  10  -2  213.18   20.60
   3  10  -2  190.28   20.10
   3  10  -2  216.48   20.30
   3  10  -2  219.88   20.90
  -3 -10   2  173.68   21.50
  -3 -10   2  224.18   20.00
  -3 -10   2  208.28   19.50
  -3 -10   2  184.68   20.50
  -3 -10   2  154.18   19.20
   2  10  -2    3.90    5.70
   2  10  -2   -5.50    3.90
   2  10  -2    8.50    5.30
   2  10  -2   -2.60    4.20
   2  10  -2    3.60    5.80
  -2 -10   2   -8.40    7.60
  -2 -10   2   -1.50    4.40
  -2 -10   2   -2.50    3.60
  -2 -10   2   -5.40    5.30
  -2 -10   2    0.90    5.60
   1  10  -2    0.80    5.70
   1  10  -2    5.70    4.40
   1  10  -2    2.10    3.40
   1  10  -2    4.70    4.60
   1  10  -2    3.60    4.60
   1  10  -2    1.30    4.00
  -1 -10   2   -1.00    4.00
  -1 -10   2   -3.70    6.40
  -1 -10   2   -8.40    5.00
  -1 -10   2   -2.50    5.30
  -1 -10   2   -4.90    5.50
  -1 -10   2    5.00    4.00
   0  10  -2   20.30    7.00
   0  10  -2    7.60    4.90
   0  10  -2   12.30    3.70
   0  10  -2    3.70    4.00
   0  10  -2   14.00    5.70
   0  10  -2   11.40    5.20
   0 -10   2   12.10    5.00
   0 -10   2    4.50   11.30
   0 -10   2    4.90    4.40
   0 -10   2   12.40    5.70
   0 -10   2   14.60    3.80
   0 -10   2   24.40    6.50
   0 -10   2    4.40    4.40
  -1  10  -2    3.50    3.00
  -1  10  -2    4.90    5.50
  -1  10  -2    0.70    4.60
  -1  10  -2    1.00    3.70
  -1  10  -2   13.60    5.10
  -1  10  -2    1.20    4.70
   1 -10   2   -5.00    3.70
   1 -10   2   -1.90    3.90
   1 -10   2    0.50    4.40
   1 -10   2    0.50    4.70
   1 -10   2   -0.30    2.40
   1 -10   2    6.70    4.30
   1 -10   2   -1.00    6.40
  -2  10  -2    1.60    5.40
  -2  10  -2   -2.70    4.40
  -2  10  -2    0.60    4.90
   2 -10   2    9.90    4.80
   2 -10   2    7.80    4.90
   2 -10   2    5.10    2.20
   2 -10   2    4.50    5.10
   2 -10   2    4.00    6.60
   2 -10   2    5.10    5.10
   2 -10   2    6.90    4.70
  -3  10  -2    0.90    5.20
  -3  10  -2   -3.10    5.00
  -3  10  -2   -1.00    4.50
  -3  10  -2    1.80    5.30
   3 -10   2    6.80    4.90
   3 -10   2   -0.60    1.40
   3 -10   2   -1.00    5.90
   3 -10   2   -3.40    6.00
   3 -10   2   -1.70    4.60
   3 -10   2   -4.70    5.10
   3 -10   2    9.20    7.10
  -4  10  -2   16.40    6.40
  -4  10  -2   14.70    6.40
  -4  10  -2    0.20    6.60
   4 -10   2   17.70    7.60
   4 -10   2    9.50    5.70
   4 -10   2    3.70    7.50
   4 -10   2    2.20    4.60
   4 -10   2   15.90    6.40
  -5  10  -2   20.20    6.20
  -5  10  -2   -5.50    9.30
  -5  10  -2   -6.90    7.10
   5 -10   2   -2.20    7.30
   5 -10   2    0.20    9.60
   5 -10   2   -0.10    7.00
   5 -10   2   -5.20    5.50
   5   9  -2    8.80    6.60
   5   9  -2   14.60    8.20
   5   9  -2   -0.60    6.30
  -5  -9   2  -14.30    6.40
  -5  -9   2    2.10    5.20
  -5  -9   2  -11.00    5.90
  -5  -9   2   13.60    8.00
  -5  -9   2    8.40    6.70
  -5  -9   2    6.70    4.90
   4   9  -2    1.80    7.10
   4   9  -2    2.90    5.50
   4   9  -2   -7.10    4.80
   4   9  -2    0.60    4.30
  -4  -9   2   -2.50    5.00
  -4  -9   2    2.60    5.50
  -4  -9   2   -3.90    5.80
  -4  -9   2   -4.70    3.80
  -4  -9   2    4.40    4.10
  -4  -9   2    6.00    4.60
   3   9  -2   27.20    6.60
   3   9  -2   23.00    5.90
   3   9  -2   21.60    6.80
   3   9  -2   24.00    7.00
   3   9  -2   14.30    5.50
   3   9  -2   11.10    6.40
  -3  -9   2   32.60    7.50
  -3  -9   2   26.70    6.40
  -3  -9   2   30.60    7.10
  -3  -9   2   28.60    6.30
   2   9  -2   27.30    6.90
   2   9  -2   32.70    7.20
   2   9  -2   32.90    7.10
   2   9  -2   31.20    6.60
   2   9  -2   30.40    6.90
   2   9  -2   45.50    8.20
  -2  -9   2   26.20    7.00
  -2  -9   2   35.90    7.20
  -2  -9   2   32.40    7.70
  -2  -9   2   45.10    7.70
   1   9  -2   18.70    5.30
   1   9  -2   11.80    5.00
   1   9  -2   19.70    5.00
   1   9  -2   19.70    5.30
   1   9  -2   14.20    4.70
   1   9  -2   14.80    5.80
  -1  -9   2   19.50    4.80
  -1  -9   2   28.10    6.80
  -1  -9   2   18.80    5.20
  -1  -9   2   12.80    5.10
  -1  -9   2   27.50    7.10
  -1  -9   2   20.20    5.80
   0   9  -2  720.53   62.59
   0   9  -2  798.62   61.29
   0   9  -2  798.22   63.29
   0   9  -2  805.72   67.09
   0   9  -2  875.41   63.09
   0   9  -2  754.12   62.59
   0  -9   2  898.31   63.09
   0  -9   2  726.93   62.29
   0  -9   2  854.01   62.79
   0  -9   2  724.83   62.89
   0  -9   2  721.23   63.19
  -1   9  -2    1.70    2.00
  -1   9  -2    0.40    3.50
  -1   9  -2    3.00    3.80
  -1   9  -2    1.10    3.50
  -1   9  -2   -7.40    3.60
   1  -9   2   -0.10    3.50
   1  -9   2   -2.80    1.80
   1  -9   2    8.40    4.30
   1  -9   2   -1.10    3.20
   1  -9   2    1.60    5.20
   1  -9   2    0.20    2.80
  -2   9  -2   13.70    4.70
  -2   9  -2   10.90    5.60
  -2   9  -2   32.90    7.20
  -2   9  -2   27.90    6.20
   2  -9   2   23.70    8.10
   2  -9   2   22.00    5.90
   2  -9   2   32.90    6.40
   2  -9   2   17.20    3.20
   2  -9   2   15.70    5.20
   2  -9   2   13.70    4.70
   2  -9   2   22.60    5.70
  -3   9  -2  275.67   22.70
  -3   9  -2  264.17   25.60
  -3   9  -2  233.18   22.10
  -3   9  -2  250.07   21.60
   3  -9   2  221.78   21.40
   3  -9   2  207.98   21.70
   3  -9   2  233.38   24.30
   3  -9   2  206.88   18.20
   3  -9   2  242.58   22.10
   3  -9   2  252.77   22.30
   3  -9   2  220.28   21.70
  -4   9  -2   47.40    8.10
  -4   9  -2   61.79    9.90
  -4   9  -2   45.20    7.80
  -4   9  -2   63.79    9.00
   4  -9   2   43.90    9.20
   4  -9   2   42.20    8.10
   4  -9   2   42.70    8.30
   4  -9   2   54.39   10.40
   4  -9   2   68.99    9.60
  -5   9  -2    1.30    6.30
  -5   9  -2   -6.00    4.70
   5  -9   2    6.00    7.80
   5  -9   2   -0.40    4.80
   5  -9   2    6.60    5.30
   5  -9   2   -0.60    5.10
  -6   9  -2   -3.10    6.20
  -6   9  -2    5.40    6.50
  -6   9  -2   -1.20    6.70
  -6   9  -2    7.10    6.10
   6  -9   2   -1.50   10.80
   6  -9   2   -8.30    6.80
   6  -9   2   -4.60    5.90
   6  -9   2   11.30    8.60
   5   8  -2   -1.70    5.70
   5   8  -2    7.50    6.20
   5   8  -2    8.30    4.90
   5   8  -2   -4.30    6.00
  -5  -8   2    2.00    5.90
  -5  -8   2    7.70    4.20
  -5  -8   2   12.90    6.10
  -5  -8   2    1.00    5.30
  -5  -8   2   -0.20    4.10
  -5  -8   2    6.30    9.00
   4   8  -2   77.99   11.40
   4   8  -2   60.59    9.20
   4   8  -2   71.89   10.00
   4   8  -2   62.49    9.80
  -4  -8   2   58.99   10.20
  -4  -8   2   70.79    9.80
  -4  -8   2   64.39    9.20
  -4  -8   2   63.89   13.30
  -4  -8   2   68.69    8.80
  -4  -8   2   61.59    9.20
   3   8  -2   11.50    4.90
   3   8  -2    7.80    7.80
   3   8  -2   21.70    5.40
   3   8  -2   25.50    5.30
   3   8  -2   11.20    4.90
  -3  -8   2   15.30    4.60
  -3  -8   2   13.20    5.10
  -3  -8   2   17.90    5.00
  -3  -8   2   13.10    4.40
  -3  -8   2   15.50    4.90
  -3  -8   2   18.40    4.60
   2   8  -2    6.30    3.90
   2   8  -2    5.80    3.30
   2   8  -2   -0.90    2.90
   2   8  -2    8.20    3.90
   2   8  -2   -1.90    3.00
   2   8  -2    2.80    3.20
  -2  -8   2    2.00    3.40
  -2  -8   2   -0.20    3.10
  -2  -8   2    4.10    3.90
  -2  -8   2    6.00    3.50
  -2  -8   2    4.70    2.80
   1   8  -2   17.60    3.80
   1   8  -2   32.10    6.50
   1   8  -2   12.70    4.50
   1   8  -2   20.90    5.00
   1   8  -2   20.10    5.60
   1   8  -2   22.20    5.60
  -1  -8   2   24.80    5.40
  -1  -8   2   19.10    5.30
  -1  -8   2   19.70    5.00
  -1  -8   2   23.00    5.30
  -1  -8   2   26.40    5.40
  -1  -8   2   22.40    5.80
   0   8  -2   -0.10    2.70
   0   8  -2    1.30    2.90
   0   8  -2    2.40    2.80
   0   8  -2    1.30    2.30
   0   8  -2    3.50    3.10
   0   8  -2    3.20    3.10
   0  -8   2    5.00    2.80
   0  -8   2    5.80    3.50
   0  -8   2   -2.00    4.50
   0  -8   2   -1.70    2.30
   0  -8   2   -0.40    3.00
   0  -8   2    2.70    2.90
  -1   8  -2   45.00    5.10
  -1   8  -2   61.29    7.70
  -1   8  -2   50.59    7.10
  -1   8  -2   52.29    7.40
  -1   8  -2   41.90    7.20
   1  -8   2   42.50    6.70
   1  -8   2   60.59    7.20
   1  -8   2   32.60    7.70
   1  -8   2   38.10    7.30
   1  -8   2   35.00    7.80
   1  -8   2   28.20    5.60
   1  -8   2   44.50    5.00
  -2   8  -2   69.29    9.00
  -2   8  -2   65.59    8.00
  -2   8  -2   81.09    8.90
  -2   8  -2   40.00    7.10
   2  -8   2   62.09    8.10
   2  -8   2   55.59    5.70
   2  -8   2   43.40    8.10
   2  -8   2   59.09    8.00
   2  -8   2   51.89   11.20
   2  -8   2   58.59   10.90
   2  -8   2   48.90    7.40
  -3   8  -2  660.93   48.30
  -3   8  -2  685.03   48.70
  -3   8  -2  623.54   48.30
   3  -8   2  548.55   47.90
   3  -8   2  536.45   48.30
   3  -8   2  632.84   48.30
   3  -8   2  559.74   48.00
   3  -8   2  627.84   48.70
   3  -8   2  514.15   45.20
   3  -8   2  618.04   51.49
  -4   8  -2   63.49    7.80
  -4   8  -2   45.60    7.80
  -4   8  -2   60.89    8.30
  -4   8  -2   71.69    9.40
   4  -8   2   47.40    8.20
   4  -8   2   39.00    8.20
   4  -8   2   51.19    8.30
   4  -8   2   34.40    7.50
   4  -8   2   43.10    7.40
   4  -8   2   51.69   11.50
  -5   8  -2   14.40    5.20
  -5   8  -2    9.00    5.30
   5  -8   2   11.80    5.60
   5  -8   2   21.90   10.10
   5  -8   2    6.70    4.60
   5  -8   2   10.00    5.30
   5  -8   2    7.30    5.60
  -6   8  -2   19.60    6.10
  -6   8  -2   15.30    8.10
  -6   8  -2   14.60    6.10
   6  -8   2   34.10   10.10
   6  -8   2   11.40    6.00
   6  -8   2   17.20    9.00
   6   7  -2    3.10    7.60
   6   7  -2    4.00    5.50
   6   7  -2    5.80    5.40
  -6  -7   2    7.40    5.30
  -6  -7   2    4.90    5.70
  -6  -7   2  -10.10    4.90
  -6  -7   2   -4.90    5.40
  -6  -7   2    6.80    4.40
   5   7  -2   13.20    4.80
   5   7  -2   23.10    5.80
   5   7  -2   13.40    6.00
   5   7  -2   15.90    3.90
   5   7  -2   14.70    5.80
   5   7  -2   15.10    5.70
  -5  -7   2   22.40    5.80
  -5  -7   2   14.90    5.50
  -5  -7   2   15.00    4.60
  -5  -7   2   14.20    4.30
  -5  -7   2   11.20    5.00
  -5  -7   2    7.50    4.70
   4   7  -2   97.59   10.20
   4   7  -2   77.99    9.70
   4   7  -2   77.79    8.90
   4   7  -2   83.49   11.20
   4   7  -2   64.69    9.40
   4   7  -2   70.59    9.80
  -4  -7   2   83.59    9.70
  -4  -7   2   65.29    9.90
  -4  -7   2   68.99   10.80
  -4  -7   2   85.89    9.10
  -4  -7   2   78.79    9.60
  -4  -7   2   86.19    9.80
   3   7  -2   -2.00    2.50
   3   7  -2    1.40    3.80
   3   7  -2   -0.30    2.70
   3   7  -2    0.30    3.00
   3   7  -2    0.80    2.70
   3   7  -2   -1.10    2.40
  -3  -7   2    2.60    3.00
  -3  -7   2   -0.70    3.10
  -3  -7   2   -1.10    2.40
  -3  -7   2   -1.10    2.50
  -3  -7   2    0.10    2.40
   2   7  -2    1.60    2.80
   2   7  -2    1.60    3.10
   2   7  -2    3.50    2.80
   2   7  -2   -1.10    2.20
   2   7  -2   -1.20    2.70
   2   7  -2   -0.50    2.00
  -2  -7   2    4.30    2.50
  -2  -7   2    2.40    2.20
  -2  -7   2    2.20    2.70
  -2  -7   2    2.00    2.50
  -2  -7   2    1.50    2.80
  -2  -7   2    1.50    2.80
   1   7  -2  562.04   45.80
   1   7  -2  592.34   45.30
   1   7  -2  562.14   45.60
   1   7  -2  520.65   45.00
   1   7  -2  600.64   45.60
  -1  -7   2  608.34   45.70
  -1  -7   2  633.44   45.70
  -1  -7   2  511.55   45.60
  -1  -7   2  598.54   46.30
  -1  -7   2  534.55   45.40
   0   7  -2   54.59    6.90
   0   7  -2   44.70    5.70
   0   7  -2   60.59    7.60
   0   7  -2   48.80    6.80
   0   7  -2   45.90    6.40
   0   7  -2   57.79    7.10
   0  -7   2   49.30    7.10
   0  -7   2   58.89    7.00
   0  -7   2   50.29    7.00
   0  -7   2   59.49    6.90
   0  -7   2   50.89    7.10
   0  -7   2   62.59    6.90
  -1   7  -2  354.76   27.40
  -1   7  -2  299.57   24.80
  -1   7  -2  297.57   26.30
  -1   7  -2  364.86   27.00
  -1   7  -2  298.57   26.50
   1  -7   2  319.77   26.60
   1  -7   2  360.36   26.80
   1  -7   2  348.97   26.80
   1  -7   2  287.57   26.80
   1  -7   2  308.57   25.10
   1  -7   2  303.27   27.50
   1  -7   2  295.27   26.40
  -2   7  -2   76.69    8.40
  -2   7  -2   59.79    8.40
  -2   7  -2   73.49    8.50
  -2   7  -2   76.59    8.20
   2  -7   2   56.19   13.70
   2  -7   2   67.39   11.10
   2  -7   2   60.69    6.10
   2  -7   2   73.29    8.30
   2  -7   2   56.99    8.40
   2  -7   2   77.49    8.20
   2  -7   2   59.09    7.80
  -3   7  -2    6.20    3.60
  -3   7  -2    4.00    3.00
  -3   7  -2    6.20    3.10
  -3   7  -2    0.40    2.90
   3  -7   2    0.50    3.30
   3  -7   2    3.40    3.60
   3  -7   2    1.50    1.10
   3  -7   2    1.00    2.50
   3  -7   2    0.70    4.80
   3  -7   2    2.20    3.10
   3  -7   2    1.60    2.80
  -4   7  -2  107.29   10.70
   4  -7   2   88.89   13.90
   4  -7   2   91.49   10.60
   4  -7   2   89.49   10.10
   4  -7   2   91.69   10.40
   4  -7   2   73.59   10.20
   4  -7   2   98.99   10.60
  -5   7  -2   62.49    8.00
  -5   7  -2   74.39    9.30
  -5   7  -2   70.29    8.80
   5  -7   2   58.89    7.80
   5  -7   2   50.09    8.60
   5  -7   2   34.50    7.80
   5  -7   2   28.40    7.60
   5  -7   2   39.90    7.50
   5  -7   2   50.49   11.90
  -6   7  -2   -9.00    3.80
  -6   7  -2    7.40    4.90
  -6   7  -2   21.50    8.80
  -6   7  -2    4.50    4.80
  -6   7  -2  -11.40    4.50
   6  -7   2   19.00    8.20
   6  -7   2    4.90    5.60
   6  -7   2    3.70    4.20
   6   6  -2    6.90    5.50
  -6  -6   2    8.80    3.80
  -6  -6   2    3.20    5.50
  -6  -6   2    4.90    4.20
  -6  -6   2   -0.60    4.00
  -6  -6   2   14.10    4.20
  -6  -6   2   14.20    5.20
   5   6  -2   -6.60    3.50
   5   6  -2    6.50    2.80
   5   6  -2    0.80    4.70
   5   6  -2   -1.40    3.30
   5   6  -2   -0.40    3.10
   5   6  -2    4.30    4.40
  -5  -6   2   -4.00    3.00
  -5  -6   2    4.40    4.10
  -5  -6   2   -0.10    2.80
  -5  -6   2   -6.30    3.30
  -5  -6   2    1.50    3.60
  -5  -6   2    1.50    2.90
   4   6  -2   69.89    9.50
   4   6  -2   94.29   11.70
   4   6  -2   76.99    9.60
   4   6  -2  101.89   12.10
   4   6  -2   92.09    9.50
   4   6  -2   87.29   10.00
  -4  -6   2   86.69   10.30
  -4  -6   2   89.99   10.20
  -4  -6   2  108.49   11.40
  -4  -6   2   84.99   10.00
  -4  -6   2  111.49   10.30
   3   6  -2    4.10    2.60
   3   6  -2    3.90    3.40
   3   6  -2   -1.80    1.90
   3   6  -2    4.80    2.80
   3   6  -2    3.80    2.20
  -3  -6   2    3.10    2.50
  -3  -6   2    0.30    2.70
  -3  -6   2    2.80    2.40
  -3  -6   2    5.80    2.80
  -3  -6   2    4.70    2.40
   2   6  -2    4.80    2.90
   2   6  -2    2.50    1.80
   2   6  -2    4.30    2.50
   2   6  -2    8.70    3.40
  -2  -6   2    4.20    2.80
  -2  -6   2    4.00    2.20
  -2  -6   2    5.90    2.90
  -2  -6   2    3.80    2.60
  -2  -6   2    4.70    1.90
  -2  -6   2    6.90    2.80
   1   6  -2 1226.48   99.99
   1   6  -2 1321.47  100.29
   1   6  -2 1261.67   99.79
   1   6  -2 1269.07   99.99
   1   6  -2 1351.86   99.99
   1   6  -2 1232.18   99.59
  -1  -6   2 1215.18  100.29
  -1  -6   2 1377.76  100.39
  -1  -6   2 1253.87   99.99
  -1  -6   2 1414.36  100.19
  -1  -6   2 1463.35  100.19
   0   6  -2   -1.40    1.20
   0   6  -2   -0.90    1.60
   0   6  -2   -0.50    1.90
   0   6  -2    2.00    1.80
   0   6  -2   -1.90    1.40
   0   6  -2   -0.30    2.20
   0  -6   2    4.10    2.30
   0  -6   2   -1.50    1.80
   0  -6   2    0.60    1.80
   0  -6   2    2.00    2.00
   0  -6   2    0.20    1.50
   0  -6   2   -1.00    2.80
  -1   6  -2    8.20    2.50
  -1   6  -2   15.50    3.60
  -1   6  -2    5.20    1.60
  -1   6  -2    9.00    3.30
  -1   6  -2    9.10    2.90
   1  -6   2    4.70    2.10
   1  -6   2    9.30    3.00
   1  -6   2    6.60    4.40
   1  -6   2   11.20    3.00
   1  -6   2    6.20    1.80
   1  -6   2    5.50    3.20
   1  -6   2   10.50    3.30
  -2   6  -2 3909.81  289.97
  -2   6  -2 4241.58  290.57
  -2   6  -2 4185.68  290.17
   2  -6   2 4048.40  290.07
   2  -6   2 3401.46  289.67
   2  -6   2 3470.55  290.07
   2  -6   2 4041.40  290.07
   2  -6   2 3499.85  288.27
   2  -6   2 3849.51  289.87
   2  -6   2 3830.62  291.97
  -3   6  -2   26.70    5.00
  -3   6  -2   39.10    6.30
  -3   6  -2   31.70    5.50
  -3   6  -2   29.50    4.90
   3  -6   2   32.80    5.50
   3  -6   2   18.30    4.80
   3  -6   2   29.60    5.10
   3  -6   2   18.10    4.00
   3  -6   2   26.50    2.90
   3  -6   2   35.50    8.80
   3  -6   2   25.10    4.70
  -4   6  -2   18.50    4.40
  -4   6  -2   24.00    4.80
   4  -6   2   10.20    3.70
   4  -6   2    9.50    3.40
   4  -6   2   19.70    7.50
   4  -6   2   11.10    3.60
   4  -6   2   16.20    4.60
   4  -6   2   11.50    3.80
  -5   6  -2  239.38   18.70
  -5   6  -2  194.08   19.30
  -5   6  -2  225.18   19.60
  -5   6  -2  194.38   19.50
  -5   6  -2  203.78   19.20
   5  -6   2  159.58   18.80
   5  -6   2  242.88   29.90
   5  -6   2  207.58   17.80
   5  -6   2  197.38   18.40
   5  -6   2  194.08   18.90
   5  -6   2  189.88   18.70
  -6   6  -2    1.60    3.90
  -6   6  -2   -1.90    3.60
  -6   6  -2    1.20    3.70
  -6   6  -2    2.90    4.20
  -6   6  -2   -4.20    4.40
   6  -6   2    8.00    6.40
   6  -6   2   -5.60    4.40
   6  -6   2    0.60    4.70
   6  -6   2  -10.80    4.10
  -7   6  -2    5.20    4.90
  -7   6  -2    8.60    5.00
  -7   6  -2   10.60    6.00
  -7   6  -2   -1.40    4.10
  -7   6  -2   -0.30    5.30
   7  -6   2   14.50    8.70
   7  -6   2  -12.70    6.40
   7   5  -2  -13.30    6.40
  -7  -5   2    2.70    3.50
  -7  -5   2   -0.40    4.30
  -7  -5   2   13.20    6.50
  -7  -5   2   -2.90    3.70
   6   5  -2   14.80    6.80
  -6  -5   2   24.90    6.90
  -6  -5   2   16.50    4.10
  -6  -5   2   17.80    4.00
  -6  -5   2   15.70    4.80
  -6  -5   2   13.80    3.90
   5   5  -2   18.20    3.60
   5   5  -2   24.80    3.90
   5   5  -2   18.50    3.10
   5   5  -2   17.90    3.80
   5   5  -2   26.20    8.90
  -5  -5   2   23.50    4.50
  -5  -5   2   22.80    4.20
  -5  -5   2   16.30    3.50
  -5  -5   2   17.30    5.30
  -5  -5   2   18.00    4.90
   4   5  -2  152.18   14.20
   4   5  -2  188.38   14.50
   4   5  -2  160.58   13.90
   4   5  -2  170.88   16.90
   4   5  -2  170.18   15.10
   4   5  -2  149.88   14.20
  -4  -5   2  148.19   14.70
  -4  -5   2  163.88   14.40
  -4  -5   2  152.08   14.70
  -4  -5   2  177.58   14.50
  -4  -5   2  170.18   15.60
   3   5  -2   84.59    8.50
   3   5  -2  105.39   10.10
   3   5  -2   76.59    8.30
  -3  -5   2   81.59    8.20
  -3  -5   2   81.49    8.70
  -3  -5   2   82.29    8.50
  -3  -5   2   85.79    8.40
  -3  -5   2   80.49    8.80
   2   5  -2    4.20    1.90
   2   5  -2    4.20    2.10
   2   5  -2    3.00    2.10
   2   5  -2    2.40    2.30
   2   5  -2    3.60    1.70
  -2  -5   2    5.30    2.20
  -2  -5   2    4.80    1.70
  -2  -5   2    5.70    2.30
  -2  -5   2    2.90    2.00
  -2  -5   2    3.30    2.50
   1   5  -2   13.30    3.10
   1   5  -2   11.70    2.80
   1   5  -2    7.60    2.50
   1   5  -2   13.00    2.80
   1   5  -2    9.00    2.30
   1   5  -2   10.40    3.10
  -1  -5   2   11.10    2.70
  -1  -5   2   11.40    2.80
  -1  -5   2   14.20    3.10
  -1  -5   2    8.50    2.90
  -1  -5   2    6.50    2.50
   0   5  -2    6.00    2.10
   0   5  -2    7.60    2.60
   0   5  -2    3.00    1.60
   0   5  -2    5.90    2.30
   0   5  -2    4.00    2.00
   0  -5   2    2.90    1.80
   0  -5   2    9.10    3.20
   0  -5   2    1.00    2.00
   0  -5   2   10.40    2.70
   0  -5   2    4.20    2.60
   0  -5   2    1.50    1.40
   0  -5   2    8.80    1.90
  -1   5  -2   53.49    6.40
  -1   5  -2   45.20    4.60
  -1   5  -2   55.49    6.00
  -1   5  -2   59.29    6.10
  -1   5  -2   56.99    6.80
   1  -5   2   58.29    6.10
   1  -5   2   44.60    6.80
   1  -5   2   65.99    6.40
   1  -5   2   56.59    6.30
   1  -5   2   48.50    5.90
   1  -5   2   56.19    4.90
   1  -5   2   63.29    6.20
  -2   5  -2  965.60   71.59
  -2   5  -2  938.21   71.59
  -2   5  -2 1028.40   72.09
  -2   5  -2 1030.80   71.69
   2  -5   2  849.91   71.59
   2  -5   2  846.22   71.29
   2  -5   2  934.71   71.59
   2  -5   2  916.11   71.49
   2  -5   2  948.81   71.39
   2  -5   2  841.52   70.09
  -3   5  -2  238.08   18.00
  -3   5  -2  200.68   16.10
  -3   5  -2  195.38   17.80
  -3   5  -2  209.48   17.80
   3  -5   2  190.38   17.80
   3  -5   2  254.87   21.40
   3  -5   2  189.58   17.70
   3  -5   2  206.08   17.40
  -4   5  -2    4.50    1.30
  -4   5  -2    7.80    3.00
  -4   5  -2    5.60    2.80
  -4   5  -2    0.60    2.70
   4  -5   2   -1.20    2.50
   4  -5   2    6.10    5.60
   4  -5   2   -0.10    2.50
   4  -5   2    5.60    2.50
   4  -5   2   -1.80    2.40
  -5   5  -2  106.69   10.00
  -5   5  -2   94.59   10.50
  -5   5  -2  106.79    9.90
  -5   5  -2  102.39   10.90
  -5   5  -2   95.79    7.70
  -5   5  -2   82.89   10.90
   5  -5   2  106.59   14.40
   5  -5   2   70.29    9.60
   5  -5   2   81.89    9.10
   5  -5   2   67.99    8.30
   5  -5   2   78.99    9.60
  -6   5  -2   -1.70    3.10
  -6   5  -2   -8.40    4.00
  -6   5  -2   -6.30    2.90
  -6   5  -2    3.20    2.00
  -6   5  -2    1.20    3.50
  -6   5  -2    7.00    3.90
   6  -5   2   -0.90    3.30
   6  -5   2   -1.50    3.70
   6  -5   2    1.60    4.10
   6  -5   2    5.90    6.90
   6  -5   2    3.70    4.40
  -7   5  -2   34.40    9.00
  -7   5  -2   40.00    7.70
  -7   5  -2   40.80   10.60
   7  -5   2   30.30   11.70
   7  -5   2   55.99   12.40
   7   4  -2   -9.00    5.50
  -7  -4   2   -1.60    2.60
  -7  -4   2   -1.80    2.50
  -7  -4   2   -2.30    4.00
  -7  -4   2    1.20    2.60
  -7  -4   2   -1.50    3.50
  -7  -4   2   -5.20    5.40
   6   4  -2    0.80    4.80
  -6  -4   2    3.70    2.40
  -6  -4   2    0.20    2.50
  -6  -4   2   -3.10    9.10
  -6  -4   2    4.20    2.60
  -6  -4   2    4.40    2.80
   5   4  -2   91.69   12.40
  -5  -4   2  105.99   11.50
  -5  -4   2  104.79    9.40
  -5  -4   2   97.29    9.40
  -5  -4   2   87.59    9.30
   4   4  -2   22.00    3.30
   4   4  -2   23.90    3.10
   4   4  -2   17.80    4.90
   4   4  -2   14.80    2.80
   4   4  -2   20.70    4.10
  -4  -4   2   18.70    3.40
  -4  -4   2   20.10    4.50
  -4  -4   2   19.50    3.40
  -4  -4   2   19.60    3.70
  -4  -4   2   14.90    3.70
   3   4  -2  124.19   11.00
   3   4  -2  123.49   11.20
   3   4  -2  138.09   12.90
   3   4  -2  136.69   11.20
   3   4  -2  119.49   11.20
   3   4  -2  132.39   11.60
  -3  -4   2  129.99   11.40
  -3  -4   2  137.59   11.40
  -3  -4   2  128.69   12.00
  -3  -4   2  118.59   11.50
  -3  -4   2  139.99   11.30
   2   4  -2 1999.50  148.89
   2   4  -2 1865.61  148.19
   2   4  -2 2075.79  148.29
   2   4  -2 1868.01  148.09
   2   4  -2 1827.72  147.99
  -2  -4   2 2126.89  148.19
  -2  -4   2 1889.21  148.29
  -2  -4   2 1988.10  148.19
  -2  -4   2 2113.89  148.19
  -2  -4   2 1869.91  148.09
   1   4  -2    5.50    2.10
   1   4  -2    6.90    1.70
   1   4  -2    8.00    2.30
   1   4  -2    4.20    1.80
   1   4  -2    7.20    1.90
   1   4  -2    5.60    1.80
  -1  -4   2    5.70    1.50
  -1  -4   2    2.40    1.80
  -1  -4   2    5.80    2.00
   0   4  -2 1024.30   76.59
   0   4  -2 1067.39   76.39
   0   4  -2 1037.30   76.39
   0   4  -2  978.30   75.89
   0   4  -2 1019.00   76.39
   0  -4   2  968.70   76.59
   0  -4   2  963.90   76.49
   0  -4   2  998.20   76.29
   0  -4   2  944.91   75.79
   0  -4   2  976.20   76.39
   0  -4   2 1054.39   76.49
  -1   4  -2 2365.46  171.88
  -1   4  -2 2396.26  172.18
  -1   4  -2 2384.06  171.98
  -1   4  -2 2264.27  171.88
  -1   4  -2 2158.38  170.98
   1  -4   2 2512.25  171.88
   1  -4   2 2198.58  171.88
   1  -4   2 2133.59  170.98
   1  -4   2 2344.17  171.88
   1  -4   2 2297.37  171.88
   1  -4   2 2169.48  172.58
   1  -4   2 2122.49  171.98
  -2   4  -2    2.60    1.80
  -2   4  -2   -0.50    1.30
  -2   4  -2    2.50    2.30
  -2   4  -2   -1.70    1.40
  -2   4  -2    1.10    0.80
   2  -4   2    2.40    1.40
   2  -4   2    4.70    3.80
   2  -4   2    3.20    1.80
   2  -4   2    0.00    1.60
   2  -4   2    0.70    1.50
   2  -4   2    0.20    0.80
   2  -4   2    4.50    1.90
  -3   4  -2   56.19    6.00
  -3   4  -2   48.20    4.50
   3  -4   2   48.30    5.70
   3  -4   2   49.20    4.70
   3  -4   2   44.50    5.80
   3  -4   2   48.80    6.00
   3  -4   2   39.00    5.70
   3  -4   2   59.39    8.50
   3  -4   2   49.80    5.20
  -4   4  -2   20.10    4.30
  -4   4  -2   29.20    4.90
  -4   4  -2   24.60    4.40
  -4   4  -2   18.50    4.40
  -4   4  -2   23.60    5.10
  -4   4  -2   24.50    3.10
   4  -4   2   21.70    3.70
   4  -4   2   17.50    4.20
   4  -4   2   22.50    4.60
   4  -4   2   19.10    3.70
   4  -4   2   27.20    4.10
   4  -4   2   12.30    3.70
   4  -4   2   31.60    8.10
  -5   4  -2    5.50    3.00
  -5   4  -2   -5.30    2.30
  -5   4  -2    0.70    3.20
  -5   4  -2   -4.70    3.40
  -5   4  -2   -1.40    1.60
   5  -4   2   -1.90    5.10
   5  -4   2   -1.60    2.70
   5  -4   2    2.80    2.80
   5  -4   2   -1.10    2.80
   5  -4   2   -3.70    2.60
   5  -4   2   -1.80    2.30
  -6   4  -2   30.90    6.10
  -6   4  -2   38.70    4.90
  -6   4  -2   35.10    5.50
  -6   4  -2   34.30    5.80
  -6   4  -2   34.20    7.30
  -6   4  -2   17.70    5.20
   6  -4   2   30.10    5.80
   6  -4   2   28.30    5.90
   6  -4   2   46.20    7.20
   6  -4   2   20.30    5.00
  -7   4  -2   -0.70    4.10
  -7   4  -2    1.00    4.30
  -7   4  -2   -2.00    3.10
   7  -4   2    5.50    4.90
   7  -4   2   10.70    5.40
   7   3  -2   -0.30    5.80
  -7  -3   2   -2.70    3.10
  -7  -3   2   -9.60    5.50
   6   3  -2   -4.30    3.70
  -6  -3   2    2.60    6.10
  -6  -3   2    0.70    1.70
  -6  -3   2    2.80    1.90
  -6  -3   2    1.60    1.90
   5   3  -2   10.00    5.10
  -5  -3   2   11.80    2.60
  -5  -3   2   11.30    2.50
  -5  -3   2   13.80    4.50
  -5  -3   2   14.70    3.30
  -5  -3   2   15.20    2.70
   4   3  -2   20.70    4.70
  -4  -3   2   26.10    5.10
  -4  -3   2   28.50    3.50
  -4  -3   2   23.10    3.40
  -4  -3   2   24.80    3.80
  -4  -3   2   24.30    3.80
   3   3  -2   10.00    1.80
   3   3  -2    8.40    2.40
   3   3  -2    9.00    3.00
   3   3  -2    9.70    1.90
   3   3  -2    9.20    1.90
   3   3  -2    9.50    1.60
  -3  -3   2    7.90    2.00
  -3  -3   2    8.50    2.90
  -3  -3   2   10.20    1.90
  -3  -3   2    9.20    2.20
  -3  -3   2    7.60    2.00
   2   3  -2    1.80    1.20
   2   3  -2    0.10    1.00
   2   3  -2    2.10    1.10
   2   3  -2    2.70    1.40
   2   3  -2    0.90    1.90
   2   3  -2    2.70    1.20
  -2  -3   2    1.70    2.20
  -2  -3   2    1.40    1.20
  -2  -3   2    2.40    1.10
  -2  -3   2   -0.10    1.00
  -2  -3   2    1.70    1.10
  -2  -3   2    2.00    1.30
   1   3  -2 1222.58   90.29
   1   3  -2 1191.38   90.59
   1   3  -2 1212.68   90.29
   1   3  -2 1263.67   90.29
   1   3  -2 1074.69   89.89
  -1  -3   2 1237.18   90.29
  -1  -3   2 1184.38   90.39
  -1  -3   2 1161.08   89.89
  -1  -3   2 1166.58   90.29
  -1  -3   2 1163.68   90.49
  -1  -3   2 1261.87   90.29
   0   3  -2  851.11   65.19
   0   3  -2  911.31   65.09
   0   3  -2  790.12   64.69
   0   3  -2  957.30   65.09
   0   3  -2  826.72   64.59
   0   3  -2  836.72   64.99
   0  -3   2  824.02   64.59
   0  -3   2  871.21   65.09
   0  -3   2  801.82   64.59
   0  -3   2  839.92   65.19
   0  -3   2  908.71   65.09
  -1   3  -2 8538.35  620.54
  -1   3  -2 7541.25  620.24
  -1   3  -2 8657.83  620.44
   1  -3   2 8465.55  620.54
   1  -3   2 7824.12  620.34
   1  -3   2 7921.61  620.34
   1  -3   2 8290.47  621.24
   1  -3   2 8066.29  620.34
   1  -3   2 9228.18  620.24
  -2   3  -2  220.48   17.60
  -2   3  -2  251.27   18.60
   2  -3   2  237.68   17.90
   2  -3   2  219.48   18.40
   2  -3   2  211.68   18.50
   2  -3   2  212.28   17.60
   2  -3   2  229.68   18.60
   2  -3   2  209.08   18.50
   2  -3   2  252.37   20.50
  -3   3  -2   44.90    5.10
  -3   3  -2   44.50    5.50
  -3   3  -2   32.60    3.80
  -3   3  -2   37.80    5.20
  -3   3  -2   48.10    5.00
  -3   3  -2   47.00    5.20
   3  -3   2   32.50    4.90
   3  -3   2   35.10    3.90
   3  -3   2   40.20    5.00
   3  -3   2   34.40    4.20
   3  -3   2   52.49    9.50
   3  -3   2   34.00    4.50
  -4   3  -2  443.76   37.40
  -4   3  -2  497.45   36.60
  -4   3  -2  462.85   36.90
  -4   3  -2  498.15   36.50
  -4   3  -2  438.96   36.80
  -4   3  -2  439.66   35.40
   4  -3   2  446.46   36.30
   4  -3   2  399.06   36.30
   4  -3   2  522.55   40.60
   4  -3   2  438.66   37.10
   4  -3   2  462.05   36.10
  -5   3  -2    1.40    2.60
  -5   3  -2    1.50    2.20
  -5   3  -2    1.20    1.90
  -5   3  -2    0.10    4.40
  -5   3  -2    4.50    2.60
   5  -3   2    0.50    2.20
   5  -3   2    2.20    2.90
   5  -3   2    1.20    2.90
   5  -3   2    4.20    2.80
   5  -3   2    5.90    2.80
  -6   3  -2    1.80    3.00
  -6   3  -2   -2.30    2.50
  -6   3  -2    2.20    2.80
  -6   3  -2   -4.20    2.20
  -6   3  -2   -3.50    4.00
  -6   3  -2    0.30    2.80
   6  -3   2   -1.40    3.40
   6  -3   2   -2.90    3.40
   6  -3   2   -1.80    2.80
   6  -3   2    0.40    3.30
   6  -3   2   -2.70    3.80
  -7   3  -2    4.50    3.90
  -7   3  -2    3.60    4.20
  -7   3  -2    7.80    4.20
  -7   3  -2    1.00    5.70
  -7   3  -2   -3.60    3.60
  -7   3  -2    8.70    3.80
   7  -3   2    9.10    5.80
   7  -3   2    2.80    7.40
   7  -3   2    5.40    5.50
   7  -3   2   -3.90    4.30
   7   2  -2   21.30    7.40
  -7  -2   2   26.40    5.00
  -7  -2   2   31.10    7.20
   6   2  -2   12.10    6.10
  -6  -2   2    6.60    2.00
  -6  -2   2    2.70    2.80
  -6  -2   2    9.50    5.30
   5   2  -2   15.30    5.20
  -5  -2   2   14.50    2.40
  -5  -2   2   17.10    2.70
  -5  -2   2   13.60    4.70
   4   2  -2   31.10    7.40
   4   2  -2   21.80    5.00
  -4  -2   2   23.80    2.90
  -4  -2   2   21.90    2.80
  -4  -2   2   31.10    5.00
  -4  -2   2   22.00    3.00
   3   2  -2   44.00    6.20
   3   2  -2   44.10    5.80
  -3  -2   2   37.30    3.90
  -3  -2   2   43.90    3.80
  -3  -2   2   43.40    3.90
  -3  -2   2   36.90    4.90
  -3  -2   2   38.70    3.90
   2   2  -2  204.58   18.30
   2   2  -2  213.78   18.30
   2   2  -2  243.58   19.60
   2   2  -2  243.18   19.40
  -2  -2   2  226.98   18.90
  -2  -2   2  250.67   18.40
  -2  -2   2  258.17   18.40
  -2  -2   2  237.78   18.40
  -2  -2   2  237.38   18.50
  -2  -2   2  284.27   20.40
   1   2  -2 4208.08  343.77
   1   2  -2 4679.73  344.67
   1   2  -2 4434.46  344.07
   1   2  -2 4893.31  344.07
  -1  -2   2 4789.42  344.17
  -1  -2   2 4641.64  344.57
  -1  -2   2 4835.72  344.27
  -1  -2   2 4006.70  343.77
  -1  -2   2 4869.91  344.07
   0   2  -2  573.14   42.40
   0   2  -2  520.15   42.10
   0   2  -2  627.54   42.50
   0  -2   2  518.25   42.20
   0  -2   2  550.74   42.40
   0  -2   2  558.14   42.40
   0  -2   2  550.44   42.40
   0  -2   2  585.64   42.50
   0  -2   2  522.25   42.10
  -1   2  -2 1086.29   80.99
  -1   2  -2 1053.39   80.49
  -1   2  -2 1121.99   81.29
  -1   2  -2 1042.80   80.79
  -1   2  -2 1152.38   81.29
  -1   2  -2 1186.18   81.49
   1  -2   2 1001.20   80.39
   1  -2   2 1013.90   80.79
   1  -2   2 1018.90   80.99
   1  -2   2 1008.80   80.99
  -2   2  -2  477.85   35.50
  -2   2  -2  476.35   35.50
  -2   2  -2  435.66   34.70
   2  -2   2  454.45   35.20
   2  -2   2  423.76   35.40
   2  -2   2  439.86   34.70
   2  -2   2  495.35   34.50
   2  -2   2  420.26   35.40
  -3   2  -2   53.29    6.70
  -3   2  -2   53.59    6.20
  -3   2  -2   52.99    5.40
  -3   2  -2   56.59    6.40
  -3   2  -2   59.79    6.20
  -3   2  -2   53.79    6.00
   3  -2   2   59.89    6.20
   3  -2   2   49.50    6.10
   3  -2   2   56.29    5.90
   3  -2   2   62.79    6.00
  -4   2  -2  133.29   11.80
  -4   2  -2  141.29   13.60
  -4   2  -2  135.09   12.80
  -4   2  -2  140.09   12.50
  -4   2  -2  125.49   12.70
  -4   2  -2  141.79   12.40
   4  -2   2  137.49   12.50
   4  -2   2  142.99   12.40
   4  -2   2  116.69   12.40
   4  -2   2  149.69   12.20
  -5   2  -2   16.80    4.70
  -5   2  -2   19.60    4.30
  -5   2  -2   15.80    3.20
  -5   2  -2   14.90    3.60
  -5   2  -2   12.40    4.00
  -5   2  -2   11.10    3.30
   5  -2   2   11.50    3.10
   5  -2   2   11.00    3.40
   5  -2   2   15.50    4.20
   5  -2   2    9.70    4.00
   5  -2   2    4.70    3.20
  -6   2  -2   30.50    5.20
  -6   2  -2   25.90    4.40
  -6   2  -2   16.50    4.70
  -6   2  -2   16.30    4.00
  -6   2  -2   14.40    4.70
  -6   2  -2   15.20    5.90
   6  -2   2   17.40    6.10
   6  -2   2   19.20    3.80
   6  -2   2   14.10    4.50
   6  -2   2   18.70    4.40
  -7   2  -2   88.99   11.30
  -7   2  -2   92.49   11.10
  -7   2  -2   94.39   10.30
  -7   2  -2   77.89   10.50
  -7   2  -2   94.29   10.80
  -7   2  -2   58.59   12.30
   7  -2   2   98.89   12.90
   7  -2   2   90.29    9.60
   7  -2   2   99.89   11.60
   7   1  -2   -0.10    5.00
  -7  -1   2   -1.00    3.10
  -7  -1   2    5.60    5.20
   6   1  -2   46.60   10.50
   6   1  -2   39.60    8.00
  -6  -1   2   36.00    5.40
  -6  -1   2   36.60   11.40
   5   1  -2   21.20    7.40
   5   1  -2    7.20    4.50
  -5  -1   2   12.40    3.40
  -5  -1   2   16.50    4.30
  -5  -1   2   10.50    2.00
   4   1  -2   29.50    7.10
   4   1  -2   23.10    4.80
  -4  -1   2   19.80    4.30
   3   1  -2   96.89    9.70
   3   1  -2   97.79   10.60
  -3  -1   2   99.39   10.20
  -3  -1   2   94.39    9.50
   2   1  -2   93.09    8.60
   2   1  -2   90.09    9.10
  -2  -1   2   84.89    8.40
  -2  -1   2   99.79    8.10
   1   1  -2  989.40   76.39
   1   1  -2 1023.00   75.89
   1   1  -2 1029.60   76.99
   1   1  -2  910.71   75.79
   1   1  -2 1043.70   75.69
   1   1  -2 1097.59   75.79
  -1  -1   2 1005.50   76.39
  -1  -1   2  958.80   75.79
  -1  -1   2  987.90   75.79
  -1  -1   2 1029.50   75.89
  -1  -1   2 1051.49   75.89
  -1  -1   2  968.70   75.89
   0   1  -2  847.52   63.29
   0   1  -2  771.02   62.79
   0   1  -2  872.61   63.49
   0   1  -2  840.62   63.29
   0  -1   2  858.51   62.99
   0  -1   2  881.01   63.29
   0  -1   2  827.42   63.19
   0  -1   2  780.22   62.79
   0  -1   2  863.51   63.29
   0  -1   2  808.22   63.19
  -1   1  -2  213.08   17.00
  -1   1  -2  211.78   16.90
  -1   1  -2  215.38   16.80
  -1   1  -2  205.68   16.90
  -1   1  -2  216.28   17.00
  -1   1  -2  219.18   16.40
   1  -1   2  201.18   16.40
   1  -1   2  224.68   17.00
   1  -1   2  190.58   16.80
   1  -1   2  203.88   16.70
   1  -1   2  192.38   16.80
   1  -1   2  219.28   17.00
  -2   1  -2  506.75   40.00
  -2   1  -2  492.35   40.40
  -2   1  -2  556.74   41.80
  -2   1  -2  488.65   40.50
  -2   1  -2  528.45   41.30
   2  -1   2  534.15   40.80
   2  -1   2  557.24   40.70
   2  -1   2  556.84   40.70
   2  -1   2  478.65   40.40
  -3   1  -2  629.44   50.29
  -3   1  -2  631.04   50.49
  -3   1  -2  669.23   51.09
  -3   1  -2  633.14   50.29
  -3   1  -2  613.74   50.49
  -3   1  -2  642.54   49.80
   3  -1   2  714.73   50.49
  -4   1  -2    0.60    1.90
  -4   1  -2    0.50    1.80
  -4   1  -2   -0.40    2.20
  -4   1  -2    1.70    1.50
  -4   1  -2    2.70    1.90
  -4   1  -2   -0.50    1.70
   4  -1   2    1.20    2.20
   4  -1   2    1.80    2.20
   4  -1   2    0.50    1.50
  -5   1  -2    1.40    2.20
  -5   1  -2    1.80    3.10
  -5   1  -2    6.60    2.80
  -5   1  -2    2.40    2.30
  -5   1  -2    4.40    2.50
   5  -1   2    4.40    2.70
   5  -1   2    0.80    3.30
   5  -1   2    3.40    2.30
   5  -1   2   -1.90    2.30
  -6   1  -2    1.40    4.40
  -6   1  -2    8.10    3.50
  -6   1  -2    9.20    4.20
  -6   1  -2   14.70    3.90
  -6   1  -2   16.40    4.40
  -6   1  -2   12.20    4.00
   6  -1   2    6.60    3.90
   6  -1   2    7.90    3.00
   6  -1   2    2.30    4.90
   6  -1   2    2.90    3.10
  -7   1  -2   28.80    5.90
  -7   1  -2   27.00    6.00
  -7   1  -2   23.20    6.20
  -7   1  -2   27.60    5.30
  -7   1  -2   21.40    6.00
  -7   1  -2   14.10    7.80
   7  -1   2   32.70    8.20
   7  -1   2   29.40    5.20
   7  -1   2   29.20    5.70
   7   0  -2    7.50    5.60
  -7   0   2    6.80    3.20
  -7   0   2   -0.70    5.50
  -7   0   2    2.80    3.00
   6   0  -2   46.30   12.10
   6   0  -2   42.50    7.70
  -6   0   2   50.39   10.40
  -6   0   2   41.70    5.80
   5   0  -2  187.48   18.30
   5   0  -2  160.28   15.50
  -5   0   2  144.39   13.80
  -5   0   2  146.29   15.00
  -5   0   2  170.58   12.50
  -5   0   2  134.49   12.30
   4   0  -2    7.40    3.50
   4   0  -2   11.20    5.40
  -4   0   2   10.80    3.70
  -4   0   2   16.60    3.60
  -4   0   2   11.50    1.60
  -4   0   2   11.50    1.80
   3   0  -2    5.20    2.60
   3   0  -2    4.60    3.90
  -3   0   2    7.50    2.60
  -3   0   2   10.50    2.60
  -3   0   2    6.20    1.00
   2   0  -2  142.29   11.70
   2   0  -2  133.09   12.60
  -2   0   2  141.99   10.40
  -2   0   2  129.19   11.60
  -2   0   2  128.29   10.40
  -2   0   2  133.59   11.50
  -2   0   2  123.59   10.40
  -2   0   2  136.99   10.40
  -2   0   2  139.59   10.70
   1   0  -2   76.19    6.20
   1   0  -2   68.89    6.10
   1   0  -2   77.89    6.30
   1   0  -2   74.69    6.20
   1   0  -2   88.29    7.70
  -1   0   2   71.89    6.20
  -1   0   2   70.29    6.20
  -1   0   2   72.69    6.20
  -1   0   2   78.59    6.10
  -1   0   2   65.19    6.10
  -1   0   2   74.89    6.80
   0   0  -2 2414.76  191.28
   0   0  -2 2935.81  191.38
   0   0  -2 2384.46  191.28
   0   0  -2 2525.65  191.68
   0   0  -2 2778.02  191.28
   0   0   2 2407.16  191.28
   0   0   2 2417.26  191.28
   0   0   2 2387.86  191.28
   0   0   2 2488.75  191.38
   0   0   2 2453.85  191.38
   0   0   2 2764.42  191.28
   0   0   2 2607.14  190.98
  -1   0  -2    0.60    1.20
  -1   0  -2   -0.30    1.30
  -1   0  -2    1.40    0.80
  -1   0  -2    1.20    1.30
  -1   0  -2    0.20    1.20
  -1   0  -2    1.00    0.80
  -1   0  -2    0.20    1.10
   1   0   2    0.70    1.20
   1   0   2    2.10    1.50
   1   0   2    0.90    1.30
   1   0   2    1.80    1.20
   1   0   2    0.90    0.80
   1   0   2    0.90    1.00
  -2   0  -2  223.98   18.40
  -2   0  -2  216.08   18.30
  -2   0  -2  234.58   17.90
   2   0   2  222.98   18.30
   2   0   2  232.18   18.60
   2   0   2  212.28   18.30
   2   0   2  218.28   18.30
  -3   0  -2   83.59    8.10
  -3   0  -2   75.09    8.00
  -3   0  -2   85.49    8.90
  -3   0  -2   78.39    8.00
  -3   0  -2   72.69    8.00
   3   0   2   81.79    8.40
   3   0   2   74.89    7.80
   3   0   2   87.99    8.20
  -4   0  -2   13.80    3.30
  -4   0  -2   11.50    3.30
  -4   0  -2   12.00    4.00
  -4   0  -2   12.20    3.00
  -4   0  -2    8.10    2.70
   4   0   2   15.60    4.20
   4   0   2    6.40    2.90
   4   0   2    4.70    3.30
   4   0   2    4.70    2.20
   4   0   2    9.70    3.10
  -5   0  -2    9.60    4.40
  -5   0  -2   12.40    3.40
  -5   0  -2    7.90    3.00
  -5   0  -2    8.60    2.70
  -5   0  -2    5.20    2.80
   5   0   2    7.70    3.00
   5   0   2    7.80    3.90
  -6   0  -2   26.50    5.60
  -6   0  -2   17.60    4.70
  -6   0  -2   29.60    6.10
  -6   0  -2   25.80    5.50
  -6   0  -2   37.70    8.50
  -6   0  -2   35.50    6.80
   6   0   2   47.00    6.30
   6   0   2   34.00    6.20
   6   0   2   27.70    4.70
   6   0   2   30.80    7.90
   6   0   2   39.40    6.10
  -7   0  -2    8.10    5.40
  -7   0  -2   15.30    4.80
  -7   0  -2   -3.20    5.70
  -7   0  -2   11.70    6.00
  -7   0  -2   12.20    4.20
   7   0   2   21.40    5.60
   7   0   2   14.60    4.10
   7   0   2   19.90    7.60
   7  -1  -2    8.60    7.00
  -7   1   2    8.60    3.20
  -7   1   2   14.60    3.90
  -7   1   2   11.60    6.30
   6  -1  -2  729.53   55.79
   6  -1  -2  686.53   59.29
  -6   1   2  624.94   52.29
  -6   1   2  715.43   55.99
  -6   1   2  667.33   53.69
  -6   1   2  669.63   52.09
  -6   1   2  726.03   52.79
   5  -1  -2   52.29   10.90
   5  -1  -2   76.19    8.80
  -5   1   2   59.29    6.10
  -5   1   2   62.89    7.20
  -5   1   2   68.49    8.50
  -5   1   2   69.69    6.10
  -5   1   2   61.49    5.60
  -5   1   2   53.89    5.80
   4  -1  -2   -2.70    3.60
   4  -1  -2    0.50    2.40
  -4   1   2    3.80    1.20
  -4   1   2    2.80    1.50
  -4   1   2    6.30    2.50
  -4   1   2    3.70    1.30
   3  -1  -2   30.10    4.70
   3  -1  -2   30.40    7.50
   3  -1  -2   31.90    3.00
   3  -1  -2   30.80    3.00
   3  -1  -2   32.90    3.10
  -3   1   2   35.50    4.40
  -3   1   2   38.00    3.50
  -3   1   2   35.60    5.60
  -3   1   2   35.20    3.40
  -3   1   2   31.60    3.30
  -3   1   2   36.40    3.30
  -3   1   2   38.00    3.60
   2  -1  -2  917.51   77.69
   2  -1  -2 1147.59   77.69
   2  -1  -2  933.31   78.59
   2  -1  -2  984.70   77.79
   2  -1  -2 1055.49   80.19
  -2   1   2 1064.09   77.59
  -2   1   2 1108.19   77.89
  -2   1   2 1118.99   77.99
  -2   1   2 1047.10   78.39
  -2   1   2  994.10   78.69
  -2   1   2 1007.80   77.79
  -2   1   2  987.30   77.79
   1  -1  -2  148.39   13.40
   1  -1  -2  187.58   14.60
   1  -1  -2  159.08   13.10
   1  -1  -2  166.78   12.60
   1  -1  -2  150.48   13.10
  -1   1   2  168.88   12.60
  -1   1   2  167.98   13.30
  -1   1   2  157.48   13.50
  -1   1   2  169.08   13.20
  -1   1   2  157.18   13.10
  -1   1   2  148.69   13.10
   0  -1  -2   72.09    6.00
   0  -1  -2   84.99    6.70
   0  -1  -2   67.79    6.40
   0  -1  -2   65.49    6.50
   0  -1  -2   68.09    6.60
   0  -1  -2   66.99    6.60
   0  -1  -2   72.79    6.70
   0   1   2   63.69    6.50
   0   1   2   70.59    6.00
   0   1   2   70.79    6.40
   0   1   2   58.29    6.40
   0   1   2   68.69    6.60
   0   1   2   79.09    6.60
  -1  -1  -2  279.17   20.50
  -1  -1  -2  241.78   20.90
  -1  -1  -2  243.08   21.00
  -1  -1  -2  251.87   21.00
  -1  -1  -2  293.47   21.20
  -1  -1  -2  257.47   20.30
   1   1   2  243.38   20.90
   1   1   2  248.18   20.90
   1   1   2  245.08   20.90
   1   1   2  286.27   20.40
   1   1   2  269.07   21.00
   1   1   2  245.28   20.90
  -2  -1  -2   -0.30    1.20
  -2  -1  -2    0.50    0.80
  -2  -1  -2   -0.30    1.50
  -2  -1  -2   -0.20    1.40
  -2  -1  -2   -0.60    1.40
  -2  -1  -2    0.30    1.40
   2   1   2    1.70    1.70
   2   1   2   -0.30    1.20
   2   1   2    0.40    1.30
   2   1   2   -0.50    1.20
   2   1   2    0.80    1.50
  -3  -1  -2   93.79    9.30
  -3  -1  -2  101.79   10.10
  -3  -1  -2   84.49    9.10
  -3  -1  -2   85.19    9.20
  -3  -1  -2   96.59    9.40
   3   1   2   94.49    9.20
   3   1   2   83.09    8.90
   3   1   2  101.29    9.70
   3   1   2   93.49    9.10
  -4  -1  -2    7.00    3.20
  -4  -1  -2    0.30    2.10
  -4  -1  -2    7.50    2.90
  -4  -1  -2    5.40    3.90
  -4  -1  -2    8.50    3.00
   4   1   2    9.60    3.90
   4   1   2    3.50    2.50
   4   1   2    7.90    2.90
   4   1   2   10.70    4.10
   4   1   2    2.90    2.40
  -5  -1  -2    6.70    2.90
  -5  -1  -2    4.60    3.20
  -5  -1  -2    4.80    3.80
  -5  -1  -2    3.70    3.20
   5   1   2   10.10    3.50
   5   1   2    2.70    3.50
   5   1   2    5.70    3.90
   5   1   2    8.30    3.50
  -6  -1  -2  105.39   11.90
  -6  -1  -2   91.59   10.70
  -6  -1  -2   91.69   11.00
  -6  -1  -2  111.49   11.70
  -6  -1  -2   99.49   11.30
  -6  -1  -2   92.39   13.60
   6   1   2  110.69   10.70
   6   1   2  108.39   11.60
  -7  -1  -2   28.90    6.50
  -7  -1  -2   14.10    4.90
  -7  -1  -2   34.50   10.10
  -7  -1  -2   18.70    5.70
  -7  -1  -2   13.20    6.40
   7   1   2    9.20    4.40
   7   1   2   23.80    6.40
   7   1   2   17.70    7.60
   7  -2  -2   22.10    9.70
  -7   2   2   12.20    3.30
  -7   2   2   19.30    3.20
  -7   2   2   16.80    3.40
  -7   2   2    9.90    6.30
  -7   2   2   13.00    4.10
  -7   2   2   18.70    3.20
   6  -2  -2   33.50    9.80
  -6   2   2   24.70    3.80
  -6   2   2   28.20    3.70
  -6   2   2   28.50    4.00
  -6   2   2   26.10    4.40
  -6   2   2   32.70    5.40
  -6   2   2   20.70    6.00
  -6   2   2   32.60    4.30
   5  -2  -2  197.38   22.10
   5  -2  -2  217.08   19.30
  -5   2   2  220.98   16.80
  -5   2   2  222.68   17.60
  -5   2   2  209.98   17.10
  -5   2   2  205.98   18.40
  -5   2   2  201.28   17.10
   4  -2  -2    4.70    1.40
   4  -2  -2    4.30    1.60
   4  -2  -2    3.50    1.40
   4  -2  -2    3.10    1.40
   4  -2  -2    3.90    4.10
  -4   2   2    4.00    1.90
  -4   2   2    7.10    2.60
  -4   2   2    6.70    2.00
  -4   2   2    1.70    3.30
  -4   2   2    2.80    1.40
  -4   2   2    4.50    1.10
  -4   2   2    5.80    1.60
   3  -2  -2    6.50    2.60
   3  -2  -2    2.00    3.50
   3  -2  -2   10.00    2.00
   3  -2  -2    9.50    2.40
   3  -2  -2    7.30    1.90
   3  -2  -2    7.20    1.90
  -3   2   2    9.80    2.20
  -3   2   2    6.40    1.80
  -3   2   2    7.70    2.20
  -3   2   2    7.30    3.00
  -3   2   2   10.20    1.40
  -3   2   2   11.00    2.70
  -3   2   2    8.10    1.90
   2  -2  -2  261.07   19.30
   2  -2  -2  238.98   20.10
   2  -2  -2  249.08   22.40
   2  -2  -2  242.58   20.20
   2  -2  -2  285.57   20.10
   2  -2  -2  237.58   20.80
  -2   2   2  256.27   20.40
  -2   2   2  241.28   20.10
  -2   2   2  252.27   20.30
  -2   2   2  257.27   20.90
  -2   2   2  233.98   19.30
  -2   2   2  242.08   20.10
  -2   2   2  297.87   20.80
   1  -2  -2  101.79   10.00
   1  -2  -2  106.59   10.00
   1  -2  -2  116.39    9.90
   1  -2  -2  119.09   10.00
   1  -2  -2  138.29   11.60
   1  -2  -2  104.39    9.90
  -1   2   2  121.59   10.10
  -1   2   2  115.59   10.20
  -1   2   2  112.49    9.90
  -1   2   2  103.89    9.90
  -1   2   2  119.99   10.20
   0  -2  -2    3.00    3.60
   0  -2  -2    7.40    1.90
   0  -2  -2    7.10    2.50
   0  -2  -2    7.00    1.60
   0  -2  -2    7.60    2.00
   0  -2  -2    5.10    2.10
   0  -2  -2   10.20    2.60
   0  -2  -2    5.00    2.10
   0   2   2    9.60    2.30
   0   2   2    3.10    1.90
   0   2   2    6.10    2.40
   0   2   2    6.90    2.30
   0   2   2    9.00    2.30
   0   2   2    6.00    2.40
  -1  -2  -2   98.19    8.20
  -1  -2  -2   84.19    8.60
  -1  -2  -2   85.99    8.60
  -1  -2  -2   95.69    8.80
  -1  -2  -2   82.39    8.60
   1   2   2   93.39    8.70
   1   2   2   81.59    8.60
   1   2   2   95.19    8.90
   1   2   2   80.69    8.60
   1   2   2   89.79    8.60
   1   2   2  104.79    8.30
  -2  -2  -2  111.09   10.00
  -2  -2  -2   90.19    9.60
  -2  -2  -2  106.99    8.90
  -2  -2  -2   92.19    9.60
  -2  -2  -2   97.59    9.70
   2   2   2  120.99    8.90
   2   2   2   90.99    9.40
   2   2   2   96.69    9.50
   2   2   2   88.09    9.40
   2   2   2  100.99    9.80
   2   2   2   92.19    9.60
  -3  -2  -2    1.10    2.00
  -3  -2  -2    1.60    1.10
  -3  -2  -2   -0.30    1.70
  -3  -2  -2    2.80    2.40
  -3  -2  -2    0.00    1.60
  -3  -2  -2   -0.10    1.70
   3   2   2    0.10    1.70
   3   2   2    0.80    1.60
   3   2   2    0.00    1.60
   3   2   2    2.10    1.80
  -4  -2  -2   25.20    6.10
  -4  -2  -2   21.70    4.80
  -4  -2  -2   24.30    5.00
  -4  -2  -2   30.20    5.50
  -4  -2  -2   23.60    5.20
  -4  -2  -2   20.10    3.10
   4   2   2   18.50    4.60
   4   2   2   36.70    6.00
   4   2   2   25.30    4.70
   4   2   2   30.10    5.70
  -5  -2  -2   17.00    5.70
  -5  -2  -2   17.60    5.00
  -5  -2  -2   32.80    6.10
  -5  -2  -2   18.20    4.70
  -5  -2  -2   20.90    4.80
   5   2   2   31.00    5.60
   5   2   2   24.60    6.50
   5   2   2   23.10    6.10
   5   2   2   26.30    5.40
   5   2   2   24.60    5.40
   5   2   2   23.40    5.40
  -6  -2  -2   20.50    4.70
  -6  -2  -2   12.20    4.30
  -6  -2  -2    8.80    4.50
  -6  -2  -2    9.30    7.20
  -6  -2  -2    2.60    4.80
  -6  -2  -2    2.00    3.90
   6   2   2   12.80    6.00
   6   2   2   10.80    4.10
   6   2   2   13.50    5.00
  -7  -2  -2   -4.60    4.30
  -7  -2  -2   -1.90    4.10
  -7  -2  -2   12.80    4.80
   7   2   2    1.90    6.20
   7   2   2   -3.80    6.00
   7  -3  -2  172.78   24.60
  -7   3   2  191.48   16.30
  -7   3   2  215.38   21.50
  -7   3   2  199.68   16.10
  -7   3   2  217.28   18.20
  -7   3   2  199.38   17.30
  -7   3   2  201.88   17.20
  -7   3   2  193.38   17.50
  -7   3   2  221.38   17.30
   6  -3  -2    3.70    6.50
  -6   3   2   -3.80    2.60
  -6   3   2    4.10    4.40
  -6   3   2    2.50    1.40
  -6   3   2    4.10    2.30
  -6   3   2    2.70    4.10
  -6   3   2    0.60    2.50
  -6   3   2    2.00    1.30
  -6   3   2    0.70    2.90
   5  -3  -2   11.40    2.90
   5  -3  -2   16.80    3.00
   5  -3  -2   17.40    2.90
   5  -3  -2   12.10    7.50
   5  -3  -2   18.70    2.90
  -5   3   2   15.10    4.00
  -5   3   2   20.10    3.40
  -5   3   2   22.20    4.50
  -5   3   2   18.30    2.30
   4  -3  -2    6.00    5.50
   4  -3  -2   -0.80    1.60
   4  -3  -2    2.20    1.70
   4  -3  -2    0.80    1.50
   4  -3  -2    1.20    2.30
  -4   3   2    2.00    2.10
  -4   3   2    1.60    1.80
  -4   3   2    0.80    1.90
  -4   3   2   -0.50    1.60
  -4   3   2    1.70    1.60
  -4   3   2   -0.60    2.80
  -4   3   2   -0.10    0.60
   3  -3  -2   46.60    6.50
   3  -3  -2   57.69    6.30
   3  -3  -2   50.39    5.90
   3  -3  -2   59.79    6.20
   3  -3  -2   46.30    9.60
  -3   3   2   56.09    6.00
  -3   3   2   70.79    6.40
  -3   3   2   52.49    6.00
  -3   3   2   61.29    6.40
  -3   3   2   66.29    6.70
  -3   3   2   69.79    7.10
   2  -3  -2   63.49    5.10
   2  -3  -2   71.39    6.40
   2  -3  -2   53.29    6.70
   2  -3  -2   51.19    6.30
   2  -3  -2   65.59    6.70
   2  -3  -2   63.29    9.00
  -2   3   2   71.49    6.90
  -2   3   2   62.69    6.40
  -2   3   2   65.59    7.00
  -2   3   2   62.29    6.40
  -2   3   2   68.39    6.80
   1  -3  -2   21.90    6.10
   1  -3  -2   12.90    3.00
   1  -3  -2   12.30    3.10
   1  -3  -2   12.30    2.00
   1  -3  -2   14.10    3.40
   1  -3  -2   11.40    2.80
   1  -3  -2   13.50    3.30
  -1   3   2   16.10    3.40
  -1   3   2   10.10    2.80
  -1   3   2   15.30    3.60
  -1   3   2   11.40    2.70
   0  -3  -2   -0.30    1.70
   0  -3  -2    1.90    1.90
   0  -3  -2    3.60    2.10
   0  -3  -2    2.60    1.60
   0  -3  -2    1.30    1.70
   0  -3  -2    8.80    3.70
   0   3   2    3.60    2.00
   0   3   2    0.30    1.40
   0   3   2    3.10    2.10
   0   3   2    3.80    1.90
   0   3   2    0.70    1.90
   0   3   2    1.70    1.80
  -1  -3  -2    8.00    2.60
  -1  -3  -2   11.50    3.40
  -1  -3  -2    7.20    2.30
  -1  -3  -2    8.20    2.60
  -1  -3  -2   11.30    3.10
   1   3   2   12.80    3.40
   1   3   2    9.60    3.30
   1   3   2    7.20    2.70
   1   3   2    8.40    2.80
   1   3   2   12.00    3.10
   1   3   2   10.80    2.50
  -2  -3  -2    0.00    1.20
  -2  -3  -2   -0.10    1.90
  -2  -3  -2   -2.30    1.90
  -2  -3  -2    2.50    2.50
  -2  -3  -2    1.40    1.90
  -2  -3  -2    2.10    2.30
   2   3   2    1.80    1.70
   2   3   2    1.50    2.20
   2   3   2    1.10    1.80
   2   3   2   -1.00    1.70
   2   3   2    1.40    2.20
   2   3   2    0.70    1.50
  -3  -3  -2    4.30    2.50
  -3  -3  -2    2.70    2.60
  -3  -3  -2    6.40    3.50
  -3  -3  -2    3.30    1.80
  -3  -3  -2    0.80    2.20
  -3  -3  -2    5.40    3.00
   3   3   2    8.70    3.10
   3   3   2   -1.00    1.90
   3   3   2    4.80    2.60
   3   3   2    1.40    2.40
  -4  -3  -2   47.70    7.60
  -4  -3  -2   36.00    6.40
  -4  -3  -2   31.90    6.60
  -4  -3  -2   37.50    4.80
  -4  -3  -2   40.10    6.90
  -4  -3  -2   35.50    6.90
   4   3   2   50.19    7.60
   4   3   2   38.50    6.80
   4   3   2   63.09    9.80
   4   3   2   34.50    6.10
   4   3   2   40.50    7.40
  -5  -3  -2   -2.90    3.20
  -5  -3  -2    5.00    2.10
  -5  -3  -2    4.20    3.00
  -5  -3  -2    1.30    3.30
  -5  -3  -2   -0.20    3.90
  -5  -3  -2    5.50    3.60
   5   3   2    6.70    3.80
   5   3   2    2.20    3.60
   5   3   2   -1.10    3.30
   5   3   2    1.90    4.20
   5   3   2    4.40    3.90
   5   3   2    1.50    4.50
  -6  -3  -2   32.30    8.10
  -6  -3  -2   32.90    6.80
  -6  -3  -2   27.70    6.40
  -6  -3  -2   29.40    6.50
  -6  -3  -2   24.30    6.50
   6   3   2   21.20    7.40
   6   3   2   56.29    9.40
   6   3   2   46.90    7.90
   6   3   2   35.60    7.20
   6   3   2   26.50    5.80
   7  -4  -2  310.47   39.50
  -7   4   2  394.26   33.10
  -7   4   2  411.86   33.40
  -7   4   2  410.46   33.00
  -7   4   2  452.65   34.10
  -7   4   2  425.76   33.60
   6  -4  -2   31.00   11.20
   6  -4  -2   23.90    4.00
   6  -4  -2   39.10    4.50
  -6   4   2   29.80    5.40
  -6   4   2   32.90    6.10
  -6   4   2   37.40    5.60
  -6   4   2   31.80    5.20
   5  -4  -2    0.20    2.20
   5  -4  -2   -1.20    6.00
   5  -4  -2   -1.30    2.90
   5  -4  -2    0.20    2.30
   5  -4  -2    0.40    2.30
   5  -4  -2    0.10    2.10
  -5   4   2    3.00    2.80
  -5   4   2    4.00    4.10
  -5   4   2    1.70    2.30
  -5   4   2   -0.70    2.40
  -5   4   2    1.10    2.30
   4  -4  -2  251.17   19.50
   4  -4  -2  207.98   19.60
   4  -4  -2  243.28   19.50
   4  -4  -2  223.68   20.60
   4  -4  -2  223.88   19.50
  -4   4   2  231.28   19.90
  -4   4   2  224.28   19.50
  -4   4   2  235.08   19.70
  -4   4   2  244.38   19.80
  -4   4   2  264.37   20.70
  -4   4   2  238.38   19.90
   3  -4  -2   20.10    3.60
   3  -4  -2   14.30    4.00
   3  -4  -2   11.50    5.70
   3  -4  -2   14.80    3.50
  -3   4   2   18.60    3.90
  -3   4   2   16.80    3.60
  -3   4   2   15.30    3.70
  -3   4   2   15.70    3.30
  -3   4   2   20.10    3.60
  -3   4   2   12.00    3.10
   2  -4  -2   33.80    5.40
   2  -4  -2   40.70    3.50
   2  -4  -2   39.80    5.00
   2  -4  -2   32.30    5.00
   2  -4  -2   33.80    5.00
   2  -4  -2   48.10    9.50
   2  -4  -2   43.60    5.20
  -2   4   2   34.50    5.90
  -2   4   2   39.10    5.30
  -2   4   2   40.10    5.40
  -2   4   2   40.60    5.50
  -2   4   2   38.30    5.00
   1  -4  -2   -0.20    2.10
   1  -4  -2    0.50    1.80
   1  -4  -2   -1.20    1.80
   1  -4  -2   -1.30    3.10
   1  -4  -2    3.00    2.10
   1  -4  -2    1.30    0.90
   1  -4  -2    3.20    1.60
  -1   4   2   -2.30    2.00
  -1   4   2    1.50    1.70
  -1   4   2   -0.60    1.50
  -1   4   2    1.30    1.80
  -1   4   2    3.40    1.80
  -1   4   2   -0.80    2.10
   0  -4  -2   31.00    5.50
   0  -4  -2   44.10    5.50
   0  -4  -2   36.30    5.50
   0  -4  -2   37.20    5.20
   0  -4  -2   49.50    7.30
   0  -4  -2   45.60    6.80
   0   4   2   44.80    5.50
   0   4   2   41.10    5.90
   0   4   2   51.29    5.50
   0   4   2   42.50    5.80
   0   4   2   44.20    5.70
  -1  -4  -2   93.59    9.40
  -1  -4  -2   81.29    9.40
  -1  -4  -2   95.89    9.80
  -1  -4  -2  101.99    9.70
  -1  -4  -2   77.29    9.40
  -1  -4  -2   89.09    9.10
   1   4   2   99.79    9.70
   1   4   2   92.79    9.90
   1   4   2   87.69    9.70
   1   4   2  100.59    9.70
   1   4   2   89.49    9.60
   1   4   2  103.69    9.20
  -2  -4  -2    0.50    2.40
  -2  -4  -2   -0.10    2.00
  -2  -4  -2    3.20    1.90
  -2  -4  -2   -0.10    2.40
  -2  -4  -2    0.80    2.30
  -2  -4  -2   -3.40    1.80
   2   4   2   -0.70    2.10
   2   4   2    2.60    2.80
   2   4   2   -3.60    1.80
   2   4   2    3.50    1.80
   2   4   2    3.50    2.60
   2   4   2    0.30    2.50
  -3  -4  -2   77.89    9.50
  -3  -4  -2   83.59    9.70
  -3  -4  -2   99.39   10.30
  -3  -4  -2   66.99    9.40
  -3  -4  -2   72.79    9.60
  -3  -4  -2   89.19    8.50
   3   4   2   94.99   10.00
   3   4   2   79.69    9.70
   3   4   2   77.09    9.20
   3   4   2   82.99    9.60
   3   4   2   87.59    9.80
  -4  -4  -2   -3.10    3.10
  -4  -4  -2    5.90    3.00
  -4  -4  -2    2.80    3.20
  -4  -4  -2    9.10    4.60
   4   4   2    7.50    4.40
   4   4   2    1.10    3.30
   4   4   2    5.30    3.60
   4   4   2    6.40    3.10
   4   4   2    7.30    3.30
  -5  -4  -2   10.60    3.20
  -5  -4  -2   15.00    4.90
  -5  -4  -2    7.90    4.40
  -5  -4  -2   -0.80    4.30
  -5  -4  -2   16.00    4.80
  -5  -4  -2    5.40    5.30
   5   4   2    7.20    4.50
   5   4   2   25.70    7.00
   5   4   2    4.80    4.70
   5   4   2   10.00    4.70
   5   4   2    3.60    4.90
  -6  -4  -2    3.50    4.60
  -6  -4  -2    1.30    5.00
  -6  -4  -2    0.90    5.80
  -6  -4  -2    2.00    4.60
  -6  -4  -2    1.00    4.60
   6   4   2   -5.60    5.00
   6   4   2   -0.10    5.80
   6   4   2   12.80    6.60
   7  -5  -2   28.30   11.30
  -7   5   2   16.80    5.40
  -7   5   2   12.50    5.50
  -7   5   2   16.20    5.80
  -7   5   2   26.60   11.00
   6  -5  -2   37.30    5.70
   6  -5  -2   15.10    9.20
   6  -5  -2   21.80    4.80
   6  -5  -2   18.00    4.50
   6  -5  -2   29.80    7.30
  -6   5   2   29.70    5.30
  -6   5   2   38.20    6.70
   5  -5  -2    0.80    3.00
   5  -5  -2   -2.30    2.60
   5  -5  -2    0.60    3.30
   5  -5  -2    1.20    5.80
   5  -5  -2    1.30    2.80
   5  -5  -2    3.70    2.80
  -5   5   2   -2.70    3.50
  -5   5   2    1.00    2.80
  -5   5   2    1.80    2.50
  -5   5   2    5.30    3.20
  -5   5   2    3.20    2.70
   4  -5  -2   16.90    4.10
   4  -5  -2   14.50    7.70
   4  -5  -2   12.90    3.60
   4  -5  -2   15.10    4.50
  -4   5   2   11.20    3.60
  -4   5   2   11.50    4.60
  -4   5   2   21.20    4.60
  -4   5   2   12.40    4.20
  -4   5   2   22.30    4.80
  -4   5   2   14.00    4.00
   3  -5  -2   95.39   10.80
   3  -5  -2  100.29   10.50
   3  -5  -2   83.89   13.20
   3  -5  -2   92.59   10.10
   3  -5  -2  134.39   10.70
  -3   5   2  114.29   10.80
  -3   5   2  120.89   11.20
  -3   5   2  105.69   10.50
  -3   5   2  103.89   10.30
  -3   5   2   90.29    9.90
   2  -5  -2   60.39    5.70
   2  -5  -2   80.49    7.90
   2  -5  -2   87.99    7.80
   2  -5  -2   59.29    8.00
   2  -5  -2   67.19   11.20
   2  -5  -2   62.19    7.80
   2  -5  -2   57.29    7.30
  -2   5   2   52.09    7.40
  -2   5   2   78.29    8.50
  -2   5   2   64.09    7.80
  -2   5   2   73.19    7.90
   1  -5  -2  226.48   22.00
   1  -5  -2  274.67   24.30
   1  -5  -2  278.47   22.20
   1  -5  -2  236.78   22.30
   1  -5  -2  292.87   22.40
   1  -5  -2  233.38   22.00
  -1   5   2  267.07   22.40
  -1   5   2  213.88   21.70
  -1   5   2  288.57   22.50
  -1   5   2  251.97   22.10
  -1   5   2  295.17   23.00
  -1   5   2  287.37   22.50
   0  -5  -2   63.49    8.40
   0  -5  -2   76.79    8.60
   0  -5  -2   67.29    8.00
   0  -5  -2   64.29    8.30
   0  -5  -2   79.09    9.60
   0   5   2   82.79    9.30
   0   5   2   85.39    8.30
   0   5   2   61.09    8.30
   0   5   2   81.29    8.90
   0   5   2   77.39    8.50
   0   5   2   71.99    8.30
  -1  -5  -2  112.79   11.10
  -1  -5  -2  121.39   11.70
  -1  -5  -2   95.09   11.30
  -1  -5  -2  122.79   12.50
  -1  -5  -2  118.89   12.00
  -1  -5  -2  103.59   11.50
  -1  -5  -2  117.99   11.70
   1   5   2  132.99   11.50
   1   5   2   95.99   11.40
   1   5   2  106.79   11.80
   1   5   2  116.59   11.70
   1   5   2  131.59   12.40
  -2  -5  -2    5.00    3.40
  -2  -5  -2    3.40    2.70
  -2  -5  -2    7.40    3.30
  -2  -5  -2    7.00    3.60
  -2  -5  -2    1.50    2.40
  -2  -5  -2    7.20    3.10
   2   5   2    8.10    3.80
   2   5   2    6.60    3.50
   2   5   2   10.50    4.50
   2   5   2    9.70    4.00
   2   5   2    7.00    3.30
  -3  -5  -2    7.60    3.40
  -3  -5  -2    3.90    2.80
  -3  -5  -2   11.80    6.90
  -3  -5  -2   -1.60    3.10
  -3  -5  -2    7.60    3.90
  -3  -5  -2    3.30    3.20
   3   5   2    2.40    3.50
   3   5   2    4.20    4.10
   3   5   2    8.60    4.10
   3   5   2    5.00    4.00
   3   5   2    6.60    3.70
  -4  -5  -2   17.30    5.10
  -4  -5  -2   16.20    4.10
  -4  -5  -2   15.20    5.20
  -4  -5  -2   13.30    5.40
  -4  -5  -2   19.30    5.00
  -4  -5  -2   15.70    7.70
   4   5   2   26.10    5.80
   4   5   2   13.10    5.40
   4   5   2   22.80    5.90
   4   5   2   18.90    6.30
  -5  -5  -2   15.40    5.20
  -5  -5  -2   14.80    4.20
  -5  -5  -2   15.30    5.40
  -5  -5  -2   36.40   10.60
  -5  -5  -2   13.60    6.10
  -5  -5  -2   30.00    6.40
   5   5   2   10.90    7.60
   5   5   2   20.50    7.00
   5   5   2   24.30    8.30
   5   5   2   18.80    8.00
   5   5   2   25.20    7.10
  -6  -5  -2   15.80    4.40
  -6  -5  -2   19.30    7.60
  -6  -5  -2    5.80    6.70
  -6  -5  -2    9.10    6.40
  -6  -5  -2    6.80    6.90
   6   5   2   22.50   10.00
   6   5   2    7.70    6.10
   6   5   2   21.80    8.20
   7  -6  -2   16.20    7.90
   7  -6  -2   24.80   12.40
  -7   6   2    9.40    4.90
  -7   6   2    6.80    5.90
  -7   6   2   10.80    6.50
  -7   6   2    7.60    7.00
  -7   6   2   23.10    6.80
   6  -6  -2   15.20    5.10
   6  -6  -2   11.90    8.40
   6  -6  -2    0.90    5.80
   6  -6  -2    2.40    4.00
   6  -6  -2    3.10    4.70
  -6   6   2   13.30    5.10
  -6   6   2   12.50    4.60
  -6   6   2    3.40    4.80
  -6   6   2    8.20    4.60
   5  -6  -2   39.80    6.70
   5  -6  -2   39.40    7.20
   5  -6  -2   38.60    8.60
   5  -6  -2   47.30    7.60
   5  -6  -2   23.80   10.60
   5  -6  -2   32.30    7.20
  -5   6   2   61.69    8.10
  -5   6   2   39.00    8.60
  -5   6   2   61.29    8.00
  -5   6   2   58.99    8.10
  -5   6   2   55.19    7.60
  -5   6   2   41.10    6.80
   4  -6  -2   -0.30    2.80
   4  -6  -2   -1.00    2.80
   4  -6  -2    4.20    3.20
   4  -6  -2    0.00    3.30
   4  -6  -2   -0.20    3.00
   4  -6  -2   -8.00    4.60
  -4   6   2   -2.70    3.40
  -4   6   2   -0.30    2.70
  -4   6   2   -2.00    2.50
  -4   6   2   -5.90    3.50
   3  -6  -2    4.30    5.00
   3  -6  -2   10.80    3.90
   3  -6  -2   13.30    4.80
   3  -6  -2   18.30    4.00
   3  -6  -2   15.40    4.70
   3  -6  -2   16.30    4.10
  -3   6   2   17.10    4.50
  -3   6   2   22.60    5.40
  -3   6   2   10.90    3.90
  -3   6   2   14.70    4.10
  -3   6   2   10.90    3.80
   2  -6  -2   23.80    5.00
   2  -6  -2   21.60    5.60
   2  -6  -2   29.80    3.20
   2  -6  -2   21.90    8.90
   2  -6  -2   25.40    5.10
   2  -6  -2   20.60    4.60
   2  -6  -2   31.60    5.30
  -2   6   2   35.20    6.80
  -2   6   2   21.30    5.10
  -2   6   2   40.70    6.40
  -2   6   2   38.30    7.10
  -2   6   2   28.40    5.80
   1  -6  -2    4.60    2.50
   1  -6  -2   -1.70    2.80
   1  -6  -2    9.80    4.00
   1  -6  -2    1.40    3.00
   1  -6  -2    1.50    5.10
   1  -6  -2    3.10    3.00
  -1   6   2   14.50    4.00
  -1   6   2    8.10    3.00
  -1   6   2    7.40    2.90
  -1   6   2    1.70    2.40
  -1   6   2    1.10    2.70
  -1   6   2    4.50    3.30
   0  -6  -2   38.50    6.60
   0  -6  -2   28.80    5.90
   0  -6  -2   34.20    6.70
   0  -6  -2   29.90    7.30
   0  -6  -2   28.00    6.30
   0  -6  -2   31.40    5.70
   0   6   2   30.50    5.90
   0   6   2   42.40    7.80
   0   6   2   24.60    5.70
   0   6   2   37.40    6.50
   0   6   2   24.00    5.80
  -1  -6  -2  176.28   18.40
  -1  -6  -2  165.78   17.40
  -1  -6  -2  210.78   18.30
  -1  -6  -2  209.28   18.50
  -1  -6  -2  177.38   18.10
  -1  -6  -2  200.78   18.10
   1   6   2  176.78   18.70
   1   6   2  226.88   18.20
   1   6   2  217.08   18.50
   1   6   2  178.98   18.00
   1   6   2  267.77   24.30
   1   6   2  186.78   18.30
  -2  -6  -2  279.47   26.40
  -2  -6  -2  274.07   25.30
  -2  -6  -2  318.27   27.70
  -2  -6  -2  313.97   26.20
  -2  -6  -2  329.77   26.60
  -2  -6  -2  298.87   26.60
  -2  -6  -2  318.87   26.20
   2   6   2  272.97   26.30
   2   6   2  332.67   27.00
   2   6   2  285.27   26.20
   2   6   2  269.37   26.00
  -3  -6  -2   15.20    5.80
  -3  -6  -2   25.20    6.30
  -3  -6  -2   16.70    4.30
  -3  -6  -2   18.30    5.60
  -3  -6  -2   22.80    9.70
   3   6   2   22.90    5.70
   3   6   2   28.70    6.80
   3   6   2   17.70    5.70
   3   6   2   20.70    5.90
   3   6   2   17.50    6.00
  -4  -6  -2   26.90    6.90
  -4  -6  -2   35.50    8.10
  -4  -6  -2   21.30    5.00
  -4  -6  -2   19.50    7.00
  -4  -6  -2   24.60    6.50
  -4  -6  -2   28.90    6.70
   4   6   2   28.60    6.70
   4   6   2   45.50    8.50
   4   6   2   28.70    6.70
   4   6   2   22.60    7.00
   4   6   2   23.90    7.10
  -5  -6  -2   61.29   11.40
  -5  -6  -2   59.69    8.70
  -5  -6  -2   46.50    9.20
  -5  -6  -2   83.19   12.20
  -5  -6  -2   70.69   11.10
  -5  -6  -2   58.99   10.00
   5   6   2   79.69   12.20
   5   6   2   77.99   13.00
   5   6   2   81.59   13.60
   6  -7  -2   -5.10    5.70
   6  -7  -2    9.20    8.40
   6  -7  -2   12.80    5.40
   6  -7  -2    1.20    6.20
  -6   7   2   -0.70    4.50
  -6   7   2   -6.00    4.70
  -6   7   2    2.80    6.90
  -6   7   2    2.30    5.50
  -6   7   2   -9.60    4.40
   5  -7  -2   63.89   15.70
   5  -7  -2   90.59   12.80
   5  -7  -2   91.39   12.00
   5  -7  -2  117.09   12.30
   5  -7  -2   94.89   12.60
  -5   7   2  111.59   12.20
  -5   7   2  108.09   11.70
  -5   7   2  122.79   12.60
  -5   7   2   74.79   10.70
   4  -7  -2    2.20    3.90
   4  -7  -2    0.40    4.20
   4  -7  -2    8.00    4.30
   4  -7  -2    2.40    4.00
   4  -7  -2   -2.20    6.80
  -4   7   2   -2.50    3.90
  -4   7   2    6.60    4.30
  -4   7   2   10.00    3.90
  -4   7   2    2.20    3.40
  -4   7   2   -0.10    3.90
  -4   7   2    3.50    3.80
   3  -7  -2   -0.60    2.70
   3  -7  -2   -3.30    5.50
   3  -7  -2    3.20    3.40
   3  -7  -2    0.80    3.10
   3  -7  -2    3.30    3.90
   3  -7  -2    2.50    3.80
  -3   7   2   -0.20    3.30
  -3   7   2   10.10    4.20
  -3   7   2    3.80    3.10
  -3   7   2   -1.10    3.60
  -3   7   2    3.80    3.30
   2  -7  -2   61.89    8.30
   2  -7  -2   93.59   10.70
   2  -7  -2   57.89    6.00
   2  -7  -2   46.20    8.80
   2  -7  -2   53.29    9.40
   2  -7  -2   79.69    8.90
   2  -7  -2   66.69   13.80
  -2   7   2   67.39    9.20
  -2   7   2   66.99    9.30
  -2   7   2   71.49   10.70
  -2   7   2   64.89    8.60
  -2   7   2   69.39    8.90
   1  -7  -2   -1.30    1.90
   1  -7  -2   -1.20    3.10
   1  -7  -2    1.70    3.90
   1  -7  -2   -2.00    3.10
   1  -7  -2   -1.80    3.10
   1  -7  -2   -4.80    5.00
  -1   7   2    0.50    3.80
  -1   7   2    1.40    3.60
  -1   7   2    2.10    3.00
  -1   7   2   -0.70    2.80
  -1   7   2    3.30    3.40
  -1   7   2   -1.70    3.20
   0  -7  -2    6.00    3.40
   0  -7  -2    3.00    3.10
   0  -7  -2    0.40    2.70
   0  -7  -2    0.80    3.90
   0  -7  -2    2.50    5.10
   0   7   2    2.70    3.50
   0   7   2    0.30    2.60
   0   7   2    0.10    2.80
   0   7   2    4.30    3.80
   0   7   2   -0.70    3.10
  -1  -7  -2    1.20    3.20
  -1  -7  -2   -1.30    2.30
  -1  -7  -2    2.30    3.80
  -1  -7  -2    1.70    3.60
  -1  -7  -2    4.70    5.40
  -1  -7  -2    4.60    3.90
   1   7   2    0.00    3.60
   1   7   2    1.80    3.70
   1   7   2    0.10    2.40
   1   7   2    3.30    4.00
   1   7   2    3.50    4.00
   1   7   2   -3.90    3.70
  -2  -7  -2  322.67   32.20
  -2  -7  -2  436.76   33.10
  -2  -7  -2  331.47   32.30
  -2  -7  -2  419.76   32.70
  -2  -7  -2  343.17   31.40
  -2  -7  -2  404.36   32.30
  -2  -7  -2  368.06   32.00
   2   7   2  397.16   33.00
   2   7   2  351.16   32.50
   2   7   2  422.56   32.70
   2   7   2  311.47   31.80
   2   7   2  376.26   32.50
  -3  -7  -2    3.80    4.00
  -3  -7  -2    4.10    4.00
  -3  -7  -2   11.30    5.30
  -3  -7  -2   -1.90    3.80
  -3  -7  -2    1.90    7.00
  -3  -7  -2   -6.30    2.70
  -3  -7  -2   -3.30    4.60
   3   7   2    1.70    5.00
   3   7   2   -3.50    4.20
   3   7   2   -1.70    7.90
   3   7   2   -0.20    5.00
  -4  -7  -2    2.60    6.50
  -4  -7  -2    4.60    4.00
  -4  -7  -2   11.50    4.90
  -4  -7  -2   -1.10    6.10
  -4  -7  -2   -2.70    4.10
  -4  -7  -2    0.90    5.20
   4   7   2   -7.10    5.10
   4   7   2   11.00    6.20
   4   7   2   13.40    8.60
   4   7   2    1.60    6.10
  -5  -7  -2   16.10    8.20
  -5  -7  -2   23.20    8.00
  -5  -7  -2    3.80    5.10
  -5  -7  -2    5.10    7.70
   5   7   2   17.50    7.10
   5   7   2   28.10    8.80
   5   7   2   12.70    8.50
   6  -8  -2  -12.20    6.30
   6  -8  -2    4.30    7.30
   6  -8  -2   -3.20    8.20
   6  -8  -2    0.30    7.10
  -6   8   2    1.60    4.70
  -6   8   2   -7.90    7.30
  -6   8   2    6.90    6.40
  -6   8   2  -12.80    5.80
  -6   8   2   -4.10    5.90
   5  -8  -2    4.90    7.40
   5  -8  -2   16.20    5.70
   5  -8  -2   12.40    9.40
   5  -8  -2    7.20    5.90
  -5   8   2    5.30    5.20
  -5   8   2   13.40    5.80
  -5   8   2    8.90    5.80
  -5   8   2   11.60    5.30
  -5   8   2    6.70    5.80
   4  -8  -2   16.00    6.10
   4  -8  -2   19.90    6.40
   4  -8  -2   13.60    5.00
   4  -8  -2   11.90    8.60
   4  -8  -2    8.40    5.50
   4  -8  -2   16.40    5.20
  -4   8   2    7.50    4.90
  -4   8   2   19.60    6.10
  -4   8   2    8.30    5.70
  -4   8   2   16.70    9.10
  -4   8   2   18.10    5.90
  -4   8   2   21.50    5.90
   3  -8  -2   87.79   11.00
   3  -8  -2   91.89   10.50
   3  -8  -2   80.19   10.70
   3  -8  -2   58.19   13.30
   3  -8  -2   56.59   10.60
  -3   8   2   59.39    9.80
  -3   8   2   80.49   11.20
  -3   8   2   94.39   11.20
  -3   8   2   86.19   10.20
  -3   8   2   88.39   10.80
   2  -8  -2  282.27   27.70
   2  -8  -2  309.07   30.10
   2  -8  -2  272.87   27.30
   2  -8  -2  316.57   24.50
   2  -8  -2  330.27   28.90
   2  -8  -2  380.06   28.10
   2  -8  -2  262.87   27.00
  -2   8   2  300.17   27.50
  -2   8   2  280.77   27.30
  -2   8   2  364.66   28.70
  -2   8   2  294.07   27.30
  -2   8   2  357.06   28.80
  -2   8   2  282.47   29.90
   1  -8  -2    1.00    2.80
   1  -8  -2    2.50    5.90
   1  -8  -2    1.40    4.60
   1  -8  -2   -0.10    4.30
   1  -8  -2   -1.80    3.80
   1  -8  -2    5.00    4.40
  -1   8   2    1.30    3.10
  -1   8   2    1.20    4.10
  -1   8   2    5.00    4.80
  -1   8   2   -3.30    3.60
  -1   8   2    6.80    4.30
  -1   8   2    1.80    7.80
   0  -8  -2   -4.20    5.80
   0  -8  -2   -0.30    3.90
   0  -8  -2   -3.40    2.60
   0  -8  -2   -2.50    3.20
   0  -8  -2    3.30    3.80
   0   8   2    2.20    4.60
   0   8   2   -0.20    3.20
   0   8   2   -5.40    3.50
   0   8   2   -1.70    4.10
   0   8   2   -2.30    4.80
   0   8   2   -3.40    3.30
  -1  -8  -2  266.87   27.80
  -1  -8  -2  297.67   29.30
  -1  -8  -2  338.67   28.80
  -1  -8  -2  335.57   29.60
  -1  -8  -2  357.96   29.10
  -1  -8  -2  320.57   29.60
   1   8   2  270.97   28.30
   1   8   2  285.17   28.90
   1   8   2  361.06   31.70
   1   8   2  354.86   29.30
   1   8   2  367.66   30.10
   1   8   2  331.17   29.00
  -2  -8  -2   17.20    5.70
  -2  -8  -2   12.10    5.30
  -2  -8  -2   13.50    5.30
  -2  -8  -2   23.40    8.80
  -2  -8  -2    9.00    7.80
  -2  -8  -2   19.20    6.80
  -2  -8  -2   19.40    7.00
   2   8   2   15.80    6.10
   2   8   2   25.10    7.80
   2   8   2   25.10    6.50
   2   8   2   17.60    5.90
   2   8   2   25.40    6.50
  -3  -8  -2    4.50    4.50
  -3  -8  -2   -4.80    8.20
  -3  -8  -2   13.60    5.00
  -3  -8  -2   11.70    7.30
  -3  -8  -2   -3.10    5.60
  -3  -8  -2   -2.20    4.10
  -3  -8  -2   10.10    4.60
   3   8   2   -1.00    6.00
   3   8   2    5.80    5.90
   3   8   2   -1.00    5.80
   3   8   2    5.60    6.80
   3   8   2    8.90    6.70
  -4  -8  -2   31.80   10.90
  -4  -8  -2   32.90    8.10
  -4  -8  -2   37.10    8.20
  -4  -8  -2   55.79   12.90
  -4  -8  -2   21.70    8.70
  -4  -8  -2   40.20    9.20
  -4  -8  -2   22.70    7.50
   4   8   2   34.90   10.00
   4   8   2   59.79   10.80
   4   8   2   37.70   10.70
   4   8   2   24.80    8.40
   5  -9  -2    0.40    8.20
   5  -9  -2    3.00    6.40
   5  -9  -2  -13.00    6.30
   5  -9  -2    6.50    6.10
  -5   9   2   13.60    7.40
  -5   9   2   -5.00    6.80
  -5   9   2    7.70    5.60
   4  -9  -2    2.70    5.20
   4  -9  -2   -4.80    7.70
   4  -9  -2    3.90    5.20
   4  -9  -2    1.50    5.00
  -4   9   2    0.10    4.30
  -4   9   2    6.50    5.60
  -4   9   2   -1.80    5.50
  -4   9   2    2.60    5.10
  -4   9   2    1.00    6.90
   3  -9  -2   -1.20    9.00
   3  -9  -2   12.50    5.40
   3  -9  -2   15.50    7.50
   3  -9  -2    7.10    5.90
   3  -9  -2   14.20    1.80
   3  -9  -2   10.70    5.80
   3  -9  -2   11.90    5.70
  -3   9   2   19.30    7.00
  -3   9   2   16.50    6.30
  -3   9   2    3.50    6.10
  -3   9   2   17.70    6.00
  -3   9   2   13.30    6.10
   2  -9  -2   18.20    5.90
   2  -9  -2    6.50    5.20
   2  -9  -2   16.20    3.40
   2  -9  -2   10.80    6.20
   2  -9  -2   27.70    8.90
   2  -9  -2   15.70    5.20
   2  -9  -2   10.20    7.00
  -2   9   2   14.00    5.80
  -2   9   2   22.00    7.90
  -2   9   2   13.60    6.80
  -2   9   2   22.90    6.90
  -2   9   2   18.20    6.50
  -2   9   2    9.40    6.60
   1  -9  -2   11.90    9.20
   1  -9  -2   11.10    6.00
   1  -9  -2   17.00    6.30
   1  -9  -2   -2.30    2.90
   1  -9  -2    6.50    5.30
   1  -9  -2   13.70    4.90
  -1   9   2    8.90    6.20
  -1   9   2    7.10    4.60
  -1   9   2    6.80    5.20
  -1   9   2    5.60    5.60
  -1   9   2   10.90    9.00
  -1   9   2   16.70    6.80
   0  -9  -2  122.39   13.70
   0  -9  -2   89.59   12.70
   0  -9  -2  108.29   15.50
   0  -9  -2  122.29   14.00
   0  -9  -2   96.49   14.00
   0  -9  -2   88.49   14.90
   0   9   2   95.79   14.40
   0   9   2   91.99   14.20
   0   9   2  152.78   15.20
   0   9   2  113.69   13.30
   0   9   2   97.19   14.00
   0   9   2  136.49   15.50
  -1  -9  -2  161.38   18.30
  -1  -9  -2  105.19   15.30
  -1  -9  -2  162.38   17.20
  -1  -9  -2  141.79   16.40
  -1  -9  -2  161.18   18.50
   1   9   2  162.68   17.90
   1   9   2  177.48   17.60
   1   9   2  139.49   17.40
   1   9   2  141.19   16.40
   1   9   2  144.19   17.30
  -2  -9  -2   37.20    8.20
  -2  -9  -2   40.10   10.60
  -2  -9  -2   27.20    7.70
  -2  -9  -2   38.20   10.10
  -2  -9  -2    5.20    7.90
  -2  -9  -2   29.00   10.90
   2   9   2   29.30    8.30
   2   9   2   14.20    7.40
   2   9   2   24.90    8.60
   2   9   2   21.90    8.50
  -3  -9  -2   23.00   11.90
  -3  -9  -2   21.90   11.50
  -3  -9  -2   17.50    6.80
  -3  -9  -2   12.80    6.60
  -3  -9  -2   34.30    7.60
  -3  -9  -2   21.90   10.80
  -3  -9  -2   11.20    5.70
   3   9   2    2.30    8.90
   3   9   2    5.00    7.50
   3   9   2   23.90   10.90
  -4  -9  -2   33.50    8.50
  -4  -9  -2   46.40   12.80
  -4  -9  -2   21.50    8.30
  -4  -9  -2   11.10   12.10
  -4  -9  -2   30.50    9.30
  -4  -9  -2   48.30   14.10
  -4  -9  -2   45.80   10.20
   4   9   2   71.99   12.30
   4   9   2   40.10   11.20
   4   9   2   46.40   12.10
   5 -10  -2    5.80    9.40
   5 -10  -2   -8.40    7.40
  -5  10   2  -18.40    7.90
  -5  10   2    3.10    6.80
  -5  10   2   -3.40    7.20
  -5  10   2  -24.20    8.80
  -5  10   2    0.80    6.90
   4 -10  -2   -1.40    7.90
   4 -10  -2   -0.90    6.30
   4 -10  -2    8.00    7.00
  -4  10   2   14.30    6.60
  -4  10   2   10.90    7.40
  -4  10   2   -3.60    7.50
  -4  10   2    4.90    6.50
  -4  10   2   12.50    7.50
  -4  10   2    6.70    9.40
   3 -10  -2   99.49   12.50
   3 -10  -2   68.89   10.90
   3 -10  -2   40.80   12.50
   3 -10  -2   61.79    5.60
  -3  10   2   55.69   11.80
  -3  10   2   58.39   10.40
  -3  10   2   64.39   11.50
  -3  10   2   65.69   11.40
  -3  10   2   60.59   11.20
   2 -10  -2   18.20    6.90
   2 -10  -2    9.20    3.50
   2 -10  -2   28.30    8.00
   2 -10  -2    8.80    6.20
   2 -10  -2   10.10    7.50
   2 -10  -2   10.90    8.90
   2 -10  -2   -2.60   10.10
  -2  10   2   21.80    6.50
  -2  10   2    0.20    5.90
  -2  10   2   18.70    8.30
  -2  10   2   17.40    7.90
  -2  10   2    6.10    4.70
   1 -10  -2    4.80    5.30
   1 -10  -2   -0.60    8.00
   1 -10  -2   15.80    8.20
   1 -10  -2   13.40    5.80
   1 -10  -2    1.10    4.40
  -1  10   2    1.10    4.30
  -1  10   2    7.00    7.10
  -1  10   2   15.40    8.40
  -1  10   2    6.70    5.80
  -1  10   2    1.30    6.40
   0 -10  -2   15.00    6.10
   0 -10  -2   21.60    7.90
   0 -10  -2    9.10    6.80
   0 -10  -2    2.10    4.90
   0 -10  -2   18.30    8.50
   0 -10  -2   19.90    9.60
   0  10   2    6.40    5.30
   0  10   2   38.40    9.20
   0  10   2   -0.40    7.10
   0  10   2   10.80    6.70
   0  10   2   21.60    8.50
  -1 -10  -2  192.98   22.10
  -1 -10  -2  161.98   19.40
  -1 -10  -2  210.08   20.30
  -1 -10  -2  188.58   22.00
  -1 -10  -2  161.78   20.40
  -1 -10  -2  222.68   20.60
   1  10   2  169.88   21.00
   1  10   2  202.68   20.60
   1  10   2  142.09   22.00
   1  10   2  150.38   20.00
  -2 -10  -2   -7.60   12.50
  -2 -10  -2   20.90   10.30
  -2 -10  -2   17.30   10.50
  -2 -10  -2   22.60    7.90
  -2 -10  -2   10.40    6.40
   2  10   2   10.80    8.30
   2  10   2   14.10    8.90
   2  10   2   15.90    9.10
  -3 -10  -2   -6.90   10.80
  -3 -10  -2   -3.90    6.50
  -3 -10  -2   -2.30   11.10
  -3 -10  -2    6.70   11.80
   3  10   2    7.20    6.50
   3  10   2    6.70    8.40
   3  10   2   -4.00   10.70
   4 -11  -2   -1.50    8.40
   4 -11  -2    0.80    8.40
   4 -11  -2   -7.30    7.80
  -4  11   2   12.60    8.90
  -4  11   2   -1.50    9.20
  -4  11   2   -9.80    7.60
  -4  11   2   -0.50    7.90
   3 -11  -2   12.20    4.50
   3 -11  -2   16.50    2.60
   3 -11  -2   -1.70    6.90
   3 -11  -2    6.30    7.80
   3 -11  -2    2.50    9.20
  -3  11   2   32.80   11.00
  -3  11   2    8.00    6.70
  -3  11   2   15.10    8.90
  -3  11   2   10.50    8.10
   2 -11  -2   -1.10    8.00
   2 -11  -2  -10.50    5.00
   2 -11  -2   -6.70    6.20
   2 -11  -2   -3.20    6.50
  -2  11   2   -1.10    8.00
  -2  11   2   -2.40    6.40
  -2  11   2   -6.10    5.10
  -2  11   2   -6.80    7.40
  -2  11   2   -3.40    9.70
   1 -11  -2   20.30    5.20
   1 -11  -2   24.70   11.10
   1 -11  -2   20.80   11.50
   1 -11  -2   16.00   13.70
   1 -11  -2    8.90    7.70
   1 -11  -2   29.10    8.40
  -1  11   2    9.50    7.50
  -1  11   2   24.10    9.20
  -1  11   2   11.80    6.70
  -1  11   2    0.00    8.60
   0 -11  -2  642.34   56.69
   0 -11  -2  694.43   56.39
   0 -11  -2  657.83   56.19
   0  11   2  584.44   56.19
  -1 -11  -2   24.60   12.50
  -1 -11  -2    6.60    6.50
  -1 -11  -2    3.50    9.60
  -1 -11  -2   17.00    8.90
   1  11   2   12.40   10.50
   1  11   2   16.20    9.30
  -2 -11  -2  -29.50   11.90
  -2 -11  -2    4.20   11.00
  -2 -11  -2    4.20   13.70
  -2 -11  -2   -5.20    7.00
   2  11   2    5.20    6.70
   2  11   2   -5.50   10.20
   2  11   2  -18.70    8.20
   2 -12  -2   -4.10   10.10
   2 -12  -2  -11.40    7.80
   2 -12  -2    3.90    4.10
   2 -12  -2   -5.80    7.60
   2 -12  -2    0.20    4.50
  -2  12   2   -0.40    6.50
  -2  12   2    2.10   13.40
  -2  12   2  -14.60   11.80
  -2  12   2    3.90   10.60
   1 -12  -2    7.20    8.60
   1 -12  -2    8.90    5.30
   1 -12  -2   -5.30    8.50
   1 -12  -2    9.10   10.10
  -1  12   2   10.60   10.20
  -1  12   2  -17.70    8.80
   0 -12  -2   38.40   11.20
   0 -12  -2   40.30   14.00
   0 -12  -2   80.39   17.90
   0 -12  -2   18.70    9.50
   0  12   2   39.10   11.80
   0  12   2   31.00   11.90
   2  13  -3  -11.70   10.40
   2  13  -3    9.70    9.80
   2  13  -3   -6.00    8.90
   2  13  -3   11.70    7.30
  -2 -13   3    0.80    7.40
  -2 -13   3   -9.50   12.60
  -2 -13   3  -11.70   11.20
  -2 -13   3    2.30   16.60
   1  13  -3    7.80    7.10
   1  13  -3   15.90    9.30
   1  13  -3    3.40    8.10
   1  13  -3   -5.10    9.50
  -1 -13   3    0.70    6.70
  -1 -13   3    7.60    5.70
  -1 -13   3   17.30   12.90
  -1 -13   3    8.40   11.70
  -1 -13   3   13.60    8.60
   0  13  -3    4.00   11.90
   0  13  -3   -6.50    4.80
   0  13  -3   -6.30    8.40
   0  13  -3    4.10    9.10
   0 -13   3   -2.80    7.00
   0 -13   3   -3.10    5.60
   0 -13   3   -1.70    9.00
   0 -13   3    6.60   11.90
   0 -13   3   -9.00    4.20
  -1  13  -3   -1.10    4.60
  -1  13  -3    8.40    7.90
  -1  13  -3   -7.30   10.30
  -1  13  -3   15.60    8.60
  -1  13  -3   10.30   10.50
   1 -13   3   -0.50    7.00
   1 -13   3    7.70   16.40
   1 -13   3   -1.20   11.30
   1 -13   3   15.40    7.30
   1 -13   3    6.00    5.10
   1 -13   3   12.50   10.30
  -2  13  -3  -27.20   10.60
  -2  13  -3   -5.40    8.40
  -2  13  -3   -8.30    9.60
  -2  13  -3    0.70    8.30
   2 -13   3   20.00   11.60
   2 -13   3   -1.20    3.30
   2 -13   3   -8.60    7.20
   2 -13   3    4.50   17.20
   2 -13   3   -5.90    8.70
  -3  13  -3   11.90   13.40
  -3  13  -3  -21.20    9.70
  -3  13  -3   -7.80   10.20
   3 -13   3  -16.80    8.00
   3 -13   3   -6.90    8.20
   3 -13   3    4.60   10.10
   3 -13   3   -0.50    3.10
   3  12  -3    4.20    7.10
   3  12  -3    0.90    8.10
   3  12  -3  -12.00    9.50
   3  12  -3  -12.60    7.60
  -3 -12   3    0.80   10.60
  -3 -12   3   -2.60    6.90
  -3 -12   3  -16.50    5.70
  -3 -12   3  -18.70   11.70
   2  12  -3   49.10   11.20
   2  12  -3   77.49   12.10
   2  12  -3   65.69   18.60
   2  12  -3   75.59   12.90
  -2 -12   3   67.49   10.50
  -2 -12   3   49.90   12.60
  -2 -12   3   74.99   12.10
  -2 -12   3   83.89   14.50
  -2 -12   3   72.09   10.30
   1  12  -3    3.40    8.20
   1  12  -3    5.10    6.60
   1  12  -3    8.80    5.70
   1  12  -3   -3.20    7.30
   1  12  -3    6.50    7.30
  -1 -12   3    1.50    5.80
  -1 -12   3    6.50   18.00
  -1 -12   3  -13.30    8.00
  -1 -12   3    4.70    4.10
  -1 -12   3    8.80    6.10
   0  12  -3   51.69   11.30
   0  12  -3   50.49   10.30
   0  12  -3   58.99    9.00
   0  12  -3   52.19    9.90
   0  12  -3   54.19   10.00
   0 -12   3   54.39   10.70
   0 -12   3   57.09   12.10
   0 -12   3   64.89    8.40
   0 -12   3   34.80    8.40
   0 -12   3   86.29   13.80
   0 -12   3   55.89   13.50
  -1  12  -3    6.30    7.10
  -1  12  -3   25.00    8.40
  -1  12  -3   44.10    9.10
  -1  12  -3   25.30    8.30
   1 -12   3   42.40    8.70
   1 -12   3   21.90    4.40
   1 -12   3   13.90    9.20
   1 -12   3   16.40    7.00
   1 -12   3    5.70    9.80
   1 -12   3   24.90    9.30
  -2  12  -3    9.30    7.00
  -2  12  -3   -8.10    7.00
  -2  12  -3    6.10    7.70
  -2  12  -3   -4.70    7.10
   2 -12   3   -4.10    5.80
   2 -12   3    0.90    3.00
   2 -12   3  -13.60    7.30
   2 -12   3    5.30    8.60
   2 -12   3    0.00    7.70
  -3  12  -3    1.40    7.60
  -3  12  -3  -11.60    6.90
  -3  12  -3    4.40    8.30
  -3  12  -3    9.10    9.60
   3 -12   3   -6.80    6.70
   3 -12   3    3.10    7.30
   3 -12   3    0.80    8.50
   3 -12   3   -5.60    2.30
  -4  12  -3   28.10   11.80
  -4  12  -3   12.00    9.80
  -4  12  -3   18.00   12.70
  -4  12  -3    8.80   10.70
   4 -12   3   11.50    8.70
   4 -12   3    5.10    8.40
   4  11  -3  -16.70    8.20
   4  11  -3  -11.10    6.70
   4  11  -3   17.10    7.70
   4  11  -3    0.80    7.60
  -4 -11   3   -4.80    5.50
  -4 -11   3    3.10    9.20
  -4 -11   3    5.20    5.40
  -4 -11   3   -2.60    9.10
   3  11  -3   -7.00    5.30
   3  11  -3    0.30    5.80
   3  11  -3   -3.00    7.50
   3  11  -3   -3.40    6.10
  -3 -11   3   15.30    8.10
  -3 -11   3   -8.30    7.80
  -3 -11   3   -3.60    4.50
  -3 -11   3    1.30    5.20
   2  11  -3   -2.10    6.50
   2  11  -3   -1.50    5.90
   2  11  -3   -6.00   10.60
   2  11  -3  -11.00    4.90
   2  11  -3   -9.20    4.40
   2  11  -3   -2.30    6.10
  -2 -11   3   -4.70    4.60
  -2 -11   3   -5.10    4.10
  -2 -11   3   -2.60    4.70
  -2 -11   3  -19.40    6.60
  -2 -11   3   -5.50    6.60
   1  11  -3    8.40    6.90
   1  11  -3    1.00    4.60
   1  11  -3   10.50    5.90
   1  11  -3    4.10    4.50
   1  11  -3    3.40    5.40
  -1 -11   3    3.60    4.30
  -1 -11   3    7.40    7.20
  -1 -11   3   -3.80    6.30
  -1 -11   3    4.00    3.50
  -1 -11   3   10.60    5.10
  -1 -11   3   -7.10    4.90
   0  11  -3   57.19    9.60
   0  11  -3   69.99   10.10
   0  11  -3   60.59   10.80
   0  11  -3   38.20    8.70
   0  11  -3   74.99    8.70
   0  11  -3   43.70    9.50
   0 -11   3   59.29    7.50
   0 -11   3   49.10    9.70
   0 -11   3   51.19   11.20
   0 -11   3   84.89   19.40
   0 -11   3   64.99   11.10
   0 -11   3   57.59   10.10
   0 -11   3   49.50    8.80
  -1  11  -3  165.78   16.40
  -1  11  -3  209.98   19.60
  -1  11  -3  189.78   20.10
  -1  11  -3  182.58   18.80
  -1  11  -3  178.18   19.30
  -1  11  -3  221.58   20.40
   1 -11   3  200.18   19.20
   1 -11   3  206.68   20.70
   1 -11   3  131.89   18.90
   1 -11   3  163.08   19.30
   1 -11   3  210.48   19.40
   1 -11   3  193.68   20.00
   1 -11   3  173.48   15.90
  -2  11  -3   -7.90    5.40
  -2  11  -3   10.70    9.40
  -2  11  -3    4.90    5.60
   2 -11   3    1.70    7.00
   2 -11   3    0.20    6.70
   2 -11   3    3.10    5.60
   2 -11   3    2.60    5.30
   2 -11   3   -0.40    5.70
   2 -11   3    0.00    2.30
   2 -11   3    7.10    4.80
  -3  11  -3   70.49   11.40
  -3  11  -3   61.79   10.40
  -3  11  -3   61.79   12.00
   3 -11   3   61.99    8.20
   3 -11   3   61.79   15.20
   3 -11   3   61.69   11.10
   3 -11   3   54.69   10.80
   3 -11   3   61.49   12.70
   3 -11   3   44.60   10.90
   3 -11   3   49.80    9.90
  -4  11  -3  344.77   30.20
  -4  11  -3  271.87   30.20
  -4  11  -3  311.67   29.40
  -4  11  -3  361.46   29.70
   4 -11   3  280.97   28.70
   4 -11   3  254.07   28.70
   4 -11   3  343.97   33.50
   4 -11   3  304.27   28.90
  -5  11  -3   -2.00    8.40
  -5  11  -3  -18.90    8.90
   5 -11   3   -3.80    7.60
   5 -11   3   -2.70    7.60
   5 -11   3   -3.90    6.40
   5 -11   3    4.30    8.40
   4  10  -3    1.20    5.60
   4  10  -3   -4.80    5.00
   4  10  -3    7.40    6.00
   4  10  -3   -0.70    8.10
  -4 -10   3    9.20    7.20
  -4 -10   3    3.70    6.00
  -4 -10   3    5.20    4.70
  -4 -10   3  -11.50    4.20
  -4 -10   3   -8.40    6.30
   3  10  -3    1.20    6.00
   3  10  -3   -5.10    5.20
   3  10  -3   17.80    9.00
   3  10  -3   -4.50    4.60
   3  10  -3   10.00    6.70
   3  10  -3    9.60    6.40
  -3 -10   3    6.20    5.30
  -3 -10   3    1.70    5.70
  -3 -10   3   12.70    7.60
  -3 -10   3   13.30    5.30
  -3 -10   3    4.90    4.40
   2  10  -3   46.00   11.10
   2  10  -3   36.60    7.20
   2  10  -3   43.90    8.00
   2  10  -3   31.90    6.60
  -2 -10   3   27.10    6.20
  -2 -10   3   21.60    5.90
  -2 -10   3   15.30    6.40
  -2 -10   3   33.30    6.20
  -2 -10   3   22.60    7.00
   1  10  -3   77.89    9.50
   1  10  -3   67.99   14.60
   1  10  -3   78.89   10.80
   1  10  -3   62.89   10.50
   1  10  -3   60.19   12.80
   1  10  -3   72.49   10.20
  -1 -10   3   66.59   10.60
  -1 -10   3   61.89   10.30
  -1 -10   3   67.89   10.00
  -1 -10   3   89.99   11.20
  -1 -10   3   80.29    8.60
  -1 -10   3   59.99   10.50
   0  10  -3    8.20    5.00
   0  10  -3   10.90    5.40
   0  10  -3    2.00    3.10
   0  10  -3    7.20    4.50
   0  10  -3   -1.70    4.50
   0  10  -3    3.50    3.80
   0 -10   3   11.70    5.60
   0 -10   3    8.80    3.00
   0 -10   3   -0.90    2.70
   0 -10   3   10.40    5.00
   0 -10   3    3.00    5.20
   0 -10   3   15.40    5.10
   0 -10   3   10.30    5.90
  -1  10  -3   44.80    7.50
  -1  10  -3   40.10    7.80
  -1  10  -3   24.40    6.10
  -1  10  -3   30.20    6.60
  -1  10  -3   26.30    4.20
   1 -10   3   23.10    5.80
   1 -10   3   21.00    6.60
   1 -10   3   31.90    8.40
   1 -10   3   23.20    6.10
   1 -10   3   45.60    7.80
   1 -10   3   25.20    4.20
   1 -10   3   15.80    5.20
  -2  10  -3   22.90    5.60
  -2  10  -3   14.30    6.80
  -2  10  -3   12.30    5.30
  -2  10  -3   13.20    6.10
   2 -10   3   22.80    7.70
   2 -10   3   15.90    3.30
   2 -10   3   28.30    7.10
   2 -10   3    8.20    5.60
   2 -10   3   13.00    5.40
   2 -10   3   20.30    6.00
   2 -10   3   13.60    4.70
  -3  10  -3   84.59   11.50
  -3  10  -3   59.49    9.80
  -3  10  -3   55.39    9.30
   3 -10   3   57.49   12.30
   3 -10   3   34.30    9.60
   3 -10   3   45.60    9.50
   3 -10   3   88.09   10.80
  -4  10  -3  410.56   36.40
  -4  10  -3  471.95   37.00
  -4  10  -3  467.35   37.50
  -4  10  -3  435.76   40.80
   4 -10   3  529.05   42.40
   4 -10   3  401.06   37.40
   4 -10   3  391.66   36.60
   4 -10   3  378.66   36.10
   4 -10   3  376.56   36.70
  -5  10  -3    3.50    7.10
  -5  10  -3   -0.50    6.00
   5 -10   3    5.80    7.30
   5 -10   3   -9.90    6.50
   5 -10   3    0.60    5.80
   5 -10   3   -2.70    6.60
   5   9  -3  -10.30    4.40
   5   9  -3   -4.50    7.10
   5   9  -3   -3.80    5.80
   5   9  -3    1.30    5.90
  -5  -9   3    2.10    6.50
  -5  -9   3   -6.00    5.40
  -5  -9   3   -4.40    4.50
  -5  -9   3   -0.80    6.40
  -5  -9   3    0.40    5.00
   4   9  -3    6.80    4.60
   4   9  -3    8.70    6.30
   4   9  -3    1.50    5.80
   4   9  -3    4.50    5.50
  -4  -9   3    0.10    5.20
  -4  -9   3   10.60    4.00
  -4  -9   3   15.30    8.80
  -4  -9   3    1.30    5.30
  -4  -9   3   -0.30    4.40
  -4  -9   3   10.40    4.70
   3   9  -3   12.30    4.90
   3   9  -3   16.70    5.00
   3   9  -3   15.60    5.60
  -3  -9   3   16.60    5.90
  -3  -9   3    8.20    4.50
  -3  -9   3   15.20    4.50
  -3  -9   3   11.00    4.70
  -3  -9   3    9.00    5.80
   2   9  -3   25.60    5.80
   2   9  -3   21.50    5.90
   2   9  -3   24.40    5.60
   2   9  -3   17.60    5.40
   2   9  -3   23.60    5.40
   2   9  -3   29.30    6.40
  -2  -9   3   23.00    5.70
  -2  -9   3   21.30    5.80
  -2  -9   3   19.80    6.10
  -2  -9   3   15.10    4.90
   1   9  -3   -1.80    3.10
   1   9  -3    1.30    4.00
   1   9  -3   -0.40    2.90
   1   9  -3   -1.50    3.30
   1   9  -3    2.10    3.10
   1   9  -3   -0.20    3.90
  -1  -9   3    1.10    3.90
  -1  -9   3   -0.40    3.40
  -1  -9   3    3.90    4.20
  -1  -9   3   -0.10    3.10
  -1  -9   3    0.70    2.80
  -1  -9   3    0.50    3.30
   0   9  -3  129.79   12.30
   0   9  -3  109.59   12.60
   0   9  -3  133.19   14.00
   0   9  -3  157.68   14.30
   0   9  -3  154.98   14.70
   0   9  -3  117.89   13.30
   0  -9   3  117.09   13.40
   0  -9   3  139.89   11.90
   0  -9   3   95.39   12.90
   0  -9   3  150.98   13.80
   0  -9   3  118.49   13.70
   0  -9   3  123.69   13.20
   0  -9   3  148.49   13.50
  -1   9  -3   51.79    7.90
  -1   9  -3   36.80    4.90
  -1   9  -3   30.60    6.80
  -1   9  -3   33.00    6.50
  -1   9  -3   43.10    7.40
   1  -9   3   44.20    9.10
   1  -9   3   33.70    7.30
   1  -9   3   53.19    7.00
   1  -9   3   34.70    7.50
   1  -9   3   40.80    5.00
   1  -9   3   42.60    7.40
   1  -9   3   41.00    7.50
  -2   9  -3  198.38   17.20
  -2   9  -3  169.98   16.10
  -2   9  -3  170.68   16.30
  -2   9  -3  152.68   18.30
   2  -9   3  138.99   16.20
   2  -9   3  181.78   16.50
   2  -9   3  162.88   16.20
   2  -9   3  150.18   13.60
   2  -9   3  154.28   15.70
   2  -9   3  139.99   17.40
   2  -9   3  160.78   16.10
  -3   9  -3   30.10    6.50
  -3   9  -3   47.40    7.80
  -3   9  -3   23.20    8.70
   3  -9   3   15.30    5.80
   3  -9   3   19.90    3.20
   3  -9   3   22.70    6.10
   3  -9   3   26.00    6.40
   3  -9   3   15.30    4.60
   3  -9   3   38.00    8.90
   3  -9   3   36.70   10.10
  -4   9  -3  116.69   12.90
  -4   9  -3   88.99   12.20
  -4   9  -3  119.29   12.30
   4  -9   3   84.19   12.20
   4  -9   3   74.09   14.30
   4  -9   3   93.49   11.50
   4  -9   3   91.89   12.30
   4  -9   3   96.39   12.60
  -5   9  -3   -5.60    4.70
  -5   9  -3   -0.50    5.40
   5  -9   3   -6.40    5.30
   5  -9   3    2.60    4.80
   5  -9   3    4.40    7.00
   5  -9   3   -0.80    5.60
  -6   9  -3   10.00    6.60
  -6   9  -3    6.10    6.50
  -6   9  -3   11.30    7.40
  -6   9  -3    4.00    5.80
  -6   9  -3   13.00    9.70
   6  -9   3   15.60   10.10
   6  -9   3    8.40    6.10
   6  -9   3   -0.70    7.60
   6  -9   3    5.50    8.90
   6   8  -3    2.30    6.80
  -6  -8   3   -0.30    6.30
  -6  -8   3    5.10    5.80
  -6  -8   3   -8.10    4.50
  -6  -8   3    5.70    4.80
  -6  -8   3   -4.40    5.90
  -6  -8   3  -16.10    5.60
   5   8  -3   -0.20    5.40
   5   8  -3   -2.80    3.30
   5   8  -3    1.00    5.50
   5   8  -3    4.40    5.20
   5   8  -3    3.00    5.20
  -5  -8   3   -1.40    5.00
  -5  -8   3   -1.90    4.20
  -5  -8   3    4.20    4.40
  -5  -8   3    4.20    3.70
  -5  -8   3    1.40    3.70
  -5  -8   3    2.40    5.50
   4   8  -3   76.99    9.40
   4   8  -3   87.09   13.60
   4   8  -3   75.39   10.20
   4   8  -3   83.69   13.60
   4   8  -3   97.29   10.60
  -4  -8   3   81.49    9.80
  -4  -8   3   86.19    9.30
  -4  -8   3   74.29   10.30
  -4  -8   3   71.39   10.50
  -4  -8   3   75.99    9.60
  -4  -8   3   67.29   10.40
   3   8  -3   -2.40    3.50
   3   8  -3    0.10    3.80
   3   8  -3   -2.70    3.40
   3   8  -3    3.00    3.40
   3   8  -3    3.30    3.20
   3   8  -3    0.30    2.90
  -3  -8   3   -4.50    2.90
  -3  -8   3    3.00    3.60
  -3  -8   3    1.20    4.10
  -3  -8   3    0.00    2.90
  -3  -8   3   -1.40    2.70
  -3  -8   3    2.70    2.70
   2   8  -3   -4.20    2.30
   2   8  -3    1.90    3.60
   2   8  -3   -0.10    3.50
   2   8  -3    0.20    2.50
   2   8  -3    3.90    3.30
   2   8  -3    1.60    3.10
  -2  -8   3   -4.50    6.30
  -2  -8   3   -1.70    2.70
  -2  -8   3    4.00    3.30
  -2  -8   3    3.10    3.10
  -2  -8   3    2.70    2.60
   1   8  -3    5.10    2.80
   1   8  -3    8.40    3.10
   1   8  -3    6.20    3.30
   1   8  -3    8.00    3.80
   1   8  -3    3.30    3.20
   1   8  -3    9.90    3.40
  -1  -8   3    6.50    3.60
  -1  -8   3    6.80    3.30
  -1  -8   3    5.00    3.00
  -1  -8   3    9.20    3.70
  -1  -8   3    7.30    2.60
  -1  -8   3    4.90    3.10
   0   8  -3   46.20    6.70
   0   8  -3   56.99    7.10
   0   8  -3   70.29   12.60
   0   8  -3   30.90    6.70
   0   8  -3   30.20    5.50
   0  -8   3   42.00    7.20
   0  -8   3   39.30    6.80
   0  -8   3   49.20    6.50
   0  -8   3   50.99    6.40
   0  -8   3   23.60    5.90
   0  -8   3   40.00    5.20
   0  -8   3   56.89    7.10
  -1   8  -3   -1.60    2.60
  -1   8  -3    4.80    3.30
  -1   8  -3   -2.10    1.50
  -1   8  -3    4.90    2.90
  -1   8  -3   -0.80    3.40
   1  -8   3   -2.20    2.50
   1  -8   3    1.40    3.20
   1  -8   3    3.30    2.60
   1  -8   3    1.10    1.60
   1  -8   3    1.90    3.20
   1  -8   3    5.80    2.90
  -2   8  -3    0.40    2.90
  -2   8  -3    1.30    2.90
  -2   8  -3   -4.30    2.60
  -2   8  -3    1.40    2.50
   2  -8   3   -0.70    1.40
   2  -8   3   -2.90    2.10
   2  -8   3    1.30    3.00
   2  -8   3    3.60    3.30
   2  -8   3    0.60    3.10
   2  -8   3   -1.30    4.70
   2  -8   3   -2.80    3.40
  -3   8  -3 2175.48  161.18
  -3   8  -3 2199.88  161.28
  -3   8  -3 2301.17  161.88
   3  -8   3 2092.39  161.18
   3  -8   3 2277.17  164.68
   3  -8   3 1915.81  160.78
   3  -8   3 1963.50  158.58
   3  -8   3 1974.30  160.68
  -4   8  -3   14.70    4.50
  -4   8  -3    9.10    4.90
   4  -8   3   18.20    7.90
   4  -8   3    8.20    4.50
   4  -8   3   12.70    4.70
   4  -8   3   17.60    5.80
   4  -8   3    7.10    3.70
   4  -8   3    9.10    4.50
  -5   8  -3    3.10    4.70
  -5   8  -3   -1.50    4.10
  -5   8  -3   -0.40    4.40
  -5   8  -3   10.10    4.60
   5  -8   3   -6.60    4.10
   5  -8   3   16.00    9.00
   5  -8   3   -3.10    5.70
   5  -8   3   -1.40    4.90
   5  -8   3   -3.10    4.40
  -6   8  -3   24.20    6.80
  -6   8  -3   22.70    6.40
   6  -8   3   16.70    7.10
   6  -8   3   18.90    8.60
   6  -8   3   14.10    5.50
   6  -8   3   28.80   10.80
   6   7  -3   -6.10    5.10
  -6  -7   3    4.70    5.10
  -6  -7   3   -4.30    3.60
  -6  -7   3  -11.60    4.30
  -6  -7   3   -3.20    5.50
  -6  -7   3    4.10    3.50
  -6  -7   3    1.40    5.10
   5   7  -3   54.89    7.30
   5   7  -3   52.19    9.60
   5   7  -3   44.30    6.40
   5   7  -3   51.59    6.30
   5   7  -3   51.59    7.30
   5   7  -3   41.60    7.40
  -5  -7   3   36.30    6.20
  -5  -7   3   42.90    7.90
  -5  -7   3   44.40   11.10
  -5  -7   3   49.40    6.50
  -5  -7   3   29.60    6.80
  -5  -7   3   31.10    6.80
   4   7  -3   15.70    5.40
   4   7  -3   24.00    5.00
   4   7  -3   20.30    4.80
   4   7  -3   17.40    4.30
   4   7  -3   26.90    4.90
  -4  -7   3   18.30    4.30
  -4  -7   3   13.70    4.20
  -4  -7   3   16.00    5.10
  -4  -7   3   11.40    3.80
  -4  -7   3   12.50    4.60
  -4  -7   3   15.80    4.60
   3   7  -3   14.50    4.30
   3   7  -3   11.30    4.50
   3   7  -3   19.10    3.90
   3   7  -3   14.30    4.00
   3   7  -3   18.90    4.40
  -3  -7   3   13.50    4.40
  -3  -7   3   18.70    5.20
  -3  -7   3   14.70    4.20
  -3  -7   3   19.40    4.20
  -3  -7   3   15.60    3.80
  -3  -7   3   14.40    3.70
   2   7  -3   64.89    8.00
   2   7  -3   85.79    9.20
   2   7  -3   78.99    8.70
   2   7  -3   72.29    8.50
   2   7  -3   83.59    8.60
   2   7  -3   66.69    7.60
  -2  -7   3   74.49    8.20
  -2  -7   3   63.79    8.40
  -2  -7   3   79.89    8.20
  -2  -7   3   73.09    8.80
  -2  -7   3   67.99    8.60
   1   7  -3   12.20    3.90
   1   7  -3    9.80    3.00
   1   7  -3    9.00    3.10
   1   7  -3    5.20    2.00
   1   7  -3    3.00    2.50
  -1  -7   3    7.70    3.40
  -1  -7   3    6.10    2.40
  -1  -7   3    1.20    2.80
  -1  -7   3    3.80    2.80
  -1  -7   3    6.20    2.90
  -1  -7   3    7.20    3.00
   0   7  -3   13.60    3.70
   0   7  -3   14.90    4.00
   0   7  -3   12.20    2.80
   0   7  -3   11.30    3.70
   0   7  -3   17.60    3.90
   0   7  -3   13.20    3.20
   0  -7   3   15.00    2.90
   0  -7   3    9.50    3.50
   0  -7   3   13.20    3.50
   0  -7   3   10.90    4.40
   0  -7   3    8.40    3.30
   0  -7   3   15.80    3.80
   0  -7   3   10.60    4.20
  -1   7  -3   -0.40    2.10
  -1   7  -3    0.10    2.20
  -1   7  -3    1.90    2.10
  -1   7  -3    0.20    2.80
   1  -7   3    0.80    2.30
   1  -7   3    1.90    1.30
   1  -7   3    0.40    2.40
   1  -7   3    1.20    2.00
   1  -7   3    3.50    3.20
   1  -7   3   -2.20    3.80
   1  -7   3    0.20    2.20
  -2   7  -3    3.00    2.60
  -2   7  -3    4.10    3.00
  -2   7  -3    1.60    2.50
  -2   7  -3   11.70    3.90
   2  -7   3    1.90    2.60
   2  -7   3    2.30    4.90
   2  -7   3    1.80    1.50
   2  -7   3    7.40    3.40
   2  -7   3    2.50    2.10
   2  -7   3    2.70    3.10
  -3   7  -3    6.70    3.30
  -3   7  -3   10.20    3.80
  -3   7  -3    8.20    4.20
  -3   7  -3    9.10    3.10
   3  -7   3    4.20    3.10
   3  -7   3    5.90    3.50
   3  -7   3    6.80    3.40
   3  -7   3   11.40    3.40
   3  -7   3    8.90    3.50
   3  -7   3   15.50    6.40
   3  -7   3    4.50    1.90
  -4   7  -3   10.50    4.00
  -4   7  -3    5.80    3.60
   4  -7   3    9.40    3.70
   4  -7   3    9.10    3.90
   4  -7   3    5.30    3.20
   4  -7   3    9.30    3.60
   4  -7   3   20.70    8.10
   4  -7   3    1.40    3.50
  -5   7  -3    3.00    3.80
  -5   7  -3   -2.50    3.20
  -5   7  -3   -1.10    3.90
  -5   7  -3    0.80    4.30
  -5   7  -3   -0.50    4.10
   5  -7   3    3.90    4.30
   5  -7   3    5.30    3.80
   5  -7   3    7.60    4.50
   5  -7   3    4.30    6.20
   5  -7   3    4.80    4.60
  -6   7  -3  243.28   21.20
  -6   7  -3  201.28   21.50
  -6   7  -3  202.98   21.90
  -6   7  -3  234.48   21.50
  -6   7  -3  237.18   22.90
   6   6  -3   -2.80    4.80
  -6  -6   3   15.50    5.50
  -6  -6   3   13.30    3.50
  -6  -6   3   -0.60    3.70
  -6  -6   3   -0.30    8.10
  -6  -6   3   13.10    6.10
  -6  -6   3   12.20    4.00
   5   6  -3   73.49   11.40
   5   6  -3   80.89    7.70
   5   6  -3   68.09    7.20
  -5  -6   3   69.79    9.40
  -5  -6   3   60.59    8.50
  -5  -6   3   66.29    7.90
  -5  -6   3   53.29    9.70
  -5  -6   3   75.79    7.70
   4   6  -3   -1.60    2.60
   4   6  -3   -3.00    3.20
   4   6  -3   -2.20    2.20
   4   6  -3   -1.50    2.30
   4   6  -3   -0.50    2.00
   4   6  -3    1.40    2.50
  -4  -6   3   -6.30    2.60
  -4  -6   3   -1.10    2.80
  -4  -6   3   -3.20    3.50
  -4  -6   3    0.20    2.30
  -4  -6   3   -0.60    2.00
   3   6  -3    7.10    3.00
   3   6  -3   12.50    5.90
   3   6  -3   10.50    4.00
   3   6  -3    3.90    2.10
   3   6  -3   10.80    2.60
   3   6  -3    8.10    3.10
  -3  -6   3    6.20    2.90
  -3  -6   3    9.30    2.80
  -3  -6   3   11.70    2.90
  -3  -6   3    9.30    2.90
  -3  -6   3    7.10    2.90
   2   6  -3  277.97   24.50
   2   6  -3  335.07   25.10
   2   6  -3  314.77   25.90
  -2  -6   3  277.57   25.30
  -2  -6   3  334.37   25.20
  -2  -6   3  328.97   25.10
  -2  -6   3  315.27   24.60
  -2  -6   3  274.37   25.20
   1   6  -3  307.27   26.80
   1   6  -3  312.17   26.30
   1   6  -3  330.37   26.90
   1   6  -3  321.37   27.20
   1   6  -3  346.27   27.10
   1   6  -3  317.27   27.00
  -1  -6   3  321.27   27.00
  -1  -6   3  366.96   27.10
  -1  -6   3  370.56   27.10
  -1  -6   3  329.27   26.40
   0   6  -3   91.99    8.70
   0   6  -3  103.39    9.60
   0   6  -3  103.29    9.70
   0   6  -3  105.69   10.00
   0   6  -3  102.49    9.60
   0  -6   3   92.79    9.70
   0  -6   3  102.89    9.50
   0  -6   3   80.09    9.10
   0  -6   3  109.39    9.80
   0  -6   3  100.89    8.70
   0  -6   3   87.19    9.40
   0  -6   3   94.79    9.60
  -1   6  -3  122.39   11.20
  -1   6  -3  133.49   12.10
  -1   6  -3  110.59   11.10
  -1   6  -3  130.09   11.30
   1  -6   3  110.49   11.10
   1  -6   3  116.59   11.30
   1  -6   3  117.79   11.20
   1  -6   3  124.19   11.10
   1  -6   3  103.19   11.90
   1  -6   3  111.69   10.40
   1  -6   3  107.49   11.30
  -2   6  -3  224.58   18.70
  -2   6  -3  217.58   18.80
  -2   6  -3  208.18   17.00
  -2   6  -3  240.48   18.90
  -2   6  -3  219.58   19.00
   2  -6   3  201.98   19.00
   2  -6   3  212.88   18.80
   2  -6   3  225.68   18.50
   2  -6   3  207.48   18.70
   2  -6   3  194.18   17.10
   2  -6   3  233.88   20.80
   2  -6   3  209.58   18.70
  -3   6  -3   60.19    4.90
  -3   6  -3   50.29    6.60
  -3   6  -3   60.19    6.90
   3  -6   3   50.49    6.90
   3  -6   3   50.79    6.70
   3  -6   3   41.10    5.70
   3  -6   3   53.69   10.60
   3  -6   3   46.10    4.90
   3  -6   3   46.40    6.80
  -4   6  -3   62.29    8.20
  -4   6  -3   42.00    7.70
  -4   6  -3   70.29    9.10
  -4   6  -3   61.69    7.80
  -4   6  -3   56.19    5.20
   4  -6   3   36.90    7.10
   4  -6   3   52.89    7.40
   4  -6   3   66.69   12.20
   4  -6   3   52.49    8.20
   4  -6   3   59.39    6.80
   4  -6   3   54.39    7.50
  -5   6  -3    5.80    3.50
  -5   6  -3    7.00    3.90
  -5   6  -3    9.20    2.20
  -5   6  -3    7.60    3.30
  -5   6  -3   15.50    4.50
  -5   6  -3    6.90    4.90
   5  -6   3    2.60    5.30
   5  -6   3    8.60    4.40
   5  -6   3    8.00    3.20
   5  -6   3   14.10    4.60
  -6   6  -3    9.50    2.50
  -6   6  -3    3.00    3.90
  -6   6  -3    3.60    4.40
  -6   6  -3    6.50    4.60
  -6   6  -3   11.10    5.30
   6  -6   3    3.60    5.10
  -7   6  -3    3.80    3.00
  -7   6  -3    0.90    5.70
  -7   6  -3    4.60    5.50
  -7   6  -3    0.80    5.20
  -7   6  -3    3.90    5.20
  -7   6  -3    3.90    7.20
   7  -6   3    5.10    7.10
   7  -6   3   -0.90    7.50
   7   5  -3    3.80    7.90
  -7  -5   3   -2.20    5.00
   6   5  -3   -5.90    4.80
  -6  -5   3    2.20    2.60
  -6  -5   3   -0.20    2.60
  -6  -5   3    7.50    4.40
  -6  -5   3   -1.80    2.00
  -6  -5   3    1.60    2.30
   5   5  -3    5.90    4.90
  -5  -5   3    5.60    3.40
  -5  -5   3    2.60    2.40
  -5  -5   3    1.80    2.10
  -5  -5   3    8.30    2.90
   4   5  -3    1.80    3.70
   4   5  -3    0.00    2.10
   4   5  -3    4.20    2.20
   4   5  -3    0.50    2.10
   4   5  -3    0.90    1.60
   4   5  -3    0.00    1.90
  -4  -5   3   -1.80    2.20
  -4  -5   3   -0.70    2.40
  -4  -5   3    0.20    1.90
  -4  -5   3    4.90    2.10
  -4  -5   3    2.50    2.40
   3   5  -3    0.20    1.50
   3   5  -3    1.70    1.80
   3   5  -3   -1.60    1.40
   3   5  -3    0.30    1.80
   3   5  -3    0.40    1.80
   3   5  -3    3.20    2.60
  -3  -5   3    3.00    1.70
  -3  -5   3    0.70    1.80
  -3  -5   3   -0.30    1.80
  -3  -5   3   -0.10    2.00
  -3  -5   3    1.00    1.80
   2   5  -3  377.86   33.00
   2   5  -3  438.16   33.70
   2   5  -3  433.26   34.50
   2   5  -3  431.86   33.70
  -2  -5   3  432.46   33.80
  -2  -5   3  407.16   33.20
  -2  -5   3  461.95   33.60
  -2  -5   3  408.56   33.90
  -2  -5   3  454.75   33.70
   1   5  -3  847.92   62.09
   1   5  -3  823.82   61.99
   1   5  -3  823.72   61.79
   1   5  -3  803.42   61.69
   1   5  -3  734.73   60.99
   1   5  -3  826.82   61.79
  -1  -5   3  857.31   61.79
  -1  -5   3  781.52   61.99
  -1  -5   3  862.21   61.79
  -1  -5   3  786.92   61.39
  -1  -5   3  688.13   62.09
   0   5  -3   15.50    3.10
   0   5  -3    8.60    2.20
   0   5  -3   11.00    2.70
   0   5  -3   15.00    3.30
   0   5  -3    7.60    2.10
   0  -5   3   10.30    2.10
   0  -5   3    8.10    2.40
   0  -5   3    8.50    2.50
   0  -5   3    9.00    2.80
  -1   5  -3   41.70    5.00
  -1   5  -3   34.90    3.90
  -1   5  -3   40.70    5.00
  -1   5  -3   41.10    5.20
   1  -5   3   41.70    5.10
   1  -5   3   36.00    4.90
   1  -5   3   46.30    5.30
   1  -5   3   38.20    4.90
   1  -5   3   35.20    4.90
   1  -5   3   34.20    4.00
   1  -5   3   42.30    6.30
  -2   5  -3 1863.21  126.89
  -2   5  -3 1782.72  126.89
  -2   5  -3 1637.64  126.59
  -2   5  -3 1620.94  125.29
   2  -5   3 1520.95  126.59
   2  -5   3 1733.03  126.29
   2  -5   3 1654.23  126.69
   2  -5   3 1618.34  126.89
   2  -5   3 1532.95  126.59
   2  -5   3 1541.25  125.39
   2  -5   3 1834.22  129.39
  -3   5  -3   68.19    8.00
  -3   5  -3   63.39    8.20
  -3   5  -3   68.79    7.40
  -3   5  -3   63.39    5.90
   3  -5   3   61.79    7.50
   3  -5   3   85.29   10.60
   3  -5   3   55.79    7.60
   3  -5   3   61.49    5.90
   3  -5   3   69.79    6.70
   3  -5   3   55.19    7.30
  -4   5  -3   26.20    5.60
  -4   5  -3   22.50    4.70
  -4   5  -3   27.60    3.50
  -4   5  -3   24.50    5.50
  -4   5  -3   27.00    4.80
  -4   5  -3   19.10    4.70
   4  -5   3   20.70    4.30
   4  -5   3   18.20    5.10
   4  -5   3   27.20    4.10
   4  -5   3   33.20    8.60
   4  -5   3   13.70    4.40
   4  -5   3   26.00    4.10
   4  -5   3   23.10    5.20
  -5   5  -3  172.28   17.30
  -5   5  -3  196.48   16.10
  -5   5  -3  171.18   17.40
  -5   5  -3  190.18   14.20
  -5   5  -3  171.68   16.60
  -5   5  -3  164.08   16.60
   5  -5   3  150.98   17.80
   5  -5   3  144.89   16.10
   5  -5   3  142.29   16.00
   5  -5   3  166.78   15.70
  -6   5  -3   21.50    3.80
  -6   5  -3   23.50    5.00
  -6   5  -3    9.10    4.80
  -6   5  -3   19.10    7.00
  -6   5  -3   13.20    4.60
  -6   5  -3    8.10    4.00
   6  -5   3   12.50    4.70
   6  -5   3   11.40    4.30
   6  -5   3    7.50    4.80
   6  -5   3    8.90    4.80
  -7   5  -3   19.50    5.90
  -7   5  -3    9.30    5.30
  -7   5  -3   20.10    5.60
  -7   5  -3   16.00    7.50
  -7   5  -3   22.60    7.40
   7  -5   3   13.20    7.90
   7  -5   3   19.10    7.20
   7  -5   3   26.30    6.50
   7   4  -3   11.00    6.60
  -7  -4   3   -0.30    6.10
  -7  -4   3    8.00    4.70
   6   4  -3   26.00    7.60
  -6  -4   3   28.20    6.90
  -6  -4   3   25.80    3.10
  -6  -4   3   17.40    4.00
  -6  -4   3   18.50    3.10
   5   4  -3   21.20    6.40
  -5  -4   3   25.70    3.60
  -5  -4   3   23.20    3.60
  -5  -4   3   23.70    3.30
  -5  -4   3   15.20    5.00
   4   4  -3  269.57   23.20
  -4  -4   3  256.47   21.90
  -4  -4   3  244.38   21.70
  -4  -4   3  273.87   20.50
  -4  -4   3  266.37   20.50
  -4  -4   3  231.18   20.60
   3   4  -3   92.89    8.60
   3   4  -3   90.39    8.20
   3   4  -3   86.99    8.30
   3   4  -3  102.49   10.40
   3   4  -3  103.69    8.40
   3   4  -3   78.99    8.20
  -3  -4   3   89.29    8.70
  -3  -4   3  100.29    8.50
  -3  -4   3   90.59    8.80
  -3  -4   3   94.99    8.60
  -3  -4   3  113.79    8.50
   2   4  -3  134.69   11.50
   2   4  -3  137.19   11.60
   2   4  -3  142.49   11.70
   2   4  -3  127.79   11.20
   2   4  -3  132.99   12.60
  -2  -4   3  149.39   11.60
  -2  -4   3  135.39   11.90
  -2  -4   3  133.59   11.60
  -2  -4   3  143.99   11.60
  -2  -4   3  137.09   12.50
  -2  -4   3  132.89   11.30
   1   4  -3 1287.67   93.49
   1   4  -3 1283.37   94.39
   1   4  -3 1052.79   92.69
   1   4  -3 1249.47   93.49
   1   4  -3 1184.68   93.79
   1   4  -3 1199.48   93.39
  -1  -4   3 1203.98   93.49
  -1  -4   3 1192.48   93.59
  -1  -4   3 1189.08   93.69
  -1  -4   3 1428.46   93.79
  -1  -4   3 1214.98   93.39
  -1  -4   3 1322.17   93.59
   0   4  -3  178.08   16.00
   0   4  -3  202.38   16.00
   0   4  -3  228.18   16.70
   0   4  -3  190.58   16.50
   0   4  -3  212.68   16.80
   0   4  -3  214.78   16.60
   0  -4   3  204.98   17.40
   0  -4   3  212.78   16.60
   0  -4   3  185.88   15.90
   0  -4   3  204.68   16.60
   0  -4   3  200.08   16.60
   0  -4   3  186.68   16.00
  -1   4  -3   95.59    8.10
  -1   4  -3   68.09    7.70
  -1   4  -3   92.89    8.00
  -1   4  -3   86.89    7.00
   1  -4   3   85.79    7.90
   1  -4   3   72.99    6.70
   1  -4   3   76.49    7.80
   1  -4   3   85.49    8.00
   1  -4   3   70.29    7.80
   1  -4   3   80.19    7.10
  -2   4  -3  370.86   28.60
  -2   4  -3  380.46   29.10
  -2   4  -3  354.56   27.40
  -2   4  -3  394.36   28.60
   2  -4   3  319.07   28.40
   2  -4   3  327.37   27.40
   2  -4   3  368.36   30.40
   2  -4   3  319.27   28.40
   2  -4   3  364.76   27.80
   2  -4   3  346.97   28.30
   2  -4   3  351.86   28.60
  -3   4  -3    8.20    3.20
  -3   4  -3   16.40    3.20
  -3   4  -3   11.60    3.00
  -3   4  -3    9.60    2.10
  -3   4  -3   15.50    4.10
  -3   4  -3   11.50    3.50
   3  -4   3   13.50    3.20
   3  -4   3   14.70    2.50
   3  -4   3    8.90    2.80
   3  -4   3   23.50    6.50
   3  -4   3   17.20    3.60
   3  -4   3   15.70    3.70
   3  -4   3   15.90    2.80
  -4   4  -3   10.90    3.80
  -4   4  -3   11.80    3.70
  -4   4  -3   13.10    2.60
  -4   4  -3    9.70    3.10
  -4   4  -3   13.90    3.90
  -4   4  -3   11.20    4.10
   4  -4   3   10.50    3.60
   4  -4   3   10.50    2.80
   4  -4   3    8.50    3.40
   4  -4   3    4.70    2.90
  -5   4  -3   47.20    8.70
  -5   4  -3   38.50    7.40
  -5   4  -3   48.10    6.50
  -5   4  -3   38.60    7.10
  -5   4  -3   41.50    5.50
  -5   4  -3   55.39    7.00
   5  -4   3   41.30    7.20
   5  -4   3   33.40    6.00
   5  -4   3   33.90    6.00
   5  -4   3   52.39    6.80
  -6   4  -3    0.90    3.10
  -6   4  -3    4.90    3.60
  -6   4  -3    5.20    4.80
  -6   4  -3    6.40    3.80
  -6   4  -3    3.60    3.60
  -6   4  -3    5.00    2.70
   6  -4   3    2.50    4.00
   6  -4   3    4.90    3.50
   6  -4   3   10.00    4.60
   6  -4   3    1.80    4.10
   6  -4   3   -3.30    5.00
  -7   4  -3    0.00    4.00
  -7   4  -3    2.20    6.10
  -7   4  -3    2.40    4.70
  -7   4  -3   -5.40    4.30
  -7   4  -3    1.60    7.50
   7  -4   3    4.90    5.40
   7  -4   3   10.90    6.90
   7  -4   3    3.40    5.70
   7   3  -3    5.60    6.50
  -7  -3   3   12.20    4.20
  -7  -3   3   16.40    6.10
  -7  -3   3    7.70    4.40
   6   3  -3  107.29   13.10
  -6  -3   3   76.09    9.80
  -6  -3   3   99.49   11.50
   5   3  -3   -5.50    3.50
  -5  -3   3    0.60    0.90
  -5  -3   3   -0.20    1.20
  -5  -3   3    1.30    3.10
   4   3  -3  131.89   12.40
   4   3  -3  102.39   11.40
  -4  -3   3   95.59    8.90
  -4  -3   3  108.99    8.70
  -4  -3   3  116.69    8.70
  -4  -3   3  102.09   10.40
  -4  -3   3   93.79    8.90
   3   3  -3    6.70    1.40
   3   3  -3   10.20    3.50
   3   3  -3   14.70    4.20
  -3  -3   3    9.50    2.00
  -3  -3   3   12.50    2.00
  -3  -3   3   11.50    1.80
  -3  -3   3   10.70    1.70
  -3  -3   3    6.50    2.00
   2   3  -3   11.70    2.00
   2   3  -3    8.90    1.80
   2   3  -3    7.10    2.50
  -2  -3   3    5.70    1.60
  -2  -3   3   11.00    1.90
  -2  -3   3    5.10    1.50
  -2  -3   3    7.80    2.60
  -2  -3   3    7.90    2.00
  -2  -3   3    7.50    1.60
  -2  -3   3    8.70    2.10
   1   3  -3 1183.78   82.79
   1   3  -3 1118.59   82.59
   1   3  -3 1129.19   82.79
   1   3  -3 1035.80   83.19
  -1  -3   3 1107.59   82.99
  -1  -3   3 1084.49   82.79
  -1  -3   3 1024.50   82.69
  -1  -3   3 1091.49   83.19
  -1  -3   3 1046.90   82.69
  -1  -3   3 1110.09   82.79
   0   3  -3  258.57   19.00
   0   3  -3  232.08   18.50
   0   3  -3  245.98   19.00
   0  -3   3  255.87   19.50
   0  -3   3  252.47   19.20
   0  -3   3  213.58   18.60
   0  -3   3  215.28   18.50
   0  -3   3  229.18   18.90
   0  -3   3  227.58   18.90
  -1   3  -3  522.95   39.90
  -1   3  -3  542.35   40.70
  -1   3  -3  553.04   40.70
  -1   3  -3  494.65   40.20
  -1   3  -3  522.25   40.90
  -1   3  -3  546.25   41.00
   1  -3   3  479.85   40.50
   1  -3   3  526.65   40.50
   1  -3   3  495.55   39.90
   1  -3   3  488.75   40.60
   1  -3   3  572.54   40.90
  -2   3  -3  101.09    9.60
  -2   3  -3   99.99    9.40
  -2   3  -3   95.99    9.20
  -2   3  -3   99.69    9.80
  -2   3  -3  101.09    9.70
  -2   3  -3   94.59    8.40
   2  -3   3  109.29    8.40
   2  -3   3   91.89    9.30
   2  -3   3   94.79    8.50
   2  -3   3   95.19    9.30
   2  -3   3   92.39    9.10
   2  -3   3  101.99    9.60
  -3   3  -3   95.69    9.50
  -3   3  -3   94.59    9.10
  -3   3  -3   99.39    9.80
  -3   3  -3  100.79    9.70
  -3   3  -3   86.79    8.00
  -3   3  -3   86.89    9.20
   3  -3   3   83.09    9.20
   3  -3   3   99.39    9.20
   3  -3   3   81.99    9.00
   3  -3   3   83.09    8.80
  -4   3  -3    5.20    2.80
  -4   3  -3   -0.70    2.40
  -4   3  -3    2.40    2.00
  -4   3  -3    5.00    1.70
  -4   3  -3    2.40    2.90
  -4   3  -3    1.60    2.10
   4  -3   3    2.10    2.80
   4  -3   3   -0.10    2.10
   4  -3   3    1.40    3.00
   4  -3   3    1.30    2.10
   4  -3   3    1.60    2.20
  -5   3  -3   -3.10    2.80
  -5   3  -3   -0.60    2.50
  -5   3  -3   -0.30    3.50
  -5   3  -3   -1.60    2.30
  -5   3  -3    0.50    2.60
  -5   3  -3    1.10    2.20
   5  -3   3   -1.90    2.80
   5  -3   3    0.70    3.00
   5  -3   3   -3.60    2.60
  -6   3  -3   11.10    4.10
  -6   3  -3   13.90    4.10
  -6   3  -3   13.60    4.10
  -6   3  -3   11.00    4.30
  -6   3  -3    2.90    4.00
  -6   3  -3   13.60    3.70
   6  -3   3   10.50    4.20
   6  -3   3   16.00    5.40
   6  -3   3    9.80    4.70
   6  -3   3    8.20    4.40
  -7   3  -3   -0.70    5.30
  -7   3  -3    0.70    4.70
  -7   3  -3   -7.30    4.10
  -7   3  -3    2.80    9.90
  -7   3  -3    8.10    4.00
   7  -3   3    3.10    5.70
   7  -3   3   -3.30    6.50
   7   2  -3    2.60    5.70
  -7  -2   3   -0.80    3.20
  -7  -2   3    0.40    5.50
  -7  -2   3    2.20    3.20
   6   2  -3  148.19   17.30
  -6  -2   3  133.89   14.20
  -6  -2   3  114.19   12.70
   5   2  -3   32.00    6.80
   5   2  -3   41.70   10.00
  -5  -2   3   39.60    6.60
  -5  -2   3   48.10    7.40
   4   2  -3   -3.70    2.40
   4   2  -3    0.40    4.10
  -4  -2   3   -0.30    1.70
   3   2  -3   40.30    5.90
   3   2  -3   45.80    6.50
  -3  -2   3   41.60    3.70
  -3  -2   3   41.80    4.60
  -3  -2   3   44.20    3.60
  -3  -2   3   43.50    4.90
  -3  -2   3   42.00    3.70
   2   2  -3   29.70    4.70
   2   2  -3   32.50    3.00
   2   2  -3   29.40    3.10
   2   2  -3   31.90    3.00
   2   2  -3   34.80    5.00
  -2  -2   3   35.70    3.50
  -2  -2   3   35.40    3.30
  -2  -2   3   33.60    3.20
  -2  -2   3   35.50    3.70
  -2  -2   3   34.80    3.30
  -2  -2   3   38.30    3.40
  -2  -2   3   37.60    5.10
   1   2  -3    5.60    1.50
   1   2  -3    8.30    1.60
   1   2  -3    7.50    1.50
   1   2  -3    5.90    2.00
   1   2  -3    4.90    4.00
  -1  -2   3    6.40    2.10
  -1  -2   3    6.10    1.60
  -1  -2   3    7.80    1.60
  -1  -2   3    6.80    1.60
   0   2  -3    5.50    1.60
   0   2  -3    4.90    1.20
   0   2  -3    4.60    1.60
   0   2  -3    4.90    1.40
   0   2  -3    4.00    1.50
   0   2  -3    6.70    1.90
   0  -2   3    6.20    2.00
   0  -2   3    5.10    1.60
   0  -2   3    5.20    1.10
   0  -2   3    6.80    1.90
   0  -2   3    6.80    1.60
   0  -2   3    3.10    1.50
  -1   2  -3  101.39    8.50
  -1   2  -3   90.29    8.30
  -1   2  -3   86.49    7.70
  -1   2  -3   84.69    8.50
  -1   2  -3   87.79    8.00
  -1   2  -3   86.59    8.40
   1  -2   3   96.99    8.60
   1  -2   3   83.39    7.70
   1  -2   3   79.29    8.30
   1  -2   3   80.59    8.30
   1  -2   3  102.09    8.70
   1  -2   3   93.79    8.00
  -2   2  -3    3.10    1.70
  -2   2  -3    5.10    2.10
  -2   2  -3    3.70    1.50
  -2   2  -3    4.50    2.00
  -2   2  -3    3.90    1.90
  -2   2  -3    3.60    1.80
   2  -2   3    2.80    1.20
   2  -2   3    2.50    1.60
   2  -2   3    3.10    1.80
   2  -2   3    4.80    2.20
   2  -2   3    2.40    2.00
  -3   2  -3  195.28   16.40
  -3   2  -3  192.28   15.90
  -3   2  -3  187.48   15.00
  -3   2  -3  194.38   16.30
  -3   2  -3  177.68   16.00
  -3   2  -3  180.28   16.60
   3  -2   3  150.88   16.00
   3  -2   3  168.88   15.80
  -4   2  -3   78.39    7.30
  -4   2  -3   84.39    9.40
  -4   2  -3   72.79    8.10
  -4   2  -3   64.09    8.20
  -4   2  -3   64.79    8.00
  -4   2  -3   82.79    8.20
   4  -2   3   68.79    7.90
   4  -2   3   54.79    7.30
   4  -2   3   61.79    7.90
  -5   2  -3    5.80    3.10
  -5   2  -3    7.20    4.40
  -5   2  -3    1.80    3.70
  -5   2  -3    4.50    2.80
   5  -2   3    1.90    3.00
   5  -2   3    3.70    2.90
   5  -2   3    5.10    3.20
   5  -2   3    4.80    3.40
  -6   2  -3   -6.00    2.70
  -6   2  -3   -2.10    2.60
  -6   2  -3   -5.50    4.30
  -6   2  -3    1.70    3.00
  -6   2  -3   -0.80    2.90
  -6   2  -3   -3.60    3.10
   6  -2   3   -5.10    4.00
   6  -2   3   -3.10    3.60
   6  -2   3    2.50    3.90
   6  -2   3    0.80    4.10
  -7   2  -3   28.20    6.10
  -7   2  -3   29.70    6.80
  -7   2  -3   27.10    6.40
   7  -2   3   26.30    6.60
   7   1  -3    9.60    5.70
  -7  -1   3   -0.70    5.40
  -7  -1   3   -3.30    3.00
  -7  -1   3    6.60    3.90
   6   1  -3   78.59   11.70
   6   1  -3   97.39   14.30
  -6  -1   3   92.99   10.80
  -6  -1   3   84.69    8.50
  -6  -1   3   64.59    8.80
   5   1  -3 1544.35  113.89
   5   1  -3 1398.56  111.69
  -5  -1   3 1287.07  110.49
  -5  -1   3 1535.15  111.49
  -5  -1   3 1469.35  109.59
   4   1  -3   39.30    9.00
   4   1  -3   47.60    7.30
  -4  -1   3   55.49    6.10
  -4  -1   3   49.60    5.00
  -4  -1   3   43.20    5.80
   3   1  -3   11.20    3.40
   3   1  -3   15.30    4.90
   2   1  -3  135.39   12.50
   2   1  -3  143.49   12.00
  -2  -1   3  135.09   10.50
  -2  -1   3  155.68   12.40
  -2  -1   3  122.89   10.50
  -2  -1   3  121.49   10.50
  -2  -1   3  137.49   10.90
  -2  -1   3  130.49   10.50
   1   1  -3  107.09    9.10
   1   1  -3  115.19    9.10
   1   1  -3  118.69    9.20
   1   1  -3  124.99   10.30
  -1  -1   3  109.79    9.30
  -1  -1   3  103.39    9.20
  -1  -1   3  106.49    9.10
  -1  -1   3  101.99    9.20
  -1  -1   3  104.69    9.20
  -1  -1   3  114.79    9.70
   0   1  -3   42.00    4.00
   0   1  -3   32.50    4.40
   0   1  -3   41.70    4.50
   0   1  -3   42.10    4.50
   0   1  -3   43.80    4.50
   0   1  -3   37.20    3.90
   0  -1   3   49.30    4.70
   0  -1   3   40.00    4.50
   0  -1   3   42.50    4.50
   0  -1   3   33.80    4.30
   0  -1   3   41.10    4.10
  -1   1  -3  243.98   19.50
  -1   1  -3  244.28   19.10
  -1   1  -3  243.98   19.90
  -1   1  -3  219.38   19.70
  -1   1  -3  248.28   19.70
   1  -1   3  219.58   19.60
   1  -1   3  261.57   19.20
   1  -1   3  248.48   19.80
   1  -1   3  246.28   19.80
   1  -1   3  238.78   19.70
   1  -1   3  233.18   19.00
   1  -1   3  245.18   19.40
  -2   1  -3    2.10    1.60
  -2   1  -3    5.30    2.20
  -2   1  -3    3.70    1.40
  -2   1  -3    3.70    1.80
  -2   1  -3    4.20    2.00
  -2   1  -3    2.70    1.80
   2  -1   3    2.40    2.00
   2  -1   3    4.30    2.00
   2  -1   3    2.50    1.60
   2  -1   3    1.70    1.60
   2  -1   3    4.40    2.10
  -3   1  -3   34.00    5.60
  -3   1  -3   27.20    5.30
  -3   1  -3   34.60    5.70
  -3   1  -3   35.80    5.70
  -3   1  -3   40.60    6.60
  -3   1  -3   33.40    4.20
   3  -1   3   22.30    6.40
   3  -1   3   34.80    5.00
   3  -1   3   31.50    5.20
   3  -1   3   36.20    5.90
   3  -1   3   23.40    4.70
  -4   1  -3   -3.00    2.30
  -4   1  -3   -1.10    1.60
  -4   1  -3    2.20    2.20
  -4   1  -3    0.80    2.10
  -4   1  -3    2.10    2.50
  -4   1  -3   -1.40    2.00
   4  -1   3    0.50    2.20
   4  -1   3    2.30    2.50
   4  -1   3    1.80    2.00
  -5   1  -3   19.90    3.90
  -5   1  -3   16.00    7.10
  -5   1  -3   23.60    5.50
  -5   1  -3   11.90    4.00
  -5   1  -3   14.00    3.90
   5  -1   3   29.90    6.50
   5  -1   3   11.30    3.90
  -6   1  -3    2.70    3.10
  -6   1  -3    8.10    4.60
  -6   1  -3    8.10    3.60
  -6   1  -3    5.00    3.70
  -6   1  -3    3.90    3.80
  -6   1  -3    3.00    3.40
   6  -1   3   -2.30    3.80
   6  -1   3   -0.20    3.70
   6  -1   3    5.00    4.00
   6  -1   3   -2.70    4.20
   6  -1   3    3.70    4.90
  -7   1  -3   17.00    6.70
  -7   1  -3   25.10    5.90
   7  -1   3   20.70    7.70
   7  -1   3   13.40    6.00
   7   0  -3   36.50    7.40
   7   0  -3   36.70   10.90
  -7   0   3   37.30    5.30
  -7   0   3   45.40    8.20
  -7   0   3   31.60    6.20
   6   0  -3   13.30    5.00
   6   0  -3   12.00    7.50
  -6   0   3    6.80    3.70
  -6   0   3   11.20    3.00
  -6   0   3    5.10    7.40
   5   0  -3    7.90    5.80
   5   0  -3   14.40    4.50
  -5   0   3    8.40    3.60
  -5   0   3    5.80    3.20
  -5   0   3   13.50    2.60
   4   0  -3   67.09    9.90
   4   0  -3   65.69    8.10
  -4   0   3   69.89    6.20
  -4   0   3   56.99    7.00
   3   0  -3   88.89    9.00
   3   0  -3   89.49   10.40
  -3   0   3   89.29    8.60
  -3   0   3   76.69    6.80
  -3   0   3   76.19    6.80
  -3   0   3   86.79    7.30
  -3   0   3   92.19    6.80
  -3   0   3   82.29    8.80
   2   0  -3 1046.10   79.39
   2   0  -3 1150.78   81.89
   2   0  -3 1132.99   79.29
   2   0  -3 1031.00   79.29
  -2   0   3  965.00   79.49
  -2   0   3 1018.80   79.49
  -2   0   3 1097.09   79.59
  -2   0   3 1095.69   80.59
  -2   0   3 1073.49   79.59
  -2   0   3 1036.70   80.79
  -2   0   3  959.90   79.49
   1   0  -3   52.19    4.80
   1   0  -3   63.49    6.70
   1   0  -3   46.10    5.40
   1   0  -3   50.49    5.00
   1   0  -3   51.99    5.00
  -1   0   3   53.79    5.70
  -1   0   3   51.09    5.20
  -1   0   3   51.09    5.00
  -1   0   3   57.79    4.90
  -1   0   3   51.69    5.20
  -1   0   3   49.90    5.20
   0   0  -3    9.00    2.00
   0   0  -3    7.10    2.30
   0   0  -3    6.80    1.70
   0   0  -3    7.50    2.20
   0   0  -3   11.10    2.50
   0   0  -3    6.60    1.90
   0   0  -3    7.50    2.20
   0   0   3   10.30    2.30
   0   0   3    7.60    1.70
   0   0   3    5.50    2.10
   0   0   3    7.80    2.00
   0   0   3    8.70    2.30
   0   0   3    6.70    1.80
  -1   0  -3  363.06   29.70
  -1   0  -3  409.56   30.50
  -1   0  -3  382.56   29.00
  -1   0  -3  373.96   29.70
  -1   0  -3  356.06   29.70
  -1   0  -3  358.36   28.90
  -1   0  -3  378.96   29.60
   1   0   3  400.66   29.10
   1   0   3  349.87   29.50
   1   0   3  382.96   29.50
   1   0   3  364.56   28.80
   1   0   3  369.86   29.60
   1   0   3  364.26   29.70
   1   0   3  356.76   29.60
  -2   0  -3   25.30    4.70
  -2   0  -3   21.00    4.10
  -2   0  -3   28.10    3.50
  -2   0  -3   22.70    4.30
  -2   0  -3   20.80    4.00
  -2   0  -3   25.80    4.90
   2   0   3   25.50    4.50
   2   0   3   30.50    4.90
   2   0   3   17.00    3.90
   2   0   3   26.80    4.60
   2   0   3   21.60    4.20
   2   0   3   26.50    2.60
  -3   0  -3    3.00    1.90
  -3   0  -3    0.20    1.50
  -3   0  -3    4.10    2.30
  -3   0  -3   -0.30    1.80
  -3   0  -3    1.00    1.60
  -3   0  -3    1.50    2.70
   3   0   3    1.10    1.90
   3   0   3    0.40    1.80
   3   0   3    1.70    2.30
   3   0   3    0.40    1.70
   3   0   3    3.10    2.40
  -4   0  -3  135.99   13.00
  -4   0  -3  151.28   14.30
  -4   0  -3  130.79   13.30
  -4   0  -3  122.59   13.00
  -4   0  -3  138.69   13.10
   4   0   3  155.68   13.30
   4   0   3  112.29   12.60
   4   0   3  138.29   13.80
   4   0   3  155.98   13.20
   4   0   3  117.39   12.90
  -5   0  -3   31.10    5.90
  -5   0  -3   20.80    5.30
  -5   0  -3   30.00    5.60
  -5   0  -3   28.20    6.90
  -5   0  -3   29.70    6.10
  -5   0  -3   31.30    6.20
   5   0   3   19.40    4.60
   5   0   3   33.90    7.20
   5   0   3   30.30    5.90
   5   0   3   30.90    6.20
  -6   0  -3   85.49   11.40
  -6   0  -3   70.79   10.50
  -6   0  -3   86.49   11.20
  -6   0  -3  101.89   13.40
  -6   0  -3   95.19   10.90
  -6   0  -3  109.89   11.50
   6   0   3   96.19   10.20
   6   0   3   87.79   10.70
   6   0   3  117.39   13.10
   6   0   3   98.69   11.00
  -7   0  -3   -7.40    4.00
  -7   0  -3   -7.80    5.60
  -7   0  -3    3.20    5.00
   7   0   3  -13.30    9.80
   7   0   3    3.60    5.90
   7  -1  -3   -5.30    6.80
  -7   1   3   -4.20    2.50
  -7   1   3   -4.40    3.10
  -7   1   3  -11.00    4.80
   6  -1  -3  586.84   58.89
   6  -1  -3  757.32   56.49
  -6   1   3  700.13   53.29
  -6   1   3  709.43   56.39
  -6   1   3  693.53   54.99
   5  -1  -3    4.60    3.70
   5  -1  -3    2.10    5.40
  -5   1   3    7.80    1.90
  -5   1   3    8.40    1.90
  -5   1   3    7.80    3.20
  -5   1   3    1.00    3.20
  -5   1   3    2.40    1.70
   4  -1  -3   -1.10    4.10
  -4   1   3    2.30    1.00
  -4   1   3    0.90    1.40
  -4   1   3    4.00    2.20
  -4   1   3   -0.60    1.20
   3  -1  -3   24.00    2.90
   3  -1  -3   30.40    2.80
   3  -1  -3   26.20    2.90
   3  -1  -3   37.20    8.20
   3  -1  -3   31.90    2.90
  -3   1   3   24.80    3.30
  -3   1   3   28.00    3.30
  -3   1   3   23.30    4.60
  -3   1   3   30.30    3.10
  -3   1   3   30.70    5.00
  -3   1   3   30.30    3.50
  -3   1   3   29.50    3.40
   2  -1  -3   22.30    6.20
   2  -1  -3   11.80    3.10
   2  -1  -3   13.00    2.00
   2  -1  -3   13.60    2.30
   2  -1  -3   15.30    2.50
   2  -1  -3   11.20    2.20
   2  -1  -3   18.00    2.60
  -2   1   3   11.80    2.00
  -2   1   3   13.70    4.80
  -2   1   3   15.10    2.60
  -2   1   3   17.60    2.90
  -2   1   3   13.70    3.10
  -2   1   3   11.00    2.40
   1  -1  -3    6.90    1.50
   1  -1  -3    8.20    2.40
   1  -1  -3    6.00    1.90
   1  -1  -3   10.30    3.80
   1  -1  -3    7.80    2.20
   1  -1  -3    8.80    2.20
  -1   1   3    7.70    2.00
  -1   1   3    3.90    1.80
  -1   1   3    8.10    1.60
  -1   1   3    5.80    1.90
  -1   1   3    6.60    2.10
  -1   1   3    7.20    2.60
   0  -1  -3   74.59    7.30
   0  -1  -3   65.09    7.20
   0  -1  -3   68.29    7.00
   0  -1  -3   68.89    7.20
   0  -1  -3   62.99    7.30
   0  -1  -3   82.29    7.20
   0  -1  -3   77.69    6.60
   0   1   3   75.19    7.10
   0   1   3   90.99    9.40
   0   1   3   67.39    7.30
   0   1   3   75.69    7.10
   0   1   3   83.39    6.70
   0   1   3   72.89    7.40
   0   1   3   72.49    7.30
  -1  -1  -3  188.98   16.30
  -1  -1  -3  168.98   15.70
  -1  -1  -3  170.28   15.60
  -1  -1  -3  183.58   15.00
  -1  -1  -3  183.08   15.70
  -1  -1  -3  188.68   15.00
  -1  -1  -3  178.88   15.70
   1   1   3  194.08   15.70
   1   1   3  199.38   15.00
   1   1   3  175.88   15.60
   1   1   3  178.78   15.70
   1   1   3  181.38   15.70
   1   1   3  171.48   15.60
  -2  -1  -3    3.70    2.10
  -2  -1  -3    3.10    2.10
  -2  -1  -3    0.80    1.10
  -2  -1  -3    2.00    1.80
  -2  -1  -3   -0.30    1.10
  -2  -1  -3    4.80    2.30
  -2  -1  -3    2.10    1.70
   2   1   3    2.80    1.80
   2   1   3    2.50    1.30
   2   1   3    3.40    1.90
   2   1   3    2.10    1.90
   2   1   3    0.80    1.80
   2   1   3    1.10    1.60
  -3  -1  -3   16.70    4.30
  -3  -1  -3   18.10    4.40
  -3  -1  -3   21.10    4.60
  -3  -1  -3   20.60    4.50
  -3  -1  -3   20.20    4.30
  -3  -1  -3   23.90    4.30
  -3  -1  -3   20.00    2.50
   3   1   3   13.20    3.70
   3   1   3   15.60    3.80
   3   1   3   19.70    4.40
   3   1   3   18.10    4.10
   3   1   3   15.70    3.80
  -4  -1  -3   45.20    7.30
  -4  -1  -3   48.30    7.70
  -4  -1  -3   51.39    6.20
  -4  -1  -3   47.50    7.80
  -4  -1  -3   44.70    8.00
  -4  -1  -3   50.49    7.80
   4   1   3   51.09    8.00
   4   1   3   42.50    7.00
   4   1   3   49.30    6.70
   4   1   3   36.60    6.40
  -5  -1  -3    8.30    5.40
  -5  -1  -3   17.60    5.20
  -5  -1  -3   21.10    5.60
  -5  -1  -3   22.40    5.30
  -5  -1  -3   19.10    5.50
  -5  -1  -3   17.70    4.80
   5   1   3    7.90    6.30
   5   1   3   17.30    4.90
   5   1   3   24.50    6.30
   5   1   3   18.60    5.80
   5   1   3   13.10    4.50
  -6  -1  -3   19.40    7.10
  -6  -1  -3   22.50    6.20
  -6  -1  -3   25.60    6.40
  -6  -1  -3   24.80    6.10
  -6  -1  -3   32.50    6.10
   6   1   3   32.50    6.80
   6   1   3   36.00    7.80
   6   1   3   36.10    6.70
  -7  -1  -3    7.90    5.20
  -7  -1  -3    6.70    7.20
  -7  -1  -3    2.00    4.90
  -7  -1  -3   -3.30    4.40
   7   1   3    1.50    6.30
   7   1   3    6.80    6.50
   7  -2  -3    7.10    7.90
  -7   2   3    2.70    2.50
  -7   2   3   -0.10    3.70
  -7   2   3   -6.50    5.60
   6  -2  -3  280.47   32.90
  -6   2   3  257.27   20.90
  -6   2   3  233.78   21.00
  -6   2   3  271.77   24.80
  -6   2   3  261.67   21.00
  -6   2   3  277.47   21.40
  -6   2   3  303.97   23.60
   5  -2  -3   -5.00    4.90
  -5   2   3    0.60    1.70
  -5   2   3    1.10    2.50
  -5   2   3    1.40    1.90
  -5   2   3   -0.20    1.30
   4  -2  -3    2.40    1.30
   4  -2  -3    1.70    5.80
   4  -2  -3    3.00    1.30
   4  -2  -3    3.00    2.20
   4  -2  -3    1.40    1.30
  -4   2   3    5.70    2.80
  -4   2   3    3.30    1.20
  -4   2   3    0.90    1.70
  -4   2   3    3.50    1.90
  -4   2   3    2.30    1.60
  -4   2   3    4.90    2.10
   3  -2  -3 1558.44  133.79
   3  -2  -3 1624.64  132.69
   3  -2  -3 2004.90  132.49
   3  -2  -3 1596.74  132.49
   3  -2  -3 1619.74  135.99
   3  -2  -3 2003.50  133.39
  -3   2   3 1885.41  132.79
  -3   2   3 1867.21  132.99
  -3   2   3 1643.94  132.69
  -3   2   3 1649.13  132.69
  -3   2   3 1809.12  134.09
  -3   2   3 1779.72  133.49
  -3   2   3 1785.52  131.99
   2  -2  -3   48.60    5.20
   2  -2  -3   57.69    8.10
   2  -2  -3   48.60    6.00
   2  -2  -3   52.59    4.70
   2  -2  -3   43.90    5.40
   2  -2  -3   49.30    5.50
  -2   2   3   57.29    5.70
  -2   2   3   57.19    6.00
  -2   2   3   54.49    5.60
  -2   2   3   52.09    6.20
  -2   2   3   59.09    5.70
  -2   2   3   54.79    4.70
   1  -2  -3  127.49   12.40
   1  -2  -3  115.79   11.00
   1  -2  -3  114.89   10.90
   1  -2  -3  121.89   10.90
   1  -2  -3  123.19   10.80
   1  -2  -3  121.79   10.70
   1  -2  -3  125.29   10.00
  -1   2   3  113.29   11.40
  -1   2   3  116.99   10.90
  -1   2   3  118.79    9.90
  -1   2   3  138.19   12.00
   0  -2  -3  483.15   40.00
   0  -2  -3  551.74   41.20
   0  -2  -3  505.35   40.30
   0  -2  -3  512.65   39.30
   0  -2  -3  526.35   40.30
   0  -2  -3  508.15   40.40
   0  -2  -3  500.65   40.30
   0   2   3  525.95   40.20
   0   2   3  469.95   40.20
   0   2   3  503.35   40.40
   0   2   3  477.35   40.10
   0   2   3  544.45   40.20
   0   2   3  535.05   40.40
  -1  -2  -3  175.48   15.40
  -1  -2  -3  175.48   15.90
  -1  -2  -3  176.18   16.10
  -1  -2  -3  194.08   15.20
  -1  -2  -3  177.78   16.00
  -1  -2  -3  205.88   16.20
   1   2   3  168.58   16.00
   1   2   3  174.68   16.00
   1   2   3  178.28   15.90
   1   2   3  188.18   16.00
   1   2   3  203.98   15.50
   1   2   3  176.18   16.00
  -2  -2  -3  127.59   12.30
  -2  -2  -3  135.09   12.40
  -2  -2  -3  122.69   12.20
  -2  -2  -3  124.59   11.10
  -2  -2  -3  136.99   13.40
  -2  -2  -3  124.59   12.20
   2   2   3  156.88   11.30
   2   2   3  121.39   12.10
   2   2   3  120.29   12.00
   2   2   3  128.19   12.20
   2   2   3  115.59   12.10
   2   2   3  116.39   12.00
  -3  -2  -3   51.89    7.40
  -3  -2  -3   54.19    5.70
  -3  -2  -3   62.39    7.60
  -3  -2  -3   50.59    7.20
  -3  -2  -3   64.79    7.90
  -3  -2  -3   51.89    7.40
   3   2   3   53.99    7.00
   3   2   3   67.19    8.10
   3   2   3   52.29    7.00
   3   2   3   60.79    7.20
   3   2   3   52.99    7.00
  -4  -2  -3   18.00    4.70
  -4  -2  -3   12.50    2.80
  -4  -2  -3   11.40    4.20
  -4  -2  -3   12.60    4.80
  -4  -2  -3   15.20    4.60
  -4  -2  -3   16.00    4.50
   4   2   3   19.50    4.50
   4   2   3   20.80    4.90
   4   2   3   11.20    4.00
   4   2   3   16.40    4.50
  -5  -2  -3   35.50    6.80
  -5  -2  -3   38.60    6.80
  -5  -2  -3   32.80    6.60
  -5  -2  -3   27.80    6.10
  -5  -2  -3   24.40    6.90
  -5  -2  -3   35.70    7.10
   5   2   3   33.60    7.50
   5   2   3   54.59    8.40
   5   2   3   41.70    7.70
   5   2   3   30.60    7.60
  -6  -2  -3   34.30    6.60
  -6  -2  -3   22.10    6.20
  -6  -2  -3   14.40    6.20
  -6  -2  -3   29.30    7.20
  -6  -2  -3   33.10    7.40
  -6  -2  -3   32.40    7.00
   6   2   3   30.20    7.00
   6   2   3   44.20    9.90
   6   2   3   26.70    9.00
   7  -3  -3   11.90    9.20
  -7   3   3    9.70    2.80
  -7   3   3    4.60    1.60
  -7   3   3    7.60    3.20
  -7   3   3    4.10    6.20
  -7   3   3    6.50    4.10
  -7   3   3    5.70    3.10
   6  -3  -3   11.50    7.40
  -6   3   3   18.40    2.50
  -6   3   3   27.40    5.80
  -6   3   3   21.50    3.80
  -6   3   3   18.20    3.60
   5  -3  -3   13.50    2.80
   5  -3  -3   18.80    2.80
   5  -3  -3    6.50    7.10
   5  -3  -3   12.70    2.60
   5  -3  -3   19.30    2.70
  -5   3   3   19.20    3.70
  -5   3   3   25.30    5.50
  -5   3   3   16.40    2.10
  -5   3   3   20.70    3.80
   4  -3  -3    5.50    2.10
   4  -3  -3    2.00    2.30
   4  -3  -3    5.80    2.30
   4  -3  -3    4.50    1.80
   4  -3  -3    4.90    2.10
   4  -3  -3    2.00    5.10
  -4   3   3    8.70    2.80
  -4   3   3    2.60    2.30
  -4   3   3    5.20    1.00
  -4   3   3    5.50    2.20
  -4   3   3   10.50    3.70
  -4   3   3    5.20    2.30
   3  -3  -3   24.40    7.60
   3  -3  -3   32.70    5.20
   3  -3  -3   29.00    4.40
   3  -3  -3   21.20    4.90
   3  -3  -3   24.60    4.20
  -3   3   3   33.20    4.60
  -3   3   3   23.00    2.50
  -3   3   3   26.50    4.90
  -3   3   3   27.90    4.50
  -3   3   3   30.50    5.30
  -3   3   3   32.50    4.70
  -3   3   3   40.30    5.00
   2  -3  -3    0.10    0.70
   2  -3  -3   -3.10    3.70
   2  -3  -3    1.00    1.70
   2  -3  -3    1.40    1.70
   2  -3  -3    1.00    1.50
   2  -3  -3    0.40    1.50
  -2   3   3    1.20    1.80
  -2   3   3    0.10    1.50
  -2   3   3    0.70    1.40
  -2   3   3   -0.10    1.70
  -2   3   3    3.40    2.00
   1  -3  -3   47.00    6.10
   1  -3  -3   42.50    5.80
   1  -3  -3   49.90    4.80
   1  -3  -3   55.69    6.10
   1  -3  -3   49.80    6.20
   1  -3  -3   78.09    8.50
   1  -3  -3   50.19    7.60
  -1   3   3   54.49    6.20
  -1   3   3   52.59    6.30
  -1   3   3   55.49    6.20
  -1   3   3   37.90    5.80
  -1   3   3   49.99    6.10
   0  -3  -3  965.20   70.79
   0  -3  -3  900.21   69.69
   0  -3  -3  831.62   69.69
   0  -3  -3  841.42   68.59
   0  -3  -3 1010.80   69.99
   0  -3  -3  844.62   69.49
   0  -3  -3  904.51   69.79
   0  -3  -3  838.72   69.79
   0   3   3  940.71   72.69
   0   3   3  829.92   69.59
   0   3   3  824.02   69.69
   0   3   3  925.11   69.79
   0   3   3  975.80   70.19
   0   3   3 1001.40   69.79
  -1  -3  -3   69.49    7.50
  -1  -3  -3   69.69    7.70
  -1  -3  -3   62.69    6.90
  -1  -3  -3   59.29    7.30
  -1  -3  -3   62.29    7.70
  -1  -3  -3   59.19    7.50
   1   3   3   64.99    7.60
   1   3   3   69.69    7.00
   1   3   3   61.29    7.50
   1   3   3   64.69    7.70
   1   3   3   67.79    7.60
   1   3   3   75.79    8.00
  -2  -3  -3  151.98   14.40
  -2  -3  -3  155.88   13.10
  -2  -3  -3  148.09   14.20
  -2  -3  -3  153.48   14.10
  -2  -3  -3  138.19   14.00
  -2  -3  -3  143.49   13.90
   2   3   3  143.79   13.90
   2   3   3  148.79   13.90
   2   3   3  146.89   14.10
   2   3   3  133.89   13.90
   2   3   3  150.28   14.30
  -3  -3  -3  633.44   53.69
  -3  -3  -3  711.93   54.09
  -3  -3  -3  700.83   54.49
  -3  -3  -3  671.93   53.79
  -3  -3  -3  666.53   52.39
   3   3   3  640.84   53.59
   3   3   3  721.53   53.79
   3   3   3  705.43   53.99
   3   3   3  596.44   53.29
   3   3   3  699.53   54.09
  -4  -3  -3   66.19    7.20
  -4  -3  -3   72.89    9.70
  -4  -3  -3   72.49   10.00
  -4  -3  -3   65.49    9.40
  -4  -3  -3   77.99   11.20
   4   3   3   76.69   10.90
   4   3   3   67.59    8.80
   4   3   3   65.89    8.80
   4   3   3   73.59    9.70
  -5  -3  -3   24.80    6.60
  -5  -3  -3   28.50    7.20
  -5  -3  -3   25.60    6.20
  -5  -3  -3   24.70    6.20
   5   3   3   26.50    6.70
   5   3   3   32.50    8.20
  -6  -3  -3   45.00    9.00
  -6  -3  -3   47.90    8.90
  -6  -3  -3   34.60    8.10
  -6  -3  -3   36.50    7.30
  -6  -3  -3   38.20    8.70
   6   3   3   56.59   10.90
   6   3   3   47.70    9.10
   7  -4  -3  268.67   33.90
  -7   4   3  297.17   26.60
  -7   4   3  341.37   27.10
  -7   4   3  322.37   26.80
  -7   4   3  344.57   30.90
  -7   4   3  360.96   28.90
  -7   4   3  315.77   26.60
   6  -4  -3    8.20    7.50
  -6   4   3   16.10    3.90
  -6   4   3   17.80    4.00
  -6   4   3   14.30    4.50
   5  -4  -3    3.20    2.60
   5  -4  -3   -1.80    7.30
   5  -4  -3    2.30    2.40
   5  -4  -3    4.30    2.30
   5  -4  -3   -1.60    2.20
   5  -4  -3    3.20    3.70
  -5   4   3    4.00    2.90
  -5   4   3   -0.50    2.60
  -5   4   3   -4.20    2.90
  -5   4   3   -3.20    2.30
   4  -4  -3   59.29    7.30
   4  -4  -3   63.49   11.40
   4  -4  -3   72.69    7.40
   4  -4  -3   52.49   13.10
   4  -4  -3   65.39    7.50
   4  -4  -3   69.39    7.60
  -4   4   3   79.29    7.90
  -4   4   3   63.19    7.50
  -4   4   3   73.59    8.70
  -4   4   3   62.09    7.80
  -4   4   3   70.59    8.10
   3  -4  -3   55.69    6.10
   3  -4  -3   51.09    6.30
   3  -4  -3   48.10    7.10
   3  -4  -3   46.30    6.20
   3  -4  -3   74.39    9.40
   3  -4  -3   37.60    9.60
  -3   4   3   51.29    6.60
  -3   4   3   49.30    6.40
  -3   4   3   61.69    7.20
  -3   4   3   51.49    6.80
  -3   4   3   52.19    6.70
  -3   4   3   50.89    7.10
   2  -4  -3   12.40    2.00
   2  -4  -3    9.70    3.10
   2  -4  -3    9.30    3.00
   2  -4  -3   13.00    3.40
   2  -4  -3    9.20    3.40
   2  -4  -3   15.30    3.50
   2  -4  -3   17.40    6.40
  -2   4   3   17.80    3.90
  -2   4   3   12.10    3.50
  -2   4   3   13.70    3.80
  -2   4   3   12.10    3.50
  -2   4   3   11.20    3.30
   1  -4  -3   -1.20    1.80
   1  -4  -3   -4.30    1.80
   1  -4  -3   -2.80    3.60
   1  -4  -3   -0.80    1.20
   1  -4  -3   -0.60    2.00
   1  -4  -3    0.70    2.10
   1  -4  -3    0.70    1.10
  -1   4   3   -3.00    1.90
  -1   4   3   -3.10    1.60
  -1   4   3    0.50    2.50
  -1   4   3   -1.50    2.00
  -1   4   3    1.50    2.00
  -1   4   3   -0.80    1.40
   0  -4  -3  302.67   25.00
   0  -4  -3  345.87   29.40
   0  -4  -3  320.47   26.40
   0  -4  -3  329.37   26.40
   0  -4  -3  286.07   26.00
   0  -4  -3  295.97   26.30
   0  -4  -3  296.57   26.50
   0   4   3  362.26   26.50
   0   4   3  320.27   26.70
   0   4   3  289.27   26.30
   0   4   3  343.47   26.60
   0   4   3  314.97   26.30
   0   4   3  300.67   26.40
  -1  -4  -3   10.40    3.30
  -1  -4  -3   10.50    3.90
  -1  -4  -3    5.80    2.60
  -1  -4  -3    8.40    2.90
  -1  -4  -3    2.80    2.70
  -1  -4  -3    4.10    2.80
   1   4   3    5.90    2.90
   1   4   3    7.30    2.80
   1   4   3    5.60    3.00
   1   4   3    9.20    3.20
   1   4   3    5.00    2.50
   1   4   3   11.60    3.60
  -2  -4  -3  255.77   26.20
  -2  -4  -3  309.77   26.50
  -2  -4  -3  315.87   26.60
  -2  -4  -3  312.57   25.50
  -2  -4  -3  286.77   26.30
  -2  -4  -3  309.77   26.40
   2   4   3  299.67   26.40
   2   4   3  322.97   26.30
   2   4   3  279.97   26.50
   2   4   3  290.77   30.20
   2   4   3  337.37   26.90
   2   4   3  353.46   25.70
  -3  -4  -3  436.66   35.80
  -3  -4  -3  453.55   37.40
  -3  -4  -3  431.46   36.90
  -3  -4  -3  466.35   37.70
  -3  -4  -3  434.16   37.20
  -3  -4  -3  424.86   37.20
   3   4   3  415.96   36.90
   3   4   3  454.75   37.40
   3   4   3  488.45   37.50
   3   4   3  469.25   37.00
   3   4   3  425.66   36.90
  -4  -4  -3    7.60    2.90
  -4  -4  -3   -0.80    3.60
  -4  -4  -3    5.10    4.00
  -4  -4  -3    5.60    4.20
  -4  -4  -3    8.90    4.20
  -4  -4  -3    7.80    4.80
   4   4   3    6.70    4.00
   4   4   3    7.40    4.50
   4   4   3    3.90    4.20
   4   4   3    4.60    3.80
  -5  -4  -3   67.99   10.70
  -5  -4  -3   60.59    7.40
  -5  -4  -3   52.19   10.40
  -5  -4  -3   69.59    9.70
  -5  -4  -3   53.59   10.40
  -5  -4  -3   76.69   10.80
   5   4   3   57.79   10.40
   5   4   3   66.29   10.50
   5   4   3   74.99   10.60
   5   4   3   54.19    9.40
   5   4   3   73.89   10.80
   5   4   3   77.69   11.80
  -6  -4  -3   29.10    8.90
  -6  -4  -3   25.60    7.60
  -6  -4  -3   19.90    8.80
   6   4   3   41.90   10.10
   6   4   3   28.70    8.50
   7  -5  -3   17.80   10.30
  -7   5   3    1.70    6.40
  -7   5   3    1.40    5.00
  -7   5   3    5.00    6.20
   6  -5  -3   -0.40    3.30
   6  -5  -3    2.60    8.00
   6  -5  -3    0.80    3.20
  -6   5   3    4.70    3.90
  -6   5   3    7.40    4.00
  -6   5   3    3.30    4.10
  -6   5   3   -2.40    3.90
   5  -5  -3   17.10    4.00
   5  -5  -3   14.20    3.90
   5  -5  -3   11.10    5.00
   5  -5  -3   11.10    3.80
   5  -5  -3    3.90    9.10
   5  -5  -3   11.90    3.90
  -5   5   3   11.10    4.20
  -5   5   3   15.10    4.00
  -5   5   3   12.70    4.50
  -5   5   3   15.70    4.40
  -5   5   3   21.50    4.90
   4  -5  -3  237.18   23.60
   4  -5  -3  233.28   26.90
   4  -5  -3  231.48   22.50
   4  -5  -3  259.57   22.60
  -4   5   3  268.67   22.70
  -4   5   3  299.17   25.40
  -4   5   3  304.07   23.20
  -4   5   3  299.07   24.10
  -4   5   3  265.67   22.90
   3  -5  -3   21.70    7.10
   3  -5  -3   32.40    5.30
   3  -5  -3   19.30    4.60
   3  -5  -3   14.70    4.00
   3  -5  -3   23.80    5.40
  -3   5   3   24.70    5.40
  -3   5   3   27.50    5.00
  -3   5   3   15.30    4.10
  -3   5   3   22.00    4.60
  -3   5   3   21.70    5.00
   2  -5  -3   73.89    9.40
   2  -5  -3   60.29    8.40
   2  -5  -3   72.99   10.90
   2  -5  -3   87.89    8.70
   2  -5  -3   78.79    6.80
   2  -5  -3   95.19    9.20
   2  -5  -3   59.59    8.30
  -2   5   3   71.39    8.70
  -2   5   3   81.89    9.20
  -2   5   3   75.09    9.30
  -2   5   3   91.99    9.20
  -2   5   3   71.29    8.70
   1  -5  -3  371.06   31.10
   1  -5  -3  377.66   29.10
   1  -5  -3  335.07   29.30
   1  -5  -3  337.57   29.90
   1  -5  -3  323.37   30.30
   1  -5  -3  341.97   27.40
   1  -5  -3  321.77   29.00
  -1   5   3  369.16   29.30
  -1   5   3  397.56   29.90
  -1   5   3  381.66   29.40
  -1   5   3  319.37   28.80
  -1   5   3  308.97   31.50
  -1   5   3  327.17   29.00
   0  -5  -3   47.90    7.50
   0  -5  -3   26.90    5.40
   0  -5  -3   36.30    6.20
   0  -5  -3   29.90    6.60
   0  -5  -3   34.00    4.90
   0  -5  -3   60.19   10.30
   0  -5  -3   35.80    6.10
   0   5   3   32.30    6.40
   0   5   3   29.20    6.10
   0   5   3   35.80    6.60
   0   5   3   38.70    6.70
   0   5   3   44.40    7.30
   0   5   3   27.60    5.70
  -1  -5  -3   21.90    5.50
  -1  -5  -3   24.30    5.50
  -1  -5  -3   26.70    5.80
  -1  -5  -3   22.90    4.80
  -1  -5  -3   27.70    5.90
  -1  -5  -3   15.80    5.00
  -1  -5  -3   23.70    7.20
   1   5   3   25.20    5.40
   1   5   3   17.80    5.10
   1   5   3   24.80    5.30
   1   5   3   27.60    5.90
   1   5   3   23.90    6.10
  -2  -5  -3  552.74   44.80
  -2  -5  -3  550.44   44.70
  -2  -5  -3  525.95   44.90
  -2  -5  -3  569.14   44.90
  -2  -5  -3  512.65   44.90
  -2  -5  -3  506.55   43.80
   2   5   3  503.15   44.70
   2   5   3  463.45   44.30
   2   5   3  623.34   46.40
   2   5   3  613.04   45.50
   2   5   3  529.35   44.80
   2   5   3  631.84   44.20
  -3  -5  -3   17.40    5.00
  -3  -5  -3   21.40    4.70
  -3  -5  -3   23.80    6.40
  -3  -5  -3   18.40    6.50
  -3  -5  -3   19.00    6.10
  -3  -5  -3   24.70    5.60
   3   5   3   27.70    6.90
   3   5   3   10.60    4.70
   3   5   3   22.70    5.70
   3   5   3   30.30    6.80
   3   5   3   19.10    5.90
  -4  -5  -3  200.48   26.50
  -4  -5  -3  180.18   19.40
  -4  -5  -3  184.28   18.70
  -4  -5  -3  171.48   17.20
  -4  -5  -3  186.18   19.60
  -4  -5  -3  210.88   19.30
   4   5   3  217.78   19.10
   4   5   3  190.28   19.40
   4   5   3  190.18   19.20
  -5  -5  -3    8.80    4.90
  -5  -5  -3   12.20    6.40
  -5  -5  -3    5.30    3.50
  -5  -5  -3    9.50    5.40
  -5  -5  -3   28.60    6.60
  -5  -5  -3    0.60    5.70
   5   5   3    8.60    6.70
   5   5   3    8.80    5.30
   5   5   3   15.90    6.90
   5   5   3    5.30    5.90
  -6  -5  -3   27.00    7.50
  -6  -5  -3   27.00    8.70
  -6  -5  -3   34.40   10.40
  -6  -5  -3   39.60    7.90
   6   5   3   46.50   13.40
   6   5   3   43.60   10.60
   6   5   3   27.60    9.60
   6  -6  -3    3.10    4.60
   6  -6  -3    2.80    6.40
   6  -6  -3    9.80    8.00
   6  -6  -3   -3.50    4.60
   6  -6  -3    2.60    6.20
  -6   6   3    4.20    4.20
  -6   6   3   11.10    6.70
  -6   6   3    6.90    5.50
  -6   6   3    6.80    5.10
  -6   6   3    8.90    5.20
   5  -6  -3   -7.10    5.60
   5  -6  -3    2.90    5.40
   5  -6  -3    3.30    4.50
   5  -6  -3   -1.50    3.30
   5  -6  -3   -0.70    3.60
  -5   6   3   -1.70    3.90
  -5   6   3   -1.10    3.70
  -5   6   3    3.20    4.20
  -5   6   3    6.00    3.90
  -5   6   3   -2.80    4.10
   4  -6  -3   -1.30    2.80
   4  -6  -3    0.60    3.20
   4  -6  -3   -1.30    3.70
   4  -6  -3   -2.00    3.00
   4  -6  -3    1.40    3.40
   4  -6  -3   -1.80    5.60
  -4   6   3    0.80    3.00
  -4   6   3   -3.30    6.60
  -4   6   3    0.20    3.30
  -4   6   3    2.10    3.40
  -4   6   3    3.80    4.00
   3  -6  -3   15.00    7.30
   3  -6  -3    8.50    3.90
   3  -6  -3    9.40    3.60
   3  -6  -3    7.50    4.10
   3  -6  -3    6.70    3.60
   3  -6  -3   11.60    3.90
   3  -6  -3    8.70    1.30
  -3   6   3    3.10    3.40
  -3   6   3    7.30    4.00
  -3   6   3   11.70    3.80
  -3   6   3    7.80    3.90
  -3   6   3    7.80    4.50
   2  -6  -3   30.10    6.70
   2  -6  -3   44.40   10.40
   2  -6  -3   62.49   11.20
   2  -6  -3   46.30    6.90
   2  -6  -3   45.90    4.90
   2  -6  -3   42.50    7.50
   2  -6  -3   57.99    7.50
  -2   6   3   49.50    8.30
  -2   6   3   49.90    8.00
  -2   6   3   58.79    7.70
  -2   6   3   61.59    8.20
  -2   6   3   36.40    6.70
  -2   6   3   50.69    8.30
   1  -6  -3  432.46   36.20
   1  -6  -3  520.55   38.50
   1  -6  -3  525.45   38.50
   1  -6  -3  394.56   37.90
   1  -6  -3  421.76   38.10
   1  -6  -3  471.15   40.40
  -1   6   3  524.45   38.80
  -1   6   3  422.36   38.10
  -1   6   3  507.85   38.60
  -1   6   3  431.56   38.20
  -1   6   3  528.85   39.30
  -1   6   3  418.06   38.00
   0  -6  -3    3.10    3.50
   0  -6  -3    1.90    2.90
   0  -6  -3    4.00    3.00
   0  -6  -3    4.70    5.50
   0  -6  -3    6.10    3.20
   0  -6  -3    7.80    3.80
   0   6   3   -1.20    2.80
   0   6   3    3.30    3.90
   0   6   3    6.30    3.80
   0   6   3    1.90    2.90
   0   6   3    6.50    4.60
   0   6   3    0.60    1.90
  -1  -6  -3    6.40    3.40
  -1  -6  -3    6.30    4.10
  -1  -6  -3   -2.30    4.80
  -1  -6  -3    7.70    3.60
  -1  -6  -3    7.10    4.20
  -1  -6  -3    6.10    3.20
  -1  -6  -3    6.30    3.70
   1   6   3    6.00    6.20
   1   6   3    3.30    3.70
   1   6   3    3.00    4.10
   1   6   3    9.00    3.80
   1   6   3    6.70    4.40
   1   6   3    5.80    3.70
  -2  -6  -3 1124.29   90.09
  -2  -6  -3 1182.28   90.29
  -2  -6  -3 1245.18   90.59
  -2  -6  -3 1221.88   90.99
  -2  -6  -3 1023.00   90.29
  -2  -6  -3 1070.69   90.29
  -2  -6  -3 1022.10   89.19
   2   6   3 1254.57   91.09
   2   6   3 1313.57   90.59
   2   6   3 1058.19   90.09
   2   6   3 1049.59   90.19
   2   6   3 1332.57   89.79
   2   6   3 1054.79   89.99
  -3  -6  -3    2.50    3.90
  -3  -6  -3    1.50    3.40
  -3  -6  -3    4.20    4.60
  -3  -6  -3    2.90    3.10
  -3  -6  -3   -0.60    4.90
  -3  -6  -3    2.20    4.00
   3   6   3    0.20    4.70
   3   6   3   -4.30    4.20
   3   6   3    0.50    4.50
   3   6   3   -1.20    4.20
  -4  -6  -3  133.19   15.10
  -4  -6  -3  100.19   15.30
  -4  -6  -3  147.49   14.90
  -4  -6  -3  147.79   15.60
  -4  -6  -3  119.29   13.40
  -4  -6  -3  135.29   16.90
   4   6   3  123.39   16.10
   4   6   3  113.99   15.30
   4   6   3  132.19   15.90
   4   6   3  138.49   15.90
   4   6   3  142.19   15.70
  -5  -6  -3   55.89   11.00
  -5  -6  -3   56.89   11.60
  -5  -6  -3   32.60    9.80
  -5  -6  -3   31.60    6.70
  -5  -6  -3   42.30   10.00
  -5  -6  -3   58.19   10.40
   5   6   3   35.40    9.10
   5   6   3   52.09   11.20
   6  -7  -3    5.50    7.00
   6  -7  -3    5.90    5.30
   6  -7  -3   -3.80    6.00
   6  -7  -3    1.80    9.60
  -6   7   3    0.60    4.90
  -6   7   3   20.40    6.60
  -6   7   3    2.20    5.30
   5  -7  -3   11.10    5.90
   5  -7  -3   14.00    5.60
   5  -7  -3    0.90    6.40
   5  -7  -3    2.90    5.50
   5  -7  -3    8.70    4.70
  -5   7   3    8.20    4.60
  -5   7   3    4.60    4.80
  -5   7   3   -0.70    4.90
   4  -7  -3    5.10    4.70
   4  -7  -3    0.90    5.30
   4  -7  -3    2.40   10.80
   4  -7  -3    0.00    3.70
  -4   7   3   -5.90    4.00
  -4   7   3   -1.00    4.40
  -4   7   3    2.60    3.90
  -4   7   3   -3.00    3.70
  -4   7   3    1.90    3.50
   3  -7  -3   -0.30    3.80
   3  -7  -3    1.10    3.40
   3  -7  -3    2.50    2.80
   3  -7  -3    1.70    3.30
   3  -7  -3    4.50    3.60
   3  -7  -3    4.20    5.70
  -3   7   3   -2.10    3.40
  -3   7   3   -1.50    4.80
  -3   7   3    0.90    3.90
  -3   7   3   -1.50    3.90
  -3   7   3    1.20    4.20
   2  -7  -3   14.60    5.10
   2  -7  -3   35.50    6.60
   2  -7  -3   23.20    8.50
   2  -7  -3   18.50    3.30
   2  -7  -3   21.50    5.70
   2  -7  -3   16.30    5.60
   2  -7  -3   13.80    4.30
  -2   7   3   19.50    6.10
  -2   7   3   17.60    6.50
  -2   7   3   15.10    4.80
  -2   7   3   18.50    5.50
  -2   7   3   19.70    5.90
  -2   7   3   29.00    6.10
   1  -7  -3   14.30    4.90
   1  -7  -3    8.50    2.60
   1  -7  -3    9.20    4.50
   1  -7  -3   10.00    4.00
   1  -7  -3    3.80    3.80
   1  -7  -3   10.80    4.60
   1  -7  -3   12.30    7.30
  -1   7   3    8.20    5.00
  -1   7   3    3.40    4.30
  -1   7   3    9.00    4.80
  -1   7   3    0.50    3.90
  -1   7   3    3.00    3.60
  -1   7   3    5.60    3.90
   0  -7  -3   19.70    8.70
   0  -7  -3   38.80    9.50
   0  -7  -3   20.50    5.80
   0  -7  -3   30.20    6.80
   0  -7  -3   24.00    5.60
   0  -7  -3   18.60    5.60
   0   7   3   25.90    6.20
   0   7   3   23.90    6.80
   0   7   3   18.30    4.70
   0   7   3   21.70    6.20
   0   7   3   17.30    5.30
   0   7   3   19.30    6.00
  -1  -7  -3    0.50    3.00
  -1  -7  -3    6.50    4.30
  -1  -7  -3   -3.10    4.80
  -1  -7  -3    5.20    4.10
  -1  -7  -3   -0.50    4.40
  -1  -7  -3   -0.10    6.20
   1   7   3   -3.00    4.20
   1   7   3   -4.50    4.60
   1   7   3   -2.30    3.50
   1   7   3   -5.30    4.20
   1   7   3   -1.70    3.70
   1   7   3    2.80    3.20
  -2  -7  -3  281.27   27.50
  -2  -7  -3  330.77   29.70
  -2  -7  -3  275.27   28.90
  -2  -7  -3  369.86   29.00
  -2  -7  -3  337.77   28.90
  -2  -7  -3  287.67   29.20
  -2  -7  -3  365.36   35.10
   2   7   3  286.77   28.40
   2   7   3  343.17   28.10
   2   7   3  292.57   28.70
   2   7   3  287.27   28.50
   2   7   3  368.16   30.00
   2   7   3  350.06   29.20
  -3  -7  -3    5.70    4.90
  -3  -7  -3   11.80    6.30
  -3  -7  -3    2.40    4.30
  -3  -7  -3   13.70    9.70
  -3  -7  -3    3.80    4.00
  -3  -7  -3   20.10    7.70
  -3  -7  -3    7.60    5.60
   3   7   3    0.30    6.90
   3   7   3   11.30    8.00
   3   7   3    5.20    6.20
   3   7   3    6.80    6.30
   3   7   3    0.40    5.50
  -4  -7  -3   42.80    9.50
  -4  -7  -3   18.50    6.80
  -4  -7  -3   36.60    9.10
  -4  -7  -3   52.39   11.20
  -4  -7  -3   22.80    8.90
  -4  -7  -3   28.40    7.60
   4   7   3   28.50    8.90
   4   7   3   29.30   11.30
   4   7   3   45.10   10.10
  -5  -7  -3  227.98   24.90
  -5  -7  -3  228.28   23.10
  -5  -7  -3  242.68   28.50
  -5  -7  -3  250.67   24.80
   5   7   3  309.07   27.30
   6  -8  -3   -2.20    7.20
   6  -8  -3    5.10    9.70
   6  -8  -3    2.00    7.00
  -6   8   3    5.50    6.10
  -6   8   3   20.70    8.10
  -6   8   3   -7.90    7.20
  -6   8   3   -4.70    5.30
  -6   8   3  -12.40    6.50
   5  -8  -3   31.20   12.80
   5  -8  -3   21.20    7.20
   5  -8  -3   32.10    9.20
  -5   8   3   25.10    7.00
  -5   8   3   27.10    7.40
  -5   8   3   24.50    7.20
  -5   8   3   29.20    7.90
  -5   8   3   30.20    7.50
   4  -8  -3   31.60    8.30
   4  -8  -3   30.50    7.40
   4  -8  -3   48.60    8.30
   4  -8  -3   40.40    7.70
   4  -8  -3   61.49   13.30
   4  -8  -3   25.70   10.70
  -4   8   3   30.80    8.30
  -4   8   3   33.90    8.60
  -4   8   3   52.89    9.30
  -4   8   3   43.00    7.70
  -4   8   3   48.50    9.80
   3  -8  -3   -1.90    3.40
   3  -8  -3   10.70    7.80
   3  -8  -3    5.40    7.60
   3  -8  -3    9.00    9.30
   3  -8  -3    1.40    3.80
  -3   8   3   13.30    5.10
  -3   8   3    5.20    5.30
  -3   8   3    4.60    4.60
  -3   8   3    2.20    4.00
  -3   8   3   -2.50    4.30
   2  -8  -3   76.99   11.70
   2  -8  -3  113.19   13.10
   2  -8  -3   97.89    9.30
   2  -8  -3  104.59   12.70
   2  -8  -3  110.79   13.30
   2  -8  -3   98.49   15.20
  -2   8   3  102.49   14.00
  -2   8   3  140.39   19.00
  -2   8   3   99.59   12.30
  -2   8   3   88.09   12.30
  -2   8   3   94.69   12.90
  -2   8   3   96.79   13.00
   1  -8  -3   48.40    9.00
   1  -8  -3   78.49   11.00
   1  -8  -3   69.89   14.60
   1  -8  -3   70.39    9.70
   1  -8  -3   73.09   11.60
   1  -8  -3   62.09    7.50
   1  -8  -3   67.79   10.20
  -1   8   3   62.59   11.10
  -1   8   3   87.09   11.20
  -1   8   3   47.20   10.10
  -1   8   3   79.59   12.00
  -1   8   3   58.39   10.20
  -1   8   3   71.29    9.50
   0  -8  -3  106.39   13.90
   0  -8  -3  104.89   12.20
   0  -8  -3   90.39   12.80
   0  -8  -3   71.69   10.90
   0  -8  -3  108.09   12.50
   0  -8  -3  101.69   13.20
   0   8   3   88.79   12.40
   0   8   3   71.29   11.50
   0   8   3   85.19   13.40
   0   8   3   94.89   11.60
   0   8   3  127.69   14.20
  -1  -8  -3  368.56   33.40
  -1  -8  -3  337.17   32.60
  -1  -8  -3  299.97   31.10
  -1  -8  -3  418.96   38.70
  -1  -8  -3  437.66   32.60
   1   8   3  325.17   32.60
   1   8   3  329.87   32.30
   1   8   3  397.06   33.30
   1   8   3  431.96   33.20
   1   8   3  337.47   31.40
   1   8   3  344.77   32.30
  -2  -8  -3   19.00    9.90
  -2  -8  -3   19.50    8.60
  -2  -8  -3   28.90    7.10
  -2  -8  -3   10.90    5.70
  -2  -8  -3   40.70    8.40
  -2  -8  -3   25.80    7.50
  -2  -8  -3   13.50    5.80
   2   8   3   29.70   11.90
   2   8   3   12.60    9.80
   2   8   3   31.10    8.90
   2   8   3   30.30    8.10
   2   8   3   25.50    7.70
  -3  -8  -3   19.30    7.80
  -3  -8  -3   12.00    5.70
  -3  -8  -3   14.80    7.20
  -3  -8  -3   13.00    9.00
  -3  -8  -3   21.30   10.40
  -3  -8  -3   32.00   15.60
  -3  -8  -3   15.30    6.20
   3   8   3   17.80    7.70
   3   8   3   30.50   12.10
   3   8   3   13.50    7.60
  -4  -8  -3   33.70    8.70
  -4  -8  -3   35.60   12.90
  -4  -8  -3   41.90   13.20
  -4  -8  -3   45.80   13.20
  -4  -8  -3   19.90   11.00
  -4  -8  -3   28.00    9.20
   4   8   3   41.60   10.10
   4   8   3   30.00    9.90
   5  -9  -3   -5.90    6.10
   5  -9  -3   -9.40    8.50
   5  -9  -3  -17.20    6.10
  -5   9   3   -9.40    7.40
  -5   9   3   -0.90    6.70
  -5   9   3   -6.90    6.40
  -5   9   3  -12.40    6.70
  -5   9   3   -3.90    5.50
   4  -9  -3   17.60    7.20
   4  -9  -3   36.00    7.90
   4  -9  -3   43.40    8.00
   4  -9  -3   21.20   10.50
  -4   9   3   43.10    9.20
  -4   9   3   26.50    7.30
  -4   9   3   34.20    8.10
  -4   9   3   42.40    9.70
  -4   9   3   38.90    8.80
   3  -9  -3   21.50    8.40
   3  -9  -3   14.40    2.70
   3  -9  -3   10.50    7.50
   3  -9  -3   28.80    7.30
   3  -9  -3   18.40    6.50
   3  -9  -3   18.30   10.20
   3  -9  -3   19.20    5.50
  -3   9   3   15.30    6.10
  -3   9   3   26.60    8.30
  -3   9   3   22.40    7.20
  -3   9   3    9.40    6.40
  -3   9   3   14.70    8.50
  -3   9   3   17.90    6.30
   2  -9  -3   57.59    9.90
   2  -9  -3   56.69   14.60
   2  -9  -3   49.40   10.10
   2  -9  -3   71.19   11.20
   2  -9  -3   73.79   15.60
   2  -9  -3   59.19    6.70
   2  -9  -3   57.39   12.00
  -2   9   3   41.80    9.00
  -2   9   3   36.80    8.40
  -2   9   3   49.10   10.70
  -2   9   3   45.60    9.00
  -2   9   3   47.20    9.70
  -2   9   3   41.70    8.90
   1  -9  -3   32.50    5.60
   1  -9  -3   32.80   10.20
   1  -9  -3   29.20    7.50
   1  -9  -3   41.00    8.60
   1  -9  -3   45.80    9.80
   1  -9  -3   44.50   10.10
   1  -9  -3   33.50    8.80
  -1   9   3   18.90    6.90
  -1   9   3   37.70    9.90
  -1   9   3   31.60    7.90
  -1   9   3   34.80    9.40
  -1   9   3   38.60    8.50
  -1   9   3   31.40    8.40
   0  -9  -3   72.19    9.40
   0  -9  -3   81.49   15.50
   0  -9  -3  126.69   14.90
   0  -9  -3   91.29   12.00
   0  -9  -3   94.59   12.90
   0  -9  -3   70.99   12.00
   0  -9  -3   53.39   10.00
   0   9   3  108.99   13.60
   0   9   3   76.69   11.40
   0   9   3   75.19   13.20
   0   9   3   76.59   14.50
   0   9   3   68.59   12.90
   0   9   3   56.89   12.10
  -1  -9  -3  786.72   60.59
  -1  -9  -3  671.93   60.69
  -1  -9  -3  766.62   61.59
  -1  -9  -3  598.84   59.29
  -1  -9  -3  901.61   67.29
  -1  -9  -3  693.43   61.19
   1   9   3  725.43   59.89
   1   9   3  861.91   60.99
   1   9   3  838.62   61.89
   1   9   3  623.04   59.79
   1   9   3  663.13   60.39
  -2  -9  -3   -2.70    5.10
  -2  -9  -3   -4.80    8.50
  -2  -9  -3    1.40    5.10
  -2  -9  -3   -5.40    7.50
  -2  -9  -3    1.90    6.20
   2   9   3    9.00    8.10
   2   9   3   15.10    7.40
   2   9   3   -2.00    7.10
   2   9   3   14.40    7.80
  -3  -9  -3   17.60    7.70
  -3  -9  -3   13.10    7.20
  -3  -9  -3   56.59   12.90
  -3  -9  -3   40.50   12.50
  -3  -9  -3   12.20    6.90
  -3  -9  -3    9.70   11.40
  -3  -9  -3   19.50    7.20
   3   9   3    2.70   10.00
   3   9   3   21.50    9.20
   4 -10  -3  -16.10    8.50
   4 -10  -3    5.40    7.40
   4 -10  -3    6.60    7.00
  -4  10   3    5.10    8.10
  -4  10   3   12.00    8.70
  -4  10   3    5.00    6.10
   3 -10  -3    1.00    6.00
   3 -10  -3   -1.20    7.20
   3 -10  -3    0.10    2.40
   3 -10  -3   -1.70    2.10
   3 -10  -3   -7.90    6.30
  -3  10   3   -0.60    4.60
  -3  10   3   11.90    8.00
  -3  10   3    3.90    7.60
  -3  10   3    2.90    8.50
  -3  10   3   -1.30    6.50
   2 -10  -3   15.80    3.80
   2 -10  -3   14.80    9.80
   2 -10  -3   16.80    7.60
   2 -10  -3   19.30    9.00
   2 -10  -3   17.80    8.10
  -2  10   3   -8.70    8.30
  -2  10   3   11.20    8.20
  -2  10   3   19.10    6.80
  -2  10   3   16.80    7.90
  -2  10   3    6.80    7.00
   1 -10  -3   18.40    7.50
   1 -10  -3    7.30    6.00
   1 -10  -3   18.50    4.70
   1 -10  -3   15.50    7.60
   1 -10  -3   25.80   10.30
  -1  10   3   19.30    7.00
  -1  10   3   14.20    8.50
  -1  10   3   17.30    8.20
  -1  10   3   16.90    8.80
  -1  10   3   16.10    8.40
   0 -10  -3  198.98   21.50
   0 -10  -3  175.38   17.70
   0 -10  -3  203.48   23.20
   0 -10  -3  187.58   22.30
   0 -10  -3  211.18   22.50
   0  10   3  182.48   20.20
   0  10   3  210.98   22.70
   0  10   3  222.48   34.40
   0  10   3  182.68   22.10
   0  10   3  119.39   23.90
   0  10   3  198.58   21.80
  -1 -10  -3    4.70    6.30
  -1 -10  -3   -5.70    9.00
  -1 -10  -3    8.40    7.80
  -1 -10  -3    3.70    9.90
  -1 -10  -3    6.00   10.30
   1  10   3   28.20   10.70
   1  10   3   -2.90    8.00
  -2 -10  -3    7.90    8.10
  -2 -10  -3    4.30    7.10
  -2 -10  -3    3.40   12.20
  -2 -10  -3   15.50   10.10
  -2 -10  -3   28.30   13.40
   2  10   3   13.80   10.00
   2  10   3   34.20   10.40
   3 -11  -3    0.50    8.70
   3 -11  -3   20.70    4.40
   3 -11  -3   19.70    3.60
   3 -11  -3   13.80   11.30
   3 -11  -3   12.00    8.50
  -3  11   3   19.70   12.10
  -3  11   3   33.70   16.40
  -3  11   3   18.10   11.80
  -3  11   3   19.90    9.00
  -3  11   3    1.60    8.30
   2 -11  -3    4.10    9.70
   2 -11  -3    2.70    4.40
   2 -11  -3   -3.10    7.60
   2 -11  -3   -2.90    7.20
  -2  11   3  -20.10    8.90
  -2  11   3   10.50   11.70
  -2  11   3   -2.70    9.10
  -2  11   3  -12.20    7.20
  -2  11   3   -8.50    7.70
   1 -11  -3   -1.20    6.90
   1 -11  -3   -1.00    4.50
   1 -11  -3    1.70   12.80
   1 -11  -3   10.10    9.50
   1 -11  -3    3.10    7.30
  -1  11   3   11.50   10.30
  -1  11   3   -3.20    5.60
  -1  11   3   -3.70    7.90
  -1  11   3  -22.40    9.70
  -1  11   3   14.10    8.80
   0 -11  -3   36.90    6.90
   0 -11  -3   38.20   12.20
   0 -11  -3   19.60    8.70
   0 -11  -3   10.30    8.50
   0 -11  -3   46.20   22.30
   0  11   3   60.49   14.70
   0  11   3   13.40    8.90
   0  11   3   12.50   11.00
   0  11   3   33.10   11.60
  -1 -11  -3   -3.70    7.90
  -1 -11  -3   -2.50    8.40
  -1 -11  -3   -9.40    9.60
  -1 -11  -3    7.90   13.20
  -1 -11  -3   -8.30   14.30
   1  11   3  -11.30    9.90
   1  11   3    2.60   11.90
   2  13  -4   56.29   16.30
   2  13  -4   35.90   10.70
   2  13  -4   53.29   11.20
   2  13  -4   72.99   12.10
  -2 -13   4   50.59   11.20
  -2 -13   4   80.09   15.80
   1  13  -4   11.70   10.20
   1  13  -4   -8.00    6.10
   1  13  -4   -1.60    7.80
   1  13  -4   19.50    8.40
  -1 -13   4    3.30    6.30
  -1 -13   4    4.50    4.90
  -1 -13   4    6.30    6.70
  -1 -13   4    9.60   11.20
  -1 -13   4    3.60   11.40
   0  13  -4   17.40    6.20
   0  13  -4   22.70    8.50
   0  13  -4   15.70    9.20
   0 -13   4   -6.60   10.80
   0 -13   4    5.70   11.30
   0 -13   4   13.80    4.40
   0 -13   4   -2.30    6.90
   0 -13   4   20.30    8.10
  -1  13  -4   31.50    9.80
  -1  13  -4   42.80   11.20
  -1  13  -4   50.49   13.20
   1 -13   4   51.89   14.10
   1 -13   4   23.40   11.40
   1 -13   4   36.80    9.60
   1 -13   4   57.09   10.80
   1 -13   4   54.89    7.90
  -2  13  -4    3.00    9.40
  -2  13  -4  -22.30    8.00
  -2  13  -4   -1.90    8.40
  -2  13  -4   -3.60   10.30
  -2  13  -4    7.70    8.90
   2 -13   4  -15.10    7.40
   2 -13   4    3.10    3.60
   2 -13   4   -0.90    8.40
   2 -13   4  -22.50   11.60
  -3  13  -4    2.50   10.10
  -3  13  -4   24.30   12.50
  -3  13  -4    4.20    8.30
  -3  13  -4    0.30    9.50
   3 -13   4   -5.40    8.50
   3 -13   4   10.10    9.30
   3 -13   4   -0.70    3.20
   3 -13   4   -1.80    8.00
   3  12  -4  -17.70    8.50
   3  12  -4   -4.90    8.60
   3  12  -4  -10.20    6.40
   3  12  -4   -1.00    5.90
  -3 -12   4   -3.70    6.10
  -3 -12   4  -23.90    9.40
  -3 -12   4   -1.90    5.80
  -3 -12   4   15.60    9.50
   2  12  -4    4.90    9.20
   2  12  -4   31.10    9.30
   2  12  -4   13.40    7.20
   2  12  -4   10.90    6.00
  -2 -12   4    9.50    5.40
  -2 -12   4   -8.40   12.50
  -2 -12   4    1.70    9.10
  -2 -12   4   24.10    7.40
  -2 -12   4   12.10    7.00
   1  12  -4    3.00    5.80
   1  12  -4    0.90    7.60
   1  12  -4    5.90    7.10
   1  12  -4   -7.40    4.70
   1  12  -4   10.30    6.00
  -1 -12   4    1.00    4.20
  -1 -12   4   19.00    8.40
  -1 -12   4   -0.90    8.50
  -1 -12   4   -4.80    5.50
  -1 -12   4    5.90    5.00
   0  12  -4    8.00    7.60
   0  12  -4   -6.50    6.90
   0  12  -4   -9.30    5.40
   0  12  -4   12.50    6.40
   0  12  -4   -3.90    4.10
   0 -12   4    5.60    8.40
   0 -12   4   -9.10    7.20
   0 -12   4   12.60    6.20
   0 -12   4    3.40    3.90
   0 -12   4   -7.50    4.80
  -1  12  -4  101.49   17.80
  -1  12  -4   52.59   10.30
  -1  12  -4   59.99   11.40
   1 -12   4   86.49   12.60
   1 -12   4   62.39   12.20
   1 -12   4   60.09   12.60
   1 -12   4   67.89   13.80
   1 -12   4   80.29    8.40
   1 -12   4  101.09   13.00
   1 -12   4   53.69   10.40
  -2  12  -4    0.20    7.00
  -2  12  -4    8.70    8.20
  -2  12  -4   -0.60    6.70
  -2  12  -4   12.50    7.90
   2 -12   4    0.50    6.30
   2 -12   4   15.20   13.60
   2 -12   4   -5.20    5.80
   2 -12   4   13.60    7.90
   2 -12   4   16.60    8.60
   2 -12   4    6.00    3.40
  -3  12  -4   14.20    8.40
  -3  12  -4    8.50    7.20
  -3  12  -4   13.50    9.50
  -3  12  -4    4.20    7.80
   3 -12   4   23.90    8.00
   3 -12   4    7.60    3.10
   3 -12   4   26.70    9.70
   3 -12   4   10.10    7.00
   3 -12   4    8.50    6.60
  -4  12  -4  341.47   34.30
  -4  12  -4  384.56   35.70
   4 -12   4  349.27   33.50
   4 -12   4  367.76   36.90
   4  11  -4   -5.30    6.20
   4  11  -4   -3.10    6.10
   4  11  -4   -7.10    8.70
   4  11  -4    3.10   11.70
  -4 -11   4    2.50    5.40
  -4 -11   4   30.80    8.90
  -4 -11   4    2.80    5.20
  -4 -11   4   -2.60    5.60
   3  11  -4    6.90    7.50
   3  11  -4   14.90    6.90
   3  11  -4   13.40    6.00
   3  11  -4   16.10    6.10
  -3 -11   4   17.20    5.70
  -3 -11   4    4.20    7.30
  -3 -11   4   10.90    4.50
  -3 -11   4   17.90    6.00
  -3 -11   4    5.80    8.50
   2  11  -4   -5.80    4.70
   2  11  -4   -7.10    4.40
   2  11  -4    4.20    7.00
   2  11  -4   -3.30    6.20
   2  11  -4    8.00    6.20
   2  11  -4   -7.70    4.60
  -2 -11   4    1.10    3.70
  -2 -11   4   -2.80    4.50
  -2 -11   4   -5.90    4.80
  -2 -11   4   -2.00    6.10
  -2 -11   4    8.20    5.10
  -2 -11   4    1.80    6.70
   1  11  -4   73.69   14.50
   1  11  -4   85.79   12.30
   1  11  -4   98.69   13.20
   1  11  -4   76.99   10.80
   1  11  -4   87.69   11.00
   1  11  -4  111.19   13.00
  -1 -11   4   83.49    9.80
  -1 -11   4   64.89   12.80
  -1 -11   4   70.69   11.80
  -1 -11   4   84.49   17.40
  -1 -11   4  107.19   11.80
   0  11  -4   22.20    6.80
   0  11  -4   18.70    5.50
   0  11  -4   30.60    7.00
   0  11  -4    9.20    5.90
   0  11  -4   12.20    5.70
   0  11  -4   14.70    4.60
   0 -11   4    8.70    4.70
   0 -11   4    9.50    8.60
   0 -11   4   16.40    5.80
   0 -11   4   19.70    4.10
   0 -11   4    5.90    5.20
   0 -11   4   21.10    6.90
  -1  11  -4   17.30    6.00
  -1  11  -4   32.50    8.30
  -1  11  -4   16.40    5.90
  -1  11  -4   17.30    7.30
  -1  11  -4   20.70    6.90
   1 -11   4   18.20    5.60
   1 -11   4   16.70    3.80
   1 -11   4   18.70    7.70
   1 -11   4   -3.00    6.70
   1 -11   4   18.00    7.70
   1 -11   4   13.40    6.70
   1 -11   4   15.60    5.90
  -2  11  -4   16.50    7.00
  -2  11  -4   26.50    8.10
  -2  11  -4    9.40    6.30
  -2  11  -4   16.80    6.80
   2 -11   4   10.50    5.20
   2 -11   4    8.60    4.80
   2 -11   4   21.70    8.10
   2 -11   4   -0.50    7.00
   2 -11   4    4.10    6.20
   2 -11   4    6.80    2.90
   2 -11   4   10.70    6.20
  -3  11  -4  189.08   19.20
  -3  11  -4  188.08   22.00
  -3  11  -4  183.08   19.90
  -3  11  -4  170.38   18.30
   3 -11   4  160.88   20.60
   3 -11   4  163.88   18.00
   3 -11   4  194.28   20.40
   3 -11   4  154.28   18.10
   3 -11   4  129.89   18.20
   3 -11   4  192.38   19.10
   3 -11   4  151.48   14.20
  -4  11  -4   54.59   10.70
  -4  11  -4   51.19    9.30
  -4  11  -4   36.40    9.70
   4 -11   4   33.40   10.80
   4 -11   4   33.40   11.10
   4 -11   4   39.20    8.60
   4 -11   4   55.99   10.20
  -5  11  -4    3.30    9.10
  -5  11  -4   18.70    9.20
  -5  11  -4   -1.60    7.00
   5 -11   4    9.00    8.60
   5 -11   4    9.80    7.40
   5 -11   4   14.30    9.00
   5 -11   4    7.90    9.00
   5  10  -4   -6.40    5.20
   5  10  -4   -3.40    7.00
   5  10  -4  -12.90    8.40
   5  10  -4   -6.90    6.30
  -5 -10   4   -3.30    5.20
  -5 -10   4   -4.30    4.70
  -5 -10   4  -15.30    7.60
  -5 -10   4   -1.00    5.00
  -5 -10   4    0.50    5.40
  -5 -10   4    4.70    7.70
   4  10  -4   -6.70    5.40
   4  10  -4   -2.80    4.50
   4  10  -4    5.20    8.30
  -4 -10   4   -2.70    5.90
  -4 -10   4   -4.20    3.80
  -4 -10   4  -11.40    6.10
  -4 -10   4    0.10    4.10
  -4 -10   4    2.30    4.50
  -4 -10   4   15.00    6.90
   3  10  -4   32.60    7.70
   3  10  -4   27.80    6.50
   3  10  -4   34.60    8.30
   3  10  -4   27.50    6.00
   3  10  -4   30.40    9.20
  -3 -10   4   39.40    8.60
  -3 -10   4   24.30    5.90
  -3 -10   4   33.00    6.30
  -3 -10   4   24.30    5.90
  -3 -10   4   17.20    6.90
  -3 -10   4   26.90    6.20
   2  10  -4    0.30    5.10
   2  10  -4    7.50    4.90
   2  10  -4    6.50    5.30
   2  10  -4    1.80    4.30
   2  10  -4    0.80    3.40
  -2 -10   4    3.10    3.80
  -2 -10   4    3.00    5.30
  -2 -10   4   -3.70    2.90
  -2 -10   4    2.90    3.60
  -2 -10   4   -1.90    3.80
  -2 -10   4   -2.00    4.90
   1  10  -4   15.30    4.90
   1  10  -4   28.10    6.50
   1  10  -4   11.20    5.10
   1  10  -4    4.40    4.30
   1  10  -4    8.90    5.60
   1  10  -4   14.90    4.10
  -1 -10   4   17.10    4.20
  -1 -10   4   16.10    5.80
  -1 -10   4   11.40    4.60
  -1 -10   4   14.40    5.90
  -1 -10   4    7.90    4.60
  -1 -10   4   16.10    5.80
   0  10  -4   30.60    6.80
   0  10  -4   37.20    8.40
   0  10  -4   35.80    6.70
   0  10  -4   28.80    5.30
   0  10  -4   24.80    6.10
   0  10  -4   16.40    4.90
   0 -10   4   42.80    7.50
   0 -10   4   20.30    6.50
   0 -10   4   23.00    6.40
   0 -10   4   36.80    5.20
   0 -10   4   22.00    7.90
   0 -10   4   24.30    6.00
  -1  10  -4   -3.70    4.10
  -1  10  -4    5.20    4.40
  -1  10  -4   -2.10    3.60
  -1  10  -4   -0.90    4.80
   1 -10   4   -3.70    5.60
   1 -10   4    0.60    2.20
   1 -10   4   -7.80    3.80
   1 -10   4    1.70    5.70
   1 -10   4    3.90    4.40
   1 -10   4    4.90    4.00
   1 -10   4    1.40    4.00
  -2  10  -4  107.39   13.10
  -2  10  -4  125.49   13.60
  -2  10  -4  123.59   13.40
   2 -10   4   95.79   10.00
   2 -10   4   96.79   13.20
   2 -10   4   90.29   12.80
   2 -10   4  103.29   12.10
   2 -10   4  113.89   13.20
   2 -10   4   97.59   13.80
   2 -10   4  123.39   14.40
  -3  10  -4  497.95   41.20
  -3  10  -4  487.05   41.10
  -3  10  -4  513.55   41.20
  -3  10  -4  526.85   42.20
   3 -10   4  526.45   44.10
   3 -10   4  437.26   37.80
   3 -10   4  446.96   40.60
   3 -10   4  516.05   41.30
   3 -10   4  478.25   41.80
   3 -10   4  476.15   41.00
  -4  10  -4   23.50    8.20
  -4  10  -4   83.09   11.00
   4 -10   4   47.00    8.90
   4 -10   4   40.00    8.20
   4 -10   4   53.49   14.60
   4 -10   4   55.89   13.00
  -5  10  -4   -3.50    7.70
  -5  10  -4   -5.40    5.80
  -5  10  -4   -7.00    5.30
  -5  10  -4  -12.00    5.70
   5 -10   4    0.00    7.70
   5 -10   4    4.70    5.40
   5 -10   4    1.40    6.30
   5 -10   4   -3.60    6.60
   5   9  -4   -1.10    6.50
   5   9  -4    7.60    5.70
   5   9  -4    4.10    6.50
   5   9  -4    6.80    4.50
  -5  -9   4    5.40    4.50
  -5  -9   4   10.00    6.40
  -5  -9   4   -2.50    4.00
  -5  -9   4    0.70    5.90
   4   9  -4   -3.40    5.10
   4   9  -4   -0.70    3.90
   4   9  -4    4.20    5.40
   4   9  -4    2.50    5.10
   4   9  -4   -2.00    3.50
   4   9  -4   -0.80    5.40
  -4  -9   4    3.00    3.70
  -4  -9   4    3.70    5.20
  -4  -9   4   12.90    5.10
  -4  -9   4   -2.40    3.40
  -4  -9   4   -1.40    9.10
  -4  -9   4    3.90    3.50
   3   9  -4    4.20    3.10
   3   9  -4   -2.10    3.60
   3   9  -4    5.10    6.70
   3   9  -4   -5.40    6.60
   3   9  -4    4.10    3.80
  -3  -9   4    3.70    3.40
  -3  -9   4    1.30    3.20
  -3  -9   4   -4.50    4.10
  -3  -9   4    3.20    3.60
  -3  -9   4    4.60    4.50
  -3  -9   4   -2.90    4.50
   2   9  -4   27.40    5.80
   2   9  -4   15.10    4.90
   2   9  -4   21.60    5.60
   2   9  -4   17.60    4.70
   2   9  -4   17.10    3.90
   2   9  -4   15.80    4.50
  -2  -9   4   15.90    5.10
  -2  -9   4   11.30    4.60
  -2  -9   4   13.80    5.10
  -2  -9   4   20.70    5.30
   1   9  -4   -0.40    3.20
   1   9  -4    3.40    2.90
   1   9  -4   -0.60    3.40
   1   9  -4    1.10    3.20
   1   9  -4    1.20    2.40
   1   9  -4    4.20    4.10
  -1  -9   4    4.10    3.20
  -1  -9   4   -2.20    3.40
  -1  -9   4   -0.10    2.60
  -1  -9   4    8.10    4.20
  -1  -9   4    3.60    3.00
  -1  -9   4    4.20    3.90
   0   9  -4  166.78   16.00
   0   9  -4  203.98   17.70
   0   9  -4  203.28   17.80
   0   9  -4  190.48   16.70
   0   9  -4  207.88   18.40
   0   9  -4  166.48   17.30
   0  -9   4  162.28   17.10
   0  -9   4  195.78   17.50
   0  -9   4  202.18   17.60
   0  -9   4  160.98   17.30
   0  -9   4  176.58   15.80
   0  -9   4  168.58   17.70
  -1   9  -4    7.00    3.40
  -1   9  -4    5.40    4.80
  -1   9  -4    3.70    4.30
  -1   9  -4   -3.60    3.40
   1  -9   4    5.20    4.10
   1  -9   4    9.90    4.10
   1  -9   4    8.80    3.90
   1  -9   4    5.10    2.40
   1  -9   4    2.50    5.20
   1  -9   4    5.90    3.50
   1  -9   4    7.20    4.00
  -2   9  -4    3.40    3.70
  -2   9  -4    5.30    4.50
  -2   9  -4   10.00    4.30
   2  -9   4    0.00    2.00
   2  -9   4   -2.30    3.50
   2  -9   4    1.40    3.70
   2  -9   4    1.00    3.10
   2  -9   4   -3.90    4.20
   2  -9   4    0.90    5.40
   2  -9   4    1.80    4.40
  -3   9  -4  184.88   17.30
  -3   9  -4  172.88   16.70
  -3   9  -4  172.18   20.20
   3  -9   4  143.99   13.70
   3  -9   4  159.88   16.90
   3  -9   4  173.58   16.90
   3  -9   4  159.28   16.50
   3  -9   4  151.28   17.10
   3  -9   4  167.08   16.20
   3  -9   4  183.18   19.20
  -4   9  -4   69.59    9.70
  -4   9  -4   70.09   10.90
   4  -9   4   63.69   10.20
   4  -9   4   73.09    9.30
   4  -9   4   48.80   11.70
   4  -9   4   47.80    9.20
   4  -9   4   49.00    8.80
  -5   9  -4    4.10    5.60
  -5   9  -4    4.30    5.50
  -5   9  -4    1.00    4.80
  -5   9  -4    8.80    6.30
  -5   9  -4   -9.40    4.70
   5  -9   4    0.90    5.90
   5  -9   4    4.30    4.90
  -6   9  -4   61.99   10.60
  -6   9  -4   50.99   10.60
  -6   9  -4   42.20    9.80
  -6   9  -4   66.69   10.70
  -6   9  -4   49.99    9.50
   6  -9   4   68.59   12.00
   6   8  -4   36.80   10.20
  -6  -8   4   24.00    7.90
  -6  -8   4   33.00    8.30
  -6  -8   4   28.30   10.90
  -6  -8   4   31.10    6.90
  -6  -8   4   19.20    5.20
   5   8  -4    9.80    5.10
   5   8  -4    3.60    4.80
   5   8  -4    6.10    6.10
  -5  -8   4   14.00    3.90
  -5  -8   4    4.70    4.70
  -5  -8   4   22.00    5.80
  -5  -8   4    9.10    3.90
  -5  -8   4    6.50    4.10
   4   8  -4    9.10    4.40
   4   8  -4    4.50    3.30
   4   8  -4    7.60    8.30
   4   8  -4    7.80    4.50
  -4  -8   4    7.50    3.60
  -4  -8   4   10.20    4.50
  -4  -8   4    4.30    3.10
  -4  -8   4   13.30    4.70
  -4  -8   4    4.20    3.20
  -4  -8   4   -5.20    3.90
   3   8  -4    2.10    3.60
   3   8  -4    3.70    3.90
   3   8  -4    7.30    3.60
   3   8  -4    8.70    2.90
   3   8  -4    4.10    3.80
   3   8  -4    5.40    3.50
  -3  -8   4   -1.20    7.20
  -3  -8   4    5.20    4.00
  -3  -8   4    5.30    4.00
  -3  -8   4    6.60    3.30
  -3  -8   4    2.80    3.00
   2   8  -4  262.07   22.00
   2   8  -4  261.67   21.70
   2   8  -4  242.38   21.10
   2   8  -4  233.38   21.30
   2   8  -4  237.08   21.20
   2   8  -4  218.98   20.10
  -2  -8   4  246.58   20.70
  -2  -8   4  219.38   21.60
  -2  -8   4  229.38   21.70
  -2  -8   4  227.88   21.40
  -2  -8   4  285.57   21.50
  -2  -8   4  266.57   21.30
   1   8  -4  120.59   12.80
   1   8  -4  125.69   11.90
   1   8  -4  129.49   13.00
   1   8  -4  154.88   13.70
   1   8  -4  120.59   12.90
   1   8  -4  130.49   12.60
  -1  -8   4  132.99   13.30
  -1  -8   4  114.89   13.20
  -1  -8   4  134.49   12.90
  -1  -8   4  132.99   12.00
  -1  -8   4  126.49   13.10
  -1  -8   4  138.89   12.90
   0   8  -4   12.10    4.50
   0   8  -4   11.50    3.70
   0   8  -4   11.50    4.30
   0   8  -4    5.10    3.70
   0   8  -4    5.40    2.80
   0   8  -4    9.50    3.40
   0  -8   4   13.80    4.00
   0  -8   4    5.80    3.70
   0  -8   4    3.50    2.60
   0  -8   4    9.30    2.60
   0  -8   4    7.10    3.40
   0  -8   4    7.20    3.20
  -1   8  -4   57.39    7.10
  -1   8  -4   45.90    7.10
  -1   8  -4   43.00    7.40
  -1   8  -4   30.30    5.80
   1  -8   4   47.80    7.90
   1  -8   4   38.30    6.40
   1  -8   4   47.70    7.70
   1  -8   4   35.70    6.40
   1  -8   4   44.10    5.20
   1  -8   4   55.09    6.70
  -2   8  -4   13.50    3.90
  -2   8  -4   15.10    4.20
  -2   8  -4   19.80    5.30
  -2   8  -4   11.90    3.90
   2  -8   4   10.40    4.40
   2  -8   4   10.20    2.60
   2  -8   4   12.10    4.20
   2  -8   4   18.50    4.90
   2  -8   4   14.50    6.00
   2  -8   4    9.50    3.60
   2  -8   4    5.30    3.50
  -3   8  -4  177.48   16.10
  -3   8  -4  171.08   16.20
  -3   8  -4  151.58   15.90
   3  -8   4  132.69   15.50
   3  -8   4  153.78   18.80
   3  -8   4  133.79   15.80
   3  -8   4  158.58   15.90
   3  -8   4  155.88   13.70
   3  -8   4  166.78   16.00
   3  -8   4  183.68   18.90
  -4   8  -4    4.10    4.50
  -4   8  -4    6.50    4.30
  -4   8  -4   11.20    4.70
   4  -8   4    2.10    4.10
   4  -8   4    3.90    5.70
   4  -8   4   13.90    4.80
   4  -8   4   22.40    5.50
   4  -8   4    6.60    5.50
   4  -8   4    5.80    3.90
  -5   8  -4   -0.30    4.20
  -5   8  -4    6.70    5.00
  -5   8  -4   -1.30    4.40
  -5   8  -4    0.10    4.60
  -5   8  -4    4.00    5.70
   5  -8   4    4.80    5.10
   5  -8   4    6.00    4.10
   5  -8   4    1.00    7.60
   5  -8   4    8.50    5.30
  -6   8  -4   23.00    7.40
  -6   8  -4   24.40    7.70
   6  -8   4   13.70    5.00
   6  -8   4   14.10    7.60
   6  -8   4   17.80    9.10
   6   7  -4   -3.80    5.30
  -6  -7   4    4.10    4.70
  -6  -7   4   -2.50    5.30
  -6  -7   4    2.20    3.20
  -6  -7   4    3.70    4.10
  -6  -7   4    0.10    3.30
  -6  -7   4   -4.60    4.60
  -6  -7   4    8.60    4.60
   5   7  -4   48.10    7.00
   5   7  -4   44.20    9.30
  -5  -7   4   59.69    6.70
  -5  -7   4   48.90    6.60
  -5  -7   4   37.60    7.00
  -5  -7   4   42.00    7.40
  -5  -7   4   47.80    7.50
   4   7  -4   23.40    4.70
   4   7  -4   24.70    4.60
   4   7  -4   10.90    4.00
   4   7  -4   14.50    5.80
   4   7  -4   20.10    4.10
   4   7  -4   26.90    4.90
  -4  -7   4   18.30    4.10
  -4  -7   4   22.40    4.30
  -4  -7   4   22.60    5.00
  -4  -7   4   23.50    5.40
  -4  -7   4   19.00    3.90
   3   7  -4    6.60    2.40
   3   7  -4   16.30    5.10
   3   7  -4    5.20    3.10
   3   7  -4   11.60    4.80
   3   7  -4    9.80    3.70
  -3  -7   4   16.50    4.30
  -3  -7   4    9.10    3.80
  -3  -7   4   16.90    3.70
  -3  -7   4    9.60    3.30
   2   7  -4  194.88   17.50
   2   7  -4  216.38   18.40
   2   7  -4  199.08   17.30
   2   7  -4  173.88   16.30
   2   7  -4  188.68   17.50
  -2  -7   4  223.98   17.30
  -2  -7   4  176.48   17.60
  -2  -7   4  184.28   17.70
  -2  -7   4  220.48   17.70
  -2  -7   4  230.78   17.60
   1   7  -4  185.08   17.80
   1   7  -4  171.38   15.70
   1   7  -4  190.18   15.80
   1   7  -4  160.88   14.60
   1   7  -4  198.38   16.40
  -1  -7   4  174.48   15.80
  -1  -7   4  187.48   15.90
  -1  -7   4  183.68   15.70
  -1  -7   4  153.58   15.90
  -1  -7   4  163.78   14.90
   0   7  -4    4.20    2.30
   0   7  -4   -0.10    1.60
   0   7  -4    2.30    2.80
   0   7  -4   -1.70    1.90
   0  -7   4    3.10    2.60
   0  -7   4    0.20    2.50
   0  -7   4   -0.50    2.30
   0  -7   4   -1.10    1.80
   0  -7   4    2.30    2.20
   0  -7   4    1.30    1.70
  -1   7  -4    4.00    5.30
  -1   7  -4    2.40    3.00
  -1   7  -4    2.90    2.50
  -1   7  -4    5.80    3.00
   1  -7   4    3.90    2.50
   1  -7   4    1.70    2.30
   1  -7   4    2.90    2.70
   1  -7   4    1.50    2.60
   1  -7   4    3.30    1.70
   1  -7   4    5.70    3.00
  -2   7  -4  347.97   29.20
  -2   7  -4  337.57   28.80
  -2   7  -4  384.16   29.00
  -2   7  -4  336.77   27.10
  -2   7  -4  372.86   29.10
   2  -7   4  387.16   31.30
   2  -7   4  350.56   28.50
   2  -7   4  302.87   27.10
   2  -7   4  340.37   28.80
   2  -7   4  319.67   32.10
   2  -7   4  332.27   29.20
  -3   7  -4   11.70    3.40
  -3   7  -4   -0.90    2.70
  -3   7  -4    9.10    2.10
   3  -7   4    3.90    3.30
   3  -7   4    7.60    5.40
   3  -7   4    7.00    2.90
   3  -7   4    7.40    2.80
   3  -7   4    1.60    3.00
   3  -7   4    6.50    3.70
   3  -7   4    6.40    3.50
  -4   7  -4    3.30    3.50
  -4   7  -4    1.50    1.70
  -4   7  -4    1.40    3.30
  -4   7  -4   -6.40    2.80
   4  -7   4   -4.40    3.70
   4  -7   4   -0.20    2.60
   4  -7   4   -0.30    3.30
   4  -7   4    1.60    3.50
   4  -7   4    3.70    3.70
  -5   7  -4   11.30    4.90
  -5   7  -4   16.10    5.60
  -5   7  -4    5.40    3.90
  -5   7  -4   19.30    6.20
  -5   7  -4   10.80    5.00
  -5   7  -4   18.60    2.90
   5  -7   4   11.50    5.40
   5  -7   4    8.90    4.60
   5  -7   4   10.80    3.70
   5  -7   4    5.70    5.50
   5  -7   4   11.00    5.40
  -6   7  -4    8.90    5.30
  -6   7  -4   10.60    6.10
  -6   7  -4   10.90    5.50
  -6   7  -4    4.30    6.10
  -6   7  -4   10.90    2.70
  -6   7  -4   15.10    5.60
   6  -7   4    6.70    6.30
   6  -7   4   10.70    6.40
   6   6  -4   13.00    6.40
  -6  -6   4    0.50    4.40
  -6  -6   4    2.60    3.90
  -6  -6   4    5.30    2.80
  -6  -6   4    0.90    2.90
  -6  -6   4   -0.70    2.90
  -6  -6   4    3.50    2.60
   5   6  -4   30.90    7.90
  -5  -6   4   25.40    4.90
  -5  -6   4   28.00    4.40
  -5  -6   4   25.80    4.20
  -5  -6   4   25.00    5.20
  -5  -6   4   18.90    4.40
   4   6  -4   23.50    6.90
   4   6  -4   23.00    4.10
   4   6  -4   24.30    4.30
  -4  -6   4   29.80    5.40
  -4  -6   4   29.90    4.80
  -4  -6   4   30.90    4.50
  -4  -6   4   26.90    4.80
  -4  -6   4   26.90    4.70
   3   6  -4   19.20    3.80
   3   6  -4   25.30    4.20
   3   6  -4   16.60    3.30
   3   6  -4   20.30    3.20
   3   6  -4   20.50    4.10
   3   6  -4   16.40    5.30
  -3  -6   4   13.10    3.50
  -3  -6   4   16.30    4.10
  -3  -6   4   20.20    4.10
  -3  -6   4   17.10    3.40
  -3  -6   4   21.40    3.80
  -3  -6   4   15.90    3.10
   2   6  -4    1.40    1.10
   2   6  -4    3.50    2.10
   2   6  -4    3.70    2.60
   2   6  -4   -1.80    1.80
  -2  -6   4    4.10    2.10
  -2  -6   4    3.50    2.20
  -2  -6   4    1.70    2.00
  -2  -6   4    0.60    2.40
  -2  -6   4    1.00    2.30
   1   6  -4  848.12   62.69
   1   6  -4  799.62   62.49
   1   6  -4  823.32   62.29
   1   6  -4  744.03   61.29
   1   6  -4  864.91   62.39
   1   6  -4  805.82   62.39
  -1  -6   4  868.71   62.49
  -1  -6   4  705.13   62.59
  -1  -6   4  772.72   61.79
  -1  -6   4  871.51   62.49
  -1  -6   4  768.92   62.09
  -1  -6   4  804.32   62.39
   0   6  -4    6.00    2.50
   0   6  -4    4.20    2.70
   0   6  -4    2.50    2.00
   0   6  -4    7.50    2.70
   0   6  -4    3.40    1.70
   0  -6   4    7.00    2.80
   0  -6   4    5.00    2.20
   0  -6   4    0.80    2.00
   0  -6   4    7.40    2.50
   0  -6   4    6.10    2.20
   0  -6   4    2.80    1.70
  -1   6  -4   -2.00    1.90
  -1   6  -4    2.80    2.90
  -1   6  -4    3.60    1.40
  -1   6  -4    2.00    1.90
  -1   6  -4    2.60    2.20
   1  -6   4    2.10    2.30
   1  -6   4    1.30    1.90
   1  -6   4    1.10    1.30
   1  -6   4    1.00    1.90
   1  -6   4   -2.00    1.70
   1  -6   4    1.90    2.20
   1  -6   4    0.40    1.40
  -2   6  -4  152.68   12.60
  -2   6  -4  139.89   10.80
  -2   6  -4  150.78   12.60
   2  -6   4  131.39   11.70
   2  -6   4  106.19   12.50
   2  -6   4  112.19   12.50
   2  -6   4  120.79   12.20
   2  -6   4  121.49   11.30
   2  -6   4  103.09   11.90
  -3   6  -4   10.80    2.30
  -3   6  -4   11.40    3.70
  -3   6  -4   17.30    4.20
  -3   6  -4   21.30    5.20
  -3   6  -4   13.70    3.90
   3  -6   4   10.80    3.40
   3  -6   4   18.60    4.70
   3  -6   4    7.40    4.10
   3  -6   4    9.50    3.10
   3  -6   4   11.90    3.10
   3  -6   4    8.70    3.80
  -4   6  -4    3.40    3.30
  -4   6  -4   10.30    4.40
  -4   6  -4   23.30    3.40
  -4   6  -4    5.60    3.40
  -4   6  -4   19.20    4.90
  -4   6  -4   19.50    4.90
   4  -6   4    5.90    3.90
   4  -6   4   13.20    2.50
   4  -6   4   11.00    3.00
   4  -6   4    9.60    3.80
   4  -6   4    6.60    3.50
   4  -6   4    6.80    3.70
  -5   6  -4   28.60    6.40
  -5   6  -4   28.30    6.40
  -5   6  -4   34.10    6.30
  -5   6  -4   36.70    4.80
  -5   6  -4   21.70    6.30
  -5   6  -4   23.80    5.80
   5  -6   4   33.00    5.20
   5  -6   4   13.90    6.60
   5  -6   4   24.40    6.20
  -6   6  -4   -3.50    4.00
  -6   6  -4   -7.10    4.30
  -6   6  -4   -0.50    4.60
  -6   6  -4   -2.10    4.90
  -6   6  -4   -1.10    3.60
   6  -6   4   -8.30    4.20
   6  -6   4   -8.30    6.10
   7   5  -4   87.89   14.50
  -7  -5   4   54.49    9.10
  -7  -5   4   65.79   10.60
   6   5  -4    0.70    5.20
  -6  -5   4    2.20    1.90
  -6  -5   4   -1.70    4.10
  -6  -5   4   -0.70    2.00
  -6  -5   4    0.60    3.50
   5   5  -4    8.30    5.30
  -5  -5   4    5.40    2.60
  -5  -5   4    7.80    2.20
  -5  -5   4   11.20    2.50
  -5  -5   4   11.30    4.10
   4   5  -4  169.98   15.50
   4   5  -4  209.78   19.20
  -4  -5   4  174.98   16.30
  -4  -5   4  210.18   16.10
  -4  -5   4  185.58   16.80
  -4  -5   4  208.28   16.10
  -4  -5   4  211.88   17.20
   3   5  -4    6.80    2.70
   3   5  -4   10.00    3.80
   3   5  -4   14.70    3.10
  -3  -5   4   12.50    3.00
  -3  -5   4    8.30    2.40
  -3  -5   4   11.80    2.90
  -3  -5   4   13.70    2.70
  -3  -5   4   11.20    2.70
  -3  -5   4    9.30    2.80
   2   5  -4  138.39   13.10
   2   5  -4  131.99   12.00
   2   5  -4  139.19   12.00
   2   5  -4  144.69   12.20
  -2  -5   4  132.49   11.10
  -2  -5   4  136.79   12.10
  -2  -5   4  144.89   12.00
  -2  -5   4  143.09   12.00
  -2  -5   4  133.19   12.00
  -2  -5   4  138.49   12.50
   1   5  -4  184.78   16.30
   1   5  -4  225.98   17.90
   1   5  -4  217.38   17.60
   1   5  -4  231.18   17.60
   1   5  -4  198.58   17.40
  -1  -5   4  216.58   17.60
  -1  -5   4  206.48   17.70
  -1  -5   4  226.78   17.70
  -1  -5   4  205.98   17.20
  -1  -5   4  210.08   17.90
   0   5  -4    2.10    1.90
   0   5  -4    6.10    1.90
   0   5  -4    2.00    1.30
   0   5  -4    6.10    2.30
   0  -5   4   13.10    2.90
   0  -5   4    3.40    1.50
   0  -5   4    0.80    1.50
   0  -5   4    4.20    1.80
   0  -5   4    7.10    2.70
   0  -5   4    4.40    2.00
  -1   5  -4  554.44   39.60
  -1   5  -4  539.15   39.50
  -1   5  -4  479.35   38.30
   1  -5   4  499.05   39.30
   1  -5   4  515.15   39.70
   1  -5   4  470.85   39.20
   1  -5   4  437.56   37.90
  -2   5  -4   61.49    6.90
  -2   5  -4   62.69    6.10
  -2   5  -4   76.09    7.60
  -2   5  -4   72.99    7.30
  -2   5  -4   67.39    7.80
   2  -5   4   62.19    7.30
   2  -5   4   57.09    7.10
   2  -5   4   60.19    7.80
   2  -5   4   57.69    7.30
   2  -5   4   62.19    6.50
  -3   5  -4  175.08   16.50
  -3   5  -4  164.78   16.00
  -3   5  -4  193.58   16.20
  -3   5  -4  185.58   16.80
  -3   5  -4  185.78   14.60
  -3   5  -4  203.18   16.30
   3  -5   4  159.38   15.60
   3  -5   4  135.39   15.70
   3  -5   4  148.19   15.90
   3  -5   4  198.48   17.00
   3  -5   4  177.38   14.70
   3  -5   4  185.38   14.90
  -4   5  -4   -0.60    2.90
  -4   5  -4    4.10    3.00
  -4   5  -4    4.10    2.10
  -4   5  -4    5.80    3.20
  -4   5  -4    5.50    3.30
   4  -5   4    4.80    2.00
   4  -5   4    7.60    2.50
   4  -5   4    5.30    3.00
   4  -5   4    1.10    3.10
   4  -5   4    7.90    3.80
   4  -5   4    5.10    3.40
  -5   5  -4   28.50    5.70
  -5   5  -4   35.20    6.80
  -5   5  -4   31.10    5.70
  -5   5  -4   26.20    6.40
  -5   5  -4   34.20    4.60
  -5   5  -4   20.10    5.70
   5  -5   4   31.30    7.20
   5  -5   4   24.40    6.00
   5  -5   4   19.50    5.40
   5  -5   4   35.50    5.60
  -6   5  -4    6.50    4.90
  -6   5  -4    6.90    4.60
  -6   5  -4    5.30    4.30
  -6   5  -4    6.10    4.60
  -6   5  -4    6.10    3.80
  -6   5  -4    1.70    3.80
   6  -5   4    7.20    4.40
   6  -5   4   13.20    8.00
  -7   5  -4    4.90    6.30
  -7   5  -4   -0.10    4.20
  -7   5  -4   -0.80    5.20
  -7   5  -4    0.00    4.50
  -7   5  -4    3.90    5.10
  -7   5  -4  -11.00    5.30
   7  -5   4  -17.80    6.80
   7  -5   4   -4.10    5.50
   7  -5   4    2.50    7.20
   7   4  -4   -2.60    6.00
  -7  -4   4    5.90    4.30
  -7  -4   4    6.20    4.50
  -7  -4   4    0.30    5.40
   6   4  -4    8.40    5.60
  -6  -4   4   18.60    5.50
  -6  -4   4    7.70    3.50
   5   4  -4  127.59   15.10
  -5  -4   4  139.99   10.80
  -5  -4   4  132.99   13.40
  -5  -4   4  115.49   10.80
  -5  -4   4  139.59   10.70
  -5  -4   4  133.49   12.50
   4   4  -4    6.50    3.90
   4   4  -4   -4.70    4.70
  -4  -4   4    3.00    1.30
  -4  -4   4    1.70    1.40
  -4  -4   4   -0.80    2.20
  -4  -4   4    1.10    1.80
  -4  -4   4    2.00    1.90
  -4  -4   4    5.80    2.60
   3   4  -4  118.89   10.60
   3   4  -4  101.99    9.10
   3   4  -4  104.89    9.20
   3   4  -4  100.59   11.30
   3   4  -4  105.19    9.20
   3   4  -4  112.29    9.20
  -3  -4   4  107.09    9.50
  -3  -4   4  119.79    9.40
  -3  -4   4  105.29    9.60
  -3  -4   4  105.59    9.90
  -3  -4   4  104.59    9.60
  -3  -4   4  115.89    9.40
   2   4  -4   73.09    7.90
   2   4  -4   91.59    7.40
   2   4  -4   83.99    7.40
   2   4  -4   72.59    8.50
  -2  -4   4   82.19    7.60
  -2  -4   4   88.69    7.40
  -2  -4   4   81.39    7.50
  -2  -4   4   69.09    6.60
  -2  -4   4   83.89    7.70
  -2  -4   4   81.59    7.40
   1   4  -4   29.30    3.60
   1   4  -4   26.10    4.40
   1   4  -4   20.90    3.50
  -1  -4   4   22.60    3.50
  -1  -4   4   25.50    3.70
  -1  -4   4   22.00    3.60
  -1  -4   4   27.80    5.90
  -1  -4   4   27.40    4.00
  -1  -4   4   26.90    3.50
   0   4  -4    1.70    1.00
   0   4  -4    3.10    1.60
   0   4  -4    4.20    2.00
   0   4  -4    2.40    1.70
   0   4  -4    2.70    1.30
   0  -4   4    4.00    1.90
   0  -4   4    4.00    1.70
   0  -4   4    4.30    1.90
   0  -4   4    8.00    2.40
  -1   4  -4  257.47   20.90
  -1   4  -4  226.48   19.70
  -1   4  -4  261.87   20.50
  -1   4  -4  255.17   20.90
  -1   4  -4  257.17   19.60
  -1   4  -4  267.17   20.60
   1  -4   4  222.08   20.30
   1  -4   4  244.38   20.60
   1  -4   4  238.88   19.80
   1  -4   4  252.07   20.40
   1  -4   4  230.88   20.40
  -2   4  -4   80.39    7.80
  -2   4  -4   73.59    8.10
  -2   4  -4   76.49    7.60
  -2   4  -4   83.19    6.90
  -2   4  -4   67.89    7.90
  -2   4  -4   70.59    7.50
   2  -4   4   72.19    8.20
   2  -4   4   65.89    7.80
   2  -4   4   62.49    7.70
   2  -4   4   63.09    7.60
  -3   4  -4   14.30    2.80
  -3   4  -4   15.60    3.90
  -3   4  -4   15.80    3.60
  -3   4  -4   19.90    4.20
  -3   4  -4   14.50    4.00
  -3   4  -4   19.20    4.40
   3  -4   4   17.30    2.80
   3  -4   4   12.70    3.70
   3  -4   4   11.10    2.40
   3  -4   4   17.00    6.20
   3  -4   4   11.00    3.40
  -4   4  -4   29.80    5.50
  -4   4  -4   35.20    6.50
  -4   4  -4   27.50    4.20
  -4   4  -4   26.30    5.80
  -4   4  -4   39.10    6.80
  -4   4  -4   31.10    5.70
   4  -4   4   29.40    5.00
   4  -4   4   22.40    5.30
   4  -4   4   19.80    5.10
   4  -4   4   26.00    5.60
  -5   4  -4    2.40    3.00
  -5   4  -4   -0.30    2.50
  -5   4  -4    4.10    3.50
  -5   4  -4    2.30    3.20
  -5   4  -4    0.90    2.60
  -5   4  -4    2.80    2.90
   5  -4   4   -0.90    2.80
   5  -4   4   -5.50    3.20
   5  -4   4    0.10    3.20
   5  -4   4   -1.00    3.60
   5  -4   4   -5.20    2.90
  -6   4  -4    2.70    4.90
  -6   4  -4   14.50    6.60
  -6   4  -4    1.40    3.80
  -6   4  -4    3.10    4.10
  -6   4  -4    9.60    3.90
  -6   4  -4    7.00    4.30
   6  -4   4    5.80    4.60
   6  -4   4    3.80    4.30
   6  -4   4    5.70    6.60
   6  -4   4   -1.10    4.10
  -7   4  -4    0.40    4.90
  -7   4  -4    0.80    5.00
  -7   4  -4    4.40    5.90
  -7   4  -4    4.60    5.50
  -7   4  -4    1.70    4.70
  -7   4  -4   -5.30    4.50
   7  -4   4   -4.10    5.80
   7  -4   4   -0.10    7.30
   7  -4   4   -2.90    6.20
   7   3  -4   21.80    8.20
  -7  -3   4   31.20    7.40
  -7  -3   4   14.70    5.10
  -7  -3   4    9.00    4.20
   6   3  -4   48.70    8.90
   6   3  -4   53.79   11.40
  -6  -3   4   38.60    7.60
  -6  -3   4   28.50    6.70
  -6  -3   4   34.80    8.70
   5   3  -4  408.96   36.50
   5   3  -4  463.45   37.30
  -5  -3   4  421.76   34.10
  -5  -3   4  419.86   35.10
   4   3  -4    2.60    4.70
   4   3  -4    3.40    3.50
  -4  -3   4    6.00    2.10
  -4  -3   4   -1.60    1.70
  -4  -3   4    2.10    1.00
   3   3  -4   31.70    6.50
   3   3  -4   34.20    5.90
  -3  -3   4   36.80    4.00
  -3  -3   4   40.00    3.70
  -3  -3   4   36.20    3.70
  -3  -3   4   34.20    4.20
  -3  -3   4   41.60    4.60
  -3  -3   4   38.50    3.90
   2   3  -4    2.90    2.20
   2   3  -4    5.40    1.40
   2   3  -4    6.60    2.90
   2   3  -4    4.40    1.30
   2   3  -4    8.00    3.20
   2   3  -4    4.10    1.40
  -2  -3   4    2.90    1.50
  -2  -3   4    0.80    1.10
  -2  -3   4    0.70    2.40
  -2  -3   4    3.20    1.00
  -2  -3   4    2.80    1.30
  -2  -3   4    6.10    1.70
  -2  -3   4    5.80    1.60
   1   3  -4  304.47   22.30
   1   3  -4  269.47   22.10
   1   3  -4  277.27   22.50
   1   3  -4  295.57   22.30
  -1  -3   4  291.57   22.50
  -1  -3   4  269.17   22.70
  -1  -3   4  260.27   22.20
   0   3  -4   23.50    3.90
   0   3  -4   26.40    3.20
   0   3  -4   21.60    3.80
   0   3  -4   20.10    2.60
   0   3  -4   25.60    4.00
   0   3  -4   26.80    3.60
   0  -3   4   22.00    3.70
   0  -3   4   26.70    4.00
   0  -3   4   28.20    3.70
  -1   3  -4   44.30    5.80
  -1   3  -4   51.19    4.90
  -1   3  -4   49.80    5.50
  -1   3  -4   45.50    5.10
  -1   3  -4   44.50    5.70
  -1   3  -4   47.60    5.50
   1  -3   4   42.90    5.40
   1  -3   4   52.79    5.00
   1  -3   4   45.40    5.70
  -2   3  -4  179.18   15.20
  -2   3  -4  181.38   14.40
  -2   3  -4  177.18   15.30
  -2   3  -4  172.68   15.60
  -2   3  -4  189.58   15.40
  -2   3  -4  171.68   15.50
   2  -3   4  140.29   15.00
   2  -3   4  161.58   15.30
   2  -3   4  183.38   14.90
  -3   3  -4    0.30    2.10
  -3   3  -4    2.00    1.80
  -3   3  -4   -3.40    2.80
  -3   3  -4    2.10    2.00
  -3   3  -4    0.10    2.00
  -3   3  -4   -1.90    1.20
   3  -3   4    0.40    2.10
   3  -3   4   -0.70    2.10
   3  -3   4   -1.60    2.10
  -4   3  -4   12.10    3.60
  -4   3  -4    9.00    3.70
  -4   3  -4   13.30    3.80
  -4   3  -4   12.40    2.60
  -4   3  -4   10.40    3.30
  -4   3  -4   14.20    4.40
   4  -3   4    7.70    3.60
   4  -3   4    6.40    3.80
   4  -3   4    5.10    2.90
   4  -3   4    3.60    3.20
  -5   3  -4   10.50    3.30
  -5   3  -4   12.20    4.30
  -5   3  -4    8.20    3.60
  -5   3  -4   12.50    3.70
  -5   3  -4   13.60    4.90
  -5   3  -4    8.20    3.90
   5  -3   4   18.90    4.50
   5  -3   4   12.90    4.30
   5  -3   4   11.80    4.20
   5  -3   4   11.90    3.90
   5  -3   4   12.80    4.30
  -6   3  -4   21.10    5.80
  -6   3  -4   16.60    4.90
  -6   3  -4   13.70    4.80
  -6   3  -4   21.00    6.00
  -6   3  -4   25.40    6.70
  -6   3  -4   29.70    5.40
   6  -3   4   34.00    7.40
   6  -3   4   27.20    6.20
   6  -3   4   18.50    5.20
   6  -3   4   14.20    5.50
   6  -3   4   18.60    8.60
  -7   3  -4    5.70    4.50
  -7   3  -4   -1.90    5.90
  -7   3  -4    4.40    4.80
  -7   3  -4   -2.20    4.80
  -7   3  -4   -6.30    4.30
  -7   3  -4   -3.60    5.20
   7  -3   4    1.40    6.20
   7  -3   4    3.90    5.60
   7  -3   4   -5.70   11.20
   7   2  -4  106.69   14.20
  -7  -2   4   89.79   10.50
  -7  -2   4  114.79   13.70
  -7  -2   4   90.49   11.10
   6   2  -4  159.28   18.10
  -6  -2   4  117.19   13.30
  -6  -2   4  133.89   14.30
  -6  -2   4  136.19   12.60
   5   2  -4  371.56   31.40
   5   2  -4  403.76   33.00
  -5  -2   4  359.16   28.80
  -5  -2   4  370.56   30.10
  -5  -2   4  306.27   29.80
   4   2  -4   11.50    4.40
  -4  -2   4   15.00    3.40
  -4  -2   4   17.70    2.90
   3   2  -4  259.47   21.80
   3   2  -4  247.68   22.10
  -3  -2   4  239.08   19.50
  -3  -2   4  239.98   19.50
  -3  -2   4  267.27   20.50
  -3  -2   4  243.08   20.30
  -3  -2   4  265.97   19.50
  -3  -2   4  264.37   19.50
   2   2  -4  307.77   25.30
   2   2  -4  280.67   23.90
   2   2  -4  320.67   25.50
   2   2  -4  346.17   23.80
   2   2  -4  292.37   24.40
  -2  -2   4  320.87   25.30
  -2  -2   4  331.67   24.80
  -2  -2   4  310.47   24.10
  -2  -2   4  266.77   25.00
   1   2  -4   53.29    5.00
   1   2  -4   49.60    4.90
   1   2  -4   54.19    6.20
   1   2  -4   49.70    4.80
  -1  -2   4   54.89    5.70
  -1  -2   4   51.79    5.20
  -1  -2   4   47.30    5.10
  -1  -2   4   50.69    5.00
  -1  -2   4   44.80    4.20
  -1  -2   4   47.20    5.20
  -1  -2   4   51.39    5.30
   0   2  -4    6.70    2.20
   0   2  -4    4.60    1.80
   0   2  -4    3.40    1.60
   0   2  -4    3.80    1.40
   0   2  -4    3.90    1.90
   0   2  -4    6.40    1.80
   0  -2   4    5.80    1.30
   0  -2   4    5.80    2.20
   0  -2   4    6.40    2.10
   0  -2   4    5.00    2.10
   0  -2   4    4.00    1.50
   0  -2   4    7.40    2.10
  -1   2  -4   28.90    4.20
  -1   2  -4   27.00    4.20
  -1   2  -4   27.90    3.60
  -1   2  -4   32.10    5.30
  -1   2  -4   32.10    4.10
  -1   2  -4   30.20    4.40
   1  -2   4   37.00    4.50
   1  -2   4   34.00    4.70
   1  -2   4   27.20    3.80
   1  -2   4   24.80    4.60
   1  -2   4   38.70    3.80
   1  -2   4   28.40    4.30
  -2   2  -4  162.98   14.20
  -2   2  -4  160.28   13.30
  -2   2  -4  151.48   14.00
  -2   2  -4  155.58   14.10
  -2   2  -4  145.19   14.20
  -2   2  -4  159.28   14.40
   2  -2   4  161.18   14.00
   2  -2   4  139.69   14.00
   2  -2   4  168.28   13.40
   2  -2   4  143.39   14.00
   2  -2   4  164.28   14.40
   2  -2   4  176.48   14.60
  -3   2  -4    3.00    2.40
  -3   2  -4   -0.70    1.90
  -3   2  -4    3.80    2.20
  -3   2  -4    4.20    2.00
  -3   2  -4   -0.50    2.00
  -3   2  -4    3.20    1.80
   3  -2   4    2.40    2.60
   3  -2   4    0.20    1.90
   3  -2   4   -0.50    2.10
   3  -2   4    0.40    2.10
  -4   2  -4   -1.10    2.30
  -4   2  -4    2.50    2.30
  -4   2  -4    0.10    2.10
  -4   2  -4    2.30    2.70
  -4   2  -4   -1.30    2.40
  -4   2  -4   -1.50    1.80
   4  -2   4   -1.20    2.60
  -5   2  -4   81.79   10.00
  -5   2  -4   70.69   11.30
  -5   2  -4   68.59    9.90
  -5   2  -4   86.29    8.90
  -5   2  -4   83.69    9.80
   5  -2   4   87.49    9.50
   5  -2   4   68.89   10.10
   5  -2   4   95.69   10.20
   5  -2   4   85.29   10.10
  -6   2  -4   52.89    9.40
  -6   2  -4   60.49   10.20
  -6   2  -4   76.39    9.40
  -6   2  -4   75.79    9.60
  -6   2  -4   54.89   10.70
  -6   2  -4   63.19    9.20
   6  -2   4   59.99    9.30
   6  -2   4   88.89   11.00
   6  -2   4   65.49    9.00
   6  -2   4   70.99   11.40
   6  -2   4   73.59   10.20
  -7   2  -4   10.30    6.80
  -7   2  -4   -0.30    4.20
  -7   2  -4   -5.00    3.90
  -7   2  -4    0.70    4.90
  -7   2  -4   -8.30    4.30
   7  -2   4   -0.80    9.20
   7  -2   4   -6.10    4.70
   7  -2   4  -10.80    5.60
   7   1  -4  102.69   23.20
   7   1  -4  127.69   15.50
  -7  -1   4   96.29   12.10
  -7  -1   4  114.99   11.30
  -7  -1   4  132.09   14.60
   6   1  -4   35.40    7.80
   6   1  -4   29.50    9.80
  -6  -1   4   37.80    7.20
  -6  -1   4   35.80    5.40
  -6  -1   4   32.50    6.60
   5   1  -4    1.70    3.50
   5   1  -4    2.70    5.90
  -5  -1   4    0.90    2.00
  -5  -1   4   -4.50    2.70
  -5  -1   4    0.50    2.60
   4   1  -4  154.38   16.20
   4   1  -4  146.89   14.60
  -4  -1   4  149.79   12.60
  -4  -1   4  134.09   13.90
  -4  -1   4  165.38   13.80
   3   1  -4  415.86   33.10
   3   1  -4  400.06   34.10
  -3  -1   4  411.86   31.60
  -3  -1   4  388.66   30.90
  -3  -1   4  430.06   31.00
  -3  -1   4  399.26   33.10
  -3  -1   4  398.56   30.90
   2   1  -4   42.90    3.70
   2   1  -4   56.69    7.70
   2   1  -4   36.40    3.50
   2   1  -4   34.40    3.90
   2   1  -4   41.20    4.00
   2   1  -4   31.60    3.60
  -2  -1   4   38.90    5.40
  -2  -1   4   39.00    4.00
  -2  -1   4   36.40    5.00
  -2  -1   4   34.10    3.90
  -2  -1   4   32.40    3.80
  -2  -1   4   34.60    3.90
   1   1  -4  641.34   49.30
   1   1  -4  629.84   49.30
   1   1  -4  732.03   50.69
   1   1  -4  670.83   49.10
   1   1  -4  590.74   49.60
  -1  -1   4  639.14   49.40
  -1  -1   4  684.03   49.00
  -1  -1   4  668.33   49.20
  -1  -1   4  627.54   49.40
  -1  -1   4  614.14   49.99
  -1  -1   4  620.24   49.40
  -1  -1   4  595.74   49.40
   0   1  -4  295.37   22.70
   0   1  -4  271.47   23.20
   0   1  -4  279.17   23.10
   0   1  -4  277.87   23.20
   0   1  -4  289.87   23.20
   0   1  -4  305.97   22.60
   0  -1   4  296.97   23.30
   0  -1   4  294.77   23.30
   0  -1   4  258.97   23.10
   0  -1   4  275.97   23.10
   0  -1   4  296.27   22.70
   0  -1   4  292.27   22.60
   0  -1   4  281.37   23.10
  -1   1  -4  333.77   25.80
  -1   1  -4  317.17   26.60
  -1   1  -4  337.57   26.60
  -1   1  -4  316.47   26.70
  -1   1  -4  324.47   26.60
  -1   1  -4  333.07   26.30
   1  -1   4  302.17   25.70
   1  -1   4  323.37   26.60
   1  -1   4  360.66   26.30
   1  -1   4  328.07   26.60
   1  -1   4  330.07   26.60
   1  -1   4  315.97   26.60
  -2   1  -4   35.40    5.60
  -2   1  -4   37.00    4.80
  -2   1  -4   31.70    5.40
  -2   1  -4   30.60    5.40
  -2   1  -4   33.10    5.30
  -2   1  -4   27.10    3.70
   2  -1   4   31.30    3.90
   2  -1   4   34.20    5.20
   2  -1   4   35.30    5.50
   2  -1   4   33.30    5.50
   2  -1   4   21.10    3.00
   2  -1   4   22.40    4.60
   2  -1   4   34.10    5.60
  -3   1  -4    3.80    2.20
  -3   1  -4   -1.30    1.90
  -3   1  -4    1.40    2.30
  -3   1  -4    1.10    2.00
  -3   1  -4    1.70    2.30
  -3   1  -4    2.90    1.60
   3  -1   4    4.00    2.50
   3  -1   4    1.00    2.30
   3  -1   4   -0.30    2.10
   3  -1   4    2.30    1.90
   3  -1   4    1.10    2.10
  -4   1  -4    5.40    3.30
  -4   1  -4    0.50    2.50
  -4   1  -4    0.90    2.50
  -4   1  -4    2.40    2.50
  -4   1  -4    1.50    2.60
  -4   1  -4    3.00    2.00
   4  -1   4    3.00    3.20
   4  -1   4    1.40    2.60
   4  -1   4    1.00    2.80
   4  -1   4    0.90    2.80
  -5   1  -4   58.49    8.90
  -5   1  -4   49.10    9.00
  -5   1  -4   40.80    6.60
  -5   1  -4   51.39    7.60
  -5   1  -4   44.10    8.30
   5  -1   4   62.29    8.80
   5  -1   4   56.69    7.90
   5  -1   4   37.50    8.20
  -6   1  -4   11.80    5.90
  -6   1  -4   21.20    5.80
  -6   1  -4   24.40    6.50
  -6   1  -4   22.60    5.40
  -6   1  -4   24.10    5.70
  -6   1  -4   27.10    6.40
   6  -1   4   21.90    5.50
   6  -1   4   20.70    6.00
   6  -1   4   20.90    6.40
   6  -1   4   18.80    5.70
  -7   1  -4   -9.80    5.50
  -7   1  -4    1.30    4.80
  -7   1  -4   -5.60    6.40
  -7   1  -4   -1.50    4.60
  -7   1  -4    4.20    5.20
  -7   1  -4    2.10    5.30
   7  -1   4    9.50    6.20
   7  -1   4    3.90    7.40
   7  -1   4   -2.60    5.80
   7   0  -4    3.60    8.80
  -7   0   4   -1.50    2.70
  -7   0   4    2.30    5.30
  -7   0   4    1.40    3.70
   6   0  -4  228.58   21.50
   6   0  -4  227.18   24.30
  -6   0   4  217.28   22.10
  -6   0   4  204.98   20.00
  -6   0   4  225.18   18.30
   5   0  -4    3.60    5.40
   5   0  -4    3.10    3.30
  -5   0   4    1.10    3.00
  -5   0   4   -0.30    2.50
  -5   0   4    4.20    1.90
   4   0  -4   12.40    5.80
  -4   0   4    7.00    1.90
  -4   0   4    6.40    2.70
  -3   0   4  272.47   23.30
  -3   0   4  325.07   23.40
  -3   0   4  301.27   25.30
  -3   0   4  315.27   23.30
  -3   0   4  278.67   23.30
  -3   0   4  307.77   23.50
   2   0  -4  463.55   34.50
   2   0  -4  399.86   31.80
   2   0  -4  401.76   31.80
   2   0  -4  408.66   31.90
   2   0  -4  436.36   31.80
  -2   0   4  408.96   33.30
  -2   0   4  442.46   31.90
  -2   0   4  415.36   32.10
  -2   0   4  410.86   32.00
  -2   0   4  372.56   32.00
  -2   0   4  413.06   32.90
  -2   0   4  384.36   32.00
   1   0  -4   70.59    6.90
   1   0  -4   86.29    8.60
   1   0  -4   67.19    6.80
   1   0  -4   62.49    7.20
   1   0  -4   78.69    6.50
   1   0  -4   64.89    6.80
  -1   0   4   66.49    7.40
  -1   0   4   75.59    6.50
  -1   0   4   63.79    6.90
  -1   0   4   68.49    6.90
  -1   0   4   68.99    7.30
  -1   0   4   71.39    7.00
  -1   0   4   81.49    6.90
   0   0  -4  482.15   34.80
   0   0  -4  439.66   35.00
   0   0  -4  434.06   35.00
   0   0  -4  456.25   34.30
   0   0  -4  416.66   34.80
   0   0  -4  432.86   35.00
   0   0  -4  421.16   35.00
   0   0   4  440.06   35.00
   0   0   4  436.66   35.00
   0   0   4  452.55   35.00
   0   0   4  425.26   35.10
   0   0   4  415.66   35.40
   0   0   4  464.85   34.70
   0   0   4  469.35   34.40
  -1   0  -4   22.00    4.30
  -1   0  -4   18.60    3.50
  -1   0  -4   19.20    3.90
  -1   0  -4   14.90    3.80
  -1   0  -4   18.30    4.00
  -1   0  -4   18.40    3.10
  -1   0  -4   17.60    3.70
   1   0   4   22.40    4.30
   1   0   4   22.90    3.90
   1   0   4   19.60    4.20
   1   0   4   18.40    3.20
   1   0   4   16.30    3.10
   1   0   4   22.50    4.10
   1   0   4   15.80    3.80
  -2   0  -4   25.30    5.00
  -2   0  -4   37.70    6.10
  -2   0  -4   38.00    6.30
  -2   0  -4   33.40    5.50
  -2   0  -4   35.90    5.00
  -2   0  -4   40.30    6.30
   2   0   4   30.30    5.60
   2   0   4   37.30    6.10
   2   0   4   28.90    4.90
   2   0   4   27.40    5.00
   2   0   4   28.10    5.20
   2   0   4   30.90    3.50
  -3   0  -4    3.60    2.80
  -3   0  -4    4.10    3.00
  -3   0  -4    5.20    3.10
  -3   0  -4    2.20    1.90
  -3   0  -4    4.20    2.70
  -3   0  -4    2.40    2.60
   3   0   4    0.90    2.50
   3   0   4    3.60    2.40
   3   0   4   -2.30    3.20
  -4   0  -4    5.90    3.30
  -4   0  -4    2.50    2.70
  -4   0  -4    1.20    2.70
  -4   0  -4    5.00    2.80
  -4   0  -4    5.60    2.90
  -4   0  -4    1.30    3.10
   4   0   4    2.20    2.80
   4   0   4    4.60    2.80
   4   0   4    2.40    2.70
   4   0   4    0.70    2.50
  -5   0  -4    5.10    3.50
  -5   0  -4    8.00    4.70
  -5   0  -4    8.50    4.20
  -5   0  -4    8.30    3.40
  -5   0  -4    8.40    3.90
   5   0   4    2.30    3.40
   5   0   4    7.20    3.90
   5   0   4   12.00    4.80
   5   0   4    8.80    4.20
   5   0   4    9.20    5.40
  -6   0  -4   -2.10    4.00
  -6   0  -4    4.50    4.60
  -6   0  -4   -1.70    3.80
  -6   0  -4   -7.20    4.90
  -6   0  -4   -1.90    3.40
   6   0   4   -2.60    4.10
   6   0   4    1.30    4.40
   6   0   4    2.60    4.30
  -7   0  -4   -9.50    5.20
  -7   0  -4   -1.10    5.00
  -7   0  -4   -4.40    5.20
  -7   0  -4   -9.50    6.80
  -7   0  -4   -2.30    5.20
   7   0   4   -2.50    6.30
   7   0   4   -6.50    5.70
   7   0   4   -1.10    8.60
   7  -1  -4    5.30    8.10
  -7   1   4   -3.70    5.40
  -7   1   4    6.30    4.50
  -7   1   4    7.80    2.90
   6  -1  -4  297.47   33.20
  -6   1   4  355.86   27.30
  -6   1   4  356.16   30.40
  -6   1   4  351.96   29.70
   5  -1  -4   77.09   15.20
  -5   1   4   85.29    7.70
  -5   1   4   86.99    9.80
  -5   1   4   80.79    7.20
   4  -1  -4    0.80    4.60
  -4   1   4    0.00    1.40
  -4   1   4    0.60    1.60
  -4   1   4    1.30    1.50
  -4   1   4   -0.90    1.20
  -4   1   4   -0.20    2.10
   3  -1  -4  155.28   17.00
   3  -1  -4  185.48   13.20
   3  -1  -4  151.78   13.30
   3  -1  -4  182.38   13.20
   3  -1  -4  144.69   13.20
  -3   1   4  164.48   13.60
  -3   1   4  158.98   13.60
  -3   1   4  165.58   13.30
  -3   1   4  149.79   13.60
  -3   1   4  162.98   15.10
  -3   1   4  175.58   13.80
   2  -1  -4   17.80    2.60
   2  -1  -4   19.70    3.30
   2  -1  -4   16.30    3.10
   2  -1  -4   21.90    5.90
   2  -1  -4   20.60    3.20
   2  -1  -4   11.90    3.70
  -2   1   4   25.10    3.80
  -2   1   4   12.10    2.90
  -2   1   4   26.00    4.00
  -2   1   4   16.80    3.50
  -2   1   4   18.60    2.70
  -2   1   4   17.90    3.30
   1  -1  -4  150.48   13.80
   1  -1  -4  149.49   13.90
   1  -1  -4  186.68   15.70
   1  -1  -4  158.68   14.00
   1  -1  -4  173.78   13.30
   1  -1  -4  163.48   14.10
   1  -1  -4  142.09   14.20
  -1   1   4  169.68   14.00
  -1   1   4  177.18   14.20
  -1   1   4  153.68   14.00
  -1   1   4  162.68   13.30
  -1   1   4  157.48   14.00
  -1   1   4  166.68   14.50
  -1   1   4  172.18   14.30
   0  -1  -4   28.30    4.70
   0  -1  -4   19.00    4.20
   0  -1  -4   16.60    3.90
   0  -1  -4   23.00    3.30
   0  -1  -4   16.00    3.50
   0  -1  -4   23.30    5.00
   0  -1  -4   24.80    4.30
   0   1   4   17.60    3.90
   0   1   4   21.00    4.10
   0   1   4   22.00    4.30
   0   1   4   21.10    3.50
   0   1   4   27.70    4.80
   0   1   4   18.10    3.60
   0   1   4   23.70    4.30
  -1  -1  -4  288.57   22.70
  -1  -1  -4  266.57   23.60
  -1  -1  -4  276.37   23.60
  -1  -1  -4  269.17   23.50
  -1  -1  -4  294.87   23.50
  -1  -1  -4  278.37   22.90
   1   1   4  276.97   23.70
   1   1   4  276.87   23.60
   1   1   4  280.77   23.60
   1   1   4  288.07   23.40
   1   1   4  300.87   22.90
   1   1   4  283.27   23.70
  -2  -1  -4   13.40    3.80
  -2  -1  -4   13.10    4.00
  -2  -1  -4   20.60    4.40
  -2  -1  -4   12.60    4.00
  -2  -1  -4   14.80    3.00
  -2  -1  -4   13.40    3.70
  -2  -1  -4   18.40    3.40
   2   1   4   16.90    3.00
   2   1   4   14.60    3.90
   2   1   4   18.90    4.60
   2   1   4   11.60    3.60
   2   1   4   16.80    4.30
   2   1   4   11.20    3.20
  -3  -1  -4   72.29    7.70
  -3  -1  -4   63.69    6.40
  -3  -1  -4   68.79    8.60
  -3  -1  -4   71.19    8.50
  -3  -1  -4   72.09    8.70
  -3  -1  -4   69.79    8.90
   3   1   4   74.59    8.50
   3   1   4   73.09    8.50
   3   1   4   70.49    8.20
   3   1   4   60.69    8.30
   3   1   4   62.89    8.10
  -4  -1  -4  410.86   32.70
  -4  -1  -4  384.76   33.60
  -4  -1  -4  385.26   33.40
  -4  -1  -4  403.06   33.60
  -4  -1  -4  413.46   34.60
  -4  -1  -4  419.86   34.00
   4   1   4  413.66   35.80
   4   1   4  378.26   33.10
   4   1   4  390.26   33.20
   4   1   4  390.96   33.20
   4   1   4  394.06   33.70
  -5  -1  -4    8.50    4.10
  -5  -1  -4    0.20    3.40
  -5  -1  -4    6.40    4.70
  -5  -1  -4    9.70    4.20
  -5  -1  -4    5.40    4.40
  -5  -1  -4    3.90    3.50
   5   1   4   -3.80    4.40
   5   1   4    2.40    4.80
   5   1   4    2.90    3.60
   5   1   4    0.30    3.80
  -6  -1  -4   -4.90    4.40
  -6  -1  -4    4.70    5.30
  -6  -1  -4   -1.60    4.90
  -6  -1  -4   -5.20    4.00
  -6  -1  -4    2.40    4.70
  -6  -1  -4   -3.50    4.30
   6   1   4    5.30    4.90
   6   1   4   -2.90    4.70
   6   1   4    0.00    4.60
   7  -2  -4   32.60   11.80
  -7   2   4   30.80    8.00
  -7   2   4   27.50    6.90
  -7   2   4   39.50    5.10
   6  -2  -4   13.20   12.30
  -6   2   4    1.90    2.10
  -6   2   4    7.90    3.90
   5  -2  -4   -1.80    6.10
  -5   2   4    1.60    2.20
  -5   2   4   -1.60    2.20
  -5   2   4    0.30    1.40
  -5   2   4   -1.60    2.10
  -5   2   4    0.90    1.70
  -5   2   4    1.00    2.20
   4  -2  -4    4.60    1.70
   4  -2  -4    2.80    1.60
   4  -2  -4    7.20    5.70
   4  -2  -4    8.30    1.90
   4  -2  -4    4.60    1.50
  -4   2   4    6.50    2.40
  -4   2   4    7.60    3.60
  -4   2   4    1.10    1.80
  -4   2   4    6.20    2.10
  -4   2   4    4.70    2.30
  -4   2   4    4.60    1.50
   3  -2  -4   13.50    3.00
   3  -2  -4   18.30    3.00
   3  -2  -4   19.20    4.20
   3  -2  -4   11.40    2.90
   3  -2  -4   17.40    3.10
   3  -2  -4   16.60    2.30
   3  -2  -4   27.50    8.00
  -3   2   4   18.60    4.20
  -3   2   4   20.60    3.60
  -3   2   4   13.60    3.10
  -3   2   4   21.00    4.10
  -3   2   4   17.40    3.50
  -3   2   4   18.70    2.50
   2  -2  -4  333.97   23.50
   2  -2  -4  244.78   22.70
   2  -2  -4  273.97   23.80
   2  -2  -4  302.27   25.60
   2  -2  -4  254.57   22.90
   2  -2  -4  297.87   22.00
  -2   2   4  296.07   23.00
  -2   2   4  269.77   22.00
  -2   2   4  309.67   23.30
  -2   2   4  260.87   22.90
  -2   2   4  270.97   23.70
  -2   2   4  268.87   23.00
   1  -2  -4   99.59   10.00
   1  -2  -4   96.39    9.70
   1  -2  -4  107.19   10.20
   1  -2  -4  106.59   10.00
   1  -2  -4  110.69   11.80
   1  -2  -4   90.19    9.90
   1  -2  -4  104.39    9.00
  -1   2   4   95.09    9.90
  -1   2   4   97.29    9.90
  -1   2   4  121.59   10.30
  -1   2   4  109.69    9.00
  -1   2   4  104.59    9.90
  -1   2   4  104.69   10.20
   0  -2  -4 1302.17   97.19
   0  -2  -4 1468.95   98.39
   0  -2  -4 1192.98   97.99
   0  -2  -4 1226.58   98.29
   0  -2  -4 1228.78   98.19
   0  -2  -4 1261.87   98.19
   0  -2  -4 1287.47   98.19
   0   2   4 1215.48   98.19
   0   2   4 1321.37   98.09
   0   2   4 1332.17   98.19
   0   2   4 1232.28   98.29
   0   2   4 1300.07   98.29
  -1  -2  -4    7.40    3.20
  -1  -2  -4   13.80    3.90
  -1  -2  -4    9.60    3.10
  -1  -2  -4   14.20    3.80
  -1  -2  -4   14.70    3.10
  -1  -2  -4   13.40    3.40
  -1  -2  -4   11.40    3.00
   1   2   4   12.80    3.80
   1   2   4    9.80    3.10
   1   2   4   14.00    3.40
   1   2   4    7.00    2.90
   1   2   4   17.80    4.40
   1   2   4    6.70    3.10
  -2  -2  -4   70.49    8.50
  -2  -2  -4   67.49    8.50
  -2  -2  -4   67.09    7.20
  -2  -2  -4   75.09    8.70
  -2  -2  -4   69.79    8.50
  -2  -2  -4   75.89    7.50
  -2  -2  -4   75.19    8.70
   2   2   4   69.39    8.60
   2   2   4   69.99    8.40
   2   2   4   68.49    8.20
   2   2   4   65.09    8.30
   2   2   4   97.39    8.90
   2   2   4   69.09    8.30
  -3  -2  -4   62.39    8.60
  -3  -2  -4   74.19    8.70
  -3  -2  -4   59.29    8.30
  -3  -2  -4   69.39    8.80
  -3  -2  -4   64.69    6.70
  -3  -2  -4   64.39    8.60
  -3  -2  -4   72.29    7.70
   3   2   4   66.29    8.20
   3   2   4   64.79    8.40
   3   2   4   55.79    7.80
   3   2   4   56.59    8.10
   3   2   4   55.09    8.20
  -4  -2  -4   40.00    7.70
  -4  -2  -4   31.80    4.40
  -4  -2  -4   55.79    8.80
  -4  -2  -4   53.09    7.70
  -4  -2  -4   47.60    9.80
  -4  -2  -4   36.50    8.90
   4   2   4   43.70    7.90
   4   2   4   36.70    6.80
   4   2   4   36.40    7.00
   4   2   4   34.10    7.30
   4   2   4   44.60    7.70
  -5  -2  -4   13.20    5.20
  -5  -2  -4   18.30    5.80
  -5  -2  -4   21.20    6.60
  -5  -2  -4   24.90    6.40
  -5  -2  -4   19.80    6.40
  -5  -2  -4   27.30    6.60
   5   2   4   25.40    7.10
   5   2   4   35.50    7.90
   5   2   4   29.50    7.20
   5   2   4   33.90    7.00
   5   2   4   28.20    6.60
  -6  -2  -4   -2.50    4.50
  -6  -2  -4    1.30    4.50
  -6  -2  -4   -1.00    5.50
  -6  -2  -4    9.10    5.50
   6   2   4    2.30    6.20
   6   2   4   -1.20    4.60
   6   2   4    0.40    5.40
   7  -3  -4   65.79   17.00
  -7   3   4   95.19   13.30
  -7   3   4   86.49    8.50
  -7   3   4   89.29   11.30
  -7   3   4   84.69    8.70
   6  -3  -4   -4.80    6.40
  -6   3   4   -2.40    3.60
  -6   3   4   -0.70    1.00
  -6   3   4    0.60    3.10
  -6   3   4    1.50    2.60
   5  -3  -4   -1.30    1.60
   5  -3  -4   -0.30    2.00
   5  -3  -4    0.90    1.70
   5  -3  -4   -1.50    1.60
   5  -3  -4   -3.90    5.60
  -5   3   4    0.60    3.20
  -5   3   4    0.90    1.00
  -5   3   4   -2.30    2.40
  -5   3   4   -3.90    2.40
  -5   3   4   -1.70    2.80
   4  -3  -4   40.30    5.60
   4  -3  -4   45.10    5.40
   4  -3  -4   38.90   10.80
   4  -3  -4   57.79    5.60
   4  -3  -4   55.39    9.20
   4  -3  -4   47.10    5.70
  -4   3   4   52.09    6.40
  -4   3   4   39.80    5.90
  -4   3   4   47.60    6.20
  -4   3   4   44.70    4.20
  -4   3   4   48.10    7.00
  -4   3   4   43.50    6.00
   3  -3  -4   53.49    4.90
   3  -3  -4   74.59   12.50
   3  -3  -4   42.80    7.90
   3  -3  -4   48.00    6.90
   3  -3  -4   58.59    6.30
   3  -3  -4   46.10    6.10
  -3   3   4   50.99    4.90
  -3   3   4   53.29    6.40
  -3   3   4   58.29    6.70
  -3   3   4   62.19    6.80
  -3   3   4   60.69    6.80
  -3   3   4   64.59    7.50
   2  -3  -4   17.90    6.00
   2  -3  -4   17.90    2.70
   2  -3  -4   14.80    3.40
   2  -3  -4   10.70    3.40
   2  -3  -4   11.90    3.30
   2  -3  -4   12.20    3.30
  -2   3   4   12.60    4.10
  -2   3   4   17.60    4.50
  -2   3   4   18.30    3.70
  -2   3   4   17.80    3.80
  -2   3   4   17.40    4.00
   1  -3  -4   98.99   10.40
   1  -3  -4  109.19    9.20
   1  -3  -4   93.59   10.10
   1  -3  -4  108.69   10.50
   1  -3  -4  106.29   12.10
   1  -3  -4   99.79   10.50
   1  -3  -4   96.89   10.30
  -1   3   4  106.99   10.80
  -1   3   4  106.09   10.60
  -1   3   4  110.79   10.60
  -1   3   4  101.29   10.30
  -1   3   4  108.29   10.50
  -1   3   4  101.69   10.50
   0  -3  -4  361.26   30.30
   0  -3  -4  407.26   30.20
   0  -3  -4  357.76   30.10
   0  -3  -4  390.66   31.70
   0  -3  -4  323.27   29.60
   0  -3  -4  318.07   28.60
   0  -3  -4  365.76   30.00
   0   3   4  386.56   29.90
   0   3   4  388.06   30.50
   0   3   4  350.76   30.00
   0   3   4  366.86   30.00
   0   3   4  367.86   30.10
   0   3   4  357.56   30.20
  -1  -3  -4  122.09   11.60
  -1  -3  -4  129.99   12.60
  -1  -3  -4  117.79   12.10
  -1  -3  -4  111.59   12.20
  -1  -3  -4  127.59   12.60
  -1  -3  -4  128.89   12.40
  -1  -3  -4  125.39   11.10
   1   3   4  133.79   12.60
   1   3   4  114.79   11.90
   1   3   4   98.69   11.70
   1   3   4  142.89   11.70
   1   3   4  117.19   12.10
   1   3   4  110.69   12.20
  -2  -3  -4   20.90    5.10
  -2  -3  -4   31.60    6.40
  -2  -3  -4   20.60    4.30
  -2  -3  -4   16.60    3.90
  -2  -3  -4   16.00    4.50
  -2  -3  -4   19.00    4.60
  -2  -3  -4   21.00    5.50
   2   3   4   14.30    4.30
   2   3   4    6.00    5.30
   2   3   4   20.60    5.40
   2   3   4   26.20    4.60
   2   3   4   22.10    4.70
   2   3   4   18.70    4.90
  -3  -3  -4   33.90    5.50
  -3  -3  -4   36.30    7.20
  -3  -3  -4   35.30    7.30
  -3  -3  -4   25.20    5.30
  -3  -3  -4   33.10    6.90
  -3  -3  -4   30.40    6.60
  -3  -3  -4   24.50    6.50
   3   3   4   40.10    7.10
   3   3   4   26.50    6.30
   3   3   4   38.50    7.30
   3   3   4   20.20    5.50
   3   3   4   31.60    6.50
  -4  -3  -4   18.40    4.80
  -4  -3  -4   20.40    5.80
  -4  -3  -4   19.80    4.10
  -4  -3  -4    9.20    5.70
  -4  -3  -4   30.50    7.50
  -4  -3  -4   15.90    5.00
   4   3   4   26.40    6.60
   4   3   4   15.80    5.60
   4   3   4   16.70    5.40
   4   3   4   25.40    6.30
   4   3   4   30.10    6.60
  -5  -3  -4   22.00    7.10
  -5  -3  -4   42.30    8.00
  -5  -3  -4   32.20    6.70
  -5  -3  -4   26.10    8.30
  -5  -3  -4   34.70    7.00
  -5  -3  -4   34.70    7.20
   5   3   4   38.90    8.70
   5   3   4   39.50    8.60
   5   3   4   36.00    8.40
   5   3   4   30.70    7.20
   5   3   4   49.20    8.40
  -6  -3  -4   11.30    6.00
  -6  -3  -4   -1.20    5.80
  -6  -3  -4    8.50    7.50
  -6  -3  -4    5.60    6.10
   6   3   4   -0.90    7.00
   6   3   4   -0.90    5.50
   6   3   4   -6.20    7.30
   7  -4  -4   67.09   16.70
  -7   4   4   83.99   10.30
  -7   4   4   97.09    9.90
  -7   4   4  100.29   12.20
   6  -4  -4   -0.40    7.40
  -6   4   4    0.50    3.20
  -6   4   4   -2.90    3.10
  -6   4   4   -0.60    3.70
  -6   4   4    1.50    3.70
   5  -4  -4    1.40    8.60
   5  -4  -4    1.30    2.60
   5  -4  -4   -2.40    2.30
   5  -4  -4    1.10    2.70
   5  -4  -4    2.20    2.40
   5  -4  -4   -2.20    3.10
  -5   4   4    2.50    2.80
  -5   4   4    0.80    3.00
  -5   4   4   -5.30    2.80
  -5   4   4   -2.20    2.70
  -5   4   4    3.30    3.70
   4  -4  -4  117.09   10.20
   4  -4  -4  114.49   10.30
   4  -4  -4   69.29   14.00
   4  -4  -4   96.99   10.30
   4  -4  -4   82.79   11.10
   4  -4  -4   90.89   10.00
  -4   4   4   93.19   10.30
  -4   4   4  107.79   10.70
  -4   4   4  118.19   11.90
  -4   4   4  106.79   10.90
  -4   4   4  113.39   10.90
   3  -4  -4    3.60    1.10
   3  -4  -4    3.40    2.50
   3  -4  -4    3.90    2.80
   3  -4  -4   -0.90    2.00
   3  -4  -4    8.10    6.30
   3  -4  -4    1.10    2.20
   3  -4  -4    6.40    2.90
  -3   4   4    1.40    2.90
  -3   4   4    8.90    3.70
  -3   4   4   13.40    3.90
  -3   4   4    5.40    2.90
  -3   4   4    8.70    3.30
   2  -4  -4   38.60    4.30
   2  -4  -4   40.10    6.50
   2  -4  -4   46.00    5.90
   2  -4  -4   30.30    7.40
   2  -4  -4   31.80    7.50
   2  -4  -4   47.90    6.40
   2  -4  -4   35.20    8.70
  -2   4   4   53.99    8.10
  -2   4   4   30.60    5.90
  -2   4   4   37.80    6.50
  -2   4   4   42.00    8.00
  -2   4   4   49.90    7.10
   1  -4  -4  249.68   21.50
   1  -4  -4  235.48   23.00
   1  -4  -4  245.08   23.00
   1  -4  -4  297.67   23.40
   1  -4  -4  238.58   23.20
   1  -4  -4  292.07   25.50
   1  -4  -4  295.07   23.20
  -1   4   4  260.27   23.20
  -1   4   4  233.88   22.90
  -1   4   4  311.97   24.00
  -1   4   4  266.97   23.20
  -1   4   4  296.87   23.50
  -1   4   4  300.97   23.60
   0  -4  -4   15.10    4.40
   0  -4  -4   12.60    3.90
   0  -4  -4   10.50    5.10
   0  -4  -4   18.20    3.30
   0  -4  -4   17.60    4.40
   0  -4  -4   19.20    5.00
   0   4   4   10.10    3.80
   0   4   4   14.30    3.40
   0   4   4   13.00    3.80
   0   4   4   21.20    4.90
   0   4   4   21.70    5.20
   0   4   4   24.20    5.50
  -1  -4  -4  238.78   20.70
  -1  -4  -4  261.47   21.40
  -1  -4  -4  208.48   20.40
  -1  -4  -4  240.78   21.90
  -1  -4  -4  214.38   21.20
  -1  -4  -4  226.78   21.40
  -1  -4  -4  235.28   21.20
   1   4   4  272.17   20.90
   1   4   4  231.38   21.50
   1   4   4  266.07   21.60
   1   4   4  211.98   21.10
   1   4   4  232.68   21.20
   1   4   4  260.77   22.00
  -2  -4  -4    5.50    4.10
  -2  -4  -4   15.30    4.10
  -2  -4  -4    9.80    4.90
  -2  -4  -4    9.20    4.30
  -2  -4  -4   18.30    4.20
  -2  -4  -4   11.60    4.10
  -2  -4  -4   10.50    4.80
   2   4   4   12.10    5.30
   2   4   4    6.50    3.80
   2   4   4   15.00    5.10
   2   4   4   21.30    4.80
   2   4   4   15.90    4.50
   2   4   4   12.80    4.60
  -3  -4  -4  491.75   40.90
  -3  -4  -4  506.35   39.30
  -3  -4  -4  506.25   40.70
  -3  -4  -4  482.25   40.90
  -3  -4  -4  490.45   40.80
  -3  -4  -4  454.15   38.90
  -3  -4  -4  439.06   40.40
   3   4   4  435.76   40.10
   3   4   4  537.95   40.70
   3   4   4  526.75   40.90
   3   4   4  474.45   40.50
   3   4   4  458.85   40.30
  -4  -4  -4  387.56   34.40
  -4  -4  -4  377.96   34.30
  -4  -4  -4  387.86   34.20
  -4  -4  -4  390.46   34.80
  -4  -4  -4  352.56   31.90
  -4  -4  -4  393.76   34.10
   4   4   4  415.66   33.90
   4   4   4  436.36   34.60
   4   4   4  405.46   34.70
  -5  -4  -4   34.30    8.70
  -5  -4  -4   34.80    7.80
  -5  -4  -4   42.20    6.40
  -5  -4  -4   65.49   10.50
  -5  -4  -4   32.20    8.20
  -5  -4  -4   33.50    8.10
   5   4   4   60.79   10.00
  -6  -4  -4   77.89   12.10
  -6  -4  -4   75.49   12.70
  -6  -4  -4   81.89   12.90
  -6  -4  -4   43.10   10.50
  -6  -4  -4   55.49   11.60
   6   4   4   74.09   12.90
   6   4   4   87.59   14.50
   6  -5  -4    2.20    3.60
   6  -5  -4    4.80    5.60
   6  -5  -4   -4.00    7.60
  -6   5   4    8.60    5.10
  -6   5   4    7.20    4.30
  -6   5   4    5.30    4.60
  -6   5   4    2.10    3.90
  -6   5   4    6.90    4.80
   5  -5  -4    8.30    4.00
   5  -5  -4   11.80    5.90
   5  -5  -4   12.30    9.00
   5  -5  -4    5.50    5.20
   5  -5  -4    0.60    3.50
   5  -5  -4    8.90    3.50
  -5   5   4   10.80    4.30
  -5   5   4   14.10    4.60
  -5   5   4   11.70    6.30
  -5   5   4   10.80    3.80
  -5   5   4    5.60    3.80
   4  -5  -4   32.00    6.10
   4  -5  -4   31.00    5.80
   4  -5  -4   27.00   10.00
   4  -5  -4   34.90    8.00
  -4   5   4   49.60    7.00
  -4   5   4   41.50    6.90
  -4   5   4   34.90    6.60
  -4   5   4   27.00    6.20
  -4   5   4   39.50    6.60
   3  -5  -4    2.50    3.00
   3  -5  -4   -0.20    2.40
   3  -5  -4    0.40    5.20
   3  -5  -4    2.30    2.80
   3  -5  -4    2.70    1.30
   3  -5  -4    3.80    3.00
  -3   5   4    1.50    2.70
  -3   5   4    3.70    3.00
  -3   5   4   10.60    3.80
  -3   5   4    5.80    4.00
  -3   5   4    1.10    2.40
   2  -5  -4   -1.50    2.50
   2  -5  -4   -1.50    2.30
   2  -5  -4   10.40    3.60
   2  -5  -4   -1.10    4.30
   2  -5  -4    0.10    2.00
   2  -5  -4   -1.70    1.30
   2  -5  -4   -2.20    2.50
  -2   5   4    3.20    3.50
  -2   5   4    0.00    2.70
  -2   5   4    2.80    2.40
  -2   5   4    2.80    3.20
  -2   5   4    0.50    2.10
  -2   5   4    1.50    3.10
   1  -5  -4  191.58   16.40
   1  -5  -4  177.58   18.10
   1  -5  -4  224.68   20.90
   1  -5  -4  160.38   17.80
   1  -5  -4  200.48   18.20
  -1   5   4  194.98   18.30
  -1   5   4  175.08   18.20
  -1   5   4  231.18   18.90
  -1   5   4  221.58   19.10
  -1   5   4  229.68   18.60
  -1   5   4  187.98   18.30
   0  -5  -4    2.80    3.50
   0  -5  -4    0.70    2.90
   0  -5  -4    1.40    1.80
   0  -5  -4   -0.10    4.30
   0  -5  -4   -3.10    2.90
   0  -5  -4    1.00    3.00
   0  -5  -4    2.10    2.30
   0   5   4    0.80    2.70
   0   5   4    0.80    2.60
   0   5   4    2.90    2.70
   0   5   4    3.90    2.20
   0   5   4    3.60    3.20
   0   5   4   -1.40    2.70
  -1  -5  -4   32.30    6.40
  -1  -5  -4   41.90    8.30
  -1  -5  -4   29.70    6.80
  -1  -5  -4   37.90    7.20
  -1  -5  -4   46.90    7.70
  -1  -5  -4   39.90    6.10
  -1  -5  -4   38.70    7.80
  -1  -5  -4   45.80    9.70
   1   5   4   36.20    7.60
   1   5   4   47.10    8.10
   1   5   4   25.70    6.40
   1   5   4   47.50    7.90
   1   5   4   48.10    8.40
   1   5   4   49.10    8.00
  -2  -5  -4  280.87   27.20
  -2  -5  -4  301.07   27.10
  -2  -5  -4  326.47   27.10
  -2  -5  -4  274.97   25.70
  -2  -5  -4  277.77   26.70
  -2  -5  -4  297.37   27.30
  -2  -5  -4  294.27   25.30
   2   5   4  365.16   27.50
   2   5   4  334.67   29.40
   2   5   4  346.37   26.10
   2   5   4  280.87   26.70
   2   5   4  285.77   27.00
   2   5   4  267.77   26.90
  -3  -5  -4   18.20    5.70
  -3  -5  -4   15.60    5.60
  -3  -5  -4   10.40    4.00
  -3  -5  -4   22.40    8.40
  -3  -5  -4    6.30    5.50
  -3  -5  -4   12.60    4.00
  -3  -5  -4   15.40    6.10
   3   5   4   10.70    5.40
   3   5   4   20.70    6.30
   3   5   4   20.40    6.50
   3   5   4   15.30    6.10
   3   5   4   12.60    5.70
  -4  -5  -4   28.60    6.20
  -4  -5  -4   32.10    8.90
  -4  -5  -4   33.90    7.40
  -4  -5  -4   30.20    9.70
  -4  -5  -4   20.90    6.40
  -4  -5  -4   30.70    7.60
  -4  -5  -4   40.90    7.50
   4   5   4   50.59   10.10
   4   5   4   28.00    8.00
   4   5   4   38.70    8.70
   4   5   4   37.20    9.50
   4   5   4   37.50    8.40
  -5  -5  -4   93.69   12.60
  -5  -5  -4   69.19   12.30
  -5  -5  -4   40.80   10.50
  -5  -5  -4   69.09    9.80
  -5  -5  -4   68.09   11.40
   5   5   4   84.19   12.50
   6  -6  -4   -2.60    7.80
   6  -6  -4   -5.20    6.40
   6  -6  -4    4.00    4.70
  -6   6   4   -1.60    5.30
  -6   6   4    0.30    4.70
  -6   6   4    3.80    5.50
  -6   6   4    0.40    4.90
   5  -6  -4   19.60    8.50
   5  -6  -4   29.30    6.60
   5  -6  -4   17.70    5.00
   5  -6  -4   28.60    5.50
   5  -6  -4   16.90    6.10
  -5   6   4   20.50    5.70
  -5   6   4   38.10    6.70
  -5   6   4   43.00    7.80
  -5   6   4   29.70    6.00
  -5   6   4   25.40    5.90
   4  -6  -4   90.39   11.70
   4  -6  -4  105.39   12.10
   4  -6  -4  105.19   12.80
   4  -6  -4  102.19   11.40
  -4   6   4   98.49   12.70
  -4   6   4   96.79   11.60
  -4   6   4  111.29   12.00
  -4   6   4  113.99   12.60
  -4   6   4  111.29   11.90
   3  -6  -4   14.90    4.90
   3  -6  -4   20.10    5.10
   3  -6  -4   10.00    8.00
   3  -6  -4   13.20    5.30
   3  -6  -4   18.30    4.60
   3  -6  -4   14.10    4.70
  -3   6   4   24.50    5.90
  -3   6   4   31.20    6.00
  -3   6   4   27.90   10.50
   2  -6  -4    3.50    3.60
   2  -6  -4    1.80    3.60
   2  -6  -4    3.50    3.50
   2  -6  -4   -2.70    2.20
   2  -6  -4    2.40    1.90
   2  -6  -4   -1.40    3.30
   2  -6  -4   -3.10    5.10
  -2   6   4    2.30    4.00
  -2   6   4   11.60    4.30
  -2   6   4    1.70    3.80
  -2   6   4   -1.90    3.50
  -2   6   4   -0.70    2.50
  -2   6   4   -1.40    3.30
   1  -6  -4  145.99   13.70
   1  -6  -4  113.09   13.10
   1  -6  -4  127.09   15.20
   1  -6  -4  101.29   12.50
   1  -6  -4  111.39   10.90
   1  -6  -4  116.59   13.50
  -1   6   4  100.49   13.10
  -1   6   4  113.09   13.60
  -1   6   4  114.99   13.10
  -1   6   4  139.19   13.30
  -1   6   4  144.89   14.40
  -1   6   4  146.09   14.10
   0  -6  -4   62.39    9.50
   0  -6  -4   46.00    8.10
   0  -6  -4   39.80    8.20
   0  -6  -4   65.29   13.20
   0  -6  -4   57.79    7.90
   0   6   4   43.70    8.10
   0   6   4   34.50    7.40
   0   6   4   42.50    8.50
   0   6   4   49.90    9.20
   0   6   4   57.39    9.70
  -1  -6  -4   64.69    9.80
  -1  -6  -4   62.79   11.90
  -1  -6  -4   46.90    7.60
  -1  -6  -4   54.49    9.50
  -1  -6  -4   69.89   13.70
  -1  -6  -4   68.69    9.50
  -1  -6  -4   58.19    8.20
  -1  -6  -4   55.19   10.00
   1   6   4   70.29    8.70
   1   6   4   94.79   13.50
   1   6   4   60.29   10.70
   1   6   4   76.39   10.70
   1   6   4   56.19    9.50
   1   6   4   55.99    9.30
  -2  -6  -4    8.80    3.40
  -2  -6  -4    2.30    5.40
  -2  -6  -4    2.70    3.50
  -2  -6  -4    9.10    4.00
  -2  -6  -4    4.50    4.80
  -2  -6  -4    5.40    7.30
  -2  -6  -4    5.00    5.30
  -2  -6  -4    1.00    2.90
   2   6   4    4.50    3.10
   2   6   4    3.30    5.10
   2   6   4    0.00    4.30
   2   6   4    6.80    4.90
   2   6   4    1.40    4.70
   2   6   4   -0.50    4.60
  -3  -6  -4  156.08   15.40
  -3  -6  -4  158.98   17.00
  -3  -6  -4  152.88   16.60
  -3  -6  -4  147.29   17.00
  -3  -6  -4  156.78   18.40
  -3  -6  -4  163.78   18.60
  -3  -6  -4  135.89   15.30
   3   6   4  150.68   21.40
   3   6   4  194.28   17.90
   3   6   4  146.79   24.10
   3   6   4  197.28   24.10
   3   6   4  134.39   16.90
  -4  -6  -4   25.70    7.00
  -4  -6  -4   21.00    6.60
  -4  -6  -4   24.10    7.90
  -4  -6  -4   28.70    9.10
  -4  -6  -4   15.90    5.10
  -4  -6  -4   19.80    6.70
   4   6   4   37.10   12.90
   4   6   4   15.60    7.70
   4   6   4   15.20    8.00
  -5  -6  -4   33.60   11.10
  -5  -6  -4   29.60    8.10
  -5  -6  -4   49.40   10.50
  -5  -6  -4   22.00    6.80
  -5  -6  -4   42.90    9.10
  -5  -6  -4   45.30   15.20
   5   6   4   42.00   10.70
   5   6   4   58.19   11.80
   6  -7  -4    0.60    7.60
   6  -7  -4   -6.60    5.50
   6  -7  -4   -6.00    7.50
   6  -7  -4    0.70    9.20
  -6   7   4    0.10    5.40
  -6   7   4    3.90    6.10
  -6   7   4   17.90    6.40
  -6   7   4   -1.60    5.90
   5  -7  -4   29.10    6.20
   5  -7  -4   -1.60    8.00
   5  -7  -4   21.50    6.20
   5  -7  -4   26.70    9.70
  -5   7   4   19.40    6.00
  -5   7   4   24.20    6.50
  -5   7   4   20.00    6.80
  -5   7   4   21.80    7.10
   4  -7  -4   15.20    8.60
   4  -7  -4   13.10    5.30
   4  -7  -4   15.60    5.30
   4  -7  -4   12.50    5.60
   4  -7  -4   14.90    5.50
  -4   7   4   19.20    5.60
  -4   7   4   13.30    5.60
  -4   7   4   10.60    5.00
  -4   7   4   25.40    5.90
  -4   7   4   17.20    5.20
   3  -7  -4   41.60    8.80
   3  -7  -4   41.80   12.50
   3  -7  -4   50.89    4.90
   3  -7  -4   51.89    8.00
   3  -7  -4   32.90    8.30
   3  -7  -4   31.50    7.70
   3  -7  -4   53.59    8.50
  -3   7   4   63.49    8.50
  -3   7   4   44.00    7.90
  -3   7   4   65.09    9.60
  -3   7   4   42.80    8.30
  -3   7   4   45.20    7.80
  -3   7   4   51.29    9.00
   2  -7  -4   83.89    9.90
   2  -7  -4   58.39    9.80
   2  -7  -4   49.40    8.80
   2  -7  -4   70.49   15.10
   2  -7  -4   53.69    9.60
   2  -7  -4   49.70    9.00
   2  -7  -4   60.19    6.80
  -2   7   4   85.29   10.10
  -2   7   4   88.79   11.30
  -2   7   4   66.59    9.80
  -2   7   4   47.20    9.60
  -2   7   4   74.79   11.70
   1  -7  -4   77.99   11.10
   1  -7  -4   44.20    8.20
   1  -7  -4   64.59    9.00
   1  -7  -4   47.90    9.20
   1  -7  -4   55.99    6.90
   1  -7  -4   36.50    7.00
   1  -7  -4   59.79   13.30
  -1   7   4   52.29    9.20
  -1   7   4   68.69   11.70
  -1   7   4   53.69    9.50
  -1   7   4   72.69   14.50
  -1   7   4   47.60    9.20
  -1   7   4   78.59   10.80
   0  -7  -4  183.88   19.70
   0  -7  -4  164.38   16.90
   0  -7  -4  208.08   21.30
   0  -7  -4  159.08   18.40
   0  -7  -4  224.28   19.80
   0  -7  -4  181.88   19.90
   0  -7  -4  237.68   20.10
   0   7   4  225.88   20.20
   0   7   4  244.08   20.50
   0   7   4  186.08   19.50
   0   7   4  165.88   19.50
  -1  -7  -4   58.39   11.00
  -1  -7  -4   83.69   12.30
  -1  -7  -4   72.59    9.70
  -1  -7  -4   92.39   11.10
  -1  -7  -4   60.89   17.10
  -1  -7  -4   78.79   11.80
  -1  -7  -4   66.39    8.40
   1   7   4   75.79   11.80
   1   7   4   53.09   10.30
   1   7   4   48.00    9.40
   1   7   4   99.79   13.30
   1   7   4   96.79   19.30
   1   7   4   72.09   11.60
  -2  -7  -4  101.19   11.50
  -2  -7  -4   86.49   11.40
  -2  -7  -4   85.09   15.60
  -2  -7  -4   90.39   12.40
  -2  -7  -4  104.39   13.80
  -2  -7  -4  102.29   16.80
  -2  -7  -4  131.59   15.50
  -2  -7  -4   96.49   15.40
   2   7   4  115.69   14.10
   2   7   4   93.69   14.30
   2   7   4   95.69   15.30
   2   7   4   95.39   19.90
   2   7   4   80.69   16.40
   2   7   4  114.49   13.90
  -3  -7  -4   12.30    5.60
  -3  -7  -4    7.50    6.20
  -3  -7  -4   12.80    7.70
  -3  -7  -4   15.90    9.10
  -3  -7  -4   11.10    5.50
  -3  -7  -4   15.90    5.50
  -3  -7  -4    5.30   11.30
  -3  -7  -4    2.80    5.30
   3   7   4   12.00   10.00
   3   7   4   14.40    7.60
   3   7   4   -3.30    9.90
   3   7   4   12.90    6.40
   3   7   4   19.60    8.00
  -4  -7  -4   -5.50    8.40
  -4  -7  -4    5.90    6.50
  -4  -7  -4    4.20   11.80
  -4  -7  -4   -1.70    4.70
  -4  -7  -4    4.70    5.90
  -4  -7  -4    0.30    6.60
   4   7   4   -2.40    7.90
   4   7   4  -11.40    7.80
   5  -8  -4    0.20    7.20
   5  -8  -4    8.10    9.30
  -5   8   4   24.30    7.90
  -5   8   4   16.70    6.40
  -5   8   4    1.20    5.70
   4  -8  -4   46.90    9.60
   4  -8  -4   29.00    7.30
   4  -8  -4   46.30    7.70
   4  -8  -4   35.70   12.70
  -4   8   4   33.60    8.60
  -4   8   4   28.30    7.80
  -4   8   4   53.39   10.00
  -4   8   4   53.29    9.30
  -4   8   4   38.50    8.70
   3  -8  -4    1.60    5.30
   3  -8  -4    1.00    7.30
   3  -8  -4    2.40    1.90
   3  -8  -4    8.80    5.30
   3  -8  -4    1.80    4.90
   3  -8  -4    4.10    4.70
   3  -8  -4   -5.70    5.00
  -3   8   4    3.10    6.00
  -3   8   4    2.60    4.70
  -3   8   4   -6.00    6.00
  -3   8   4   15.10    5.20
  -3   8   4    2.80    5.40
  -3   8   4    0.90    5.60
   2  -8  -4   -3.70    5.30
   2  -8  -4   13.90    7.40
   2  -8  -4   -1.90    5.30
   2  -8  -4    2.90    4.50
   2  -8  -4    6.60    5.50
   2  -8  -4   -1.20    2.70
  -2   8   4    2.10    4.00
  -2   8   4   14.80   11.30
  -2   8   4    3.80    5.60
  -2   8   4   -3.20    5.60
  -2   8   4    4.70    4.90
  -2   8   4    6.00    5.90
   1  -8  -4   30.70    7.10
   1  -8  -4   33.30    7.80
   1  -8  -4   22.40    8.30
   1  -8  -4   25.70    8.70
   1  -8  -4   23.70    6.30
   1  -8  -4   23.60    4.60
   1  -8  -4   18.90    7.50
  -1   8   4   31.50    8.10
  -1   8   4   27.20    6.90
  -1   8   4   30.40    7.80
  -1   8   4   22.20   10.60
  -1   8   4   15.70    7.20
  -1   8   4   22.60    6.40
   0  -8  -4  145.39   18.90
   0  -8  -4  207.48   18.90
   0  -8  -4  204.08   21.00
   0  -8  -4  164.48   18.20
   0  -8  -4  166.78   16.10
   0  -8  -4  225.98   19.80
   0  -8  -4  143.89   19.10
   0   8   4  201.48   19.70
   0   8   4  143.59   19.30
   0   8   4  133.69   18.80
   0   8   4  203.78   19.40
   0   8   4  154.68   21.80
   0   8   4  183.48   18.20
  -1  -8  -4   50.89   11.50
  -1  -8  -4   56.69    8.00
  -1  -8  -4   51.59   10.60
  -1  -8  -4   57.69    9.90
  -1  -8  -4   41.30   10.10
  -1  -8  -4   70.89   11.10
  -1  -8  -4   59.79   12.90
   1   8   4   53.79   11.10
   1   8   4   53.19   11.00
   1   8   4   48.50    9.00
   1   8   4   45.10    9.40
   1   8   4   56.19   10.30
   1   8   4   40.80    9.90
  -2  -8  -4   -2.90    4.20
  -2  -8  -4   -2.30    4.90
  -2  -8  -4   14.20    9.30
  -2  -8  -4  -25.20   11.70
  -2  -8  -4   14.40    8.90
  -2  -8  -4   11.10    5.60
  -2  -8  -4    2.80    5.80
   2   8   4    6.10   10.20
   2   8   4    4.30    6.90
   2   8   4   -5.10    6.70
   2   8   4   -2.70    6.50
   2   8   4   -1.90    3.40
   2   8   4   -8.10    6.20
  -3  -8  -4   -4.40    4.90
  -3  -8  -4   -9.90    8.70
  -3  -8  -4    0.00    9.10
  -3  -8  -4    7.90    5.00
  -3  -8  -4   -0.20    5.80
  -3  -8  -4    3.90    9.40
  -3  -8  -4   -3.90    5.80
   3   8   4  -16.80    7.70
   3   8   4  -19.30    6.80
  -4  -8  -4    2.80    5.60
  -4  -8  -4    1.70    7.10
  -4  -8  -4   -6.30   13.30
  -4  -8  -4   10.00    7.30
  -4  -8  -4   18.90   11.70
  -4  -8  -4   28.60   11.90
  -4  -8  -4    2.70    6.80
   4   8   4    6.00   11.20
   4   8   4   18.50   11.10
   5  -9  -4   -3.30    7.30
   5  -9  -4    0.30    7.40
   5  -9  -4    0.00    8.10
  -5   9   4    9.10    7.20
  -5   9   4   11.40    9.50
  -5   9   4   30.40    8.80
  -5   9   4   -6.20    7.30
  -5   9   4    2.90    7.30
   4  -9  -4   10.70    7.60
   4  -9  -4   -2.00    6.10
   4  -9  -4   -3.00    7.10
  -4   9   4   -9.60    7.70
  -4   9   4  -21.80    8.00
  -4   9   4    3.10    6.90
  -4   9   4   -1.70    5.40
   3  -9  -4    2.40    5.80
   3  -9  -4   -2.70    5.90
   3  -9  -4   -4.80    2.00
   3  -9  -4    7.60    8.40
  -3   9   4  -12.30    6.20
  -3   9   4   -2.20    5.50
  -3   9   4   -8.10    6.00
  -3   9   4    0.70    5.50
   2  -9  -4   12.90    6.40
   2  -9  -4    0.60    3.40
   2  -9  -4   12.50    7.10
   2  -9  -4   -0.20    5.90
   2  -9  -4   11.50    9.80
   2  -9  -4    3.40    7.70
   2  -9  -4   18.60    9.10
  -2   9   4    2.00   12.10
  -2   9   4    6.90    5.20
  -2   9   4   17.00    8.30
  -2   9   4    6.70    7.30
  -2   9   4    8.40    6.70
  -2   9   4   -9.30    5.80
   1  -9  -4   52.39    7.40
   1  -9  -4   49.00   13.40
   1  -9  -4   61.09   11.90
   1  -9  -4   34.10    7.90
   1  -9  -4   41.00    9.30
   1  -9  -4   47.80    9.70
   1  -9  -4   48.10    9.30
  -1   9   4   57.39   10.90
  -1   9   4   34.90    9.90
  -1   9   4   49.20   10.10
  -1   9   4   54.39   11.20
  -1   9   4   63.89   11.00
  -1   9   4   43.20   11.00
   0  -9  -4    6.00    4.20
   0  -9  -4   15.50    9.60
   0  -9  -4   20.50   10.00
   0  -9  -4   10.60    6.30
   0  -9  -4   21.10   10.80
   0  -9  -4   10.90    5.50
   0  -9  -4   27.60    9.20
   0   9   4   31.40    8.40
   0   9   4   14.60    5.90
   0   9   4   10.70    8.80
   0   9   4    8.70    7.20
   0   9   4   24.20    8.00
   0   9   4   26.10    9.20
  -1  -9  -4    7.60    4.60
  -1  -9  -4   -4.20    8.60
  -1  -9  -4    1.50    8.30
  -1  -9  -4   21.20    5.60
  -1  -9  -4   17.60    7.20
  -1  -9  -4    1.00    6.10
  -1  -9  -4    3.80    8.60
   1   9   4   14.30   11.50
   1   9   4   18.80   11.00
   1   9   4   -2.20    7.40
   1   9   4    0.10    4.30
   1   9   4   12.80    8.70
  -2  -9  -4   29.00    9.40
  -2  -9  -4   17.40   13.10
  -2  -9  -4   34.30   13.00
  -2  -9  -4   48.10   13.40
  -2  -9  -4   61.19   11.90
  -2  -9  -4   30.20    9.00
   2   9   4   32.40   10.50
   2   9   4   58.49   11.20
  -3  -9  -4   16.40   13.90
  -3  -9  -4    8.30   12.90
  -3  -9  -4  -14.60    6.70
  -3  -9  -4  -15.80   10.70
  -3  -9  -4    5.00   10.20
  -3  -9  -4    0.10   12.60
   3   9   4   -5.20   10.70
   3   9   4   20.90   10.10
   4 -10  -4   19.30   11.00
   4 -10  -4   16.10    8.70
   4 -10  -4   -0.70    7.60
  -4  10   4   19.20   10.80
  -4  10   4   -1.10   11.60
  -4  10   4   -1.30    7.20
  -4  10   4    7.80    8.50
  -4  10   4   -2.50    5.80
   3 -10  -4   -4.30    2.80
   3 -10  -4   -9.60    7.00
   3 -10  -4    3.90    7.50
   3 -10  -4    0.70    8.10
  -3  10   4  -21.10    7.80
  -3  10   4   -7.60    9.70
  -3  10   4  -13.30   10.60
  -3  10   4   -1.10    7.60
   2 -10  -4    5.50    9.10
   2 -10  -4    8.70    6.90
   2 -10  -4   -5.30    3.90
   2 -10  -4   -2.70    7.20
  -2  10   4   -5.20    5.00
  -2  10   4   -1.30    8.80
  -2  10   4  -10.40    9.40
  -2  10   4   -2.00    6.60
   1 -10  -4   52.59   10.20
   1 -10  -4   34.10   13.40
   1 -10  -4   37.50    6.80
   1 -10  -4   54.29   13.10
  -1  10   4   51.09   14.10
  -1  10   4   37.50   11.50
  -1  10   4   59.79   11.60
  -1  10   4   31.80   10.50
  -1  10   4   54.39   10.20
   0 -10  -4    6.20    7.60
   0 -10  -4   -1.20    8.40
   0 -10  -4    2.20   10.60
   0  10   4   -8.60    9.90
   0  10   4    8.80    8.70
   0  10   4    3.90    9.10
   0  10   4   16.40    9.80
   0  10   4   -3.50    5.30
  -1 -10  -4   16.70   10.00
  -1 -10  -4   27.20   13.00
  -1 -10  -4    7.40   13.20
  -1 -10  -4   11.60    7.80
  -1 -10  -4   15.70   10.70
   1  10   4   -5.30    9.00
   1  10   4    8.70   12.60
   1  10   4   29.40   10.60
   1  10   4   10.10    7.00
  -2 -10  -4    0.50   14.80
  -2 -10  -4   34.70   12.30
  -2 -10  -4    5.90    7.80
  -2 -10  -4   34.70   24.70
   2  10   4   31.30   11.90
   2  10   4   13.90   11.40
   2 -11  -4   11.60    5.60
   2 -11  -4    8.70    9.00
   2 -11  -4   22.80    9.30
  -2  11   4   19.40   12.40
  -2  11   4   17.40    7.60
  -2  11   4    3.60   12.90
  -2  11   4  -14.00    9.90
   1 -11  -4   -2.90   10.40
   1 -11  -4   -5.40    8.30
   1 -11  -4    1.70   10.20
   1 -11  -4    3.20    5.50
  -1  11   4   21.20   14.40
  -1  11   4  -20.40   15.20
  -1  11   4   -1.80    9.10
  -1  11   4  -10.20    5.30
  -1  11   4  -15.00   10.00
   0 -11  -4    5.80   11.10
   0 -11  -4   -5.70    6.20
   0 -11  -4   10.40    9.80
   0 -11  -4   34.00   21.90
   0 -11  -4   -2.10    8.90
   0  11   4   13.30   11.50
   0  11   4   45.70   16.70
   0  11   4    8.40   10.60
   0  11   4    5.60    6.80
   0  14  -5   -5.90    5.70
   0  14  -5   -5.00   15.20
   0  14  -5   -6.50    8.90
   0  14  -5  -22.60    9.20
   0 -14   5   -4.90    5.10
   0 -14   5  -16.40   14.60
   0 -14   5    0.30    7.00
  -1  14  -5    3.70    9.00
  -1  14  -5  -14.00    9.90
  -1  14  -5  -11.20   13.30
   1 -14   5  -33.50   14.90
   1 -14   5  -13.80    8.20
   1 -14   5    5.00    5.00
   1 -14   5    1.20    8.40
   2  13  -5    3.10    6.70
   2  13  -5   13.10    7.80
   2  13  -5   10.90    7.10
   2  13  -5   -2.20   16.60
  -2 -13   5  -16.00   11.00
  -2 -13   5   -6.40    7.20
  -2 -13   5   -1.80    6.90
  -2 -13   5  -20.80   10.70
   1  13  -5   44.50    9.90
   1  13  -5   46.90   11.40
   1  13  -5   50.29    9.50
   1  13  -5   31.70    8.50
  -1 -13   5   39.30    9.60
  -1 -13   5   41.70   12.40
  -1 -13   5   37.20    7.70
  -1 -13   5   27.30    9.20
  -1 -13   5   41.90   16.00
   0  13  -5   13.70    5.60
   0  13  -5   -0.70    7.40
   0  13  -5   18.60    7.20
   0  13  -5   25.90    9.80
   0 -13   5   11.30    6.50
   0 -13   5   11.40    4.30
   0 -13   5   -3.50   10.70
   0 -13   5  -12.20    9.60
   0 -13   5   -7.00    6.40
  -1  13  -5  -13.20    8.90
  -1  13  -5   -6.30    6.90
  -1  13  -5   -4.80    7.40
  -1  13  -5    2.20    9.80
   1 -13   5    1.20    3.80
   1 -13   5    1.40    9.60
   1 -13   5   -6.60    6.70
   1 -13   5   -5.20   11.90
   1 -13   5  -18.50    6.70
  -2  13  -5   26.50    9.20
  -2  13  -5   58.89   12.80
  -2  13  -5   37.70   11.40
  -2  13  -5   47.90   13.00
   2 -13   5   36.30   10.40
   2 -13   5   34.80    5.90
   2 -13   5   40.00   12.00
   2 -13   5   38.70   13.60
  -3  13  -5   23.10   11.60
  -3  13  -5   39.30   12.60
  -3  13  -5   22.60    9.60
   3 -13   5   21.30    4.50
   3 -13   5    8.50    8.70
   3 -13   5    2.00    8.00
   3  12  -5   -1.00   10.10
   3  12  -5    5.70    6.90
   3  12  -5    6.00    7.20
   3  12  -5   -5.50   10.20
  -3 -12   5   -3.80    8.40
  -3 -12   5   -2.00    5.70
   2  12  -5    7.60    6.20
   2  12  -5   -1.30    7.60
   2  12  -5    3.90    6.10
  -2 -12   5   -9.40    7.90
  -2 -12   5    3.00    4.30
  -2 -12   5   -6.30    5.20
  -2 -12   5   24.70   11.10
  -2 -12   5    0.20    5.50
   1  12  -5   19.10    7.50
   1  12  -5   15.60    5.90
   1  12  -5   13.40    5.80
   1  12  -5   13.10    7.60
   1  12  -5   37.00    9.10
  -1 -12   5   25.70    8.90
  -1 -12   5   17.40    4.80
  -1 -12   5   19.20    6.70
  -1 -12   5   11.10    8.60
  -1 -12   5   10.50    5.80
   0  12  -5   11.10    6.40
   0  12  -5   21.20    5.70
   0  12  -5   33.50    9.10
   0  12  -5   21.60    7.70
   0  12  -5    7.00    6.60
   0 -12   5   18.70    6.40
   0 -12   5   18.10    4.50
   0 -12   5   14.00    6.70
   0 -12   5   17.40    9.10
   0 -12   5   22.10    6.50
   0 -12   5   26.00    8.60
  -1  12  -5   52.49    9.80
  -1  12  -5   74.19   12.70
  -1  12  -5  106.29   13.90
  -1  12  -5   86.29   18.60
   1 -12   5   66.59   12.20
   1 -12   5   62.69    8.10
   1 -12   5   60.89   10.50
   1 -12   5   46.10   10.80
   1 -12   5   69.99   12.10
  -2  12  -5   10.30    6.70
  -2  12  -5   18.90    9.20
  -2  12  -5   16.50    8.10
  -2  12  -5    5.30    7.60
   2 -12   5   14.90    4.00
   2 -12   5    9.70    6.80
   2 -12   5   12.30    6.30
   2 -12   5   13.30    7.80
   2 -12   5    8.90    6.50
   2 -12   5   12.00    9.60
  -3  12  -5   57.49   10.30
  -3  12  -5   43.90   10.40
  -3  12  -5   76.09   12.00
   3 -12   5   73.49   12.10
   3 -12   5   36.00    5.50
   3 -12   5   45.30   10.50
   3 -12   5   42.50    9.80
   3 -12   5   80.79   19.40
  -4  12  -5  139.79   20.30
   4 -12   5  126.59   17.40
   4 -12   5  131.69   17.90
   4 -12   5  147.39   18.70
   4  11  -5    3.70    7.50
   4  11  -5    2.50    6.30
   4  11  -5   -8.70    7.40
  -4 -11   5   11.20    7.70
  -4 -11   5   17.50    8.20
  -4 -11   5    1.40    5.40
  -4 -11   5   -8.60    4.40
  -4 -11   5   -2.30    4.90
   3  11  -5   17.10    6.30
   3  11  -5   13.70    6.70
   3  11  -5   15.40    5.00
  -3 -11   5   25.70    7.70
  -3 -11   5   22.10    5.70
  -3 -11   5   14.80    5.20
  -3 -11   5    6.80    5.50
   2  11  -5    6.80    5.80
   2  11  -5   10.80    4.50
   2  11  -5    7.70    5.40
   2  11  -5    1.50    5.60
   2  11  -5   12.10    6.90
   2  11  -5   20.30    9.20
  -2 -11   5   13.20    5.40
  -2 -11   5   -4.90    6.20
  -2 -11   5   10.30    7.20
  -2 -11   5    7.70    5.20
  -2 -11   5   12.60    4.50
  -2 -11   5    6.30    4.60
   1  11  -5    1.10    3.80
   1  11  -5   -6.90    5.40
   1  11  -5   20.40    9.70
   1  11  -5    3.50    4.10
   1  11  -5    6.70    5.00
  -1 -11   5    3.40    6.30
  -1 -11   5    4.90    4.20
  -1 -11   5    6.40    7.00
  -1 -11   5   -0.70    3.30
  -1 -11   5   11.30    5.80
  -1 -11   5   14.90    5.60
   0  11  -5   -8.20    4.30
   0  11  -5    3.30    6.00
   0  11  -5   -3.20    4.60
   0  11  -5   -2.60    3.60
   0  11  -5    4.10    5.10
   0 -11   5   -6.20    6.30
   0 -11   5   -5.50    6.20
   0 -11   5   -2.10    5.70
   0 -11   5    3.40    4.90
   0 -11   5   -5.10    2.40
  -1  11  -5   -4.10    5.20
  -1  11  -5    4.10    5.60
  -1  11  -5    2.00    5.50
  -1  11  -5   -1.40    4.70
   1 -11   5   -4.80    2.90
   1 -11   5  -12.90    5.90
   1 -11   5    6.50    4.80
   1 -11   5   11.10    6.60
   1 -11   5    6.50    6.60
   1 -11   5   -5.30    4.20
  -2  11  -5    9.50    6.30
  -2  11  -5    8.00    6.50
  -2  11  -5   22.70    6.90
  -2  11  -5   16.30    5.90
   2 -11   5   -5.60    6.20
   2 -11   5    9.20    3.20
   2 -11   5    6.90    5.20
   2 -11   5    4.60    5.20
   2 -11   5   21.00    6.10
   2 -11   5   22.30    7.80
  -3  11  -5  137.09   15.20
  -3  11  -5  155.88   16.40
  -3  11  -5  133.79   15.80
   3 -11   5   98.69   18.70
   3 -11   5   83.19   14.20
   3 -11   5  100.09   14.30
   3 -11   5  108.69   10.90
   3 -11   5  121.49   15.20
   3 -11   5  126.29   15.20
  -4  11  -5  167.58   19.10
  -4  11  -5  145.99   24.20
   4 -11   5  130.19   17.60
   4 -11   5  135.19   17.30
   4 -11   5  135.79   12.80
   4 -11   5  156.48   17.00
  -5  11  -5    9.50    8.50
  -5  11  -5   -4.00    7.20
  -5  11  -5   -9.00    8.20
  -5  11  -5    3.60    6.60
  -5  11  -5    4.30    8.80
   5 -11   5    4.00    8.00
   5 -11   5    4.60    6.20
   5  10  -5  138.49   18.10
  -5 -10   5  115.69   13.90
  -5 -10   5  120.19   14.00
  -5 -10   5  149.99   14.60
  -5 -10   5   94.39   17.60
  -5 -10   5  136.09   16.80
   4  10  -5    7.70    5.20
   4  10  -5   14.00    4.60
   4  10  -5    7.40    6.10
   4  10  -5    3.20    5.80
  -4 -10   5   13.00    5.00
  -4 -10   5    5.50    4.10
  -4 -10   5   12.40    7.60
  -4 -10   5   11.30    6.80
  -4 -10   5    9.80    4.70
  -4 -10   5   28.10    9.70
   3  10  -5   -1.50    5.10
   3  10  -5    6.70    4.50
   3  10  -5    6.60    5.40
   3  10  -5    5.00    3.50
   3  10  -5    5.60    5.90
  -3 -10   5   -2.20    5.30
  -3 -10   5   -2.30    3.40
  -3 -10   5    1.60    5.50
  -3 -10   5    3.30    4.10
  -3 -10   5    4.90    4.10
  -3 -10   5   10.80    6.10
   2  10  -5   10.40    4.80
   2  10  -5   23.60    6.50
   2  10  -5    9.50    4.70
   2  10  -5    6.90    3.40
  -2 -10   5    9.50    3.60
  -2 -10   5    5.70    4.00
  -2 -10   5    8.90    6.40
  -2 -10   5    0.30    5.00
  -2 -10   5   15.10    4.90
  -2 -10   5   20.80    6.10
   1  10  -5   47.40    7.10
   1  10  -5   55.99    9.30
   1  10  -5   59.79    8.60
   1  10  -5   62.99    9.10
   1  10  -5   71.59    9.60
   1  10  -5   46.10    8.10
  -1 -10   5   45.30    9.20
  -1 -10   5   75.29    9.30
  -1 -10   5   46.50    9.40
  -1 -10   5   49.20    9.20
  -1 -10   5   50.69    9.10
   0  10  -5    3.40    4.40
   0  10  -5    1.20    4.50
   0  10  -5    7.10    3.60
   0  10  -5    4.50    5.70
   0  10  -5    0.70    3.10
   0  10  -5    9.70    4.50
   0 -10   5    0.50    3.20
   0 -10   5    6.50    2.90
   0 -10   5    7.20    4.10
   0 -10   5   -2.60    5.20
   0 -10   5    2.40    4.20
  -1  10  -5   -4.10    3.50
  -1  10  -5   -4.70    4.00
  -1  10  -5   -0.30    4.00
  -1  10  -5   -4.90    5.00
   1 -10   5   -4.80    2.00
   1 -10   5   -1.20    3.90
   1 -10   5   -3.20    2.60
   1 -10   5   -5.90    5.40
   1 -10   5    2.90    4.30
   1 -10   5   -6.20    4.40
  -2  10  -5   93.99   11.70
  -2  10  -5   77.99   11.30
  -2  10  -5   85.89   11.80
  -2  10  -5   83.19   11.20
   2 -10   5   77.39    8.50
   2 -10   5   86.29   11.40
   2 -10   5   82.89   10.90
   2 -10   5   73.49   10.50
   2 -10   5   55.59   11.40
   2 -10   5   90.89   12.10
  -3  10  -5   17.90    6.10
  -3  10  -5    7.10    5.30
   3 -10   5    8.80    5.20
   3 -10   5   11.50    5.70
   3 -10   5   22.30    5.30
   3 -10   5   10.50    2.90
   3 -10   5   16.50    7.50
  -4  10  -5   10.20    7.00
  -4  10  -5   22.30    7.20
  -4  10  -5   10.70    7.10
   4 -10   5   24.70    3.70
   4 -10   5   21.20    8.80
   4 -10   5   21.10    7.10
   4 -10   5   30.10    6.80
   4 -10   5   14.70    6.60
  -5  10  -5   -1.50    6.90
  -5  10  -5   -2.30    7.20
  -5  10  -5    6.10    6.10
  -5  10  -5    4.70    5.70
   5 -10   5   -1.80    5.10
   5 -10   5   -9.60    6.70
   5 -10   5   -4.30    6.70
   5   9  -5   -3.00    5.60
  -5  -9   5   -2.60    3.90
  -5  -9   5    8.90    6.20
  -5  -9   5   -2.30    3.70
  -5  -9   5    1.50    6.00
  -5  -9   5   -2.70    4.60
  -5  -9   5    0.90    4.20
   4   9  -5   13.90    5.20
   4   9  -5   -3.90    4.70
   4   9  -5    1.20    5.30
   4   9  -5    0.30    3.40
   4   9  -5   -0.60    4.50
  -4  -9   5    1.40    3.70
  -4  -9   5   -1.00    3.20
  -4  -9   5   -8.10    5.70
  -4  -9   5    5.00    3.70
  -4  -9   5    9.40    4.80
  -4  -9   5   10.40    4.80
   3   9  -5    5.40    4.40
   3   9  -5    1.90    2.50
   3   9  -5   10.10    4.70
   3   9  -5    3.80    3.60
   3   9  -5    5.00    4.90
  -3  -9   5    4.20    3.20
  -3  -9   5    6.00    3.60
  -3  -9   5    0.80    4.20
  -3  -9   5    1.80    4.40
  -3  -9   5   -3.70    4.40
  -3  -9   5    0.20    3.00
   2   9  -5  204.58   19.20
   2   9  -5  290.77   21.90
   2   9  -5  267.87   21.00
   2   9  -5  208.78   21.10
   2   9  -5  253.07   21.70
   2   9  -5  209.58   20.80
  -2  -9   5  230.18   24.10
  -2  -9   5  232.28   21.30
  -2  -9   5  275.07   21.80
  -2  -9   5  185.78   21.00
   1   9  -5   45.50    6.20
   1   9  -5   39.70    7.10
   1   9  -5   49.40    7.60
   1   9  -5   36.60    6.80
   1   9  -5   59.09    8.70
  -1  -9   5   53.89    8.80
  -1  -9   5   45.30    7.60
  -1  -9   5   44.20    7.70
  -1  -9   5   63.39    8.00
  -1  -9   5   51.19    6.50
  -1  -9   5   40.20    7.10
   0   9  -5   18.90    5.10
   0   9  -5   19.90    4.60
   0   9  -5   21.90    4.20
   0   9  -5   24.20    5.60
   0   9  -5   30.10    6.60
   0   9  -5   19.30    4.20
   0  -9   5   17.50    5.40
   0  -9   5   17.10    6.20
   0  -9   5   26.40    5.70
   0  -9   5   28.00    6.30
   0  -9   5   21.20    4.90
   0  -9   5   21.90    4.30
  -1   9  -5   22.90    5.60
  -1   9  -5   23.30    5.00
  -1   9  -5   37.70    7.60
  -1   9  -5   25.60    6.40
   1  -9   5   16.20    5.10
   1  -9   5   26.80    4.30
   1  -9   5   27.40    5.60
   1  -9   5   20.70    5.20
   1  -9   5   19.70    5.60
   1  -9   5   31.90    6.60
  -2   9  -5   18.20    5.10
  -2   9  -5   17.50    5.70
  -2   9  -5    9.10    4.60
   2  -9   5   13.60    4.90
   2  -9   5   22.90    5.50
   2  -9   5   12.40    5.30
   2  -9   5   17.40    5.00
   2  -9   5   25.30    5.80
   2  -9   5   11.90    3.30
  -3   9  -5   31.90    6.40
   3  -9   5   22.30    5.70
   3  -9   5   20.20    3.80
   3  -9   5   22.70    5.60
   3  -9   5   38.60    7.10
   3  -9   5   21.40    6.30
   3  -9   5   28.10    6.60
  -4   9  -5    5.50    4.20
  -4   9  -5    2.20    5.00
  -4   9  -5   -3.20    4.20
  -4   9  -5    0.10    4.70
   4  -9   5   -5.50    4.40
   4  -9   5    9.30    5.10
   4  -9   5   -2.20    5.10
   4  -9   5    0.40    2.30
   4  -9   5   -1.20    7.30
   4  -9   5   -3.30    3.50
  -5   9  -5    9.20    5.50
  -5   9  -5    5.00    5.70
  -5   9  -5    6.00    5.80
  -5   9  -5    6.40    6.20
  -5   9  -5    6.90    5.80
   5  -9   5   10.20    6.30
   5  -9   5    1.90    4.50
   5  -9   5   22.20    7.00
  -6   9  -5   27.90    9.40
  -6   9  -5   21.70    8.20
  -6   9  -5   17.40    7.60
  -6   9  -5   18.10    7.60
  -6   9  -5   39.80    9.70
   6  -9   5   35.90    6.70
   6  -9   5   28.40    9.80
   6  -9   5    3.20    9.00
   6   8  -5  142.39   18.20
  -6  -8   5  122.39   13.90
  -6  -8   5  137.69   13.50
  -6  -8   5  131.49   14.80
  -6  -8   5  145.19   14.90
  -6  -8   5   96.49   15.60
  -6  -8   5  137.79   14.40
   5   8  -5   11.90    4.50
   5   8  -5   25.00    7.40
  -5  -8   5   13.40    4.00
  -5  -8   5   10.20    5.10
  -5  -8   5   23.80    4.70
  -5  -8   5   13.20    4.10
  -5  -8   5    7.70    5.10
  -5  -8   5    7.40    4.60
   4   8  -5    5.00    6.70
   4   8  -5    1.30    3.80
  -4  -8   5    3.00    3.00
  -4  -8   5    7.50    3.90
  -4  -8   5   -3.50    2.90
  -4  -8   5    2.60    2.50
  -4  -8   5    4.50    3.90
  -4  -8   5    4.30    3.30
   3   8  -5   -0.50    4.40
   3   8  -5    6.10    3.30
   3   8  -5    2.20    3.90
   3   8  -5   -1.10    1.70
   3   8  -5    0.10    3.40
  -3  -8   5    3.90    3.50
  -3  -8   5   -0.30    3.70
  -3  -8   5    2.40    2.70
  -3  -8   5    1.00    2.70
  -3  -8   5   -4.10    2.20
   2   8  -5   50.39    6.10
   2   8  -5   54.69    7.60
   2   8  -5   53.99    7.70
   2   8  -5   74.79    9.00
   2   8  -5   55.09    7.70
   2   8  -5   57.59    8.60
  -2  -8   5   72.29    7.60
  -2  -8   5   60.89    8.40
  -2  -8   5   56.49    8.60
  -2  -8   5   80.09    8.10
  -2  -8   5   60.79    7.80
   1   8  -5   16.20    4.30
   1   8  -5   21.00    4.70
   1   8  -5   18.00    4.80
   1   8  -5   22.60    5.20
   1   8  -5   16.20    3.40
   1   8  -5   21.80    4.80
  -1  -8   5   18.20    3.80
  -1  -8   5   22.20    4.90
  -1  -8   5   27.90    5.30
  -1  -8   5   13.70    4.20
  -1  -8   5   17.40    5.50
   0   8  -5    8.30    3.50
   0   8  -5    4.60    3.40
   0   8  -5    7.30    5.40
   0   8  -5    4.50    2.90
   0  -8   5    0.10    2.70
   0  -8   5   -0.10    2.90
   0  -8   5    3.90    2.80
   0  -8   5    6.80    2.40
   0  -8   5    3.70    2.90
  -1   8  -5   19.30    4.80
  -1   8  -5   16.70    5.20
  -1   8  -5   11.40    3.80
   1  -8   5   18.50    5.00
   1  -8   5   13.70    4.10
   1  -8   5    8.20    4.00
   1  -8   5   11.60    3.10
   1  -8   5   13.30    4.30
   1  -8   5   13.10    4.60
  -2   8  -5   35.80    6.60
  -2   8  -5   34.90    6.20
   2  -8   5   29.00    6.30
   2  -8   5   34.20    6.70
   2  -8   5   35.50    7.00
   2  -8   5   29.40    4.60
   2  -8   5   33.00    6.30
   2  -8   5   26.90    5.50
  -3   8  -5   25.60    6.10
  -3   8  -5   26.20    6.50
  -3   8  -5   24.10    6.00
  -3   8  -5   27.50    4.00
   3  -8   5   25.10    6.30
   3  -8   5   22.20    6.50
   3  -8   5   25.40    4.00
   3  -8   5   17.60    6.20
   3  -8   5   18.30    5.70
   3  -8   5   21.40    5.10
  -4   8  -5   -4.00    3.80
  -4   8  -5    5.90    4.90
  -4   8  -5   -0.10    2.10
  -4   8  -5   -0.10    4.60
  -4   8  -5    2.20    4.00
  -4   8  -5    5.30    4.00
   4  -8   5    2.80    4.00
   4  -8   5   -7.60    4.40
   4  -8   5    5.00    4.20
   4  -8   5    4.60    3.40
   4  -8   5   -3.60    1.90
  -5   8  -5   21.90    6.30
  -5   8  -5   30.80    4.10
  -5   8  -5   16.00    6.00
  -5   8  -5   21.60    6.80
  -5   8  -5   35.30    7.50
  -5   8  -5    9.60    5.50
   5  -8   5   22.80    6.70
   5  -8   5   30.50    5.70
  -6   8  -5    6.20    7.80
  -6   8  -5    8.60    3.50
  -6   8  -5    1.80    6.00
  -6   8  -5   11.30    7.40
  -6   8  -5  -12.30    6.50
  -6   8  -5    0.30    5.90
   6  -8   5    1.40    7.10
   6   7  -5   45.50   10.70
  -6  -7   5   68.99    8.60
  -6  -7   5   78.49    8.50
  -6  -7   5   75.79    7.70
  -6  -7   5   58.29    9.20
  -6  -7   5   64.39    8.70
  -6  -7   5   82.09   10.20
   5   7  -5    2.90    3.20
   5   7  -5    5.00    4.70
  -5  -7   5    5.40    2.70
  -5  -7   5    4.50    3.40
  -5  -7   5   12.60    3.80
  -5  -7   5    5.70    3.70
  -5  -7   5    3.10    3.40
  -5  -7   5    5.90    3.00
   4   7  -5    8.60    4.60
   4   7  -5    8.80    3.70
   4   7  -5   12.10    3.70
  -4  -7   5   10.60    4.20
  -4  -7   5    9.30    3.50
  -4  -7   5   17.00    3.70
  -4  -7   5   14.50    3.20
  -4  -7   5   14.90    5.10
  -4  -7   5    8.00    3.90
   3   7  -5 1555.84  124.49
   3   7  -5 1532.45  124.39
   3   7  -5 1731.73  126.49
  -3  -7   5 1780.72  124.59
  -3  -7   5 1692.53  124.49
  -3  -7   5 1562.54  124.89
  -3  -7   5 1657.33  124.79
  -3  -7   5 1560.24  124.49
   2   7  -5   69.29    7.30
   2   7  -5   51.29    5.80
   2   7  -5   45.00    6.60
   2   7  -5   58.69    7.00
   2   7  -5   64.69    8.10
  -2  -7   5   49.99    7.50
  -2  -7   5   54.89    6.80
  -2  -7   5   53.99    6.70
  -2  -7   5   63.79    7.10
   1   7  -5   23.80    4.50
   1   7  -5   26.50    5.10
   1   7  -5   20.80    4.70
   1   7  -5   25.40    5.30
   1   7  -5   23.70    3.30
   1   7  -5   34.40    5.80
  -1  -7   5   34.10    5.40
  -1  -7   5   21.60    4.00
  -1  -7   5   25.70    5.40
  -1  -7   5   37.30    5.20
  -1  -7   5   25.20    4.50
   0   7  -5   77.69    8.90
   0   7  -5   80.99    9.10
   0   7  -5   87.39    8.80
   0  -7   5   69.39    7.60
   0  -7   5   82.49    9.00
   0  -7   5   78.99    9.10
   0  -7   5   70.19    8.60
   0  -7   5   77.89    8.70
  -1   7  -5  298.07   23.80
  -1   7  -5  324.77   25.20
  -1   7  -5  327.37   25.40
  -1   7  -5  310.97   25.10
   1  -7   5  270.87   23.80
   1  -7   5  297.47   25.50
   1  -7   5  299.47   25.20
   1  -7   5  292.37   25.10
   1  -7   5  283.67   25.00
   1  -7   5  275.27   23.30
  -2   7  -5   19.00    4.90
  -2   7  -5    9.50    3.70
  -2   7  -5   19.30    3.40
   2  -7   5   10.20    3.90
   2  -7   5   14.60    3.70
   2  -7   5   16.10    3.70
   2  -7   5   16.50    4.90
   2  -7   5   14.00    4.50
   2  -7   5   14.30    2.80
  -3   7  -5   17.80    4.70
  -3   7  -5   19.10    4.90
  -3   7  -5   13.70    4.60
  -3   7  -5   11.30    3.70
  -3   7  -5   14.00    5.50
  -3   7  -5   18.20    3.00
   3  -7   5   10.90    4.30
   3  -7   5    5.20    4.60
   3  -7   5   11.80    2.70
   3  -7   5    8.50    4.40
   3  -7   5   10.40    4.40
   3  -7   5   15.40    4.10
  -4   7  -5   -7.00    3.20
  -4   7  -5   -7.00    3.50
  -4   7  -5    4.00    4.10
  -4   7  -5   -2.00    3.50
  -4   7  -5   -9.40    3.30
  -4   7  -5    0.40    2.00
   4  -7   5   -8.50    3.70
   4  -7   5   -0.90    3.40
   4  -7   5    0.00    2.00
   4  -7   5   -1.60    3.40
   4  -7   5   -1.50    2.30
  -5   7  -5   -1.20    3.70
  -5   7  -5   -4.70    4.00
  -5   7  -5    1.10    4.50
  -5   7  -5   -1.70    2.70
  -5   7  -5   -3.70    4.10
  -5   7  -5    1.50    4.90
   5  -7   5    0.50    2.60
   5  -7   5    1.50    5.00
   5  -7   5    3.20    5.20
   5  -7   5   -1.20    4.20
   5  -7   5   -1.80    5.60
  -6   7  -5   -4.50    5.90
  -6   7  -5    4.60    7.20
  -6   7  -5   -1.40    5.90
  -6   7  -5   10.20    3.70
  -6   7  -5    2.40    6.00
   6  -7   5    4.90    6.90
   6   6  -5    1.80    5.90
  -6  -6   5   -1.80    4.10
  -6  -6   5    0.90    2.00
  -6  -6   5    1.20    1.80
  -6  -6   5    1.70    3.80
  -6  -6   5   -4.60    2.50
   5   6  -5    5.50    5.20
  -5  -6   5    1.70    2.20
  -5  -6   5    0.50    3.10
  -5  -6   5    0.80    2.70
  -5  -6   5    5.80    2.80
  -5  -6   5    0.90    2.30
   4   6  -5   -0.90    2.00
   4   6  -5   -3.10    4.10
   4   6  -5   -1.00    2.10
   4   6  -5    1.30    2.00
   4   6  -5    1.70    2.00
  -4  -6   5    2.00    2.70
  -4  -6   5    0.10    2.60
  -4  -6   5   -2.00    1.70
  -4  -6   5   -0.10    3.30
  -4  -6   5    0.30    2.10
   3   6  -5   36.60    5.20
   3   6  -5   36.70    5.30
   3   6  -5   30.30    6.30
  -3  -6   5   35.60    4.10
  -3  -6   5   44.30    5.90
  -3  -6   5   37.40    4.90
  -3  -6   5   33.20    5.80
  -3  -6   5   43.00    5.30
  -3  -6   5   41.70    6.00
   2   6  -5  202.48   16.60
   2   6  -5  187.58   17.20
   2   6  -5  199.88   17.70
  -2  -6   5  194.38   16.70
  -2  -6   5  189.18   16.60
  -2  -6   5  201.98   16.70
  -2  -6   5  188.78   16.60
  -2  -6   5  188.48   17.00
   1   6  -5   21.80    4.50
   1   6  -5   17.00    2.20
   1   6  -5   17.60    3.60
   1   6  -5   22.50    3.80
  -1  -6   5   17.50    3.70
  -1  -6   5   21.70    3.50
  -1  -6   5   21.70    4.00
  -1  -6   5   20.20    4.20
  -1  -6   5   16.40    4.10
  -1  -6   5   27.90    4.50
   0   6  -5  295.67   24.50
   0   6  -5  322.77   25.40
   0   6  -5  361.06   25.70
   0  -6   5  283.07   24.50
   0  -6   5  316.87   25.80
   0  -6   5  296.27   25.30
   0  -6   5  287.77   25.30
   0  -6   5  293.07   24.60
   0  -6   5  315.17   25.40
  -1   6  -5  189.98   15.70
  -1   6  -5  180.38   14.30
  -1   6  -5  166.48   15.80
  -1   6  -5  179.18   15.40
   1  -6   5  150.68   15.10
   1  -6   5  168.68   15.40
   1  -6   5  161.78   15.60
   1  -6   5  157.58   14.20
   1  -6   5  184.08   15.60
   1  -6   5  165.48   14.10
  -2   6  -5   62.39    8.20
  -2   6  -5   62.39    6.40
  -2   6  -5   78.89    8.40
  -2   6  -5   65.29    8.30
  -2   6  -5   78.49    8.30
  -2   6  -5   57.89    7.10
   2  -6   5   65.09    6.60
   2  -6   5   63.09    7.80
   2  -6   5   57.39    6.10
   2  -6   5   63.69    7.00
   2  -6   5   76.99    8.80
   2  -6   5   64.19    8.00
   2  -6   5   56.89    7.90
  -3   6  -5   39.00    6.60
  -3   6  -5   42.10    7.20
  -3   6  -5   52.79    6.80
  -3   6  -5   33.10    6.20
  -3   6  -5   26.80    5.90
  -3   6  -5   43.90    4.80
   3  -6   5   37.90    4.80
   3  -6   5   28.80    6.80
   3  -6   5   41.70    7.10
   3  -6   5   23.90    5.60
   3  -6   5   25.10    5.70
   3  -6   5   39.90    5.30
  -4   6  -5    8.20    3.10
  -4   6  -5   11.30    4.50
  -4   6  -5    5.90    4.30
  -4   6  -5   13.40    4.60
  -4   6  -5    7.30    4.80
   4  -6   5    6.30    4.10
   4  -6   5   13.10    4.80
   4  -6   5   15.20    3.20
   4  -6   5    7.00    4.30
   4  -6   5   11.00    4.50
   4  -6   5   12.90    2.70
  -5   6  -5   -2.40    2.70
  -5   6  -5    3.50    3.80
  -5   6  -5    5.40    4.50
  -5   6  -5    5.10    4.10
  -5   6  -5    2.20    3.80
  -5   6  -5    0.00    4.10
   5  -6   5   -0.50    5.40
   5  -6   5    5.30    3.60
   5  -6   5    1.70    4.40
   5  -6   5   -2.00    4.50
   5  -6   5    5.60    4.40
  -6   6  -5   12.10    5.70
  -6   6  -5   25.80    7.40
  -6   6  -5    8.80    5.20
  -6   6  -5   17.10    6.10
  -6   6  -5   16.90    7.20
  -6   6  -5   12.30    5.80
   6  -6   5   21.40    5.50
   6  -6   5   12.60    6.90
   6  -6   5   23.20    7.40
   7   5  -5  379.66   33.70
  -7  -5   5  364.56   30.60
  -7  -5   5  280.57   29.30
   6   5  -5    2.00    6.00
  -6  -5   5    1.90    3.70
  -6  -5   5    4.70    4.50
   5   5  -5    1.30    6.30
  -5  -5   5   -0.30    1.50
  -5  -5   5    4.40    2.80
  -5  -5   5    2.80    2.90
  -5  -5   5   -1.50    1.80
  -5  -5   5    1.60    2.00
   4   5  -5  648.74   46.50
   4   5  -5  567.14   48.00
  -4  -5   5  583.24   45.20
  -4  -5   5  574.74   46.00
  -4  -5   5  570.94   45.00
  -4  -5   5  596.34   45.10
  -4  -5   5  538.85   46.70
   3   5  -5   11.40    4.00
   3   5  -5   11.70    2.90
   3   5  -5   16.70    3.00
   3   5  -5    8.70    4.00
   3   5  -5    9.50    2.60
   3   5  -5   12.10    2.90
  -3  -5   5   15.10    3.10
  -3  -5   5   11.40    2.30
  -3  -5   5   18.20    3.10
  -3  -5   5   16.00    3.50
  -3  -5   5   12.80    2.80
  -3  -5   5   14.40    3.30
   2   5  -5  148.89   13.00
   2   5  -5  148.69   12.60
   2   5  -5  148.39   12.70
   2   5  -5  148.59   14.10
  -2  -5   5  140.99   12.70
  -2  -5   5  149.39   12.80
  -2  -5   5  143.89   12.80
  -2  -5   5  158.48   13.20
  -2  -5   5  143.19   12.70
   1   5  -5  101.29   10.20
   1   5  -5  101.09    9.70
   1   5  -5  121.69    9.90
   1   5  -5  113.39   10.30
  -1  -5   5  100.69    9.40
  -1  -5   5   94.49    9.60
  -1  -5   5   96.59    9.60
  -1  -5   5  109.39   10.20
  -1  -5   5  101.79   10.40
  -1  -5   5  120.29   11.60
   0   5  -5    1.20    1.40
   0   5  -5    0.50    1.90
   0   5  -5    2.20    2.10
   0   5  -5    2.40    2.10
   0   5  -5    0.70    1.80
   0   5  -5    0.70    0.90
   0  -5   5    2.40    2.00
   0  -5   5    2.30    1.40
   0  -5   5   -0.10    1.50
   0  -5   5    2.70    1.40
   0  -5   5    3.10    1.80
   0  -5   5    3.90    1.90
  -1   5  -5   71.79    7.20
  -1   5  -5   69.89    6.90
  -1   5  -5   79.09    8.10
  -1   5  -5   79.49    8.50
  -1   5  -5   70.59    8.40
  -1   5  -5   77.69    8.00
   1  -5   5   69.79    8.00
   1  -5   5   75.59    8.00
   1  -5   5   82.19    8.50
   1  -5   5   58.69    6.80
  -2   5  -5    0.60    1.90
  -2   5  -5    1.80    2.40
  -2   5  -5    0.20    2.00
  -2   5  -5    0.80    2.10
  -2   5  -5    3.30    2.70
  -2   5  -5   -0.70    1.30
   2  -5   5    2.50    2.20
   2  -5   5   -2.90    2.20
   2  -5   5   -1.20    2.30
   2  -5   5   -3.50    2.20
   2  -5   5    1.00    1.50
  -3   5  -5   37.90    6.80
  -3   5  -5   53.59    6.90
  -3   5  -5   46.60    6.70
  -3   5  -5   43.60    7.40
  -3   5  -5   39.50    6.80
  -3   5  -5   48.50    5.40
   3  -5   5   43.10    5.30
   3  -5   5   32.00    6.40
   3  -5   5   48.60    5.20
   3  -5   5   38.10    6.80
   3  -5   5   41.60    7.40
   3  -5   5   59.99    6.90
  -4   5  -5    7.00    3.50
  -4   5  -5    3.20    3.30
  -4   5  -5    3.20    3.20
  -4   5  -5    3.30    3.30
  -4   5  -5    5.70    3.00
  -4   5  -5    3.00    2.20
   4  -5   5    0.80    3.70
   4  -5   5    6.10    3.50
   4  -5   5    3.60    3.40
   4  -5   5    3.20    3.10
  -5   5  -5   -2.10    3.10
  -5   5  -5   -2.40    3.20
  -5   5  -5    6.60    4.20
  -5   5  -5    0.60    3.30
  -5   5  -5   -1.40    4.10
   5  -5   5   -4.20    2.80
   5  -5   5    1.80    5.10
   5  -5   5   -4.30    4.20
   5  -5   5  -11.10    6.50
   5  -5   5   -5.10    3.90
  -6   5  -5   11.00    5.10
  -6   5  -5    8.20    5.00
  -6   5  -5    5.90    4.90
  -6   5  -5   12.50    5.30
  -6   5  -5   14.50    4.50
  -6   5  -5   19.30    6.00
   6  -5   5    8.50    5.80
   6  -5   5   18.30    5.30
   6  -5   5   10.70    6.10
   7   4  -5   15.30    8.10
  -7  -4   5   20.00    7.10
  -7  -4   5   10.70    4.50
  -7  -4   5   20.00    6.70
   6   4  -5   30.30    8.80
  -6  -4   5   23.10    4.80
  -6  -4   5   40.40    6.90
   5   4  -5    0.00    3.60
   5   4  -5    3.00    6.90
  -5  -4   5    2.80    2.90
  -5  -4   5    4.20    3.10
   4   4  -5 1820.82  127.99
   4   4  -5 1666.63  128.49
  -4  -4   5 1597.64  126.49
  -4  -4   5 1631.14  125.39
  -4  -4   5 1644.94  125.49
  -4  -4   5 1617.84  125.39
  -4  -4   5 1684.03  125.49
   3   4  -5   36.90    3.90
   3   4  -5   39.10    4.00
   3   4  -5   28.50    5.70
   3   4  -5   34.30    3.90
   3   4  -5   35.80    3.90
   3   4  -5   33.00    6.70
  -3  -4   5   32.80    4.50
  -3  -4   5   35.90    4.10
  -3  -4   5   38.70    4.10
  -3  -4   5   33.20    4.40
  -3  -4   5   40.30    4.30
  -3  -4   5   36.20    4.00
   2   4  -5   -0.80    1.00
   2   4  -5    0.30    1.20
   2   4  -5    1.40    1.30
   2   4  -5   -1.10    2.10
   2   4  -5    2.40    2.70
   2   4  -5   -0.60    1.10
  -2  -4   5    0.30    1.20
  -2  -4   5    1.50    1.50
  -2  -4   5    0.80    1.30
  -2  -4   5    0.80    1.50
  -2  -4   5    0.90    1.20
   1   4  -5 1601.94  123.09
   1   4  -5 1621.24  124.59
   1   4  -5 1742.53  122.89
   1   4  -5 1625.74  122.59
   1   4  -5 1749.92  122.89
  -1  -4   5 1726.03  123.19
  -1  -4   5 1563.54  123.09
  -1  -4   5 1486.75  122.49
  -1  -4   5 1527.45  122.79
  -1  -4   5 1513.05  122.79
  -1  -4   5 1667.83  122.89
   0   4  -5   -1.10    0.90
   0   4  -5   -0.50    1.40
   0   4  -5   -0.10    1.50
   0   4  -5    0.60    1.60
   0   4  -5   -0.40    1.70
   0   4  -5   -1.30    0.70
   0  -4   5    0.10    1.60
   0  -4   5   -0.40    1.60
   0  -4   5   -0.50    1.70
   0  -4   5   -1.90    1.40
   0  -4   5    0.50    1.90
  -1   4  -5   25.30    3.90
  -1   4  -5   27.40    3.70
  -1   4  -5   18.20    3.90
  -1   4  -5   30.50    5.10
  -1   4  -5   31.00    5.20
   1  -4   5   27.00    5.20
   1  -4   5   33.30    5.00
   1  -4   5   22.10    3.70
   1  -4   5   24.20    4.70
  -2   4  -5   77.39    8.80
  -2   4  -5   90.39    8.70
  -2   4  -5   74.89    8.80
  -2   4  -5   87.09    8.80
  -2   4  -5   74.79    7.50
  -2   4  -5   91.49    8.50
   2  -4   5   63.59    8.40
   2  -4   5   73.59    8.50
   2  -4   5   80.49    7.70
   2  -4   5   73.29    8.70
  -3   4  -5   -1.60    2.40
  -3   4  -5    2.20    2.30
  -3   4  -5    0.30    1.70
  -3   4  -5    0.30    2.50
  -3   4  -5   -0.80    2.60
  -3   4  -5    3.10    2.30
   3  -4   5   -2.20    2.20
   3  -4   5    0.10    1.60
   3  -4   5    5.30    2.90
   3  -4   5    4.50    3.50
   3  -4   5    0.90    2.70
   3  -4   5    1.00    1.40
  -4   4  -5   28.10    6.40
  -4   4  -5   26.20    5.10
  -4   4  -5   27.30    6.00
  -4   4  -5   33.10    5.00
  -4   4  -5   37.10    7.00
  -4   4  -5   19.30    5.80
   4  -4   5   37.00    6.60
   4  -4   5   29.70    6.20
   4  -4   5   26.30    5.50
   4  -4   5   20.20    5.40
  -5   4  -5    0.70    2.80
  -5   4  -5    4.00    3.90
  -5   4  -5    1.30    3.80
  -5   4  -5    8.90    4.90
  -5   4  -5    2.90    3.80
  -5   4  -5    4.70    3.60
   5  -4   5    8.40    3.90
   5  -4   5   -0.60    3.90
   5  -4   5    1.30    6.00
  -6   4  -5    5.50    4.50
  -6   4  -5    7.20    4.50
  -6   4  -5    7.10    5.60
  -6   4  -5    4.40    4.70
  -6   4  -5    3.30    4.20
  -6   4  -5    5.60    4.00
   6  -4   5   10.90    5.70
   6  -4   5    5.80    6.90
   6  -4   5   12.20    5.20
   7   3  -5   24.00    7.80
  -7  -3   5   24.80    5.40
  -7  -3   5   25.30    7.00
  -7  -3   5   24.00    6.10
   6   3  -5  108.39   14.00
   6   3  -5  118.59   15.90
  -6  -3   5  102.39   14.70
  -6  -3   5  104.09   12.10
  -6  -3   5   89.69   11.60
   5   3  -5    6.60    4.40
   5   3  -5    5.70    7.10
  -5  -3   5    3.00    3.10
  -5  -3   5    1.80    2.70
   4   3  -5    0.30    2.80
   4   3  -5    3.20    5.30
  -4  -3   5    0.50    0.90
  -4  -3   5   -0.40    1.50
  -4  -3   5    0.70    1.80
   3   3  -5   87.69   10.20
   3   3  -5   93.69   10.50
  -3  -3   5   86.59    8.10
  -3  -3   5   92.89    8.10
  -3  -3   5  109.49    8.30
  -3  -3   5  101.09    8.10
  -3  -3   5   84.99    8.60
  -3  -3   5   87.69    8.30
   2   3  -5    2.70    3.10
   2   3  -5    1.00    1.20
   2   3  -5    1.40    1.40
   2   3  -5    1.80    1.30
   2   3  -5    1.10    1.30
  -2  -3   5   -1.00    1.30
  -2  -3   5    0.40    0.70
  -2  -3   5   -0.70    1.10
  -2  -3   5    1.70    1.30
  -2  -3   5    1.60    1.40
   1   3  -5  251.97   18.30
   1   3  -5  242.78   18.10
   1   3  -5  242.28   18.30
   1   3  -5  214.28   18.40
  -1  -3   5  207.98   18.20
  -1  -3   5  235.18   18.10
  -1  -3   5  198.48   16.90
  -1  -3   5  209.48   18.30
  -1  -3   5  208.78   18.70
   0   3  -5   47.10    6.00
   0   3  -5   51.99    5.50
   0   3  -5   47.00    5.00
   0   3  -5   57.99    6.20
   0   3  -5   53.99    6.00
   0   3  -5   49.30    6.10
   0  -3   5   52.39    6.20
   0  -3   5   55.69    5.60
   0  -3   5   70.39    6.70
   0  -3   5   51.09    5.00
   0  -3   5   62.99    6.40
  -1   3  -5  159.58   15.50
  -1   3  -5  179.18   14.80
  -1   3  -5  172.58   14.80
  -1   3  -5  174.78   15.00
  -1   3  -5  144.79   13.90
  -1   3  -5  173.78   13.90
   1  -3   5  156.28   13.90
   1  -3   5  175.38   15.00
   1  -3   5  179.28   15.10
   1  -3   5  156.68   15.30
   1  -3   5  144.39   14.50
   1  -3   5  159.08   13.80
  -2   3  -5  667.43   53.59
  -2   3  -5  722.13   53.39
  -2   3  -5  680.63   52.19
  -2   3  -5  694.53   53.29
  -2   3  -5  661.63   53.49
  -2   3  -5  650.53   52.99
   2  -3   5  603.44   53.09
   2  -3   5  681.23   52.29
   2  -3   5  580.94   53.09
   2  -3   5  747.83   53.09
   2  -3   5  743.33   53.89
  -3   3  -5   48.00    7.30
  -3   3  -5   38.50    5.20
  -3   3  -5   50.99    6.60
  -3   3  -5   39.90    6.80
  -3   3  -5   57.19    6.60
  -3   3  -5   45.00    6.50
   3  -3   5   34.30    6.40
   3  -3   5   26.90    5.60
   3  -3   5   40.10    5.20
  -4   3  -5   18.20    5.20
  -4   3  -5   29.20    6.00
  -4   3  -5   14.50    4.90
  -4   3  -5   20.40    4.60
   4  -3   5   19.10    5.00
   4  -3   5   18.30    5.40
  -5   3  -5  187.18   17.80
  -5   3  -5  177.28   18.30
  -5   3  -5  157.38   18.10
  -5   3  -5  176.08   18.80
  -5   3  -5  195.18   16.80
  -5   3  -5  197.48   17.80
   5  -3   5  167.98   18.00
   5  -3   5  203.18   20.50
   5  -3   5  201.38   18.60
  -6   3  -5   -2.40    3.40
  -6   3  -5   11.30    4.90
  -6   3  -5   -3.10    3.90
  -6   3  -5   -3.70    5.30
  -6   3  -5    1.10    4.10
  -6   3  -5    2.20    4.00
   6  -3   5   -3.00    4.30
   7   2  -5    3.30   10.40
   7   2  -5    6.10    5.80
  -7  -2   5   -0.40    3.50
  -7  -2   5    4.30    4.40
  -7  -2   5    6.00    5.30
   6   2  -5  109.89   14.90
   6   2  -5   83.59   12.20
  -6  -2   5   86.29   10.50
  -6  -2   5   75.59   10.00
  -6  -2   5   73.69    8.70
   5   2  -5  835.42   67.49
   5   2  -5  861.61   66.29
  -5  -2   5  753.32   65.19
  -5  -2   5  803.42   63.59
  -5  -2   5  872.81   64.79
   4   2  -5   41.80    9.40
   4   2  -5   46.90    7.70
  -4  -2   5   66.19    6.40
  -4  -2   5   51.09    5.70
  -4  -2   5   46.00    7.00
   3   2  -5  191.78   17.20
  -3  -2   5  175.08   14.20
  -3  -2   5  168.58   14.20
  -3  -2   5  176.48   14.60
   2   2  -5  607.74   43.80
   2   2  -5  582.84   43.80
   2   2  -5  503.45   44.70
   2   2  -5  611.14   44.20
   2   2  -5  496.75   43.80
   2   2  -5  623.34   45.90
  -2  -2   5  547.15   44.10
  -2  -2   5  533.05   44.10
  -2  -2   5  538.55   44.00
  -2  -2   5  609.04   44.30
  -2  -2   5  641.54   44.40
   1   2  -5   30.80    3.50
   1   2  -5   22.60    3.80
   1   2  -5   20.90    3.60
   1   2  -5   24.60    3.70
  -1  -2   5   21.10    3.30
  -1  -2   5   29.60    4.00
  -1  -2   5   24.50    4.00
  -1  -2   5   26.20    4.30
  -1  -2   5   25.50    3.70
  -1  -2   5   27.00    4.30
   0   2  -5    0.80    1.30
   0   2  -5    1.00    1.30
   0   2  -5   -0.60    1.30
   0   2  -5   -0.90    1.20
   0   2  -5    1.50    1.20
   0   2  -5    0.70    1.50
   0  -2   5    1.80    1.80
   0  -2   5    0.00    2.50
   0  -2   5    0.50    1.60
   0  -2   5    1.20    1.00
   0  -2   5   -0.40    1.10
   0  -2   5    0.60    1.20
  -1   2  -5   16.30    3.00
  -1   2  -5   12.20    3.40
  -1   2  -5   13.50    3.40
  -1   2  -5   17.90    4.70
  -1   2  -5    7.60    2.70
  -1   2  -5   14.50    3.70
   1  -2   5   19.00    4.00
   1  -2   5   20.50    3.30
   1  -2   5   16.10    3.80
   1  -2   5    7.20    2.70
   1  -2   5   14.30    3.00
   1  -2   5   15.60    3.70
  -2   2  -5  213.78   18.50
  -2   2  -5  194.18   18.60
  -2   2  -5  210.48   18.40
  -2   2  -5  213.28   17.50
  -2   2  -5  196.28   18.20
  -2   2  -5  207.58   18.80
   2  -2   5  188.58   17.00
   2  -2   5  241.88   19.00
   2  -2   5  206.38   18.60
   2  -2   5  218.68   17.60
   2  -2   5  237.88   19.00
   2  -2   5  187.38   18.40
   2  -2   5  226.48   18.30
  -3   2  -5   73.59    9.10
  -3   2  -5   75.89    8.80
  -3   2  -5   73.49    9.00
  -3   2  -5   78.29    8.80
  -3   2  -5   77.09    7.80
  -3   2  -5   75.39    9.30
   3  -2   5   84.39    9.20
   3  -2   5   79.99    8.90
   3  -2   5   74.59   10.70
   3  -2   5   63.69    8.70
   3  -2   5   73.29    8.80
  -4   2  -5  130.59   13.50
  -4   2  -5  115.59   11.60
  -4   2  -5  127.99   13.20
  -4   2  -5  105.09   12.60
  -4   2  -5  124.29   12.80
   4  -2   5  131.99   13.20
   4  -2   5  137.39   13.20
   4  -2   5  107.39   12.70
   4  -2   5  115.29   12.90
  -5   2  -5  546.85   43.40
  -5   2  -5  472.75   43.60
  -5   2  -5  581.34   42.60
  -5   2  -5  536.65   44.80
  -5   2  -5  560.34   43.50
  -5   2  -5  514.95   44.00
   5  -2   5  474.65   43.20
  -6   2  -5   23.30    6.20
  -6   2  -5   32.70    7.00
  -6   2  -5   21.90    7.50
  -6   2  -5   30.40    6.70
  -6   2  -5   28.90    7.50
  -6   2  -5   33.00    7.00
   6  -2   5   31.60    7.20
   6  -2   5   36.80   10.00
   7   1  -5   11.00    9.70
  -7  -1   5   24.30    6.30
  -7  -1   5    2.90    4.10
  -7  -1   5    4.80    3.30
   6   1  -5    5.30    7.40
  -6  -1   5    6.30    2.70
  -6  -1   5   -0.50    3.70
  -6  -1   5    2.30    3.50
   5   1  -5  219.08   24.80
  -5  -1   5  262.57   20.90
  -5  -1   5  280.17   22.60
  -5  -1   5  250.97   22.90
   4   1  -5   15.20    5.80
  -4  -1   5   34.80    7.00
  -4  -1   5   29.20    3.80
  -3  -1   5   70.49    6.20
  -3  -1   5   69.59    6.50
  -3  -1   5   53.89    7.60
  -3  -1   5   62.29    6.20
  -3  -1   5   63.59    6.10
  -3  -1   5   74.19    6.30
   2   1  -5 1333.47   98.39
   2   1  -5 1353.76   96.19
   2   1  -5 1184.88   95.99
   2   1  -5 1261.67   95.99
   2   1  -5 1266.47   96.09
  -2  -1   5 1244.08   97.69
  -2  -1   5 1250.17   96.29
  -2  -1   5 1212.48   96.29
  -2  -1   5 1395.06   99.49
  -2  -1   5 1199.48   96.19
  -2  -1   5 1248.58   96.29
  -2  -1   5 1291.97   96.19
   1   1  -5   26.50    4.30
   1   1  -5   41.10    7.20
   1   1  -5   23.00    4.20
   1   1  -5   26.70    4.30
   1   1  -5   30.10    3.50
  -1  -1   5   23.30    4.00
  -1  -1   5   26.20    4.20
  -1  -1   5   26.00    4.10
  -1  -1   5   27.50    4.50
  -1  -1   5   22.30    4.60
  -1  -1   5   24.30    3.20
  -1  -1   5   23.40    4.20
   0   1  -5   74.99    7.30
   0   1  -5   79.39    8.20
   0   1  -5   73.09    7.90
   0   1  -5   77.89    8.00
   0   1  -5   92.99    7.70
   0   1  -5   64.39    7.80
   0  -1   5   87.59    8.80
   0  -1   5   81.49    7.40
   0  -1   5   73.89    7.90
   0  -1   5   77.09    8.00
   0  -1   5   81.89    7.40
   0  -1   5   72.89    8.00
   0  -1   5   73.69    8.60
  -1   1  -5  678.63   55.29
  -1   1  -5  737.43   54.29
  -1   1  -5  719.43   55.29
  -1   1  -5  738.73   54.89
  -1   1  -5  686.23   55.19
   1  -1   5  714.33   54.69
   1  -1   5  780.02   54.49
   1  -1   5  658.33   55.19
   1  -1   5  659.03   54.29
   1  -1   5  721.03   55.39
   1  -1   5  660.53   55.19
   1  -1   5  690.83   55.19
  -2   1  -5    1.90    2.10
  -2   1  -5    0.30    1.70
  -2   1  -5    2.50    2.00
  -2   1  -5    3.10    2.30
  -2   1  -5    3.00    1.90
  -2   1  -5    2.40    2.40
   2  -1   5    1.90    1.80
   2  -1   5    1.50    1.40
   2  -1   5   -1.20    1.70
   2  -1   5   -0.30    1.50
   2  -1   5    2.50    2.30
   2  -1   5    4.00    2.30
   2  -1   5    0.20    1.90
  -3   1  -5   -1.40    2.10
  -3   1  -5    1.30    2.60
  -3   1  -5    2.10    3.50
  -3   1  -5    2.80    2.90
  -3   1  -5    3.30    2.40
  -3   1  -5    0.80    2.50
   3  -1   5    2.50    2.90
   3  -1   5    1.10    2.70
   3  -1   5   -0.30    2.20
   3  -1   5    2.60    2.50
   3  -1   5    2.80    2.40
  -4   1  -5   72.39    8.30
  -4   1  -5   79.29    9.70
  -4   1  -5   80.29   10.20
  -4   1  -5   62.49    9.10
  -4   1  -5   81.39    9.60
   4  -1   5   70.69    9.50
   4  -1   5   69.59    9.30
   4  -1   5   60.99    9.20
   4  -1   5   81.79    9.80
   4  -1   5   75.59    9.60
  -5   1  -5   32.10    7.70
  -5   1  -5   37.20    6.60
  -5   1  -5   50.39    8.50
  -5   1  -5   30.40    6.90
  -5   1  -5   44.50    8.10
  -5   1  -5   39.40    7.80
   5  -1   5   35.00    7.60
  -6   1  -5   -0.90    5.30
  -6   1  -5    6.30    4.70
  -6   1  -5    2.10    4.20
  -6   1  -5   11.10    5.00
  -6   1  -5    6.90    4.20
   6  -1   5    6.00    9.40
   6  -1   5    7.60    8.00
   7   0  -5   13.40   10.50
  -7   0   5    8.10    4.60
  -7   0   5    9.30    5.70
  -7   0   5    9.50    3.60
   6   0  -5   -2.90    6.60
  -6   0   5    2.60    4.60
  -6   0   5   -3.20    3.30
  -6   0   5    1.90    2.40
   5   0  -5   -7.50    5.00
  -5   0   5   -3.00    2.70
  -5   0   5   -0.90    1.80
   4   0  -5   64.69   12.70
  -4   0   5   49.30    4.90
  -4   0   5   51.69    5.40
  -4   0   5   51.89    7.00
  -4   0   5   47.90    4.70
  -4   0   5   52.59    5.00
  -4   0   5   48.40    4.90
   3   0  -5    8.60    1.80
   3   0  -5   11.90    1.90
   3   0  -5   10.90    1.90
   3   0  -5   10.80    2.30
   3   0  -5    9.60    1.90
   3   0  -5   12.70    5.40
  -3   0   5    9.30    2.30
  -3   0   5    6.90    2.10
  -3   0   5    8.50    3.50
  -3   0   5   11.90    2.70
  -3   0   5   12.20    2.60
  -3   0   5   14.20    2.60
   2   0  -5   26.70    3.70
   2   0  -5   56.79   11.20
   2   0  -5   30.20    4.00
   2   0  -5   33.90    4.00
   2   0  -5   31.20    4.00
  -2   0   5   27.90    4.10
  -2   0   5   33.40    4.30
  -2   0   5   36.00    5.20
  -2   0   5   25.80    3.90
  -2   0   5   37.60    4.30
   1   0  -5    3.80    2.10
   1   0  -5    4.10    2.00
   1   0  -5    2.70    1.70
   1   0  -5    3.10    3.90
   1   0  -5    3.70    1.50
   1   0  -5    4.60    2.00
  -1   0   5    4.90    1.90
  -1   0   5    2.20    1.60
  -1   0   5    5.10    2.00
  -1   0   5    7.20    2.30
  -1   0   5    4.10    1.80
  -1   0   5    4.60    1.80
  -1   0   5    7.90    3.80
   0   0  -5  652.43   47.20
   0   0  -5  588.74   47.80
   0   0  -5  616.04   48.00
   0   0  -5  562.84   47.90
   0   0  -5  619.14   48.10
   0   0  -5  571.84   47.90
   0   0   5  611.54   47.90
   0   0   5  608.94   47.60
   0   0   5  677.23   47.30
   0   0   5  593.84   48.00
   0   0   5  624.04   48.10
   0   0   5  585.44   47.90
  -1   0  -5 2018.60  142.29
  -1   0  -5 1847.82  142.59
  -1   0  -5 1836.02  142.49
  -1   0  -5 1782.82  141.59
  -1   0  -5 1905.51  141.39
  -1   0  -5 1816.72  142.39
  -1   0  -5 1820.82  142.49
   1   0   5 1919.41  142.09
   1   0   5 2087.59  141.59
   1   0   5 1830.02  142.59
   1   0   5 1781.92  142.39
   1   0   5 1809.12  142.39
   1   0   5 1824.62  141.59
  -2   0  -5   15.30    3.80
  -2   0  -5   23.60    5.20
  -2   0  -5   16.40    4.40
  -2   0  -5   18.90    3.60
  -2   0  -5   20.70    4.30
  -2   0  -5   17.10    4.20
   2   0   5   14.50    4.20
   2   0   5   17.50    4.10
   2   0   5   15.10    3.80
   2   0   5   19.70    4.90
   2   0   5   19.90    3.50
   2   0   5   23.50    5.30
  -3   0  -5   14.80    4.80
  -3   0  -5    8.80    3.80
  -3   0  -5   21.40    4.30
  -3   0  -5   18.10    5.40
  -3   0  -5   15.20    4.50
  -3   0  -5   23.90    5.60
   3   0   5   17.10    4.60
   3   0   5   14.70    4.20
   3   0   5   19.10    5.00
   3   0   5   13.90    4.30
   3   0   5   21.70    3.10
   3   0   5   14.30    4.30
  -4   0  -5  919.11   73.39
  -4   0  -5  931.61   71.19
  -4   0  -5 1013.10   78.79
  -4   0  -5  866.51   72.29
  -4   0  -5  891.81   72.09
  -4   0  -5  922.01   73.89
   4   0   5  869.41   71.89
   4   0   5  961.80   72.29
   4   0   5  849.22   72.09
   4   0   5  925.51   72.49
   4   0   5  925.11   72.19
  -5   0  -5   29.80    6.50
  -5   0  -5   29.30    5.90
  -5   0  -5   20.80    6.20
  -5   0  -5   35.00    7.80
  -5   0  -5   36.10    7.70
  -5   0  -5   27.60    7.20
   5   0   5   22.10    6.60
   5   0   5   24.70    6.50
   5   0   5   30.40    7.30
   5   0   5   32.90    8.20
  -6   0  -5    0.80    4.90
  -6   0  -5   -3.20    4.10
  -6   0  -5    9.70    4.90
  -6   0  -5   -5.30    4.30
  -6   0  -5   11.10    6.60
  -6   0  -5    3.40    5.30
   6   0   5    0.60    4.90
   6   0   5   -7.80    8.00
   7  -1  -5   45.20   13.90
  -7   1   5   41.20    5.80
  -7   1   5   38.20    8.50
   6  -1  -5  131.59   30.10
  -6   1   5  133.89   14.40
  -6   1   5  130.39   12.10
  -6   1   5  160.78   15.40
   5  -1  -5    6.20    7.10
  -5   1   5   12.40    2.90
  -5   1   5   13.00    2.40
  -5   1   5   13.10    2.30
  -5   1   5   17.10    5.20
  -5   1   5   11.90    2.50
   4  -1  -5   10.30    6.10
  -4   1   5    8.80    2.50
  -4   1   5    8.40    2.50
  -4   1   5    9.30    3.50
  -4   1   5   11.30    2.70
  -4   1   5    9.20    2.20
  -4   1   5   10.90    3.60
   3  -1  -5  221.58   16.80
   3  -1  -5  194.48   17.00
   3  -1  -5  193.08   16.90
   3  -1  -5  225.08   16.70
   3  -1  -5  208.18   21.00
  -3   1   5  225.88   17.40
  -3   1   5  227.88   17.50
  -3   1   5  228.38   17.60
  -3   1   5  185.18   18.60
  -3   1   5  176.88   17.20
  -3   1   5  194.38   17.20
   2  -1  -5   53.69    9.50
   2  -1  -5   29.30    4.70
   2  -1  -5   33.10    6.30
   2  -1  -5   30.90    4.40
   2  -1  -5   26.50    4.00
   2  -1  -5   32.30    3.80
  -2   1   5   29.20    4.50
  -2   1   5   32.70    6.40
  -2   1   5   35.00    5.20
  -2   1   5   41.00    4.70
  -2   1   5   35.20    4.70
  -2   1   5   30.80    4.50
   1  -1  -5    5.00    1.70
   1  -1  -5    4.30    2.30
   1  -1  -5    8.80    2.80
   1  -1  -5    4.80    2.10
   1  -1  -5    1.90    2.10
   1  -1  -5    5.90    2.20
   1  -1  -5   11.70    6.70
  -1   1   5    4.20    2.20
  -1   1   5    6.70    1.80
  -1   1   5   12.90    3.50
  -1   1   5    5.20    2.40
  -1   1   5    6.70    2.50
  -1   1   5    6.30    2.60
  -1   1   5    5.40    2.40
   0  -1  -5  518.25   42.90
   0  -1  -5  618.84   43.10
   0  -1  -5  529.45   43.10
   0  -1  -5  555.44   42.10
   0  -1  -5  530.55   43.10
   0  -1  -5  532.35   43.20
   0  -1  -5  503.85   42.90
   0   1   5  520.05   43.10
   0   1   5  546.15   42.10
   0   1   5  516.35   43.10
   0   1   5  542.35   43.30
   0   1   5  553.14   43.00
   0   1   5  547.55   43.20
   0   1   5  560.54   42.90
  -1  -1  -5  106.19   10.10
  -1  -1  -5   89.99    9.70
  -1  -1  -5   87.29   10.10
  -1  -1  -5   79.99    9.40
  -1  -1  -5   94.29    9.40
  -1  -1  -5   85.99    8.70
  -1  -1  -5   89.99    8.50
   1   1   5   89.09    9.40
   1   1   5   84.09    9.40
   1   1   5   93.39    9.60
   1   1   5   86.89    8.60
   1   1   5   80.49    9.60
   1   1   5   76.49    9.30
  -2  -1  -5   97.09   10.20
  -2  -1  -5   95.09   11.40
  -2  -1  -5   87.29   10.10
  -2  -1  -5   82.19    9.90
  -2  -1  -5   78.29    9.80
  -2  -1  -5   88.79   10.40
  -2  -1  -5   85.69    8.70
   2   1   5   87.59   10.80
   2   1   5  100.79    8.80
   2   1   5   83.09    9.70
   2   1   5  119.19   11.20
   2   1   5   80.99   10.10
   2   1   5   87.29   10.00
  -3  -1  -5   91.99   11.20
  -3  -1  -5   94.29    9.10
  -3  -1  -5  115.89   11.90
  -3  -1  -5  105.09   10.30
  -3  -1  -5  108.29   11.80
  -3  -1  -5   95.19   11.30
  -3  -1  -5  104.89   11.60
   3   1   5   94.09   15.00
   3   1   5   98.39   11.40
   3   1   5   90.09   10.70
   3   1   5   98.29   11.20
   3   1   5  100.99   11.30
  -4  -1  -5  963.40   78.09
  -4  -1  -5 1033.70   77.19
  -4  -1  -5  999.10   80.29
  -4  -1  -5  947.51   81.09
  -4  -1  -5  958.70   78.19
   4   1   5 1004.40   78.19
   4   1   5 1007.30   78.09
   4   1   5  978.90   77.89
   4   1   5  989.30   78.29
   4   1   5  999.10   78.29
  -5  -1  -5    0.10    3.60
  -5  -1  -5    4.00    4.20
  -5  -1  -5    8.70    4.10
  -5  -1  -5    0.00    4.40
  -5  -1  -5    2.20    4.30
   5   1   5   -2.40    4.80
   5   1   5    3.30    5.20
   5   1   5    2.00    3.70
   5   1   5   -8.50    4.80
  -6  -1  -5    3.50    6.30
  -6  -1  -5    4.20    5.30
  -6  -1  -5    1.60    5.30
  -6  -1  -5    5.60    6.50
  -6  -1  -5   15.10    6.60
   6   1   5   19.40   10.40
   6   1   5   15.20    7.30
   7  -2  -5   -4.50    7.60
  -7   2   5    0.00    6.40
  -7   2   5   -4.00    4.40
   6  -2  -5   14.20   10.70
  -6   2   5   27.60    3.90
  -6   2   5   27.70    6.90
   5  -2  -5   -1.30    5.70
  -5   2   5   -3.40    2.10
  -5   2   5   -1.10    2.10
  -5   2   5   -0.90    1.60
  -5   2   5    1.20    2.20
  -5   2   5   -1.40    2.70
  -5   2   5    2.70    3.00
   4  -2  -5   49.00    4.70
   4  -2  -5   33.40    4.80
   4  -2  -5   44.70    4.60
   4  -2  -5   32.70    9.20
   4  -2  -5   32.30    4.80
  -4   2   5   49.00    5.70
  -4   2   5   37.80    5.40
  -4   2   5   42.00    4.40
  -4   2   5   33.30    5.20
  -4   2   5   37.10    5.70
  -4   2   5   40.90    7.20
   3  -2  -5  115.59   14.60
   3  -2  -5   95.09   14.40
   3  -2  -5  121.99   10.00
   3  -2  -5  127.49   10.70
   3  -2  -5  120.29   10.60
   3  -2  -5  103.89   10.70
  -3   2   5  135.49   11.50
  -3   2   5  115.99   11.10
  -3   2   5  102.09   11.00
  -3   2   5  106.79   10.90
  -3   2   5  127.79   12.50
  -3   2   5  128.09   10.10
   2  -2  -5   25.10    4.40
   2  -2  -5   16.60    3.80
   2  -2  -5   28.00    7.10
   2  -2  -5   25.00    4.30
   2  -2  -5   24.00    3.20
   2  -2  -5   20.90    4.70
  -2   2   5   28.70    4.70
  -2   2   5   20.30    4.20
  -2   2   5   17.80    4.40
  -2   2   5   21.80    3.60
  -2   2   5   22.10    4.40
  -2   2   5   22.20    4.50
  -2   2   5   24.20    4.50
   1  -2  -5   36.50    6.00
   1  -2  -5   40.30    4.40
   1  -2  -5   36.90    5.90
   1  -2  -5   42.20    6.50
   1  -2  -5   33.60    7.70
   1  -2  -5   36.10    5.90
   1  -2  -5   33.80    6.00
  -1   2   5   32.80    4.20
  -1   2   5   38.90    6.20
  -1   2   5   33.40    5.80
  -1   2   5   40.60    5.40
  -1   2   5   38.70    6.30
  -1   2   5   28.70    5.10
   0  -2  -5  262.87   22.40
   0  -2  -5  277.97   22.10
   0  -2  -5  251.27   22.20
   0  -2  -5  240.18   21.70
   0  -2  -5  252.97   20.80
   0  -2  -5  245.68   22.00
   0  -2  -5  254.37   22.00
   0   2   5  262.77   22.30
   0   2   5  250.67   21.80
   0   2   5  234.98   22.00
   0   2   5  273.27   22.00
   0   2   5  250.97   22.10
   0   2   5  261.87   22.10
  -1  -2  -5  242.38   21.60
  -1  -2  -5  243.18   22.40
  -1  -2  -5  268.37   22.30
  -1  -2  -5  257.27   21.10
  -1  -2  -5  267.17   22.50
  -1  -2  -5  253.57   22.60
  -1  -2  -5  268.97   22.70
   1   2   5  284.27   21.80
   1   2   5  232.38   22.20
   1   2   5  248.18   22.30
   1   2   5  264.77   22.20
   1   2   5  233.78   22.30
  -2  -2  -5   19.90    4.30
  -2  -2  -5    7.20    3.60
  -2  -2  -5   17.90    5.20
  -2  -2  -5   12.70    4.00
  -2  -2  -5   15.10    4.00
  -2  -2  -5   13.00    3.20
  -2  -2  -5   18.80    5.20
   2   2   5   13.20    4.30
   2   2   5   13.10    3.00
   2   2   5    7.90    3.40
   2   2   5    8.40    3.50
   2   2   5   12.80    4.50
   2   2   5    5.40    4.40
  -3  -2  -5  387.66   32.80
  -3  -2  -5  428.96   33.30
  -3  -2  -5  384.66   33.00
  -3  -2  -5  374.06   32.60
  -3  -2  -5  369.96   30.70
  -3  -2  -5  367.56   32.60
  -3  -2  -5  397.76   31.40
   3   2   5  377.06   32.50
   3   2   5  365.46   32.30
   3   2   5  369.86   32.40
   3   2   5  384.76   32.70
   3   2   5  361.76   32.40
  -4  -2  -5  277.47   24.10
  -4  -2  -5  300.97   27.10
  -4  -2  -5  322.47   28.10
  -4  -2  -5  336.77   26.30
  -4  -2  -5  294.07   27.10
  -4  -2  -5  277.67   27.20
  -4  -2  -5  301.87   27.10
   4   2   5  309.17   26.80
   4   2   5  273.27   26.80
   4   2   5  301.27   27.10
   4   2   5  302.17   26.90
   4   2   5  313.07   27.40
  -5  -2  -5   -3.40    4.80
  -5  -2  -5    8.70    5.60
  -5  -2  -5    5.70    5.90
  -5  -2  -5    4.10    4.30
  -5  -2  -5   16.10    5.50
  -5  -2  -5    6.40    4.80
   5   2   5   12.30    6.80
   5   2   5    4.50    5.90
   5   2   5    7.10    5.00
   5   2   5   -0.40    6.40
  -6  -2  -5    8.90    7.40
  -6  -2  -5   13.80    9.70
  -6  -2  -5   11.70    6.20
  -6  -2  -5    5.50    8.80
  -6  -2  -5    0.90    5.20
   6   2   5    4.70    9.00
   6   2   5   10.80    7.30
   7  -3  -5   -3.50    7.70
  -7   3   5    0.50    4.90
  -7   3   5   11.70    6.60
   6  -3  -5   -0.50    7.70
  -6   3   5    1.40    1.00
  -6   3   5   -4.70    2.70
  -6   3   5   -0.90    4.40
  -6   3   5   -2.20    2.90
  -6   3   5    6.60    3.40
   5  -3  -5    1.80    2.20
   5  -3  -5    2.10    1.90
   5  -3  -5    0.40    2.00
   5  -3  -5   -0.50    2.80
   5  -3  -5   -5.40    5.90
  -5   3   5   -2.10    3.40
  -5   3   5    1.30    1.20
  -5   3   5    1.00    3.00
  -5   3   5    3.10    2.70
  -5   3   5    1.40    2.80
  -5   3   5   -5.50    2.90
   4  -3  -5   21.20    4.30
   4  -3  -5   20.60    4.00
   4  -3  -5   25.90    4.10
   4  -3  -5   21.60    5.70
   4  -3  -5   34.80    4.50
   4  -3  -5   19.00    8.00
  -4   3   5   22.00    5.10
  -4   3   5   31.30    5.50
  -4   3   5   26.60    5.00
  -4   3   5   22.00    4.60
  -4   3   5   33.80    7.10
  -4   3   5   24.60    3.10
   3  -3  -5   17.40    4.70
   3  -3  -5   15.20    3.70
   3  -3  -5   13.10    6.60
   3  -3  -5   12.30    3.40
   3  -3  -5   15.30    3.60
   3  -3  -5   15.90    2.50
  -3   3   5   17.30    4.40
  -3   3   5   30.00    6.60
  -3   3   5   27.20    5.10
  -3   3   5   15.40    4.00
  -3   3   5   13.50    2.30
  -3   3   5   15.60    3.90
   2  -3  -5    3.00    3.80
   2  -3  -5   -1.10    1.90
   2  -3  -5    2.40    2.20
   2  -3  -5    0.90    1.40
   2  -3  -5   -0.20    2.10
   2  -3  -5   -1.20    2.00
   2  -3  -5    0.80    2.20
  -2   3   5   -1.50    2.30
  -2   3   5    1.70    2.80
  -2   3   5    0.10    1.70
  -2   3   5   -0.50    2.10
  -2   3   5   -0.70    2.30
  -2   3   5    2.10    2.50
   1  -3  -5   11.60    3.90
   1  -3  -5    5.30    2.80
   1  -3  -5    5.50    3.10
   1  -3  -5    4.00    4.40
   1  -3  -5    5.00    2.80
   1  -3  -5    5.40    3.10
   1  -3  -5    6.30    1.90
  -1   3   5    7.50    2.80
  -1   3   5    4.10    3.20
  -1   3   5    2.50    2.60
  -1   3   5    2.60    3.00
  -1   3   5   10.10    3.20
  -1   3   5    7.70    3.20
   0  -3  -5  396.76   33.00
   0  -3  -5  364.36   32.80
   0  -3  -5  390.16   31.70
   0  -3  -5  407.76   33.20
   0  -3  -5  420.86   34.90
   0  -3  -5  389.96   33.20
   0  -3  -5  447.96   33.30
   0  -3  -5  384.66   33.40
   0   3   5  386.26   33.10
   0   3   5  415.76   32.90
   0   3   5  388.86   33.30
   0   3   5  392.86   33.10
   0   3   5  379.96   32.90
   0   3   5  424.46   33.60
  -1  -3  -5   94.09   10.20
  -1  -3  -5  103.89   10.80
  -1  -3  -5   99.69   11.40
  -1  -3  -5  102.39   11.20
  -1  -3  -5   91.19   10.70
  -1  -3  -5  104.39   11.40
   1   3   5   98.29   10.90
   1   3   5  102.39   11.10
   1   3   5  102.79   11.20
   1   3   5  107.49   10.20
   1   3   5   84.09   10.90
   1   3   5   90.99   10.90
  -2  -3  -5   -3.20    3.20
  -2  -3  -5   -2.20    2.80
  -2  -3  -5    0.80    2.20
  -2  -3  -5    2.00    3.20
  -2  -3  -5   -1.90    1.70
  -2  -3  -5   -1.70    2.80
  -2  -3  -5    0.90    2.80
   2   3   5    0.30    2.60
   2   3   5    4.10    2.90
   2   3   5    1.20    1.90
   2   3   5    1.90    2.50
   2   3   5   -2.30    2.90
   2   3   5    2.80    2.70
  -3  -3  -5 1777.52  136.59
  -3  -3  -5 1765.52  136.89
  -3  -3  -5 1729.03  136.59
  -3  -3  -5 1740.53  136.29
  -3  -3  -5 1873.11  135.19
  -3  -3  -5 1739.43  136.49
  -3  -3  -5 1682.23  134.49
   3   3   5 1688.33  136.09
   3   3   5 1690.33  136.19
   3   3   5 2001.70  137.89
   3   3   5 1707.83  136.19
   3   3   5 1786.92  136.49
  -4  -3  -5   80.59    9.30
  -4  -3  -5   96.69   12.50
  -4  -3  -5   89.89   11.70
  -4  -3  -5   95.59   14.10
  -4  -3  -5  103.49   12.90
  -4  -3  -5   93.49   12.10
   4   3   5   98.39   19.60
   4   3   5   91.79   12.30
   4   3   5   98.19   12.20
  -5  -3  -5   27.60    6.60
  -5  -3  -5   23.20   10.00
  -5  -3  -5   23.90    7.00
  -5  -3  -5   24.60    7.30
  -5  -3  -5   29.80    8.80
   5   3   5   18.10    6.60
   5   3   5   29.10   11.30
  -6  -3  -5   54.39   10.70
  -6  -3  -5   61.89   10.50
  -6  -3  -5   49.50   10.30
  -6  -3  -5   34.00   10.10
  -6  -3  -5   34.20    9.70
   6   3   5   59.29   12.20
   6   3   5   98.79   15.20
   7  -4  -5    7.80    8.60
  -7   4   5    5.70    4.70
  -7   4   5   -4.30    5.00
   6  -4  -5    0.80    8.10
  -6   4   5    3.90    3.80
  -6   4   5    6.10    4.60
  -6   4   5   -1.60    3.80
  -6   4   5   10.80    3.90
  -6   4   5   -1.70    4.50
   5  -4  -5   14.50    4.00
   5  -4  -5   16.00    3.80
   5  -4  -5   14.40    6.80
   5  -4  -5   13.90    3.70
   5  -4  -5    7.50    3.10
   5  -4  -5   15.30    7.50
  -5   4   5   28.90   11.50
  -5   4   5   10.60    4.20
  -5   4   5   19.50    4.50
  -5   4   5   16.70    4.50
  -5   4   5   14.80    4.60
   4  -4  -5  100.79    9.50
   4  -4  -5   83.19   11.10
   4  -4  -5   67.09   14.10
   4  -4  -5   78.89    9.60
   4  -4  -5  116.49   10.40
   4  -4  -5   70.49    9.30
  -4   4   5  105.99   10.70
  -4   4   5   84.99   10.10
  -4   4   5   84.29   10.70
  -4   4   5   92.89    9.90
   3  -4  -5    4.20    3.30
   3  -4  -5    2.80    3.60
   3  -4  -5    6.40    1.90
   3  -4  -5    9.70    3.30
   3  -4  -5    1.60    6.60
   3  -4  -5    7.30    3.40
   3  -4  -5    5.90    2.70
  -3   4   5   10.00    3.30
  -3   4   5    4.50    3.30
  -3   4   5   17.20    5.00
  -3   4   5   11.60    3.80
  -3   4   5   10.10    3.90
   2  -4  -5   27.10    8.10
   2  -4  -5   16.80    4.30
   2  -4  -5   17.20    4.50
   2  -4  -5   20.10    4.80
   2  -4  -5   24.80    5.20
   2  -4  -5   17.00    3.00
   2  -4  -5   16.90    4.70
  -2   4   5   12.70    4.40
  -2   4   5   22.70    5.80
  -2   4   5   24.00    5.60
  -2   4   5   24.60    5.90
  -2   4   5   16.70    4.90
   1  -4  -5   96.69   10.90
   1  -4  -5  103.09   12.90
   1  -4  -5   83.19   10.30
   1  -4  -5   92.29    9.00
   1  -4  -5   87.99   10.60
   1  -4  -5  104.99   10.70
  -1   4   5   81.49   10.60
  -1   4   5  105.39   11.20
  -1   4   5   92.09   10.50
  -1   4   5   93.09   10.70
  -1   4   5  104.09   10.70
  -1   4   5  100.29   11.10
   0  -4  -5   44.30    7.70
   0  -4  -5   53.39    9.00
   0  -4  -5   48.70    9.40
   0  -4  -5   58.19   11.70
   0  -4  -5   44.90    5.90
   0  -4  -5   49.90    8.50
   0  -4  -5   42.60    7.90
   0   4   5   52.59    7.50
   0   4   5   39.50    7.40
   0   4   5   61.59    9.30
   0   4   5   58.29    7.80
   0   4   5   53.59    6.90
   0   4   5   71.49    9.60
  -1  -4  -5    0.20    2.20
  -1  -4  -5   -3.30    2.90
  -1  -4  -5   -1.20    3.30
  -1  -4  -5   -2.40    2.20
  -1  -4  -5    1.30    3.10
  -1  -4  -5    0.20    2.10
  -1  -4  -5    2.20    3.30
   1   4   5    1.90    5.20
   1   4   5    3.60    2.20
   1   4   5   -2.70    2.70
   1   4   5   -4.30    3.00
   1   4   5    5.50    3.60
   1   4   5   -1.50    2.50
  -2  -4  -5   42.10    8.70
  -2  -4  -5   38.50    7.60
  -2  -4  -5   45.30    9.60
  -2  -4  -5   32.10    7.50
  -2  -4  -5   39.50    6.90
  -2  -4  -5   38.90    8.40
  -2  -4  -5   31.40    6.90
   2   4   5   52.29    9.60
   2   4   5   55.69    9.40
   2   4   5   42.60    8.20
   2   4   5   36.50    7.20
   2   4   5   53.69    6.60
   2   4   5   41.90    8.70
  -3  -4  -5    2.80    6.50
  -3  -4  -5    5.70    6.10
  -3  -4  -5    1.40    4.50
  -3  -4  -5    0.10    3.10
  -3  -4  -5    2.80    3.70
  -3  -4  -5   -6.80    3.80
  -3  -4  -5    1.70    2.60
   3   4   5    3.00    3.90
   3   4   5    7.60    5.10
   3   4   5   -2.40    3.50
   3   4   5    4.10    3.00
   3   4   5    7.30    4.00
   3   4   5   -4.90    3.60
  -4  -4  -5    2.50    4.40
  -4  -4  -5    5.40    5.50
  -4  -4  -5    4.50    3.00
  -4  -4  -5    4.00    6.60
  -4  -4  -5   -2.40    4.50
  -4  -4  -5   -0.30    4.60
  -4  -4  -5   -2.50    4.10
   4   4   5   -5.30    5.00
   4   4   5   10.30    5.70
   4   4   5    6.10    5.50
   4   4   5    7.80    5.80
  -5  -4  -5   40.30    9.30
  -5  -4  -5   42.90   10.20
  -5  -4  -5   40.30    9.60
  -5  -4  -5   44.60    6.60
  -5  -4  -5   51.29   10.70
  -5  -4  -5   36.40    9.90
   5   4   5   57.59   11.60
   5   4   5   74.39   11.70
   6  -5  -5   -4.70    7.80
   6  -5  -5    3.10    4.70
   6  -5  -5    7.40    5.60
  -6   5   5    9.90    5.30
  -6   5   5    5.40    5.00
  -6   5   5   10.30    5.20
  -6   5   5    8.50    5.00
  -6   5   5    8.60    5.20
   5  -5  -5    9.30    7.30
   5  -5  -5    3.90    3.90
   5  -5  -5    8.10    4.10
   5  -5  -5    9.10    6.50
   5  -5  -5    6.40    5.00
   5  -5  -5    2.60    3.50
  -5   5   5    8.00    4.80
  -5   5   5   11.40    4.10
  -5   5   5    7.10    4.00
  -5   5   5    8.90    5.10
  -5   5   5    9.70    4.40
   4  -5  -5   14.60    4.70
   4  -5  -5   16.60    4.80
   4  -5  -5   21.20    7.90
   4  -5  -5   14.20    4.10
  -4   5   5   10.80    4.90
  -4   5   5   18.90    5.40
  -4   5   5   11.90    4.60
  -4   5   5   17.20    5.20
  -4   5   5   21.60    5.50
   3  -5  -5   46.50    4.70
   3  -5  -5   50.89    7.20
   3  -5  -5   28.70    6.20
   3  -5  -5   47.30    7.30
   3  -5  -5   39.80    7.60
   3  -5  -5   46.20   11.30
  -3   5   5   53.89   12.60
  -3   5   5   45.40    8.10
  -3   5   5   36.00    6.70
  -3   5   5   35.70    6.50
   2  -5  -5   50.59    8.20
   2  -5  -5   55.89    7.90
   2  -5  -5   36.30    7.80
   2  -5  -5   58.09    5.90
   2  -5  -5   72.39   14.80
   2  -5  -5   61.29    8.90
   2  -5  -5   42.90    8.00
  -2   5   5   58.09    7.80
  -2   5   5   67.69    8.90
  -2   5   5   36.20    7.20
  -2   5   5   58.89    8.70
  -2   5   5   51.79    8.70
  -2   5   5   49.00    7.90
   1  -5  -5   37.70    7.50
   1  -5  -5   21.30    5.00
   1  -5  -5   58.09    8.70
   1  -5  -5   54.69   12.40
   1  -5  -5   52.39    8.10
   1  -5  -5   29.70    6.40
   1  -5  -5   37.90    5.50
  -1   5   5   35.60    7.80
  -1   5   5   35.60    7.00
  -1   5   5   46.00    8.10
  -1   5   5   33.80    6.50
  -1   5   5   52.79    9.10
  -1   5   5   45.80    7.70
   0  -5  -5   73.79   10.30
   0  -5  -5   70.59    7.80
   0  -5  -5   73.99   13.80
   0  -5  -5   60.49    8.60
   0  -5  -5   60.09    9.60
   0  -5  -5   64.29    9.20
   0   5   5   67.19    8.60
   0   5   5   60.29    9.80
   0   5   5   68.39    9.80
   0   5   5   78.79    9.80
   0   5   5   63.29    9.50
   0   5   5   77.69   11.50
  -1  -5  -5    2.20    4.20
  -1  -5  -5    6.20    3.70
  -1  -5  -5   -2.10    2.80
  -1  -5  -5    0.40    4.40
  -1  -5  -5   -1.10    2.20
  -1  -5  -5    3.60    5.60
  -1  -5  -5   -0.20    3.60
  -1  -5  -5   -2.60    3.60
   1   5   5    4.70    3.70
   1   5   5    0.60    3.20
   1   5   5   -1.30    3.40
   1   5   5    3.10    3.00
   1   5   5    3.40    4.00
   1   5   5   -0.50    3.80
  -2  -5  -5  200.08   25.70
  -2  -5  -5  237.88   20.70
  -2  -5  -5  241.98   22.80
  -2  -5  -5  235.58   23.20
  -2  -5  -5  219.38   22.00
  -2  -5  -5  236.38   22.30
  -2  -5  -5  201.08   20.80
   2   5   5  214.08   22.70
   2   5   5  225.18   22.50
   2   5   5  255.07   21.10
   2   5   5  215.18   22.30
   2   5   5  279.37   23.70
   2   5   5  271.17   23.10
  -3  -5  -5    3.50    4.60
  -3  -5  -5  -10.60    5.50
  -3  -5  -5    0.60    6.20
  -3  -5  -5   -0.60    4.10
  -3  -5  -5   -1.70    3.70
  -3  -5  -5    1.80    3.70
  -3  -5  -5   -1.40    3.10
   3   5   5   -1.90    4.70
   3   5   5    1.80    5.20
   3   5   5    3.80    3.30
   3   5   5    4.60    5.80
  -4  -5  -5   23.30    7.10
  -4  -5  -5   17.20    5.50
  -4  -5  -5   27.80    8.00
  -4  -5  -5   40.40    8.50
  -4  -5  -5   13.70    6.70
  -4  -5  -5   14.20    8.10
   4   5   5   38.40    8.70
   4   5   5   16.50    7.20
  -5  -5  -5   10.90    6.80
  -5  -5  -5   -6.20    6.20
  -5  -5  -5    4.00    9.60
  -5  -5  -5   14.90    7.90
   5   5   5   11.70    8.40
   5   5   5   -9.80    8.40
   6  -6  -5   -0.20    5.10
   6  -6  -5   -3.70    6.60
   6  -6  -5  -10.00    6.40
   6  -6  -5   -5.50    6.70
  -6   6   5   -0.10    6.00
  -6   6   5    1.90    5.60
  -6   6   5  -10.00    5.60
   5  -6  -5    7.80    6.00
   5  -6  -5    6.90    7.30
   5  -6  -5    5.10    5.50
   5  -6  -5   14.00    4.70
  -5   6   5    6.90    4.80
  -5   6   5    2.40    5.10
  -5   6   5    9.20    5.30
  -5   6   5    5.70    5.00
  -5   6   5    2.60    4.70
   4  -6  -5   21.50    5.30
   4  -6  -5   18.20    7.20
   4  -6  -5   12.30    5.60
   4  -6  -5   23.10    5.70
   4  -6  -5   22.90    7.40
  -4   6   5   18.90    6.20
  -4   6   5   30.50    6.00
  -4   6   5   21.60    6.50
  -4   6   5    7.20    5.40
  -4   6   5   24.50    5.80
   3  -6  -5   -3.90    3.60
   3  -6  -5    1.60    1.80
   3  -6  -5    5.40    4.10
   3  -6  -5    4.10    4.20
   3  -6  -5    0.20    3.70
   3  -6  -5    8.60    7.30
   3  -6  -5    3.80    3.70
  -3   6   5   13.40    4.40
  -3   6   5    0.40    4.00
  -3   6   5    6.60    4.50
  -3   6   5    3.90    4.60
  -3   6   5    3.50    4.10
  -3   6   5   -6.20    4.20
   2  -6  -5  150.68   16.60
   2  -6  -5  158.68   14.20
   2  -6  -5  143.99   16.50
   2  -6  -5  158.18   19.30
   2  -6  -5  136.69   16.30
   2  -6  -5  188.08   16.70
  -2   6   5  188.78   17.90
  -2   6   5  163.28   17.40
  -2   6   5  151.58   16.60
  -2   6   5  179.28   17.10
  -2   6   5  209.28   18.40
   1  -6  -5   24.30    4.60
   1  -6  -5   25.00    6.90
   1  -6  -5   24.10    6.20
   1  -6  -5   14.90    5.10
   1  -6  -5   10.20    3.80
   1  -6  -5    7.40    5.10
   1  -6  -5   28.10    8.10
  -1   6   5   12.00    5.10
  -1   6   5   21.00    5.20
  -1   6   5   27.20    6.90
  -1   6   5   17.20    5.40
  -1   6   5   20.90    7.30
  -1   6   5   28.00    6.70
   0  -6  -5   60.59   10.30
   0  -6  -5   80.79   10.90
   0  -6  -5   91.49   15.60
   0  -6  -5   84.79   10.50
   0  -6  -5   63.19    8.10
   0  -6  -5   77.29   11.10
   0  -6  -5   55.49    9.00
   0   6   5   66.89   10.60
   0   6   5   95.89   11.40
   0   6   5   79.79    9.90
   0   6   5   89.09   11.30
   0   6   5   80.19   10.90
   0   6   5   51.09    9.80
  -1  -6  -5   50.09    9.40
  -1  -6  -5   34.30    7.50
  -1  -6  -5   38.00   11.00
  -1  -6  -5   31.50    6.90
  -1  -6  -5   38.70    7.90
  -1  -6  -5   54.29    9.80
  -1  -6  -5   37.80    6.40
   1   6   5   51.19   10.40
   1   6   5   38.30    8.20
   1   6   5   41.70    8.80
   1   6   5   35.90    8.50
   1   6   5   52.39    9.00
   1   6   5   51.39    9.30
  -2  -6  -5  321.47   30.90
  -2  -6  -5  378.46   34.10
  -2  -6  -5  318.37   30.10
  -2  -6  -5  358.96   33.20
  -2  -6  -5  371.96   32.60
  -2  -6  -5  403.46   34.20
  -2  -6  -5  376.76   32.30
  -2  -6  -5  381.56   33.50
   2   6   5  303.87   32.20
   2   6   5  400.36   31.20
   2   6   5  373.66   32.90
   2   6   5  343.17   32.90
   2   6   5  387.76   32.70
   2   6   5  336.07   35.40
  -3  -6  -5   11.40    7.80
  -3  -6  -5    7.20    4.50
  -3  -6  -5    3.50    7.70
  -3  -6  -5   17.80    6.60
  -3  -6  -5    8.40    5.70
  -3  -6  -5   10.90    5.00
  -3  -6  -5   13.20    5.50
   3   6   5    9.20    6.60
   3   6   5   -0.20    6.50
   3   6   5   14.00    6.80
   3   6   5    6.20    6.60
   3   6   5   21.00    7.80
  -4  -6  -5   13.50    7.40
  -4  -6  -5   14.70    8.80
  -4  -6  -5   31.20    8.90
  -4  -6  -5   15.90    5.90
  -4  -6  -5   32.70    8.80
   4   6   5   14.80    9.60
   4   6   5   13.30    8.30
   5  -7  -5   -3.80    6.90
   5  -7  -5    6.50    5.50
   5  -7  -5    6.70    5.20
  -5   7   5    8.10    5.40
  -5   7   5   16.00   11.00
  -5   7   5   10.30    6.00
  -5   7   5   15.90    7.40
  -5   7   5    7.40    5.30
   4  -7  -5  145.29   22.40
   4  -7  -5  177.48   19.90
  -4   7   5  228.68   20.60
  -4   7   5  205.98   19.40
  -4   7   5  193.88   18.50
  -4   7   5  170.58   19.50
  -4   7   5  162.98   19.00
   3  -7  -5   31.20   10.70
   3  -7  -5   31.60    8.30
   3  -7  -5   60.09    9.30
   3  -7  -5   75.99   12.90
   3  -7  -5   46.80    8.80
   3  -7  -5   87.49   10.00
   3  -7  -5   58.19    6.00
  -3   7   5   48.70    9.50
  -3   7   5   72.79    9.90
  -3   7   5   59.39    9.60
  -3   7   5   48.90   10.60
  -3   7   5   53.79    9.40
  -3   7   5   57.49    9.30
   2  -7  -5   48.50    9.20
   2  -7  -5   53.09    6.50
   2  -7  -5   58.09   11.90
   2  -7  -5   55.09    9.20
   2  -7  -5   46.40    8.20
   2  -7  -5   44.70   11.50
   2  -7  -5   37.40    9.70
  -2   7   5   61.69    8.70
  -2   7   5   61.39   10.70
  -2   7   5   36.00    8.40
  -2   7   5   56.49    8.90
  -2   7   5   31.50    8.20
  -2   7   5   46.50   12.10
   1  -7  -5   97.69   12.20
   1  -7  -5  108.59   13.50
   1  -7  -5   89.49   13.00
   1  -7  -5   78.49   15.10
   1  -7  -5   83.09   11.70
   1  -7  -5   93.89   13.20
   1  -7  -5   92.19    9.90
  -1   7   5  106.09   12.20
  -1   7   5   86.79   13.30
  -1   7   5   71.19   11.90
  -1   7   5  100.09   13.90
  -1   7   5  128.69   14.20
   0  -7  -5    7.90    6.10
   0  -7  -5    3.40    5.50
   0  -7  -5    0.90    5.20
   0  -7  -5    8.10    5.40
   0  -7  -5    1.60    6.30
   0  -7  -5    3.90    3.70
   0  -7  -5    3.00    2.90
   0   7   5    6.20    5.80
   0   7   5   10.20    6.10
   0   7   5    6.90    4.20
   0   7   5    5.00    4.50
   0   7   5   -2.50    5.50
   0   7   5   14.60    5.70
  -1  -7  -5    6.20    5.40
  -1  -7  -5    7.80    7.70
  -1  -7  -5    3.60    3.70
  -1  -7  -5   24.40    8.90
  -1  -7  -5   -3.10    6.50
  -1  -7  -5    2.40    5.00
   1   7   5    7.70    6.40
   1   7   5    9.10    5.50
   1   7   5    9.30    4.60
   1   7   5   -1.90    5.70
   1   7   5    3.60    6.30
   1   7   5   -3.90    7.30
  -2  -7  -5   21.20    8.90
  -2  -7  -5   39.30   11.00
  -2  -7  -5   59.89   15.20
  -2  -7  -5   25.10    7.10
  -2  -7  -5   39.50    9.60
  -2  -7  -5   25.40    6.30
  -2  -7  -5   34.60    7.50
  -2  -7  -5   33.50    8.70
   2   7   5   53.79   11.70
   2   7   5   41.20   15.70
   2   7   5   30.70    6.60
   2   7   5   41.90    9.40
   2   7   5   41.00   10.80
   2   7   5   25.90    7.60
  -3  -7  -5   -1.60    5.60
  -3  -7  -5   -4.60    9.10
  -3  -7  -5   13.10    9.70
  -3  -7  -5   -3.30    5.80
  -3  -7  -5    0.90    4.50
  -3  -7  -5   -1.20    8.70
  -3  -7  -5    5.00    5.40
   3   7   5   -5.80    6.60
   3   7   5   -0.50    7.60
  -4  -7  -5    8.60    6.70
  -4  -7  -5    9.00   11.20
  -4  -7  -5    9.20    7.40
  -4  -7  -5   -8.90   12.40
  -4  -7  -5   11.40    7.60
   4   7   5   -2.00   12.40
   4   7   5    8.10    8.90
   5  -8  -5   17.30    7.50
   5  -8  -5   10.50    9.60
  -5   8   5    3.90    6.80
  -5   8   5    5.00    6.20
  -5   8   5   -1.20    7.60
  -5   8   5    0.90    6.90
   4  -8  -5   47.00   10.30
   4  -8  -5   26.10    7.60
   4  -8  -5   26.50   10.50
  -4   8   5   50.69    9.30
  -4   8   5   30.30    7.80
  -4   8   5   23.00    8.00
  -4   8   5   22.10    7.00
  -4   8   5   28.60    8.20
   3  -8  -5   -2.10    2.20
   3  -8  -5   -1.90    5.50
   3  -8  -5   -6.60    6.40
   3  -8  -5    1.50    5.30
  -3   8   5   -2.60    6.40
  -3   8   5   -4.80    5.50
  -3   8   5   15.50    7.20
  -3   8   5    4.20    5.80
  -3   8   5   -2.40    4.50
   2  -8  -5    3.20    6.70
   2  -8  -5    9.10    5.90
   2  -8  -5    8.50    6.50
   2  -8  -5   12.50    4.00
   2  -8  -5    3.00    5.90
   2  -8  -5    6.40    7.00
   2  -8  -5   10.30    5.30
  -2   8   5    4.70    7.20
  -2   8   5   12.90    6.70
  -2   8   5    0.90    7.10
  -2   8   5   21.20    6.60
  -2   8   5   10.70    6.00
   1  -8  -5  161.98   21.00
   1  -8  -5  164.78   19.70
   1  -8  -5  212.58   20.30
   1  -8  -5  174.28   21.80
   1  -8  -5  183.18   16.80
   1  -8  -5  193.68   19.70
  -1   8   5  233.28   21.60
  -1   8   5  188.88   23.20
  -1   8   5  144.69   19.40
  -1   8   5  172.68   18.90
  -1   8   5  178.98   21.30
  -1   8   5  237.48   20.80
   0  -8  -5   20.00    7.10
   0  -8  -5    7.20    7.70
   0  -8  -5   20.90    6.30
   0  -8  -5    0.30    6.20
   0  -8  -5    6.80    4.50
   0  -8  -5   14.30    8.10
   0  -8  -5   10.50    4.30
   0   8   5   19.40    8.90
   0   8   5    6.80    6.40
   0   8   5   23.30    7.00
   0   8   5   17.80    8.00
   0   8   5   11.50    5.50
   0   8   5   12.60    7.00
  -1  -8  -5   34.20   10.90
  -1  -8  -5   37.80   12.40
  -1  -8  -5   18.70    7.40
  -1  -8  -5   52.19   11.90
  -1  -8  -5   44.00    8.40
  -1  -8  -5   17.10    7.50
   1   8   5   37.90   11.40
   1   8   5   38.80   14.70
   1   8   5   23.50   10.20
   1   8   5   35.10    8.40
   1   8   5   41.90    9.90
   1   8   5   41.60   14.20
  -2  -8  -5   11.20    6.40
  -2  -8  -5   14.10   10.30
  -2  -8  -5   12.50    7.40
  -2  -8  -5   44.00   11.90
  -2  -8  -5    6.90    6.30
  -2  -8  -5   27.80   10.30
  -2  -8  -5   42.90    9.70
   2   8   5   19.00   10.30
   2   8   5   20.50    7.10
   2   8   5   20.20    9.40
   2   8   5   35.60   10.30
  -3  -8  -5    7.80    9.20
  -3  -8  -5   11.30   11.90
  -3  -8  -5   -8.80    6.60
  -3  -8  -5   10.30    6.30
  -3  -8  -5   17.10   12.70
  -3  -8  -5   10.60   11.70
   3   8   5    0.50    9.10
   3   8   5   -7.20    9.80
   4  -9  -5    2.00    9.00
   4  -9  -5  -14.40    6.90
   4  -9  -5    3.60    7.90
  -4   9   5    1.20    7.50
  -4   9   5   -6.70    6.50
  -4   9   5   -4.00    7.90
  -4   9   5   14.70    9.50
  -4   9   5    0.20    7.30
   3  -9  -5   -0.10    3.20
   3  -9  -5    8.60    7.80
   3  -9  -5    5.50    8.10
   3  -9  -5    7.50    7.30
  -3   9   5   18.10    9.70
  -3   9   5  -13.10    6.10
  -3   9   5   -0.70    7.90
  -3   9   5    4.30    5.60
  -3   9   5  -10.20    6.60
   2  -9  -5    4.90    6.90
   2  -9  -5   -6.70    6.50
   2  -9  -5   -6.00    6.30
   2  -9  -5    1.80    3.70
  -2   9   5    0.60    7.40
  -2   9   5   -2.80    8.00
  -2   9   5    2.90    4.90
  -2   9   5  -16.80   11.40
  -2   9   5    0.70    6.70
   1  -9  -5   23.10   10.90
   1  -9  -5   21.80    9.80
   1  -9  -5   15.30   14.80
   1  -9  -5    9.20    6.90
   1  -9  -5    2.20    4.30
   1  -9  -5   18.10    8.20
  -1   9   5   14.60    8.10
  -1   9   5    8.00    5.10
  -1   9   5   14.60    7.30
  -1   9   5   15.00    9.80
  -1   9   5    9.70    8.00
   0  -9  -5   14.10   11.90
   0  -9  -5    5.30    5.30
   0  -9  -5    9.40    7.30
   0  -9  -5    3.60   12.40
   0  -9  -5  -12.20    7.90
   0  -9  -5   -2.20    6.30
   0   9   5    3.00    7.00
   0   9   5   10.90    7.80
   0   9   5    2.00    4.90
   0   9   5   -5.40    7.40
  -1  -9  -5    9.60    7.20
  -1  -9  -5  -12.00   11.80
  -1  -9  -5    2.90    7.20
  -1  -9  -5   13.30   10.90
  -1  -9  -5   -8.50    5.30
   1   9   5   -4.00   10.50
   1   9   5    1.70    4.90
   1   9   5    7.80    9.30
   1   9   5   -4.00    8.40
  -2  -9  -5   27.00   18.40
  -2  -9  -5  -12.70   11.90
  -2  -9  -5    7.00    8.60
  -2  -9  -5    2.70    7.60
   2   9   5   14.40   11.20
   2   9   5    9.50   10.30
   3 -10  -5  -12.30    7.60
   3 -10  -5    9.50    9.00
   3 -10  -5   -3.90    3.50
   3 -10  -5   18.70    9.60
  -3  10   5  -15.60    7.30
  -3  10   5  -18.70   11.30
  -3  10   5    5.10   11.30
  -3  10   5  -28.70   11.30
  -3  10   5   12.40    7.60
   2 -10  -5    1.10    8.00
   2 -10  -5   -6.00    7.90
   2 -10  -5   18.20   10.90
   2 -10  -5   10.30    5.00
  -2  10   5    1.70    9.70
  -2  10   5    8.80    6.30
  -2  10   5   20.40   11.90
  -2  10   5  -11.60   11.20
  -2  10   5   -5.20   11.40
   1 -10  -5    3.10    5.20
   1 -10  -5   -0.60    8.80
   1 -10  -5   -2.70    9.00
   1 -10  -5   -0.70    7.40
  -1  10   5    1.10    8.30
  -1  10   5   35.30   12.50
  -1  10   5   -2.10    9.30
  -1  10   5   -2.70   11.50
  -1  10   5    0.90    6.60
   0 -10  -5    1.60    9.20
   0 -10  -5    7.10   14.20
   0 -10  -5   -5.90    7.70
   0 -10  -5   -9.10    5.30
   0 -10  -5   -1.10    8.80
   0  10   5  -14.20    5.70
   0  10   5   -2.80    8.70
   0  10   5    4.50   15.10
   0  10   5  -12.50    9.60
  -1 -10  -5  -19.30    8.10
  -1 -10  -5   -1.50   22.10
  -1 -10  -5   -0.60   10.10
  -1 -10  -5  -13.60    8.10
   1  10   5  -15.00   10.10
   1  10   5   25.50   11.50
   1  10   5  -10.10    5.50
   0  14  -6   -3.20    8.00
   0  14  -6   -0.20    8.80
   0  14  -6    1.50   10.00
   0 -14   6  -22.30   12.00
   0 -14   6    8.00    5.60
   0 -14   6  -17.70   15.00
   0 -14   6   -4.60    8.70
  -1  14  -6   27.80    9.30
  -1  14  -6   33.30   10.50
  -1  14  -6   21.20   11.00
   1 -14   6    6.70    8.80
   1 -14   6   17.60   10.00
   1 -14   6   17.70   23.10
   1 -14   6   16.00    5.60
   2  13  -6    1.00    6.00
   2  13  -6    8.30    8.60
   2  13  -6    6.70    9.10
   2  13  -6    3.90    7.40
  -2 -13   6   -2.10   11.60
  -2 -13   6   -3.10    6.30
  -2 -13   6   19.70   11.50
   1  13  -6   12.10    7.70
   1  13  -6    1.40    6.30
   1  13  -6    3.60    5.60
  -1 -13   6   19.20    5.40
  -1 -13   6   14.90   16.00
  -1 -13   6   12.40    6.40
  -1 -13   6   10.40    7.20
  -1 -13   6   20.30    9.70
   0  13  -6   -5.70    5.50
   0  13  -6    9.80    8.50
   0  13  -6   -1.70    6.60
   0 -13   6   12.60   12.10
   0 -13   6    0.20    4.40
   0 -13   6   -4.60    6.00
   0 -13   6   13.90   10.90
   0 -13   6   -3.80    5.90
  -1  13  -6   10.60    8.60
  -1  13  -6    2.60    7.40
  -1  13  -6   21.80    9.00
  -1  13  -6    2.70    9.30
   1 -13   6   -4.10    7.00
   1 -13   6   13.80    4.90
   1 -13   6    7.80    7.00
   1 -13   6   18.80   11.10
   1 -13   6    3.80   10.10
  -2  13  -6   31.10    9.00
  -2  13  -6   46.50   14.60
   2 -13   6   20.80    6.30
   2 -13   6   18.40    7.80
   2 -13   6   11.00   12.70
   2 -13   6   17.10    8.40
  -3  13  -6   -6.80   11.80
  -3  13  -6  -19.90    9.90
   3 -13   6    6.70    3.90
   3 -13   6    9.30    7.80
   3 -13   6   -0.60    8.00
   3  12  -6    6.30    4.60
   3  12  -6   -0.10    6.50
   3  12  -6    7.30    7.10
  -3 -12   6  -14.60    9.30
  -3 -12   6    3.30    5.90
  -3 -12   6    5.40    9.40
   2  12  -6    0.40    6.00
   2  12  -6   -6.10    5.20
   2  12  -6    7.40    4.80
   2  12  -6    9.60    7.40
  -2 -12   6   -3.30    7.50
  -2 -12   6    6.20    5.80
  -2 -12   6    9.80    8.70
  -2 -12   6   -0.30    4.60
  -2 -12   6    4.10    4.50
   1  12  -6   49.60    9.80
   1  12  -6   69.49   10.90
   1  12  -6   62.59   10.00
   1  12  -6   75.59    9.40
   1  12  -6   64.99   12.60
  -1 -12   6   71.59    8.90
  -1 -12   6   73.49   13.40
  -1 -12   6   59.29   10.10
  -1 -12   6   51.59   10.00
   0  12  -6    1.10    5.00
   0  12  -6    9.50    8.20
   0  12  -6    4.60    7.60
   0  12  -6    9.40    7.00
   0  12  -6    5.10    6.20
   0 -12   6   -1.80    5.00
   0 -12   6   12.70    4.50
   0 -12   6   -6.70    6.80
   0 -12   6    3.70    6.30
   0 -12   6    1.70    5.80
   0 -12   6   -4.50    8.70
  -1  12  -6   57.49   11.00
  -1  12  -6   44.80   10.50
  -1  12  -6   41.30    8.00
  -1  12  -6   37.90   13.00
  -1  12  -6   36.50    9.30
   1 -12   6   33.60    9.00
   1 -12   6   19.30    9.90
   1 -12   6   37.80    8.50
   1 -12   6   29.20   10.40
   1 -12   6   34.10    8.50
  -2  12  -6   38.00    8.80
  -2  12  -6   41.90   10.10
   2 -12   6   28.80    9.70
   2 -12   6   32.90    9.20
   2 -12   6   28.80    9.30
   2 -12   6   22.60    5.10
   2 -12   6   41.40   10.50
   2 -12   6   24.00    7.40
  -3  12  -6   22.40    9.50
  -3  12  -6   15.40    9.50
   3 -12   6   17.40    3.90
   3 -12   6   17.50    7.60
   3 -12   6   20.90   16.60
   3 -12   6    8.40    7.90
  -4  12  -6   24.70    7.30
  -4  12  -6    3.30    7.80
  -4  12  -6   44.60   12.20
  -4  12  -6    7.70   10.20
   4 -12   6   18.00    4.30
   4 -12   6   28.40    9.60
   4 -12   6   29.10    9.10
   4 -12   6   22.30    8.70
   4  11  -6   -1.90    6.30
  -4 -11   6   11.10    5.40
  -4 -11   6   -4.90    4.40
  -4 -11   6    1.50    8.00
  -4 -11   6   -7.20    8.00
  -4 -11   6   -8.90    4.90
   3  11  -6   28.80    8.90
   3  11  -6   15.50    6.10
   3  11  -6   17.50    4.00
  -3 -11   6   19.60    5.60
  -3 -11   6    9.00    6.80
  -3 -11   6   16.20    5.40
  -3 -11   6   21.20    5.70
  -3 -11   6   45.40    8.80
   2  11  -6   56.49    8.00
   2  11  -6   59.09   11.60
   2  11  -6   61.89   10.70
  -2 -11   6  112.49   14.10
  -2 -11   6   49.99   10.70
  -2 -11   6   74.09   10.00
  -2 -11   6   72.29   11.70
  -2 -11   6   78.79    9.50
   1  11  -6    3.60    4.80
   1  11  -6    8.90    4.50
   1  11  -6    5.00    6.90
   1  11  -6   12.40    4.30
   1  11  -6    9.60    5.90
  -1 -11   6    5.20    6.30
  -1 -11   6    2.20    4.30
  -1 -11   6   11.20    6.10
  -1 -11   6    2.00    3.10
  -1 -11   6    2.30    7.10
  -1 -11   6   16.60    5.20
   0  11  -6    1.80    5.40
   0  11  -6   -0.20    4.00
   0  11  -6   -3.10    4.80
   0  11  -6   -3.50    5.70
   0  11  -6    0.50    6.70
   0 -11   6   -0.50    6.40
   0 -11   6   -1.90    4.50
   0 -11   6    4.20    6.40
   0 -11   6   -1.00    6.20
   0 -11   6    5.00    5.30
   0 -11   6    6.80    5.90
  -1  11  -6    3.00    5.10
  -1  11  -6    2.40    5.70
  -1  11  -6    4.90    5.50
  -1  11  -6   -4.40    5.00
   1 -11   6   -3.10    6.60
   1 -11   6   -7.60    6.10
   1 -11   6    3.40    5.00
   1 -11   6   -7.10    4.40
   1 -11   6    0.30    5.50
   1 -11   6   -2.00    3.00
  -2  11  -6   27.30    8.00
  -2  11  -6   38.60    8.00
  -2  11  -6   26.30    7.40
   2 -11   6   36.70    9.40
   2 -11   6   26.40    6.60
   2 -11   6   32.90    8.60
   2 -11   6   29.20    4.80
   2 -11   6   22.20    7.50
   2 -11   6   33.60    7.70
  -3  11  -6   -4.20    6.70
  -3  11  -6    5.50    6.60
   3 -11   6    2.20    5.50
   3 -11   6    2.70    6.90
   3 -11   6    2.70   12.20
   3 -11   6    1.50    2.70
   3 -11   6   -0.30    5.40
   3 -11   6   -0.60    5.60
  -4  11  -6   -4.00    7.50
  -4  11  -6   -3.00    6.60
  -4  11  -6  -12.00    7.20
  -4  11  -6    6.80    5.80
   4 -11   6   -6.70    6.20
   4 -11   6    8.30    6.30
   4 -11   6    0.40    3.00
   4 -11   6    0.30    6.50
   5  10  -6   13.90    7.90
  -5 -10   6   16.00    5.00
  -5 -10   6   14.50    7.50
  -5 -10   6   -5.60   10.30
  -5 -10   6   15.40    6.00
  -5 -10   6    9.40    5.50
   4  10  -6    2.80    6.10
  -4 -10   6   -5.30    3.90
  -4 -10   6   -1.10    3.70
  -4 -10   6    3.00    4.10
  -4 -10   6   -5.40    6.00
  -4 -10   6   -1.20    5.80
   3  10  -6  274.17   23.70
   3  10  -6  353.46   31.40
   3  10  -6  299.47   25.90
   3  10  -6  290.07   26.40
   3  10  -6  298.17   26.90
  -3 -10   6  268.07   27.30
  -3 -10   6  336.37   27.30
  -3 -10   6  325.57   26.40
  -3 -10   6  308.87   26.10
  -3 -10   6  279.77   26.90
  -3 -10   6  289.37   25.70
   2  10  -6    4.20    4.80
   2  10  -6    0.80    2.40
   2  10  -6    5.50    4.10
  -2 -10   6    5.70    7.00
  -2 -10   6    8.40    4.90
  -2 -10   6    4.90    3.80
  -2 -10   6    9.00    4.10
  -2 -10   6    5.60    3.30
   1  10  -6   30.30    6.30
   1  10  -6   40.10    6.90
   1  10  -6   34.20    7.00
   1  10  -6   35.20    7.00
   1  10  -6   24.10    4.50
   1  10  -6   45.40    8.00
  -1 -10   6   14.70    5.90
  -1 -10   6   45.40    8.40
  -1 -10   6   31.70    6.60
  -1 -10   6   23.10    5.40
  -1 -10   6   27.90    6.00
  -1 -10   6   31.70    7.10
   0  10  -6   13.20    4.70
   0  10  -6   13.60    5.10
   0  10  -6   12.40    5.90
   0  10  -6   14.80    3.90
   0  10  -6   11.50    5.00
   0 -10   6   11.70    5.40
   0 -10   6   12.30    5.90
   0 -10   6   14.70    4.90
   0 -10   6   20.10    7.40
   0 -10   6   13.60    3.50
  -1  10  -6   10.20    5.30
  -1  10  -6   18.20    5.50
  -1  10  -6   13.30    5.00
   1 -10   6    8.20    5.00
   1 -10   6    1.20    2.90
   1 -10   6    2.80    5.20
   1 -10   6   12.10    8.80
   1 -10   6   14.00    4.50
   1 -10   6   11.70    5.60
  -2  10  -6    0.40    4.40
  -2  10  -6   -3.90    4.60
   2 -10   6    0.20    5.40
   2 -10   6   -0.20    2.40
   2 -10   6    7.70    5.40
   2 -10   6    1.90    4.30
   2 -10   6    0.20    4.30
   2 -10   6    6.20    4.70
  -3  10  -6    1.80    5.30
  -3  10  -6    6.10    4.70
  -3  10  -6    6.10    5.60
   3 -10   6    5.70    4.80
   3 -10   6    6.50    3.00
   3 -10   6    2.10    5.00
   3 -10   6    8.50    5.00
   3 -10   6    5.90    7.10
  -4  10  -6    1.80    6.70
  -4  10  -6    4.10    5.00
  -4  10  -6   -5.40    6.10
  -4  10  -6    3.00    5.70
  -4  10  -6    0.20    5.60
   4 -10   6    1.70    6.00
   4 -10   6   -2.80    5.50
   4 -10   6    3.40    3.00
   4 -10   6  -11.00    9.70
   4 -10   6   -3.70    5.00
  -5  10  -6   -4.00    7.90
  -5  10  -6   -2.40    5.80
  -5  10  -6    1.40    7.80
  -5  10  -6    0.80    9.90
   5 -10   6   -1.20    7.40
   5 -10   6   -4.50    5.50
   5   9  -6    4.80    5.40
   5   9  -6    3.80    5.40
   5   9  -6   10.40    5.90
   5   9  -6   12.20    6.90
  -5  -9   6    6.60    6.10
  -5  -9   6   -4.20    5.30
  -5  -9   6    3.20    4.70
  -5  -9   6    2.10    3.50
  -5  -9   6    4.50    4.30
   4   9  -6   10.30    5.10
   4   9  -6    0.90    6.30
   4   9  -6    2.90    5.00
  -4  -9   6    9.90    4.20
  -4  -9   6    6.50    3.90
  -4  -9   6   13.00    4.20
  -4  -9   6   12.70    4.70
  -4  -9   6    0.50    5.30
   3   9  -6  247.88   22.90
   3   9  -6  251.37   23.90
  -3  -9   6  229.88   20.70
  -3  -9   6  240.18   26.50
  -3  -9   6  228.88   20.90
  -3  -9   6  224.38   21.80
  -3  -9   6  242.58   20.80
   2   9  -6  698.93   56.09
   2   9  -6  707.23   55.79
   2   9  -6  598.44   53.69
   2   9  -6  765.62   56.99
   2   9  -6  679.73   55.89
  -2  -9   6  748.53   56.19
  -2  -9   6  747.53   56.49
  -2  -9   6  704.73   55.59
  -2  -9   6  739.83   56.19
  -2  -9   6  682.23   58.19
   1   9  -6    2.50    3.50
   1   9  -6   -1.30    1.80
   1   9  -6    1.10    3.80
   1   9  -6   -0.90    3.10
   1   9  -6   -1.00    3.80
   1   9  -6    5.20    3.50
  -1  -9   6   -2.30    2.90
  -1  -9   6    5.70    3.00
  -1  -9   6   -0.90    4.00
  -1  -9   6    5.40    4.20
  -1  -9   6   -5.00    2.60
   0   9  -6   28.30    5.80
   0   9  -6   15.70    5.10
   0   9  -6   21.10    5.20
   0  -9   6   18.50    6.10
   0  -9   6   25.60    5.30
   0  -9   6   29.50    6.10
   0  -9   6   29.30    5.00
   0  -9   6   22.50    5.80
   0  -9   6   29.70    6.00
  -1   9  -6    5.20    3.90
  -1   9  -6    2.80    3.50
   1  -9   6    3.90    3.40
   1  -9   6    0.30    3.40
   1  -9   6   -3.50    3.90
   1  -9   6   -1.00    2.30
   1  -9   6   -2.50    2.90
   1  -9   6    5.00    3.80
  -2   9  -6    9.60    5.00
  -2   9  -6    0.70    6.40
   2  -9   6    8.50    4.00
   2  -9   6    3.30    3.60
   2  -9   6    0.60    2.80
   2  -9   6    3.20    4.10
   2  -9   6    1.30    2.00
   2  -9   6    4.50    5.00
  -3   9  -6    9.50    5.30
  -3   9  -6   14.30    5.50
  -3   9  -6   15.40    4.50
  -3   9  -6   13.60    5.20
  -3   9  -6   15.20    3.30
   3  -9   6    1.20    5.60
   3  -9   6   14.10    3.00
   3  -9   6    5.20    4.90
   3  -9   6   10.60    5.00
   3  -9   6    6.70    5.00
   3  -9   6   19.80    5.60
  -4   9  -6    6.10    3.20
  -4   9  -6   -0.30    4.20
  -4   9  -6    1.80    5.80
  -4   9  -6   -0.90    5.50
  -4   9  -6   -1.60    3.90
  -4   9  -6    8.20    5.30
   4  -9   6   13.30    6.60
   4  -9   6   -0.50    3.80
   4  -9   6    3.20    6.60
   4  -9   6   -2.60    5.70
   4  -9   6    8.00    3.00
   4  -9   6    3.80    4.80
  -5   9  -6   -0.80    5.70
  -5   9  -6   -0.30    3.30
  -5   9  -6   -2.60    5.00
  -5   9  -6   -1.20    5.40
  -5   9  -6   -3.80    5.40
   5  -9   6   -4.50    6.30
   5  -9   6   -5.50    6.50
   5  -9   6   -3.90    4.90
   6   8  -6   30.00    7.90
  -6  -8   6   21.50    5.50
  -6  -8   6    4.90    5.70
  -6  -8   6   22.10    6.10
  -6  -8   6    5.90    5.30
  -6  -8   6   11.10    3.90
   5   8  -6   -3.80    3.30
   5   8  -6   -0.10    5.30
   5   8  -6   -1.10    4.00
   5   8  -6    6.20    4.00
  -5  -8   6   -3.00    4.10
  -5  -8   6   -1.80    2.70
  -5  -8   6    0.90    2.90
  -5  -8   6    0.70    3.60
  -5  -8   6   -3.00    2.70
  -5  -8   6   -4.20    4.50
   4   8  -6   43.70    9.60
   4   8  -6   39.40    6.70
  -4  -8   6   48.10    7.20
  -4  -8   6   43.00    6.40
  -4  -8   6   48.50    6.70
  -4  -8   6   33.40    6.60
  -4  -8   6   44.40    7.50
   3   8  -6  112.49   12.80
   3   8  -6   98.99   11.40
   3   8  -6  108.79   11.10
  -3  -8   6  106.29   11.10
  -3  -8   6  105.69   10.80
  -3  -8   6  102.29   10.70
  -3  -8   6  103.49   11.80
   2   8  -6  243.08   20.60
   2   8  -6  196.58   18.20
   2   8  -6  245.18   20.70
   2   8  -6  283.67   22.20
  -2  -8   6  249.18   20.80
  -2  -8   6  231.08   20.70
  -2  -8   6  238.48   20.30
  -2  -8   6  233.48   20.50
  -2  -8   6  236.88   21.20
   1   8  -6    6.20    3.30
   1   8  -6    2.00    1.50
   1   8  -6    2.80    2.70
   1   8  -6    3.20    3.10
  -1  -8   6    6.50    3.60
  -1  -8   6    7.90    2.80
  -1  -8   6    9.10    3.80
  -1  -8   6    0.40    3.00
  -1  -8   6    5.40    2.80
   0   8  -6    6.40    3.30
   0   8  -6    8.50    3.50
   0  -8   6    6.00    2.90
   0  -8   6   10.30    3.70
   0  -8   6    5.60    3.30
   0  -8   6   10.30    3.90
   0  -8   6    5.00    3.40
   0  -8   6    3.00    3.90
  -1   8  -6  308.07   23.70
  -1   8  -6  294.17   24.20
   1  -8   6  243.98   21.60
   1  -8   6  239.28   22.90
   1  -8   6  262.47   23.40
   1  -8   6  246.08   21.10
   1  -8   6  246.48   22.90
   1  -8   6  279.67   23.80
  -2   8  -6   13.70    4.90
  -2   8  -6   15.50    3.50
  -2   8  -6   13.70    3.80
  -2   8  -6   18.70    4.70
   2  -8   6   21.60    5.70
   2  -8   6   16.80    5.50
   2  -8   6   13.10    4.50
   2  -8   6   13.90    3.10
   2  -8   6    9.20    4.20
   2  -8   6   16.90    4.60
  -3   8  -6   -4.70    2.90
  -3   8  -6   -4.80    4.30
  -3   8  -6   -4.70    3.40
  -3   8  -6   -1.50    4.20
  -3   8  -6    0.00    2.50
  -3   8  -6    0.60    3.50
   3  -8   6    0.20    3.90
   3  -8   6    3.00    2.50
   3  -8   6   -5.90    4.20
   3  -8   6   -2.60    4.00
   3  -8   6    2.10    4.00
   3  -8   6   -4.60    3.70
  -4   8  -6   66.49   10.30
  -4   8  -6   76.29    7.30
  -4   8  -6   57.79    9.20
  -4   8  -6   45.10    8.40
  -4   8  -6   46.70    9.00
  -4   8  -6   46.00    8.80
   4  -8   6   49.50   11.10
   4  -8   6   62.39    7.00
   4  -8   6   57.39    8.00
   4  -8   6   82.79   10.80
   4  -8   6   56.79   10.40
  -5   8  -6    1.20    5.80
  -5   8  -6    1.10    4.80
  -5   8  -6   -2.90    4.80
  -5   8  -6    1.90    5.50
  -5   8  -6   -1.50    4.90
  -5   8  -6    1.00    3.80
   5  -8   6    3.00    3.20
   5  -8   6    1.10    5.60
   5  -8   6   -4.20    5.50
  -6   8  -6    4.30    6.20
  -6   8  -6   -6.00    5.90
  -6   8  -6    1.90    6.60
  -6   8  -6    4.30    6.70
   6  -8   6   -3.60    8.00
   6  -8   6   -0.90    7.40
   6   7  -6    9.10    7.60
  -6  -7   6    6.00    2.70
  -6  -7   6    6.90    4.30
  -6  -7   6   13.20    4.80
  -6  -7   6    5.60    3.80
  -6  -7   6    6.30    2.90
   5   7  -6   26.60    6.90
  -5  -7   6   25.00    4.50
  -5  -7   6   33.60    4.80
  -5  -7   6   38.10    6.60
  -5  -7   6   40.30    6.90
  -5  -7   6   27.60    4.40
  -5  -7   6   35.00    5.40
   4   7  -6   68.69    7.00
   4   7  -6   61.99    7.10
   4   7  -6   51.49    9.80
   4   7  -6   56.19    7.00
   4   7  -6   55.89    7.30
  -4  -7   6   44.50    7.30
  -4  -7   6   56.69    7.70
  -4  -7   6   62.09    7.00
  -4  -7   6   59.09    7.10
  -4  -7   6   57.69    6.00
  -4  -7   6   59.99    8.00
   3   7  -6   88.79    9.40
   3   7  -6  108.09   11.80
   3   7  -6   87.89    9.10
   3   7  -6   78.29    9.30
  -3  -7   6   95.09    9.80
  -3  -7   6   83.39    8.90
  -3  -7   6   87.49    9.20
  -3  -7   6   78.99    9.10
  -3  -7   6   82.49    9.70
   2   7  -6   21.80    4.30
   2   7  -6   18.70    4.00
   2   7  -6   28.70    5.30
  -2  -7   6   19.40    4.10
  -2  -7   6   19.40    4.40
  -2  -7   6   21.80    4.40
  -2  -7   6   21.80    5.00
   1   7  -6    1.00    2.00
   1   7  -6   -0.70    0.90
   1   7  -6   -1.20    2.00
  -1  -7   6   -1.70    2.30
  -1  -7   6   -0.30    3.00
  -1  -7   6    3.20    2.50
  -1  -7   6    0.70    2.00
  -1  -7   6    0.80    1.90
   0   7  -6    8.40    2.10
   0   7  -6   13.50    3.80
   0   7  -6    8.60    3.50
   0   7  -6   11.00    3.50
   0  -7   6    7.70    3.60
   0  -7   6   11.40    4.00
   0  -7   6   11.70    3.00
   0  -7   6    5.70    3.00
   0  -7   6   11.30    3.50
   0  -7   6   13.20    4.00
  -1   7  -6  115.19   10.40
  -1   7  -6  106.59   10.40
  -1   7  -6  132.59   12.60
  -1   7  -6  115.29   12.30
  -1   7  -6  108.79   11.50
   1  -7   6  105.19   10.40
   1  -7   6  107.39   11.50
   1  -7   6  113.49   11.60
   1  -7   6  116.89   12.30
   1  -7   6  108.69   11.90
   1  -7   6  115.09   10.50
  -2   7  -6    2.40    3.30
  -2   7  -6    6.20    3.40
  -2   7  -6    8.00    4.00
  -2   7  -6    0.10    2.90
  -2   7  -6    4.00    2.70
  -2   7  -6    3.40    2.10
   2  -7   6    2.80    2.90
   2  -7   6    0.50    1.80
   2  -7   6    0.40    2.30
   2  -7   6   -1.30    2.60
   2  -7   6    3.90    2.40
   2  -7   6   -2.70    3.30
   2  -7   6    4.10    3.90
  -3   7  -6   22.30    5.60
  -3   7  -6   47.20    8.30
  -3   7  -6   28.20    5.80
  -3   7  -6   35.10    7.50
  -3   7  -6   27.60    6.10
  -3   7  -6   41.40    4.90
   3  -7   6   25.20    6.90
   3  -7   6   20.90    5.70
   3  -7   6   27.60    7.00
   3  -7   6   28.50    5.00
   3  -7   6   21.60    5.80
   3  -7   6   39.00    5.50
  -4   7  -6   11.40    4.50
  -4   7  -6    2.40    3.90
  -4   7  -6    9.20    3.00
  -4   7  -6   11.80    5.00
  -4   7  -6    4.30    4.80
  -4   7  -6   10.50    4.80
   4  -7   6    4.90    4.80
   4  -7   6    7.20    3.50
   4  -7   6    2.10    4.20
   4  -7   6    6.30    4.50
   4  -7   6   10.60    2.50
   4  -7   6    4.90    2.70
   4  -7   6    9.30    5.40
  -5   7  -6   13.30    5.60
  -5   7  -6    6.40    5.20
  -5   7  -6    4.00    5.20
  -5   7  -6    0.80    5.20
  -5   7  -6    7.40    5.90
  -5   7  -6   10.60    5.10
   5  -7   6   12.50    6.80
   5  -7   6    9.40    3.40
  -6   7  -6    4.00    5.90
  -6   7  -6    3.30    6.60
  -6   7  -6    3.40    4.80
  -6   7  -6    0.20    6.10
  -6   7  -6   -0.90    6.20
   6  -7   6    6.20    7.30
   6  -7   6    9.80   12.50
   6   6  -6   32.20    8.10
  -6  -6   6   49.40    7.40
  -6  -6   6   29.40    6.20
   5   6  -6    2.10    5.60
  -5  -6   6    1.20    2.50
  -5  -6   6    3.90    2.10
  -5  -6   6   -4.10    2.40
  -5  -6   6    4.20    3.30
  -5  -6   6   -3.60    3.00
  -5  -6   6    1.60    2.10
   4   6  -6  178.48   15.80
   4   6  -6  186.28   19.20
   4   6  -6  191.48   15.90
   4   6  -6  187.88   15.80
   4   6  -6  196.28   16.00
  -4  -6   6  218.38   16.90
  -4  -6   6  214.58   16.60
  -4  -6   6  188.08   16.00
   3   6  -6  211.28   17.40
   3   6  -6  210.08   17.20
   3   6  -6  183.98   17.70
   3   6  -6  201.08   19.20
   3   6  -6  201.58   17.10
  -3  -6   6  210.18   17.30
  -3  -6   6  195.28   17.60
  -3  -6   6  189.88   17.40
  -3  -6   6  200.68   17.20
  -3  -6   6  218.88   17.50
   2   6  -6    1.10    1.70
   2   6  -6    4.80    2.30
   2   6  -6   -0.50    1.70
   2   6  -6    1.50    2.70
   2   6  -6    1.30    3.10
  -2  -6   6    1.00    1.90
  -2  -6   6    0.70    1.70
  -2  -6   6    0.90    2.60
  -2  -6   6   -2.50    1.90
  -2  -6   6   -1.10    1.80
   1   6  -6    3.60    2.60
   1   6  -6    6.40    2.80
   1   6  -6    9.40    3.70
  -1  -6   6    6.10    2.50
  -1  -6   6    0.90    2.00
  -1  -6   6    8.50    2.80
  -1  -6   6    4.20    2.80
  -1  -6   6    4.70    2.10
   0   6  -6  505.95   44.80
   0   6  -6  622.54   47.10
   0   6  -6  595.64   47.00
   0   6  -6  627.24   46.60
   0   6  -6  647.34   46.60
   0   6  -6  596.14   45.70
   0  -6   6  562.64   46.40
   0  -6   6  504.35   46.20
   0  -6   6  654.23   47.10
   0  -6   6  575.54   45.90
   0  -6   6  615.94   46.60
   0  -6   6  555.14   45.60
  -1   6  -6   49.40    5.40
  -1   6  -6   46.40    5.40
  -1   6  -6   46.20    6.60
  -1   6  -6   55.49    6.80
  -1   6  -6   49.10    7.10
  -1   6  -6   62.99    7.10
   1  -6   6   46.90    6.80
   1  -6   6   35.00    6.00
   1  -6   6   36.50    5.30
   1  -6   6   53.19    7.30
   1  -6   6   48.60    6.50
   1  -6   6   43.20    6.40
  -2   6  -6  119.99   11.60
  -2   6  -6  114.59   10.00
  -2   6  -6  107.59   10.60
  -2   6  -6  110.29   11.40
  -2   6  -6   99.79   11.70
  -2   6  -6  107.29   11.70
   2  -6   6   93.49   11.10
   2  -6   6   98.19   11.30
   2  -6   6  103.29   10.00
   2  -6   6  110.39   11.90
  -3   6  -6   76.69   10.40
  -3   6  -6   81.59   10.20
  -3   6  -6   88.89    9.90
  -3   6  -6   74.49    9.30
  -3   6  -6   79.39    8.20
  -3   6  -6   87.19   10.10
   3  -6   6   96.19    8.50
   3  -6   6   66.19    9.80
   3  -6   6   77.89    9.90
   3  -6   6   62.09    9.60
   3  -6   6   75.39    8.20
   3  -6   6   96.19   10.80
  -4   6  -6    1.30    3.40
  -4   6  -6    3.70    4.30
  -4   6  -6   -3.00    4.90
  -4   6  -6    9.00    8.30
  -4   6  -6    5.50    4.00
   4  -6   6    4.60    4.70
   4  -6   6    2.40    3.50
   4  -6   6    5.20    4.50
   4  -6   6    3.10    4.10
   4  -6   6    2.80    2.30
  -5   6  -6   -0.60    4.00
  -5   6  -6   -2.50    4.10
  -5   6  -6   -3.30    4.80
  -5   6  -6   -3.60    3.60
  -5   6  -6    4.40    3.80
  -5   6  -6   -4.40    3.30
   5  -6   6    5.80    5.60
   5  -6   6   -6.20    4.00
   5  -6   6   -0.50    4.70
   5  -6   6   -2.30    3.40
   5  -6   6    1.70    5.10
  -6   6  -6    0.20    5.90
  -6   6  -6    9.70    4.70
  -6   6  -6   -4.00    7.30
  -6   6  -6   -3.90    6.00
   6  -6   6    1.10    6.80
   6  -6   6   16.90    5.00
   6   5  -6   19.20    6.80
  -6  -5   6   29.20    5.50
  -6  -5   6   19.10    4.90
   5   5  -6   62.19   12.90
   5   5  -6   67.29   11.80
  -5  -5   6   49.40    5.10
  -5  -5   6   41.90    6.60
  -5  -5   6   56.09    6.90
  -5  -5   6   42.50    5.20
   4   5  -6  247.58   21.80
  -4  -5   6  232.08   20.70
  -4  -5   6  271.77   20.30
  -4  -5   6  239.78   19.90
  -4  -5   6  240.88   20.00
  -4  -5   6  247.38   20.40
  -4  -5   6  242.48   19.90
   3   5  -6  286.87   23.40
   3   5  -6  300.57   23.20
   3   5  -6  289.47   23.50
   3   5  -6  260.07   24.10
   3   5  -6  284.57   24.40
   3   5  -6  298.37   25.60
  -3  -5   6  290.17   23.90
  -3  -5   6  292.37   23.60
  -3  -5   6  321.67   23.70
  -3  -5   6  283.27   22.30
  -3  -5   6  295.57   23.80
  -3  -5   6  296.67   23.60
   2   5  -6    4.00    2.10
   2   5  -6    4.60    3.60
   2   5  -6    4.80    3.20
   2   5  -6    2.10    1.90
  -2  -5   6    5.40    2.20
  -2  -5   6    4.50    2.40
  -2  -5   6    3.40    2.10
  -2  -5   6    1.30    1.60
   1   5  -6   19.80    3.70
   1   5  -6   14.50    3.20
   1   5  -6   15.30    3.70
   1   5  -6   13.20    3.00
   1   5  -6   15.20    3.30
  -1  -5   6   14.80    3.20
  -1  -5   6   15.10    3.50
  -1  -5   6   15.00    3.00
  -1  -5   6   14.80    3.60
  -1  -5   6   18.10    4.00
   0   5  -6   -2.50    1.80
   0   5  -6    2.50    2.20
   0   5  -6    2.00    1.70
   0   5  -6    0.70    1.80
   0   5  -6    0.60    1.10
   0   5  -6    2.10    2.10
   0  -5   6    0.60    2.40
   0  -5   6    2.20    2.20
   0  -5   6   -0.40    1.70
   0  -5   6   -0.90    1.70
   0  -5   6    0.70    1.80
   0  -5   6   -4.90    2.30
  -1   5  -6   62.59    6.50
  -1   5  -6   56.79    9.50
  -1   5  -6   69.59    7.60
  -1   5  -6   65.19    7.80
  -1   5  -6   59.19    7.40
   1  -5   6   56.49    6.40
   1  -5   6   62.39    7.50
   1  -5   6   64.99    7.90
   1  -5   6   50.29    6.80
   1  -5   6   60.19    7.30
  -2   5  -6   -0.10    2.20
  -2   5  -6   -0.10    2.90
  -2   5  -6   -0.20    2.30
  -2   5  -6    0.90    2.10
  -2   5  -6    0.60    2.30
  -2   5  -6   -2.30    1.50
   2  -5   6    0.40    3.10
   2  -5   6   -0.20    2.40
   2  -5   6   -2.80    2.20
   2  -5   6    1.20    1.80
  -3   5  -6  124.19   14.00
  -3   5  -6  140.59   14.00
  -3   5  -6  150.08   12.60
  -3   5  -6  130.69   13.40
  -3   5  -6  139.89   13.90
  -3   5  -6  133.79   14.20
   3  -5   6  119.69   14.00
   3  -5   6  129.49   13.80
   3  -5   6  164.88   14.60
   3  -5   6  124.39   13.90
   3  -5   6  148.99   12.70
  -4   5  -6   17.80    5.70
  -4   5  -6   13.40    7.50
  -4   5  -6   16.60    6.00
  -4   5  -6   24.90    4.60
  -4   5  -6   28.20    6.20
  -4   5  -6   16.60    5.10
   4  -5   6   19.30    5.60
   4  -5   6   18.40    5.40
   4  -5   6   21.40    5.80
   4  -5   6   18.10    5.10
  -5   5  -6   51.79   10.20
  -5   5  -6   81.19   10.80
  -5   5  -6   74.79   10.50
  -5   5  -6   57.29    9.40
  -5   5  -6   75.69    8.70
  -5   5  -6   80.59   11.00
   5  -5   6   85.69   10.90
   5  -5   6   59.89   10.10
   5  -5   6   78.59    8.80
   5  -5   6   46.00    9.30
   5  -5   6   59.39    9.60
  -6   5  -6  263.77   30.10
  -6   5  -6  277.77   30.20
  -6   5  -6  319.47   30.10
  -6   5  -6  361.56   29.60
  -6   5  -6  297.27   29.80
  -6   5  -6  361.76   27.50
   6  -5   6  299.27   29.60
   6  -5   6  350.06   27.90
   7   4  -6    0.60    5.90
  -7  -4   6   10.80   11.30
  -7  -4   6    2.60    4.30
  -7  -4   6   14.20    6.20
   6   4  -6    2.40    9.30
   6   4  -6    5.10    5.10
  -6  -4   6   13.40    4.20
  -6  -4   6    2.10    4.70
  -6  -4   6   20.80    4.60
   5   4  -6    0.70    3.70
   5   4  -6    9.00    6.80
  -5  -4   6   11.40    3.50
  -5  -4   6    4.70    3.30
   4   4  -6  108.39   13.40
   4   4  -6  139.99   14.20
  -4  -4   6  115.89   10.40
  -4  -4   6  129.19   10.60
  -4  -4   6  127.79   10.60
  -4  -4   6  124.39   11.10
  -4  -4   6  115.39   11.40
  -4  -4   6  120.39   10.40
   3   4  -6    1.30    1.40
   3   4  -6    3.30    2.70
   3   4  -6    2.80    4.70
   3   4  -6    0.90    1.30
   3   4  -6    1.40    1.40
  -3  -4   6   -1.20    1.00
  -3  -4   6   -0.80    1.70
  -3  -4   6   -0.40    1.30
  -3  -4   6   -0.70    1.80
  -3  -4   6    2.20    1.80
  -3  -4   6    2.20    1.90
   2   4  -6   -1.10    1.10
   2   4  -6    0.70    3.10
   2   4  -6    1.40    1.60
   2   4  -6    0.50    1.40
   2   4  -6   -0.40    1.60
   2   4  -6    0.20    1.50
  -2  -4   6    0.70    1.80
  -2  -4   6    2.00    1.90
  -2  -4   6   -0.40    1.30
  -2  -4   6    0.20    1.60
  -2  -4   6    0.40    1.50
   1   4  -6    2.30    1.70
   1   4  -6    4.70    2.30
   1   4  -6    5.80    2.00
   1   4  -6    1.10    1.50
   1   4  -6    3.10    1.80
  -1  -4   6    1.10    3.50
  -1  -4   6    3.60    1.70
  -1  -4   6    2.10    1.70
  -1  -4   6    4.20    2.00
   0   4  -6  196.78   15.40
   0   4  -6  202.88   16.20
   0   4  -6  163.38   14.70
   0   4  -6  179.78   16.30
   0   4  -6  183.28   15.90
   0   4  -6  171.38   16.20
   0  -4   6  175.98   16.00
   0  -4   6  191.68   15.40
   0  -4   6  178.48   16.10
  -1   4  -6   35.80    4.90
  -1   4  -6   41.50    6.60
  -1   4  -6   35.80    7.90
  -1   4  -6   48.30    6.00
  -1   4  -6   48.50    6.10
  -1   4  -6   35.80    6.30
   1  -4   6   39.40    4.90
   1  -4   6   40.70    5.80
   1  -4   6   27.80    5.40
  -2   4  -6   77.69    9.30
  -2   4  -6   74.79    8.70
  -2   4  -6  102.69    9.80
  -2   4  -6   91.69    9.80
  -2   4  -6   88.39    8.20
  -2   4  -6   87.69    9.40
   2  -4   6   72.09    9.20
   2  -4   6   66.89    9.00
   2  -4   6   84.89    8.30
  -3   4  -6   30.10    5.50
  -3   4  -6   33.70    6.70
  -3   4  -6   29.30    4.60
  -3   4  -6   23.30    5.30
  -3   4  -6   28.50    6.00
  -3   4  -6   11.00    3.90
   3  -4   6   20.00    4.00
   3  -4   6   18.50    5.20
  -4   4  -6   20.70    5.70
  -4   4  -6   12.50    3.90
  -4   4  -6   13.20    5.00
  -4   4  -6    9.90    4.40
  -4   4  -6    6.70    3.10
   4  -4   6    8.00    4.80
   4  -4   6   10.00    4.20
   4  -4   6   10.60    4.00
  -5   4  -6  106.19   14.30
  -5   4  -6  138.59   15.40
  -5   4  -6  142.69   13.50
  -5   4  -6  140.89   14.60
  -5   4  -6  124.99   14.60
  -5   4  -6  129.19   15.40
   5  -4   6  150.48   14.60
   5  -4   6  125.89   15.20
   5  -4   6  115.49   14.80
   5  -4   6  145.29   14.90
  -6   4  -6  149.19   15.30
  -6   4  -6  155.38   16.50
  -6   4  -6  121.89   16.30
  -6   4  -6  132.99   17.20
  -6   4  -6  144.49   16.80
  -6   4  -6  161.78   16.20
   6  -4   6  158.98   15.50
   6  -4   6  112.19   16.60
   7   3  -6    6.50    5.80
   7   3  -6   13.00   10.40
  -7  -3   6   -5.40    3.60
  -7  -3   6   -7.80    5.00
  -7  -3   6    1.00    4.40
   6   3  -6   31.00    8.70
   6   3  -6   11.70    5.50
  -6  -3   6    4.00    4.00
  -6  -3   6    0.40    3.10
  -6  -3   6    3.90    4.40
   5   3  -6   68.29   13.00
   5   3  -6   78.39   10.70
  -5  -3   6   60.59    7.90
  -5  -3   6   68.99    9.30
  -5  -3   6   68.29    7.60
   4   3  -6   39.40    7.90
   4   3  -6   35.20    7.90
  -4  -3   6   30.70    5.00
  -4  -3   6   31.00    3.80
  -4  -3   6   32.00    6.80
  -4  -3   6   39.30    3.90
  -4  -3   6   36.80    3.70
   3   3  -6    3.00    1.20
   3   3  -6    3.40    1.30
   3   3  -6    3.00    1.40
   3   3  -6    4.00    1.20
   3   3  -6   -1.00    4.20
  -3  -3   6    3.60    1.50
  -3  -3   6    4.20    1.60
  -3  -3   6    1.00    2.00
  -3  -3   6    3.30    1.50
  -3  -3   6    4.40    1.70
  -3  -3   6    8.90    2.30
   2   3  -6    4.50    1.70
   2   3  -6    3.40    1.70
   2   3  -6   -0.60    3.00
   2   3  -6    2.40    1.50
   2   3  -6    2.30    1.60
   2   3  -6    0.40    1.70
  -2  -3   6    2.00    1.20
  -2  -3   6    2.90    1.60
  -2  -3   6    2.40    1.60
  -2  -3   6    0.80    1.40
   1   3  -6  181.18   16.40
   1   3  -6  210.18   16.00
   1   3  -6  190.98   16.10
   1   3  -6  164.38   16.50
   1   3  -6  201.58   16.20
  -1  -3   6  181.18   16.30
  -1  -3   6  164.58   17.50
  -1  -3   6  224.98   16.90
  -1  -3   6  204.98   16.70
  -1  -3   6  177.58   16.20
  -1  -3   6  189.48   15.90
   0   3  -6   40.10    4.50
   0   3  -6   41.00    5.40
   0   3  -6   32.40    4.90
   0   3  -6   30.20    4.10
   0   3  -6   29.80    5.70
   0   3  -6   40.70    5.30
   0  -3   6   40.00    5.30
   0  -3   6   36.90    4.00
   0  -3   6   41.00    5.50
   0  -3   6   38.90    5.50
   0  -3   6   34.60    5.20
   0  -3   6   34.70    4.50
  -1   3  -6  198.98   17.20
  -1   3  -6  169.58   17.10
  -1   3  -6  185.18   16.10
  -1   3  -6  210.18   17.30
  -1   3  -6  194.08   16.50
  -1   3  -6  189.08   17.30
   1  -3   6  207.28   17.60
   1  -3   6  203.18   17.50
   1  -3   6  192.18   18.10
   1  -3   6  182.38   16.20
   1  -3   6  192.68   16.30
   1  -3   6  178.28   17.10
  -2   3  -6  115.99   11.70
  -2   3  -6  118.49   11.70
  -2   3  -6  113.19   11.90
  -2   3  -6  114.89   11.30
  -2   3  -6  113.89   10.50
  -2   3  -6  111.39   11.80
   2  -3   6   95.89   11.30
   2  -3   6  103.59   11.60
   2  -3   6  129.39   11.20
   2  -3   6  106.49   10.50
   2  -3   6  119.69   11.90
   2  -3   6  111.99   11.90
  -3   3  -6   17.20    4.50
  -3   3  -6   21.70    5.50
  -3   3  -6   14.70    4.10
  -3   3  -6   25.40    5.90
  -3   3  -6   23.70    5.50
   3  -3   6   27.70    5.40
   3  -3   6   16.60    3.00
   3  -3   6   13.30    4.40
   3  -3   6   31.00   10.30
   3  -3   6   22.80    5.30
   3  -3   6   19.50    3.90
  -4   3  -6   32.20    7.30
  -4   3  -6   24.00    5.90
  -4   3  -6   29.00    5.20
  -4   3  -6   34.40    6.80
  -4   3  -6   25.00    6.20
   4  -3   6   27.00    6.60
   4  -3   6   23.20    6.60
  -5   3  -6  182.98   19.50
  -5   3  -6  206.38   20.50
  -5   3  -6  189.18   19.60
  -5   3  -6  235.78   19.30
  -5   3  -6  230.88   19.70
  -5   3  -6  187.68   18.90
   5  -3   6  193.48   19.50
   5  -3   6  154.28   18.90
   5  -3   6  188.38   18.40
  -6   3  -6   -2.00    5.20
  -6   3  -6  -11.30    4.20
  -6   3  -6   10.90    5.80
  -6   3  -6    7.10    5.20
  -6   3  -6    6.20    4.80
  -6   3  -6    0.20    4.30
   6  -3   6    9.00    6.40
   6  -3   6    7.80    5.20
   6  -3   6   -3.30    5.60
   7   2  -6   -1.50   14.80
  -7  -2   6   -1.60    5.30
  -7  -2   6   -1.10    3.30
  -7  -2   6    0.30    4.00
   6   2  -6    8.60    7.50
  -6  -2   6    5.40    3.10
  -6  -2   6    0.40    3.30
  -6  -2   6    4.00    3.80
   5   2  -6  166.48   19.30
  -5  -2   6  167.78   15.00
  -5  -2   6  186.58   16.00
  -5  -2   6  161.58   16.80
   4   2  -6    0.50    4.60
  -4  -2   6    0.10    1.20
  -4  -2   6   -1.70    1.70
  -4  -2   6    0.10    2.60
   3   2  -6    3.80    5.80
   3   2  -6    1.50    1.20
   3   2  -6    1.90    1.10
   3   2  -6    3.10    1.30
   3   2  -6    3.20    1.20
  -3  -2   6    2.70    2.20
  -3  -2   6   -0.30    1.20
  -3  -2   6    0.30    1.30
  -3  -2   6    1.00    1.50
  -3  -2   6   -1.00    1.50
  -3  -2   6    1.80    1.50
   2   2  -6  112.29   10.10
   2   2  -6  112.99   12.20
   2   2  -6  116.59   10.10
   2   2  -6  119.29   10.10
   2   2  -6  110.89   10.70
  -2  -2   6  120.29   10.50
  -2  -2   6  118.49    9.80
  -2  -2   6  114.39   10.40
  -2  -2   6  106.99   10.10
  -2  -2   6  109.59   10.30
  -2  -2   6  105.39   10.30
   1   2  -6    4.90    2.10
   1   2  -6    2.90    1.50
   1   2  -6    2.90    1.60
   1   2  -6    2.80    2.10
   1   2  -6    3.50    2.00
  -1  -2   6    1.50    1.70
  -1  -2   6    1.90    1.70
  -1  -2   6    3.00    1.40
  -1  -2   6    3.90    2.00
  -1  -2   6    3.00    2.00
  -1  -2   6    3.20    1.90
   0   2  -6  455.75   35.20
   0   2  -6  460.85   35.20
   0   2  -6  442.66   36.20
   0   2  -6  466.55   36.10
   0   2  -6  425.96   36.10
   0   2  -6  462.75   36.10
   0  -2   6  435.96   36.10
   0  -2   6  449.06   35.20
   0  -2   6  473.05   36.30
   0  -2   6  432.66   35.10
   0  -2   6  431.26   36.00
   0  -2   6  468.75   36.30
   0  -2   6  415.26   35.90
  -1   2  -6  204.48   17.30
  -1   2  -6  211.38   17.80
  -1   2  -6  221.08   18.50
  -1   2  -6  202.38   18.50
  -1   2  -6  226.98   18.60
  -1   2  -6  188.78   18.40
   1  -2   6  210.88   18.60
   1  -2   6  204.28   17.30
   1  -2   6  190.78   18.30
   1  -2   6  195.18   17.50
   1  -2   6  216.78   18.60
  -2   2  -6  171.28   16.40
  -2   2  -6  177.38   15.00
  -2   2  -6  174.58   16.10
  -2   2  -6  162.58   15.70
  -2   2  -6  175.78   16.10
  -2   2  -6  180.48   16.50
   2  -2   6  155.58   16.00
   2  -2   6  172.48   14.90
   2  -2   6  175.78   16.20
   2  -2   6  174.98   16.20
   2  -2   6  146.09   14.30
   2  -2   6  181.88   16.20
   2  -2   6  179.38   15.60
  -3   2  -6    5.80    2.80
  -3   2  -6    1.20    3.10
  -3   2  -6   -1.90    2.40
  -3   2  -6   -0.60    2.30
  -3   2  -6    3.00    3.10
  -3   2  -6    1.70    3.00
   3  -2   6   -0.30    2.60
   3  -2   6   -2.30    2.50
   3  -2   6    0.90    2.60
   3  -2   6    0.90    2.70
   3  -2   6    0.70    2.80
  -4   2  -6   26.30    9.60
  -4   2  -6   37.90    7.20
  -4   2  -6   53.69    6.40
  -4   2  -6   24.80    6.70
  -4   2  -6   37.50    7.00
   4  -2   6   38.00    7.70
   4  -2   6   23.30    6.20
   4  -2   6   55.49    8.20
   4  -2   6   40.20    7.60
   4  -2   6   26.80    6.20
  -5   2  -6  403.86   36.10
  -5   2  -6  394.16   35.40
  -5   2  -6  434.46   35.30
  -5   2  -6  447.96   34.10
  -5   2  -6  411.76   36.00
  -5   2  -6  398.86   35.50
   5  -2   6  377.86   35.10
   5  -2   6  384.16   34.90
  -6   2  -6    5.00    5.50
  -6   2  -6   10.00    5.40
  -6   2  -6   -0.40    4.40
  -6   2  -6   -0.30    4.50
  -6   2  -6    1.20    5.40
  -6   2  -6    7.40    6.50
   6  -2   6   -2.60    5.70
   6  -2   6    8.90    6.30
   7   1  -6   13.60   10.10
  -7  -1   6   -6.40    4.00
  -7  -1   6    4.90    5.10
  -7  -1   6   -2.00    3.40
   6   1  -6    2.00    7.10
  -6  -1   6   -5.30    3.60
  -6  -1   6   -1.00    3.40
  -6  -1   6   -1.40    2.50
   5   1  -6   -7.60    5.50
  -5  -1   6    5.30    3.60
  -5  -1   6    4.00    3.20
  -5  -1   6   -2.00    2.20
   4   1  -6   -0.10    4.20
  -4  -1   6    8.40    2.00
  -4  -1   6    7.70    1.90
  -4  -1   6    7.90    3.80
  -4  -1   6    5.40    1.60
  -4  -1   6    7.10    2.30
  -4  -1   6    8.20    2.00
   3   1  -6    3.60    4.70
   3   1  -6    6.40    2.00
   3   1  -6    6.00    1.60
   3   1  -6    6.40    1.90
   3   1  -6    4.60    1.40
   3   1  -6    5.60    1.80
  -3  -1   6    8.60    3.30
  -3  -1   6    5.00    2.10
  -3  -1   6    4.60    1.90
  -3  -1   6    5.90    1.90
  -3  -1   6    6.00    2.30
  -3  -1   6   -0.50    1.50
   2   1  -6    4.20    2.10
   2   1  -6    2.10    1.50
   2   1  -6    1.00    1.50
   2   1  -6   -1.60    3.60
   2   1  -6    2.80    1.50
  -2  -1   6    2.30    2.40
  -2  -1   6    3.10    1.90
  -2  -1   6    2.60    1.90
  -2  -1   6    2.80    1.70
  -2  -1   6    2.80    1.60
  -2  -1   6    0.80    1.60
  -2  -1   6    2.40    1.40
   1   1  -6    1.70    1.70
   1   1  -6   -0.50    4.10
   1   1  -6    2.80    1.90
   1   1  -6    1.70    1.40
   1   1  -6    1.20    1.60
   1   1  -6    1.60    2.00
  -1  -1   6    2.70    1.90
  -1  -1   6    1.10    1.10
  -1  -1   6    0.00    1.50
  -1  -1   6    1.60    1.30
  -1  -1   6   -0.10    1.40
  -1  -1   6    1.30    1.60
   0   1  -6  208.38   18.40
   0   1  -6  194.68   18.30
   0   1  -6  237.38   20.40
   0   1  -6  219.08   18.40
   0   1  -6  186.88   18.30
   0   1  -6  213.98   17.50
   0  -1   6  202.18   18.30
   0  -1   6  211.38   18.40
   0  -1   6  198.58   18.40
   0  -1   6  209.28   18.40
   0  -1   6  199.18   18.20
   0  -1   6  224.88   17.80
   0  -1   6  233.58   17.70
  -1   1  -6   22.10    4.70
  -1   1  -6   24.60    5.60
  -1   1  -6   28.00    5.50
  -1   1  -6   29.10    4.50
  -1   1  -6   25.30    5.10
   1  -1   6   26.40    5.40
   1  -1   6   24.20    5.00
   1  -1   6   18.10    3.80
   1  -1   6   26.80    4.70
   1  -1   6   23.30    5.40
   1  -1   6   26.20    5.70
   1  -1   6   24.60    4.40
  -2   1  -6    3.30    2.60
  -2   1  -6    5.80    3.10
  -2   1  -6    4.40    2.50
  -2   1  -6    3.80    2.30
  -2   1  -6    3.60    2.60
  -2   1  -6    2.10    2.70
   2  -1   6    2.30    1.70
   2  -1   6   -0.20    1.90
   2  -1   6    1.30    2.70
   2  -1   6    1.90    1.60
   2  -1   6    2.00    2.30
   2  -1   6    0.70    2.40
   2  -1   6   -0.70    2.30
  -3   1  -6   26.80    5.70
  -3   1  -6   19.80    4.30
  -3   1  -6   24.20    6.50
  -3   1  -6   22.90    5.60
  -3   1  -6   20.30    5.40
  -3   1  -6   26.60    6.00
   3  -1   6   19.40    5.30
   3  -1   6   21.00    3.10
   3  -1   6   29.30    6.60
   3  -1   6    8.40    4.40
   3  -1   6   30.20    6.00
   3  -1   6   24.30    6.60
  -4   1  -6  150.98   14.40
  -4   1  -6  155.58   21.50
  -4   1  -6  142.19   15.50
  -4   1  -6  139.49   15.40
  -4   1  -6  159.08   16.50
   4  -1   6  145.89   15.60
   4  -1   6  169.18   16.20
   4  -1   6  125.49   15.20
   4  -1   6  140.69   15.20
   4  -1   6  169.98   16.10
  -5   1  -6  108.49   13.90
  -5   1  -6  102.39   14.10
  -5   1  -6  118.09   13.90
  -5   1  -6  108.69   13.10
  -5   1  -6  135.29   15.10
  -5   1  -6  107.79   13.60
   5  -1   6  134.89   15.10
   5  -1   6   98.29   13.90
   5  -1   6  138.39   15.40
   5  -1   6  152.68   15.20
   5  -1   6  109.39   13.80
  -6   1  -6   16.20    8.00
  -6   1  -6   19.60    8.10
  -6   1  -6   29.70    6.80
  -6   1  -6   24.20    6.50
  -6   1  -6   21.80    6.60
  -6   1  -6   23.60    7.90
   6  -1   6   29.30    7.20
   6  -1   6   22.00    7.20
   6  -1   6    8.50    6.90
   7   0  -6   -2.00    9.20
  -7   0   6  -10.80    4.90
  -7   0   6    2.80    3.50
  -7   0   6    9.40    5.20
   6   0  -6   39.50   12.40
  -6   0   6   46.00   10.90
  -6   0   6   38.70    8.50
  -6   0   6   29.70    5.00
   5   0  -6   -3.20    5.00
  -5   0   6   -4.80    1.90
  -5   0   6    1.60    3.00
   4   0  -6    3.10    4.70
  -4   0   6    1.90    1.80
  -4   0   6    0.20    1.80
  -4   0   6    0.60    1.70
  -4   0   6    1.30    2.30
  -4   0   6    0.90    1.80
  -4   0   6    0.70    1.70
   3   0  -6   -0.20    1.50
   3   0  -6    1.20    1.50
   3   0  -6   12.20    5.80
   3   0  -6    1.70    1.50
   3   0  -6    0.90    1.50
  -3   0   6    0.00    1.30
  -3   0   6    2.00    1.70
  -3   0   6    2.40    1.80
  -3   0   6    6.90    3.30
  -3   0   6    1.60    1.70
  -3   0   6   -0.10    1.60
   2   0  -6   13.30    2.70
   2   0  -6   15.20    3.30
   2   0  -6   17.90    3.40
   2   0  -6   10.30    2.80
   2   0  -6   14.40    6.10
  -2   0   6   11.80    2.70
  -2   0   6   18.20    3.80
  -2   0   6   11.20    3.30
  -2   0   6    8.70    3.40
  -2   0   6   10.80    3.00
  -2   0   6   15.20    3.30
  -2   0   6   13.80    3.20
   1   0  -6  171.48   15.80
   1   0  -6  187.68   16.00
   1   0  -6  192.98   17.80
   1   0  -6  185.98   15.10
   1   0  -6  169.88   15.80
   1   0  -6  169.68   15.70
  -1   0   6  175.98   16.00
  -1   0   6  190.28   16.10
  -1   0   6  178.68   15.50
  -1   0   6  168.08   15.80
  -1   0   6  170.28   16.00
  -1   0   6  189.28   15.20
  -1   0   6  181.68   16.40
   0   0  -6   63.39    6.80
   0   0  -6   53.89    7.00
   0   0  -6   56.59    7.20
   0   0  -6   58.39    7.20
   0   0  -6   62.89    6.20
   0   0  -6   56.79    7.20
   0   0   6   55.59    7.10
   0   0   6   46.90    6.70
   0   0   6   58.79    7.30
   0   0   6   64.29    6.20
   0   0   6   54.19    6.90
   0   0   6   50.69    6.50
   0   0   6   64.19    7.40
  -1   0  -6   17.50    4.50
  -1   0  -6   21.50    4.30
  -1   0  -6   21.30    5.00
  -1   0  -6   18.10    3.60
  -1   0  -6   16.40    4.60
  -1   0  -6   15.80    4.40
   1   0   6   31.50    6.10
   1   0   6   17.60    4.90
   1   0   6   19.20    4.60
   1   0   6   12.10    4.10
   1   0   6   27.90    5.00
   1   0   6   23.20    4.10
   1   0   6   21.40    4.50
  -2   0  -6  118.79   11.50
  -2   0  -6   81.69   10.70
  -2   0  -6  105.09   11.20
  -2   0  -6  103.89    9.80
  -2   0  -6  107.59   11.50
  -2   0  -6   89.69   11.00
   2   0   6   96.99   12.30
   2   0   6  103.49   11.10
   2   0   6  115.19   11.70
   2   0   6   90.79   11.00
   2   0   6   88.99   10.80
  -3   0  -6   94.99   10.80
  -3   0  -6   86.99   10.80
  -3   0  -6   87.19   10.60
  -3   0  -6   97.89   10.80
  -3   0  -6   72.89    9.10
  -3   0  -6   81.69   10.70
   3   0   6   79.09   10.30
   3   0   6   77.79    9.80
   3   0   6   79.79   10.70
   3   0   6   78.79   10.50
   3   0   6   93.09    8.10
  -4   0  -6  345.27   29.10
  -4   0  -6  364.06   31.20
  -4   0  -6  335.47   30.80
  -4   0  -6  319.67   32.90
  -4   0  -6  338.37   30.30
  -4   0  -6  364.46   30.60
   4   0   6  329.07   30.30
   4   0   6  341.37   30.40
   4   0   6  356.96   30.70
   4   0   6  368.86   30.70
   4   0   6  331.77   30.00
  -5   0  -6   95.09   14.00
  -5   0  -6   73.69   12.10
  -5   0  -6  105.39   13.90
  -5   0  -6   96.39   12.80
  -5   0  -6  111.39   12.80
  -5   0  -6  100.39   13.30
   5   0   6   77.39   12.00
   5   0   6   79.49   12.30
   5   0   6  113.69   13.80
   5   0   6  113.39   13.60
   5   0   6   78.89   12.50
  -6   0  -6   17.90    6.20
  -6   0  -6   18.10    7.10
   6   0   6   -1.00    6.20
   6   0   6   34.80    8.60
   6   0   6   13.50    6.70
   7  -1  -6    7.60    9.30
  -7   1   6  -12.20    5.20
  -7   1   6    6.40    5.80
  -7   1   6   -1.60    3.00
   6  -1  -6    3.70    8.20
  -6   1   6   12.50    5.30
  -6   1   6    6.50    2.80
   5  -1  -6   10.00    7.60
  -5   1   6    3.70    2.40
  -5   1   6    3.70    2.70
  -5   1   6   10.80    3.10
  -5   1   6    7.90    2.60
  -5   1   6    8.60    3.90
  -5   1   6    9.70    2.30
   4  -1  -6   22.90    9.30
   4  -1  -6   14.60    2.30
   4  -1  -6   11.70    2.40
  -4   1   6   12.10    4.90
  -4   1   6   12.90    2.70
  -4   1   6   11.20    3.00
  -4   1   6   24.60    4.10
  -4   1   6   10.60    3.10
  -4   1   6   16.60    3.50
   3  -1  -6  135.19   16.10
   3  -1  -6  138.59   11.30
   3  -1  -6  113.09   12.00
   3  -1  -6  131.19   11.50
   3  -1  -6  128.69   11.80
   3  -1  -6  151.58   12.10
  -3   1   6  125.09   12.00
  -3   1   6  118.69   12.00
  -3   1   6  132.79   13.50
  -3   1   6  125.59   12.00
  -3   1   6  135.89   12.10
  -3   1   6  132.19   11.40
   2  -1  -6   23.70    7.80
   2  -1  -6   15.60    4.80
   2  -1  -6   15.60    3.80
   2  -1  -6   14.50    3.00
   2  -1  -6   18.90    4.00
   2  -1  -6   12.00    4.10
  -2   1   6   15.00    3.50
  -2   1   6   12.70    3.60
  -2   1   6   12.60    3.40
  -2   1   6   14.30    2.70
  -2   1   6   16.10    4.10
  -2   1   6   15.10    3.70
  -2   1   6   20.70    4.20
   1  -1  -6   92.69   10.10
   1  -1  -6  113.79    9.40
   1  -1  -6  106.29   10.20
   1  -1  -6   88.89   10.10
   1  -1  -6   91.29   10.30
   1  -1  -6   91.69   10.10
   1  -1  -6  101.19   11.80
  -1   1   6  106.09    9.30
  -1   1   6  116.29   10.80
  -1   1   6  102.39   10.40
  -1   1   6   94.59    9.90
  -1   1   6   95.99   10.40
  -1   1   6   87.89   10.00
   0  -1  -6    1.00    1.60
   0  -1  -6    1.10    2.50
   0  -1  -6    4.10    2.50
   0  -1  -6   -0.70    2.10
   0  -1  -6    0.50    1.70
   0  -1  -6   -0.30    1.50
   0  -1  -6    3.00    2.40
   0   1   6    0.20    2.10
   0   1   6   -0.40    1.80
   0   1   6    0.20    1.50
   0   1   6    2.80    2.30
   0   1   6    3.80    2.60
   0   1   6    1.70    1.90
   0   1   6    3.50    2.00
  -1  -1  -6  145.99   12.70
  -1  -1  -6  142.09   13.10
  -1  -1  -6  128.29   13.50
  -1  -1  -6  132.29   12.60
  -1  -1  -6  129.29   13.30
  -1  -1  -6  121.89   13.20
  -1  -1  -6  136.19   13.50
   1   1   6  121.19   12.80
   1   1   6  129.29   13.40
   1   1   6  139.39   13.40
   1   1   6  135.29   15.30
   1   1   6  119.09   12.20
   1   1   6  140.69   13.50
  -2  -1  -6   94.79   11.30
  -2  -1  -6   86.49    9.70
  -2  -1  -6   99.39   10.00
  -2  -1  -6  102.59   11.50
  -2  -1  -6  104.59   11.60
  -2  -1  -6  107.69   11.80
  -2  -1  -6   91.89   10.90
   2   1   6   91.69   11.20
   2   1   6  110.59   11.50
   2   1   6  100.29   11.00
   2   1   6  105.49    9.80
   2   1   6  103.29   11.20
   2   1   6   95.19   12.60
  -3  -1  -6  170.98   16.80
  -3  -1  -6  174.08   15.50
  -3  -1  -6  148.89   16.90
  -3  -1  -6  163.38   16.80
  -3  -1  -6  163.38   16.80
  -3  -1  -6  182.78   17.40
   3   1   6  165.08   16.80
   3   1   6  165.98   16.90
   3   1   6  143.89   16.30
   3   1   6  156.08   16.40
   3   1   6  158.38   16.20
   3   1   6  166.28   16.80
  -4  -1  -6  167.38   17.40
  -4  -1  -6  167.78   17.30
  -4  -1  -6  170.18   18.10
  -4  -1  -6  145.89   17.00
  -4  -1  -6  184.18   16.00
  -4  -1  -6  143.99   17.30
   4   1   6  152.68   17.50
   4   1   6  152.68   17.20
   4   1   6  175.68   17.40
   4   1   6  174.98   17.70
   4   1   6  155.88   17.20
  -5  -1  -6    5.80    5.10
  -5  -1  -6    5.00    5.00
  -5  -1  -6   -1.10    4.90
  -5  -1  -6   -0.70    4.50
  -5  -1  -6    3.20    5.10
  -5  -1  -6    4.00    4.60
   5   1   6    6.20    5.30
   5   1   6   -3.80    4.30
  -6  -1  -6   37.10    9.20
  -6  -1  -6   48.60   10.70
  -6  -1  -6   50.29    9.80
  -6  -1  -6   34.00   10.50
  -6  -1  -6   29.90    8.70
   6   1   6   54.59   10.40
   6   1   6   32.40    9.00
   7  -2  -6    1.30    8.30
  -7   2   6   -1.60    5.10
  -7   2   6   10.40    6.30
   6  -2  -6   -2.60    8.00
  -6   2   6   -0.60    2.20
  -6   2   6   -0.90    2.10
  -6   2   6   -2.50    2.30
  -6   2   6   -4.80    2.50
  -6   2   6    2.00    4.10
   5  -2  -6   13.40    7.00
  -5   2   6   14.70    3.10
  -5   2   6   20.70    4.00
  -5   2   6   17.30    5.00
  -5   2   6   21.60    4.40
  -5   2   6   20.40    3.90
   4  -2  -6    4.40    2.30
   4  -2  -6    5.70    6.70
   4  -2  -6    5.20    2.40
   4  -2  -6    5.30    2.30
   4  -2  -6    4.10    2.20
  -4   2   6    3.40    2.70
  -4   2   6    2.30    2.50
  -4   2   6    7.20    3.00
  -4   2   6    4.20    2.70
  -4   2   6    2.20    2.60
  -4   2   6    5.30    2.00
   3  -2  -6    3.30    1.70
   3  -2  -6    2.60    5.90
   3  -2  -6    1.90    2.80
   3  -2  -6    1.50    2.30
   3  -2  -6    2.70    2.30
   3  -2  -6   -0.30    2.20
  -3   2   6   10.30    3.50
  -3   2   6   -1.50    2.40
  -3   2   6    6.70    3.00
  -3   2   6    3.70    2.70
  -3   2   6    5.50    2.70
  -3   2   6    5.20    1.80
   2  -2  -6  156.28   17.30
   2  -2  -6  161.28   14.80
   2  -2  -6  144.69   15.30
   2  -2  -6  166.18   13.60
   2  -2  -6  165.38   14.80
   2  -2  -6  141.59   14.60
  -2   2   6  155.38   13.60
  -2   2   6  160.28   14.90
  -2   2   6  160.48   14.90
  -2   2   6  169.38   15.20
  -2   2   6  183.48   15.40
  -2   2   6  155.78   15.50
   1  -2  -6   19.60    4.90
   1  -2  -6   21.90    7.40
   1  -2  -6   22.40    3.80
   1  -2  -6   18.40    4.50
   1  -2  -6   18.80    5.10
   1  -2  -6   24.20    5.40
  -1   2   6   22.80    5.40
  -1   2   6   27.20    6.00
  -1   2   6   27.40    4.20
  -1   2   6   20.10    4.70
  -1   2   6   23.30    4.80
  -1   2   6   19.50    5.00
  -1   2   6   14.90    4.40
   0  -2  -6   18.50    4.90
   0  -2  -6   21.10    4.90
   0  -2  -6   16.30    4.20
   0  -2  -6   21.90    5.20
   0  -2  -6   16.30    4.50
   0  -2  -6   22.50    6.50
   0  -2  -6   14.70    4.30
   0  -2  -6   18.60    3.70
   0   2   6   17.90    4.90
   0   2   6   14.80    3.90
   0   2   6   25.80    5.50
   0   2   6   23.70    5.40
   0   2   6   23.60    5.10
   0   2   6   22.10    5.10
  -1  -2  -6  113.79   11.00
  -1  -2  -6  104.69   11.50
  -1  -2  -6  119.09   12.90
  -1  -2  -6  115.19   12.80
  -1  -2  -6  129.69   12.40
  -1  -2  -6  122.79   13.00
  -1  -2  -6  114.29   12.40
   1   2   6  108.19   12.60
   1   2   6  114.99   12.50
   1   2   6   99.69   11.70
   1   2   6  122.09   12.60
   1   2   6  124.29   12.50
   1   2   6  120.89   11.70
  -2  -2  -6   36.10    7.40
  -2  -2  -6   41.40    6.60
  -2  -2  -6   32.00    7.10
  -2  -2  -6   38.50    7.80
  -2  -2  -6   36.10    5.50
  -2  -2  -6   51.39    9.10
  -2  -2  -6   50.99    8.80
   2   2   6   42.30    8.50
   2   2   6   32.00    7.10
   2   2   6   39.00    7.70
   2   2   6   44.80    5.70
   2   2   6   58.19    9.50
   2   2   6   40.30    7.00
  -3  -2  -6  149.39   15.70
  -3  -2  -6  144.89   13.60
  -3  -2  -6  116.39   12.70
  -3  -2  -6  158.18   16.40
  -3  -2  -6  154.58   15.60
  -3  -2  -6  129.89   14.90
   3   2   6  111.29   14.50
   3   2   6  119.99   14.50
   3   2   6  115.89   14.80
   3   2   6  135.19   15.00
   3   2   6  158.58   12.90
   3   2   6  143.69   15.20
  -4  -2  -6    9.40    4.90
  -4  -2  -6    5.40    4.40
  -4  -2  -6    4.20    5.10
  -4  -2  -6   17.40    8.60
  -4  -2  -6   11.70    6.50
  -4  -2  -6   17.70    5.30
   4   2   6    7.70    8.70
   4   2   6    8.80    5.20
   4   2   6   13.90    5.60
  -5  -2  -6   46.00    8.70
  -5  -2  -6   34.70    8.40
  -5  -2  -6   39.70    9.60
  -5  -2  -6   27.80    8.20
  -5  -2  -6   42.30    9.80
   5   2   6   50.89    9.50
   5   2   6   27.40    8.60
  -6  -2  -6   10.60   11.40
  -6  -2  -6   27.30    9.20
  -6  -2  -6   15.30    8.20
  -6  -2  -6   31.80    8.60
  -6  -2  -6   20.50    7.00
   6   2   6   -5.90    7.50
   6   2   6   17.70    8.90
   6  -3  -6   -3.80    7.70
  -6   3   6   15.70    6.30
  -6   3   6   10.30    3.70
  -6   3   6   14.40    4.10
  -6   3   6    9.70    4.20
  -6   3   6    2.40    3.90
  -6   3   6    7.80    1.70
   5  -3  -6   14.10    9.80
   5  -3  -6   44.00    5.60
   5  -3  -6   37.30    5.20
   5  -3  -6   47.20    5.50
  -5   3   6   37.50    4.30
  -5   3   6   40.50    6.40
  -5   3   6   46.00    6.30
  -5   3   6   40.70    6.30
  -5   3   6   25.10    7.10
   4  -3  -6    0.10    2.60
   4  -3  -6    5.90    2.80
   4  -3  -6   -1.40    3.20
   4  -3  -6   -2.90    2.20
   4  -3  -6    3.30    2.70
   4  -3  -6   -0.80    6.10
  -4   3   6    2.80    3.10
  -4   3   6    0.10    2.70
  -4   3   6   -5.70    2.90
  -4   3   6    0.80    3.10
  -4   3   6    2.60    2.00
   3  -3  -6    8.10    5.70
   3  -3  -6    6.70    2.10
   3  -3  -6    4.90    2.70
   3  -3  -6    3.40    2.80
   3  -3  -6    6.00    2.90
   3  -3  -6    7.20    3.60
  -3   3   6    3.70    3.30
  -3   3   6    2.40    2.90
  -3   3   6    4.10    3.10
  -3   3   6    1.20    2.90
  -3   3   6    4.00    1.80
  -3   3   6    7.20    3.60
   2  -3  -6   14.80    2.90
   2  -3  -6   15.30    4.40
   2  -3  -6   10.10    3.90
   2  -3  -6   12.90    3.90
   2  -3  -6    8.80    3.60
   2  -3  -6   10.50    6.20
   2  -3  -6   12.30    3.60
  -2   3   6   10.30    4.00
  -2   3   6    9.30    4.10
  -2   3   6    8.10    3.50
  -2   3   6    9.60    2.40
  -2   3   6    6.20    3.60
  -2   3   6   15.60    3.70
  -2   3   6   11.40    3.40
   1  -3  -6    9.00    4.00
   1  -3  -6   11.90    5.50
   1  -3  -6    6.60    3.80
   1  -3  -6    4.40    3.60
   1  -3  -6    9.10    2.50
   1  -3  -6   13.60    4.00
   1  -3  -6    7.60    3.40
  -1   3   6    0.30    2.80
  -1   3   6    9.60    3.70
  -1   3   6   17.00    4.90
  -1   3   6   12.90    4.20
  -1   3   6    9.10    3.90
  -1   3   6    7.30    3.90
   0  -3  -6    1.80    3.20
   0  -3  -6   -0.20    2.60
   0  -3  -6    0.60    2.50
   0  -3  -6    1.90    2.20
   0  -3  -6    8.40    5.40
   0  -3  -6    0.60    2.90
   0  -3  -6    2.50    5.40
   0   3   6    1.20    2.30
   0   3   6   -0.10    1.70
   0   3   6   -1.40    2.30
   0   3   6    0.60    3.00
   0   3   6    1.60    2.90
   0   3   6   -2.90    2.30
  -1  -3  -6   -2.60    2.30
  -1  -3  -6    0.80    3.50
  -1  -3  -6    3.10    2.30
  -1  -3  -6   -0.40    2.70
  -1  -3  -6    0.10    3.80
  -1  -3  -6   -3.40    3.30
   1   3   6   -1.40    1.60
   1   3   6    0.90    2.60
   1   3   6    1.10    3.00
   1   3   6   -0.90    2.30
   1   3   6    0.40    2.80
  -2  -3  -6    7.90    3.20
  -2  -3  -6    5.50    4.00
  -2  -3  -6    3.10    4.70
  -2  -3  -6    1.80    4.20
  -2  -3  -6    1.90    3.20
  -2  -3  -6   10.70    3.60
  -2  -3  -6    1.10    3.60
   2   3   6    1.10    3.60
   2   3   6    7.90    4.30
   2   3   6    2.80    3.60
   2   3   6    3.50    3.80
   2   3   6    2.70    4.30
   2   3   6   12.10    3.70
  -3  -3  -6   21.00    6.90
  -3  -3  -6   27.60    7.70
  -3  -3  -6   26.40    5.70
  -3  -3  -6   23.30    5.00
  -3  -3  -6   22.70    6.40
  -3  -3  -6   11.30    6.30
  -3  -3  -6   34.50   10.20
   3   3   6   29.90    7.80
   3   3   6   23.20    5.20
   3   3   6   10.20    5.50
   3   3   6   29.80    8.90
   3   3   6   22.50    6.10
   3   3   6   26.80    7.10
  -4  -3  -6    8.00    5.10
  -4  -3  -6   -2.70    6.20
  -4  -3  -6   -0.40    4.10
  -4  -3  -6    6.40    5.20
  -4  -3  -6   -2.60    2.80
  -4  -3  -6   -1.70    4.30
  -4  -3  -6   12.00    5.90
   4   3   6   -1.20    5.00
   4   3   6   21.60    7.60
   4   3   6   -1.90    5.10
   4   3   6    8.60    6.80
   4   3   6   -8.80    5.40
  -5  -3  -6   23.00    7.50
  -5  -3  -6    4.20    6.20
  -5  -3  -6   16.10    6.40
  -5  -3  -6   -4.50    7.80
  -5  -3  -6   11.40    6.80
   5   3   6   16.10    7.50
   5   3   6    3.00    6.80
   6  -4  -6   32.00   13.10
  -6   4   6   62.59    8.80
  -6   4   6   57.79   11.70
  -6   4   6   52.69    9.20
  -6   4   6   47.00    7.50
  -6   4   6   50.99    7.60
   5  -4  -6   34.00    5.70
   5  -4  -6   34.90    5.60
   5  -4  -6   20.20   10.30
   5  -4  -6   37.80    6.10
   5  -4  -6   39.10    5.80
  -5   4   6   40.10    8.10
  -5   4   6   27.50    6.00
  -5   4   6   32.10    6.00
  -5   4   6   46.90    7.10
  -5   4   6   37.10    6.60
   4  -4  -6    5.30    3.90
   4  -4  -6    3.10    3.60
   4  -4  -6    4.10    3.50
   4  -4  -6    0.50    7.20
   4  -4  -6    2.90    3.40
   4  -4  -6    2.50    3.30
  -4   4   6    2.40    3.80
  -4   4   6    9.50    3.60
  -4   4   6    1.10    3.40
  -4   4   6    4.90    4.20
  -4   4   6   -3.10    3.40
   3  -4  -6  127.49   14.70
   3  -4  -6  144.99   11.90
   3  -4  -6  105.89   16.70
   3  -4  -6  142.29   14.10
   3  -4  -6  112.79   13.50
   3  -4  -6  163.78   14.00
  -3   4   6  157.88   14.90
  -3   4   6  137.49   13.90
  -3   4   6  144.89   14.90
  -3   4   6  124.69   14.20
   2  -4  -6  308.17   29.00
   2  -4  -6  343.27   32.30
   2  -4  -6  348.67   27.20
   2  -4  -6  320.87   28.90
   2  -4  -6  355.76   28.80
   2  -4  -6  288.57   29.10
   2  -4  -6  393.86   29.30
  -2   4   6  353.26   29.90
  -2   4   6  386.96   29.50
  -2   4   6  305.87   28.80
  -2   4   6  393.56   29.90
  -2   4   6  282.17   28.80
  -2   4   6  325.07   29.20
   1  -4  -6  229.68   21.50
   1  -4  -6  238.58   21.70
   1  -4  -6  224.08   21.60
   1  -4  -6  247.48   21.70
   1  -4  -6  252.37   23.90
   1  -4  -6  236.08   21.20
   1  -4  -6  224.78   19.60
  -1   4   6  206.78   21.20
  -1   4   6  255.57   21.70
  -1   4   6  208.68   21.40
  -1   4   6  255.97   22.00
  -1   4   6  224.48   21.40
  -1   4   6  240.58   21.50
   0  -4  -6   -1.20    3.30
   0  -4  -6    0.70    3.70
   0  -4  -6    1.40    3.50
   0  -4  -6   -0.10    2.10
   0  -4  -6    0.50    2.70
   0  -4  -6    2.40    5.70
   0  -4  -6   -0.90    2.70
   0   4   6    5.50    3.40
   0   4   6    4.00    3.20
   0   4   6    0.60    3.50
   0   4   6    4.20    3.00
   0   4   6    0.50    2.80
   0   4   6   -3.00    3.00
  -1  -4  -6    5.00    4.50
  -1  -4  -6    4.10    4.40
  -1  -4  -6   10.40    4.10
  -1  -4  -6   11.50    4.50
  -1  -4  -6    0.40    2.40
  -1  -4  -6    8.20    5.10
  -1  -4  -6   12.20    4.30
  -1  -4  -6    6.60    6.10
   1   4   6    3.50    3.20
   1   4   6    8.90    4.30
   1   4   6    2.60    3.70
   1   4   6   13.30    4.90
   1   4   6    4.90    4.40
  -2  -4  -6   13.00    6.20
  -2  -4  -6   16.60    5.10
  -2  -4  -6   11.10    5.20
  -2  -4  -6    2.60    4.90
  -2  -4  -6    8.90    3.70
  -2  -4  -6   12.20    4.80
   2   4   6   12.80    5.40
   2   4   6    8.90    5.40
   2   4   6   12.30    4.10
   2   4   6    7.70    4.60
   2   4   6    9.20    4.90
   2   4   6   14.50    6.40
  -3  -4  -6   49.10   11.40
  -3  -4  -6   57.39   10.50
  -3  -4  -6   91.59   13.00
  -3  -4  -6   44.90   10.30
  -3  -4  -6   51.59    8.40
  -3  -4  -6   39.20    8.40
   3   4   6   72.09   11.80
   3   4   6   64.69   11.20
   3   4   6   49.80    9.60
   3   4   6   54.09   11.00
   3   4   6   56.39    7.50
  -4  -4  -6    7.10    8.10
  -4  -4  -6    8.20    6.10
  -4  -4  -6    5.20    6.50
  -4  -4  -6   16.00    6.30
  -4  -4  -6   27.20    8.20
  -4  -4  -6   28.70    7.80
   4   4   6    7.40    6.60
   4   4   6   32.30    8.00
  -5  -4  -6    2.90    4.10
  -5  -4  -6   14.10    7.90
  -5  -4  -6    1.20    6.50
  -5  -4  -6    0.70    7.70
  -5  -4  -6    7.60    9.30
  -5  -4  -6   -5.40    7.90
   5   4   6   -0.70    8.60
   6  -5  -6   17.20    5.40
   6  -5  -6    2.10    8.20
   6  -5  -6   22.00    6.20
  -6   5   6   29.10    6.70
  -6   5   6   13.80    5.70
  -6   5   6   15.30    5.90
  -6   5   6    7.00    5.70
   5  -5  -6   20.30    5.60
   5  -5  -6   20.00    8.90
   5  -5  -6    9.50    7.20
   5  -5  -6   22.60    5.00
   5  -5  -6   15.50    4.70
  -5   5   6   23.60    6.20
  -5   5   6   19.20    6.60
  -5   5   6   18.40    5.60
  -5   5   6   11.40    5.50
  -5   5   6   11.60    5.40
   4  -5  -6   23.70    7.40
   4  -5  -6   16.30    7.20
   4  -5  -6    4.30    4.20
   4  -5  -6   16.30    7.10
  -4   5   6   17.00    5.30
  -4   5   6   13.50    4.90
  -4   5   6   14.30    5.50
  -4   5   6   14.10    5.50
  -4   5   6   16.30    6.70
   3  -5  -6  258.77   24.30
   3  -5  -6  253.17   24.40
   3  -5  -6  330.97   24.80
   3  -5  -6  215.08   24.80
   3  -5  -6  280.77   22.10
   3  -5  -6  278.47   28.90
  -3   5   6  315.67   25.10
  -3   5   6  249.08   24.20
  -3   5   6  278.17   25.70
  -3   5   6  235.88   24.40
  -3   5   6  318.37   25.70
  -3   5   6  283.47   25.20
   2  -5  -6   51.19    8.20
   2  -5  -6   49.40    8.10
   2  -5  -6   62.99    8.90
   2  -5  -6   48.40    6.40
   2  -5  -6   51.79   12.40
   2  -5  -6   34.80    8.00
   2  -5  -6   40.60    7.90
  -2   5   6   41.40    9.40
  -2   5   6   43.90    8.20
  -2   5   6   69.69    9.40
  -2   5   6   45.10    8.50
  -2   5   6   43.80    8.40
   1  -5  -6  281.77   28.10
   1  -5  -6  298.97   29.10
   1  -5  -6  279.87   26.60
   1  -5  -6  278.17   26.60
   1  -5  -6  337.97   27.10
   1  -5  -6  267.47   26.70
  -1   5   6  320.67   27.20
  -1   5   6  336.97   27.20
  -1   5   6  285.17   26.40
  -1   5   6  314.87   26.60
  -1   5   6  263.47   26.70
  -1   5   6  276.67   26.60
   0  -5  -6   66.39   10.20
   0  -5  -6   40.20    8.20
   0  -5  -6   39.50    6.20
   0  -5  -6   48.60   10.30
   0  -5  -6   38.50    8.10
   0  -5  -6   56.19    9.40
   0  -5  -6   36.00    6.90
   0   5   6   56.59   10.00
   0   5   6   31.70    6.60
   0   5   6   46.10    8.70
   0   5   6   43.00    8.60
   0   5   6   64.99   10.20
   0   5   6   39.90    7.50
  -1  -5  -6    5.00    4.40
  -1  -5  -6    8.40    5.50
  -1  -5  -6    6.30    5.50
  -1  -5  -6    0.20    2.90
  -1  -5  -6    3.30    4.60
  -1  -5  -6    3.50    3.10
  -1  -5  -6    1.90    6.10
  -1  -5  -6    9.40    4.90
   1   5   6    4.70    4.70
   1   5   6    7.70    5.10
   1   5   6    4.20    3.50
   1   5   6    5.80    4.90
   1   5   6    1.00    4.60
   1   5   6   -0.70    4.80
  -2  -5  -6   32.60    7.50
  -2  -5  -6   39.50    7.20
  -2  -5  -6   29.90    7.10
  -2  -5  -6   34.10    9.30
  -2  -5  -6   24.20    6.40
  -2  -5  -6   18.30    7.90
  -2  -5  -6   38.80    8.40
   2   5   6   42.20    8.30
   2   5   6   20.30    7.90
   2   5   6   27.00    8.00
   2   5   6   32.20    7.90
   2   5   6   34.80    8.20
   2   5   6   20.20    8.40
  -3  -5  -6   12.30    5.70
  -3  -5  -6    6.40    8.00
  -3  -5  -6    7.80    5.30
  -3  -5  -6    4.20    5.00
  -3  -5  -6   10.80    6.40
  -3  -5  -6    6.90    8.10
  -3  -5  -6    7.10    4.50
   3   5   6    6.00    6.10
   3   5   6   13.10    8.10
   3   5   6   14.10    6.40
   3   5   6   12.00    4.10
   3   5   6   18.10    6.80
   3   5   6   -0.40    6.40
  -4  -5  -6   -0.40    4.40
  -4  -5  -6    2.40    6.40
  -4  -5  -6   14.30    9.70
  -4  -5  -6    0.60    8.60
  -4  -5  -6    0.60    5.30
  -4  -5  -6   -6.20    5.10
   4   5   6    3.50    6.60
   4   5   6    2.10    8.20
   5  -6  -6    3.10    5.20
   5  -6  -6    9.60    9.20
   5  -6  -6   -5.50    6.30
  -5   6   6    1.40    5.70
  -5   6   6   -0.20    5.20
  -5   6   6    3.20    5.40
  -5   6   6   10.00    5.60
  -5   6   6    8.60    6.40
   4  -6  -6    1.50    6.20
   4  -6  -6    3.90    4.70
   4  -6  -6   -2.00    4.90
   4  -6  -6   -0.80    3.80
   4  -6  -6   -5.70    3.90
  -4   6   6   -4.70    4.80
  -4   6   6    5.70    4.90
  -4   6   6   -1.20    3.60
  -4   6   6   -4.90    4.80
  -4   6   6    4.10    6.20
  -4   6   6    1.00    4.50
   3  -6  -6   56.99    6.60
   3  -6  -6   43.30   13.40
   3  -6  -6   87.29   11.20
   3  -6  -6   57.79   11.80
   3  -6  -6   70.29    9.80
   3  -6  -6   51.89   10.00
   3  -6  -6   48.80    9.50
  -3   6   6   50.49    9.40
  -3   6   6   53.69    8.80
  -3   6   6   50.19   11.60
  -3   6   6   56.39    9.80
  -3   6   6   56.29    9.70
  -3   6   6   47.60    9.10
   2  -6  -6   12.00    4.00
   2  -6  -6    7.80    5.40
   2  -6  -6   12.80    5.30
   2  -6  -6   10.60    8.90
   2  -6  -6    6.80    4.70
   2  -6  -6    2.20    4.00
   2  -6  -6    0.90    2.70
  -2   6   6   11.80    5.60
  -2   6   6    2.10    4.40
  -2   6   6    2.60    4.80
  -2   6   6    9.20    4.10
  -2   6   6    9.00    6.40
  -2   6   6   13.30    5.20
   1  -6  -6  167.18   18.30
   1  -6  -6  196.28   18.00
   1  -6  -6  160.38   18.30
   1  -6  -6  187.58   20.60
   1  -6  -6  147.29   17.30
   1  -6  -6  155.18   15.50
   1  -6  -6  176.08   18.70
  -1   6   6  169.28   17.70
  -1   6   6  196.88   18.90
  -1   6   6  150.98   17.70
  -1   6   6  167.08   18.10
  -1   6   6  238.68   23.20
   0  -6  -6   61.29   11.60
   0  -6  -6   78.69   11.20
   0  -6  -6   68.89   14.10
   0  -6  -6   44.30    9.00
   0  -6  -6   59.39   10.40
   0  -6  -6   64.79    8.40
   0  -6  -6   61.49   10.60
   0   6   6   74.39   12.50
   0   6   6   68.59   10.80
   0   6   6   78.09   12.30
   0   6   6   55.39   10.50
   0   6   6   72.79    9.60
   0   6   6   68.59   13.40
  -1  -6  -6   22.00    8.20
  -1  -6  -6   11.00    5.70
  -1  -6  -6    9.80    4.80
  -1  -6  -6   23.10    6.20
  -1  -6  -6   16.50    6.60
  -1  -6  -6   12.00    7.50
  -1  -6  -6   11.60    6.50
  -1  -6  -6   27.00    5.20
   1   6   6   12.40    6.50
   1   6   6   13.10    7.50
   1   6   6   16.20    6.50
   1   6   6   18.90    7.30
   1   6   6   13.40    5.40
   1   6   6   11.50   10.40
  -2  -6  -6   24.40    9.20
  -2  -6  -6   20.00    9.30
  -2  -6  -6   24.70    7.80
  -2  -6  -6    9.50    6.90
  -2  -6  -6   18.80    6.50
  -2  -6  -6   24.70    8.80
  -2  -6  -6   32.40    7.10
  -2  -6  -6   19.80    6.00
   2   6   6   17.80    7.80
   2   6   6   16.20    7.30
   2   6   6   17.20    8.90
   2   6   6   27.20    7.20
   2   6   6   11.40    7.80
   2   6   6   12.10    6.30
  -3  -6  -6   83.59   11.60
  -3  -6  -6   67.39   14.20
  -3  -6  -6   79.89   17.40
  -3  -6  -6   66.19   11.70
  -3  -6  -6   65.89   11.90
  -3  -6  -6   54.09   11.90
   3   6   6  112.09   23.20
   3   6   6   91.79   10.70
   3   6   6  108.09   15.30
   3   6   6  105.79   15.90
  -4  -6  -6   14.70    7.20
  -4  -6  -6   13.40    6.30
  -4  -6  -6    4.00   11.80
  -4  -6  -6   15.80   11.80
  -4  -6  -6   14.20    9.70
   4   6   6    3.30    9.20
   4   6   6   15.60   10.00
   5  -7  -6   24.70    7.40
   5  -7  -6   33.20    7.50
   5  -7  -6   18.90   11.40
  -5   7   6   39.00    8.70
  -5   7   6   44.90   10.20
  -5   7   6   31.80    8.10
  -5   7   6   30.20    9.00
  -5   7   6   38.20    9.50
   4  -7  -6  137.19   21.80
  -4   7   6  187.78   19.20
  -4   7   6  163.38   18.90
  -4   7   6  175.78   18.70
  -4   7   6  179.18   20.50
  -4   7   6  154.08   18.90
   3  -7  -6   -3.10    7.40
   3  -7  -6    6.40    5.60
   3  -7  -6   -5.20    7.70
   3  -7  -6   -0.70    6.60
   3  -7  -6    5.90    6.80
   3  -7  -6    5.20    2.90
  -3   7   6   -3.70    5.40
  -3   7   6    0.10    5.60
  -3   7   6    8.70    5.70
  -3   7   6    2.80    5.70
  -3   7   6   -5.20    6.40
  -3   7   6   -6.10    6.10
   2  -7  -6   10.00    7.40
   2  -7  -6    2.00    5.70
   2  -7  -6    1.90    5.80
   2  -7  -6   11.90    8.00
   2  -7  -6    6.80    5.30
   2  -7  -6   -2.40    6.50
   2  -7  -6    0.60    5.60
  -2   7   6    2.40    5.80
  -2   7   6    0.50    4.00
  -2   7   6    3.30    5.60
  -2   7   6    5.60    5.80
  -2   7   6   -3.50    7.30
  -2   7   6    9.70    6.70
   1  -7  -6   64.89    9.10
   1  -7  -6  100.09   12.30
   1  -7  -6   61.69   17.60
   1  -7  -6   48.80   10.90
   1  -7  -6   85.69   11.70
   1  -7  -6   52.99   12.00
  -1   7   6   48.90   11.20
  -1   7   6   78.39   11.80
  -1   7   6   82.19   13.20
  -1   7   6   49.10   10.60
  -1   7   6   80.89   11.00
  -1   7   6   92.69   14.00
   0  -7  -6   -0.30    5.30
   0  -7  -6   -0.70    6.80
   0  -7  -6    1.50    5.70
   0  -7  -6    3.40    3.50
   0  -7  -6   -6.20    5.80
   0  -7  -6   -2.30    4.30
   0  -7  -6  -11.70    6.60
   0   7   6    2.50    6.40
   0   7   6    2.60    3.60
   0   7   6    3.00    5.80
   0   7   6    6.80    6.30
   0   7   6    6.00    6.70
   0   7   6    5.80    5.60
  -1  -7  -6   30.10    8.50
  -1  -7  -6   35.60    9.80
  -1  -7  -6   44.10   11.60
  -1  -7  -6   39.60   10.30
  -1  -7  -6   31.70    7.30
  -1  -7  -6   37.20   10.60
   1   7   6   42.90   14.10
   1   7   6   25.10    9.90
   1   7   6   45.80   14.50
   1   7   6   22.70    8.80
   1   7   6   49.70    9.20
   1   7   6   42.50    9.60
  -2  -7  -6   11.00    9.10
  -2  -7  -6  -10.00    5.60
  -2  -7  -6   -2.50    5.40
  -2  -7  -6    0.40    5.30
  -2  -7  -6   -5.50    8.60
  -2  -7  -6   13.60    9.90
  -2  -7  -6   -2.10    5.80
   2   7   6    0.30    4.90
   2   7   6   -1.80    7.60
   2   7   6    3.50    7.10
   2   7   6   -6.00    8.00
  -3  -7  -6  -12.40    8.40
  -3  -7  -6   -9.00   12.00
  -3  -7  -6   -4.60   11.30
  -3  -7  -6   -0.70    6.90
  -3  -7  -6   -2.90    5.10
  -3  -7  -6    4.50    6.50
   3   7   6    0.90    8.40
   3   7   6   -2.80    9.20
   4  -8  -6  321.67   31.20
   4  -8  -6  185.48   27.20
   4  -8  -6  276.07   24.00
  -4   8   6  177.88   24.40
  -4   8   6  207.88   27.90
  -4   8   6  218.48   25.50
  -4   8   6  225.48   26.70
  -4   8   6  242.68   25.70
   3  -8  -6   -2.70    6.10
   3  -8  -6    5.30    8.70
   3  -8  -6   -1.50    6.50
   3  -8  -6    3.30    3.40
  -3   8   6    0.00    6.90
  -3   8   6    5.10    6.70
  -3   8   6    7.50    5.00
  -3   8   6   -7.10    6.50
  -3   8   6   -8.50    8.80
   2  -8  -6   -7.10    5.70
   2  -8  -6   -1.50    3.80
   2  -8  -6   -2.10    6.90
   2  -8  -6   -6.80   11.90
   2  -8  -6    7.10   11.00
  -2   8   6   -3.40    4.60
  -2   8   6    3.40    7.30
  -2   8   6   -6.90    6.90
  -2   8   6   -6.70    6.00
  -2   8   6   -4.70    7.50
   1  -8  -6   73.89   10.90
   1  -8  -6   83.29   13.90
   1  -8  -6  112.29   15.10
   1  -8  -6   89.29   15.60
   1  -8  -6  102.19   14.60
   1  -8  -6   59.99   14.40
  -1   8   6  101.89   15.70
  -1   8   6  109.39   15.00
  -1   8   6   84.19   12.60
  -1   8   6  117.89   15.50
  -1   8   6  106.09   16.30
   0  -8  -6   -0.60    6.70
   0  -8  -6   15.30    9.00
   0  -8  -6   12.60    6.90
   0  -8  -6    0.20   10.30
   0  -8  -6   -9.00    6.60
   0  -8  -6    6.50    4.60
   0   8   6   -0.30    4.40
   0   8   6  -13.50    7.40
   0   8   6   -5.20    8.40
   0   8   6   -4.80    7.20
   0   8   6   -4.80    7.10
  -1  -8  -6    2.20    7.80
  -1  -8  -6    1.20    6.10
  -1  -8  -6  -13.40   10.40
  -1  -8  -6  -13.10   11.80
  -1  -8  -6   -0.10    8.30
  -1  -8  -6   -0.20    5.30
   1   8   6    6.20    8.80
   1   8   6   -7.60    6.70
   1   8   6    3.80    9.50
   1   8   6   -6.50    4.00
  -2  -8  -6   24.80   13.20
  -2  -8  -6   39.10   11.50
  -2  -8  -6   28.80    9.10
  -2  -8  -6   37.00   12.70
   2   8   6   35.80   11.60
   2   8   6   16.90    6.30
   2   8   6   30.40   10.80
   3  -9  -6   28.60   10.40
   3  -9  -6   17.60   11.40
   3  -9  -6   23.00    4.60
   3  -9  -6   11.30    9.30
  -3   9   6   16.70    8.80
  -3   9   6    4.70   10.30
  -3   9   6    7.60    6.60
  -3   9   6    4.20   11.40
   2  -9  -6    7.90    7.70
   2  -9  -6   -0.10    4.50
   2  -9  -6    1.80    7.80
   2  -9  -6    3.00    8.30
  -2   9   6   13.00    9.90
  -2   9   6    5.70    9.10
  -2   9   6   15.30    8.40
  -2   9   6   -3.80   10.00
  -2   9   6    7.40   11.20
   1  -9  -6   39.30   10.30
   1  -9  -6   23.10    6.90
   1  -9  -6   19.20   10.20
  -1   9   6   21.30   10.40
  -1   9   6   47.30   12.00
  -1   9   6   45.00   11.50
  -1   9   6   45.80   13.40
  -1   9   6   13.00    9.40
   0  -9  -6   -4.40    5.50
   0  -9  -6   -3.80    7.90
   0  -9  -6  -10.30   12.50
   0  -9  -6   10.50    8.50
   0   9   6  -11.30   10.10
   0   9   6   -3.60    5.60
   0   9   6   -1.60    8.70
   0   9   6   -0.10    9.30
   0   9   6   21.90   12.10
  -1  -9  -6  -12.20    9.00
  -1  -9  -6  -27.40   19.60
  -1  -9  -6   16.80    8.60
  -1  -9  -6    2.00    9.60
   1   9   6    8.00   11.00
   1   9   6    1.30    7.00
   1   9   6  -10.20    8.70
   0  14  -7   -2.50    7.40
   0  14  -7   -9.50    8.70
   0 -14   7    8.30    5.70
   0 -14   7   -4.60   11.20
   0 -14   7  -12.20    7.00
   0 -14   7  -16.50   14.30
   0 -14   7   18.20   15.10
   2  13  -7    5.30    5.20
   2  13  -7   -8.80    8.40
   2  13  -7    8.00    7.00
  -2 -13   7    5.20    7.00
  -2 -13   7  -12.90   10.40
  -2 -13   7   23.20   12.00
  -2 -13   7  -24.10   10.20
   1  13  -7  311.67   27.90
   1  13  -7  273.87   24.60
  -1 -13   7  276.27   30.50
  -1 -13   7  278.17   25.30
   0  13  -7    2.00    6.20
   0  13  -7   24.70    8.50
   0 -13   7   13.20   12.00
   0 -13   7   11.30    7.80
   0 -13   7   -0.40    7.00
   0 -13   7    9.90    9.70
   0 -13   7    5.50    4.90
  -1  13  -7   -8.10    8.70
  -1  13  -7   -2.50    6.60
   1 -13   7  -10.60    6.40
   1 -13   7   -3.30    3.80
   1 -13   7   -4.00   10.50
   1 -13   7    7.80    6.30
   1 -13   7   22.60   12.00
  -2  13  -7   37.30   11.60
   2 -13   7   48.50   15.10
   2 -13   7   38.30    6.70
   2 -13   7   61.09   11.00
   2 -13   7   26.10    9.20
  -3  13  -7   20.40   16.30
  -3  13  -7   15.80   15.30
  -3  13  -7   -4.90    6.20
  -3  13  -7   -4.20    8.70
   3 -13   7    5.50    7.80
   3 -13   7    4.50    4.20
   3  12  -7   25.30    8.10
  -3 -12   7   26.60   10.00
  -3 -12   7    5.40   16.20
  -3 -12   7    9.00    6.60
  -3 -12   7   18.80    6.10
  -3 -12   7   13.10    7.60
   2  12  -7   65.89    7.00
   2  12  -7   45.50   11.30
   2  12  -7   51.29   10.80
  -2 -12   7   82.79   13.60
  -2 -12   7   48.30    9.20
  -2 -12   7   44.10   10.10
  -2 -12   7   47.60    9.30
  -2 -12   7   60.39    8.60
   1  12  -7   36.60    6.20
  -1 -12   7   55.89    7.90
  -1 -12   7   40.80    8.00
  -1 -12   7   34.50   10.20
  -1 -12   7   48.30    9.20
  -1 -12   7   41.30   10.50
   0  12  -7   -5.60    5.90
   0  12  -7   -4.20    4.20
   0  12  -7    6.90    7.70
   0  12  -7   -8.50    6.50
   0 -12   7    1.70    3.70
   0 -12   7    0.50    5.30
   0 -12   7   -1.20    7.90
   0 -12   7   -2.50    5.00
   0 -12   7   -2.70    8.60
  -1  12  -7   -0.40    9.00
  -1  12  -7   13.70    7.80
   1 -12   7    7.70    5.70
   1 -12   7   -7.80    5.10
   1 -12   7   -6.00    7.50
   1 -12   7  -15.30    8.10
   1 -12   7    4.50    5.60
   1 -12   7    0.60    3.80
  -2  12  -7   38.70   10.00
  -2  12  -7   34.60    9.80
   2 -12   7   24.00   11.10
   2 -12   7   24.30    9.00
   2 -12   7   20.30    4.90
   2 -12   7   21.00    6.70
   2 -12   7   22.70   10.00
   2 -12   7   25.40   11.30
  -3  12  -7   -0.90    4.30
  -3  12  -7   -1.60    8.40
  -3  12  -7   -2.90    6.50
   3 -12   7   -3.30    7.00
   3 -12   7   -1.20    7.10
   3 -12   7   -0.30    6.80
   3 -12   7    7.10    3.90
  -4  12  -7    0.20    6.80
  -4  12  -7   -4.40    9.70
  -4  12  -7   -4.10    9.00
  -4  12  -7   10.50    8.50
   4 -12   7   -6.50    4.00
   4 -12   7    3.30    8.40
   4 -12   7    6.40    8.00
   4  11  -7   11.70    7.30
  -4 -11   7  -19.90    7.50
  -4 -11   7    0.30    5.20
  -4 -11   7   -2.10    4.40
  -4 -11   7   -1.50    4.20
  -3 -11   7   78.49   11.20
  -3 -11   7   44.70    8.00
  -3 -11   7   41.50    8.60
  -3 -11   7   61.69    8.80
  -3 -11   7   46.50    8.40
   2  11  -7  653.43   50.19
   2  11  -7  509.05   46.60
  -2 -11   7  713.23   57.49
  -2 -11   7  588.54   48.30
  -2 -11   7  634.14   49.60
  -2 -11   7  565.24   49.99
  -2 -11   7  571.14   49.10
  -2 -11   7  666.03   50.49
   1  11  -7    7.60    6.10
   1  11  -7   -0.30    3.00
   1  11  -7    5.00    5.70
  -1 -11   7   -3.50    3.80
  -1 -11   7    7.00    3.60
  -1 -11   7    1.20    6.60
  -1 -11   7   10.00    4.80
  -1 -11   7    0.40    5.30
  -1 -11   7   -7.00    6.00
   0  11  -7    5.50    5.70
   0  11  -7    2.00    3.80
   0 -11   7    2.60    4.40
   0 -11   7    0.00    3.20
   0 -11   7   -8.10    5.60
   0 -11   7    2.50    3.90
   0 -11   7    0.80    4.90
   0 -11   7   -2.70    7.00
  -1  11  -7    9.00    5.70
  -1  11  -7    5.60    5.60
   1 -11   7    5.60    5.20
   1 -11   7   10.90    3.50
   1 -11   7    1.80    4.30
   1 -11   7    2.10    7.40
   1 -11   7   -7.90    7.10
   1 -11   7    0.20    6.40
  -2  11  -7   -5.00    5.80
  -2  11  -7   -2.20    5.00
  -2  11  -7   -7.20    5.50
   2 -11   7    7.40    8.10
   2 -11   7   -5.90    5.70
   2 -11   7    1.10    4.50
   2 -11   7    0.00    2.50
   2 -11   7    9.40    6.50
  -3  11  -7    5.50    7.10
  -3  11  -7    2.20    4.50
  -3  11  -7    0.60    7.40
  -3  11  -7  -10.60    5.30
  -3  11  -7    7.50    5.40
   3 -11   7    5.10    3.40
   3 -11   7   -2.50    7.40
   3 -11   7   -0.20    5.70
   3 -11   7    7.40    9.20
   3 -11   7   -9.90    6.10
   3 -11   7    2.00    6.40
  -4  11  -7    2.60    6.70
  -4  11  -7    7.20    6.70
  -4  11  -7    3.70    7.00
  -4  11  -7    6.50    8.30
  -4  11  -7    6.10    8.80
   4 -11   7    7.80    7.10
   4 -11   7   -2.40    6.60
   4 -11   7    1.20    6.20
   4 -11   7   -1.90    3.40
   5  10  -7   48.70    8.50
   5  10  -7   44.50    9.70
  -5 -10   7   26.10    6.50
  -5 -10   7   21.00    6.60
  -5 -10   7   37.40    7.70
  -5 -10   7   29.70    8.80
  -5 -10   7   58.79    9.40
   4  10  -7   16.00    6.20
   4  10  -7   25.10    7.60
  -4 -10   7   13.50    5.00
  -4 -10   7    1.50    6.80
  -4 -10   7   18.00    5.30
  -4 -10   7    5.70    4.30
  -4 -10   7   34.30    7.20
   3  10  -7    9.80    6.40
   3  10  -7   13.00    5.90
  -3 -10   7   11.70    5.90
  -3 -10   7   10.20    4.20
  -3 -10   7    1.60    5.90
  -3 -10   7    8.40    4.20
  -3 -10   7   18.60    4.80
   2  10  -7  543.55   41.50
   2  10  -7  516.05   41.20
   2  10  -7  499.45   41.10
  -2 -10   7  486.85   40.50
  -2 -10   7  449.66   39.60
  -2 -10   7  411.56   41.10
  -2 -10   7  556.14   41.40
  -2 -10   7  466.95   40.30
   1  10  -7   13.30    3.00
   1  10  -7   11.80    4.50
   1  10  -7   10.50    5.00
  -1 -10   7   15.90    4.10
  -1 -10   7   18.50    4.90
  -1 -10   7    9.50    5.40
  -1 -10   7   13.20    4.60
  -1 -10   7    8.60    5.70
   0  10  -7    4.00    4.30
   0  10  -7    1.90    3.10
   0  10  -7   10.40    4.90
   0 -10   7    6.60    4.80
   0 -10   7    5.50    3.90
   0 -10   7    2.50    3.90
   0 -10   7    3.10    2.80
   0 -10   7    2.20    5.20
  -1  10  -7  346.97   26.70
   1 -10   7  276.17   28.10
   1 -10   7  262.47   23.80
   1 -10   7  245.78   25.30
   1 -10   7  292.87   25.80
   1 -10   7  306.97   26.90
   1 -10   7  289.87   26.00
  -2  10  -7   -4.10    4.30
  -2  10  -7   -0.60    3.10
  -2  10  -7    1.20    4.90
  -2  10  -7    5.20    5.70
   2 -10   7   -2.40    5.80
   2 -10   7   -1.40    3.60
   2 -10   7    3.80    3.00
   2 -10   7    0.60    4.80
   2 -10   7    4.00    6.50
   2 -10   7    7.60    4.90
  -3  10  -7    8.90    6.70
  -3  10  -7    2.40    5.30
  -3  10  -7   -2.50    4.70
  -3  10  -7    1.70    4.20
  -3  10  -7   -4.00    5.50
   3 -10   7  -10.20    6.10
   3 -10   7    1.80    4.90
   3 -10   7    4.30    3.10
   3 -10   7    3.10    4.80
   3 -10   7  -14.30    6.70
   3 -10   7    1.30    4.80
  -4  10  -7   10.30    6.30
  -4  10  -7   -3.70    5.30
  -4  10  -7  -11.10    6.80
  -4  10  -7   -2.90    5.40
   4 -10   7   -1.10    5.80
   4 -10   7    0.20    5.20
   4 -10   7    2.20    6.00
   4 -10   7   -5.40    2.90
  -5  10  -7   -1.20    8.30
  -5  10  -7   -7.20    8.90
  -5  10  -7    0.00    6.90
  -5  10  -7   -1.90    7.20
   5 -10   7   -4.10    8.50
   5 -10   7   -1.30    5.50
   5 -10   7   -3.90    8.00
   5   9  -7    1.90    4.50
   5   9  -7    4.20    5.40
   5   9  -7    9.70    6.10
  -5  -9   7   -3.10    3.40
  -5  -9   7   -1.20    3.90
  -5  -9   7   15.60    5.60
  -5  -9   7   -1.70    5.30
   4   9  -7   48.40   10.20
   4   9  -7   69.19    9.20
   4   9  -7   56.29    9.00
   4   9  -7   65.09    9.30
   4   9  -7   64.39    8.90
  -4  -9   7   65.09    8.70
  -4  -9   7   82.59   10.10
  -4  -9   7   59.39    9.60
  -4  -9   7   53.59    8.20
  -4  -9   7   59.89    8.40
   3   9  -7   47.10    7.90
   3   9  -7   71.29   10.30
  -3  -9   7   59.19    7.70
  -3  -9   7   63.39   13.50
  -3  -9   7   45.30    8.60
  -3  -9   7   41.60    6.80
  -3  -9   7   57.79    8.00
   2   9  -7   60.49    8.40
   2   9  -7   56.59    8.00
   2   9  -7   42.30    7.80
  -2  -9   7   43.30    7.40
  -2  -9   7   38.80    7.20
  -2  -9   7   63.79    7.80
  -2  -9   7   37.40    7.90
  -2  -9   7   54.09    7.00
   1   9  -7   10.40    4.20
   1   9  -7   14.70    4.70
  -1  -9   7   10.10    4.90
  -1  -9   7   13.00    3.60
  -1  -9   7    7.40    4.80
  -1  -9   7    9.20    3.90
   0   9  -7   68.19    9.50
   0   9  -7   67.09    8.50
   0   9  -7   79.59    9.60
   0  -9   7   60.09    7.70
   0  -9   7   48.60    9.20
   0  -9   7   77.49   10.70
   0  -9   7   73.29    9.20
   0  -9   7   62.39    8.90
  -1   9  -7   94.29   12.00
  -1   9  -7   83.39    9.20
  -1   9  -7  100.29   11.60
  -1   9  -7  101.49   11.60
   1  -9   7  102.49   11.90
   1  -9   7   72.79   10.50
   1  -9   7  102.99   12.70
   1  -9   7  113.79   13.10
   1  -9   7   81.89    9.40
   1  -9   7   72.99   10.30
  -2   9  -7   43.40    6.80
  -2   9  -7   59.39    6.50
  -2   9  -7   60.49    9.30
  -2   9  -7   40.90    7.60
  -2   9  -7   36.90    7.30
  -2   9  -7   43.80    9.50
   2  -9   7   29.80    6.80
   2  -9   7   31.80    7.30
   2  -9   7   45.10    8.10
   2  -9   7   43.20    8.40
   2  -9   7   49.90    8.80
   2  -9   7   38.00    6.00
  -3   9  -7   22.30    5.40
  -3   9  -7   19.20    9.40
  -3   9  -7   11.90    5.30
  -3   9  -7   24.60    4.80
  -3   9  -7   48.40   12.30
  -3   9  -7   19.70    6.70
   3  -9   7   25.30    7.10
   3  -9   7   33.30    6.90
   3  -9   7   11.10    5.10
   3  -9   7   30.40    6.10
   3  -9   7   24.20    7.30
   3  -9   7   19.20    4.10
  -4   9  -7   98.89   10.10
  -4   9  -7   62.19   11.70
  -4   9  -7   97.59   13.50
  -4   9  -7  110.79   13.80
  -4   9  -7   92.79   12.00
  -4   9  -7  122.89   15.10
   4  -9   7   93.99   10.90
   4  -9   7  100.99   13.20
   4  -9   7   90.19   14.80
   4  -9   7   56.29   12.90
   4  -9   7   98.09   10.00
   4  -9   7   78.89   13.60
  -5   9  -7    5.00    6.00
  -5   9  -7  -15.30    6.60
  -5   9  -7   -4.40   10.40
  -5   9  -7    4.10    7.40
  -5   9  -7    5.30    5.70
  -5   9  -7    1.60    4.40
   5  -9   7   -3.10    7.10
   5  -9   7   -2.60    4.20
   5   8  -7   -8.20    5.30
  -5  -8   7   -2.90    4.00
  -5  -8   7   -8.40    3.40
  -5  -8   7   -0.50    2.90
  -5  -8   7    6.00    4.40
  -5  -8   7    2.80    3.00
   4   8  -7    2.90    3.80
   4   8  -7    4.00    5.30
   4   8  -7    3.00    3.40
   4   8  -7    4.10    3.50
   4   8  -7    5.60    4.20
  -4  -8   7    7.70    3.70
  -4  -8   7    6.30    4.60
  -4  -8   7    7.10    4.50
  -4  -8   7    4.80    3.30
  -4  -8   7    5.40    2.90
   3   8  -7  614.54   48.10
   3   8  -7  601.94   46.20
   3   8  -7  574.94   46.80
   3   8  -7  574.24   46.00
  -3  -8   7  543.65   46.80
  -3  -8   7  555.84   46.00
  -3  -8   7  545.75   46.10
  -3  -8   7  610.24   46.40
  -3  -8   7  587.94   46.20
   2   8  -7    1.60    2.90
   2   8  -7   -0.70    3.20
   2   8  -7    1.20    2.80
  -2  -8   7   -6.10    2.90
  -2  -8   7   -1.50    2.60
  -2  -8   7    2.10    3.10
  -2  -8   7   -3.30    3.40
   1   8  -7   46.70    7.50
   1   8  -7   37.00    6.50
   1   8  -7   51.59    6.80
  -1  -8   7   39.00    6.80
  -1  -8   7   32.30    6.80
  -1  -8   7   38.70    7.10
  -1  -8   7   47.20    6.60
  -1  -8   7   41.30    6.40
   0   8  -7  207.98   18.00
   0   8  -7  231.78   21.00
   0   8  -7  233.88   20.30
   0   8  -7  258.97   20.50
   0   8  -7  233.28   20.70
   0  -8   7  230.48   20.50
   0  -8   7  222.88   20.80
   0  -8   7  200.78   18.90
   0  -8   7  205.38   19.90
   0  -8   7  219.98   20.10
  -1   8  -7   24.30    4.40
  -1   8  -7   23.80    5.40
  -1   8  -7   29.80    5.80
  -1   8  -7   24.20    5.80
  -1   8  -7   29.70    4.70
  -1   8  -7   26.20    5.90
   1  -8   7   20.00    4.50
   1  -8   7   24.60    7.00
   1  -8   7   18.90    4.90
   1  -8   7   19.80    8.00
   1  -8   7   27.00    9.40
   1  -8   7   23.20    5.80
  -2   8  -7    2.30    2.50
  -2   8  -7   -0.90    3.90
  -2   8  -7    6.30    4.00
  -2   8  -7    4.90    2.80
  -2   8  -7    9.90    3.90
  -2   8  -7    4.90    4.20
   2  -8   7    0.20    4.30
   2  -8   7    3.10    3.40
   2  -8   7    8.50    4.00
   2  -8   7   11.70    4.70
   2  -8   7    1.10    3.10
   2  -8   7    6.20    2.70
   2  -8   7    5.00    4.20
  -3   8  -7   28.70    4.60
  -3   8  -7   21.40    5.10
  -3   8  -7   22.20    6.60
  -3   8  -7   30.90    7.00
  -3   8  -7   20.40    5.80
   3  -8   7   22.20    3.20
   3  -8   7   14.80    6.20
   3  -8   7   11.20    3.90
   3  -8   7   11.10    5.60
   3  -8   7    9.90    4.90
   3  -8   7   17.40    6.00
  -4   8  -7   22.40    6.60
  -4   8  -7   25.60    6.90
  -4   8  -7   23.90    7.20
  -4   8  -7   38.60    8.60
  -4   8  -7   30.40    6.70
  -4   8  -7   46.50    5.80
   4  -8   7   27.00    5.10
   4  -8   7   33.90    7.70
   4  -8   7   20.50    6.60
   4  -8   7   29.70    9.90
   4  -8   7   28.30    5.80
   4  -8   7   28.60    7.70
  -5   8  -7  -10.60    5.10
  -5   8  -7   -0.40    4.00
  -5   8  -7   -8.70    5.60
  -5   8  -7   -2.40    5.20
  -5   8  -7    3.10    4.70
   5  -8   7   -1.20    3.40
   5  -8   7   -9.00    5.80
   5  -8   7   -3.40    5.80
   6   7  -7   22.40    9.80
  -6  -7   7   14.00    5.50
  -6  -7   7   21.50    4.30
  -6  -7   7   23.20    4.80
  -6  -7   7   18.10    3.40
   5   7  -7    8.30    6.00
  -5  -7   7    3.00    2.40
  -5  -7   7   -4.10    2.20
  -5  -7   7   11.50    3.60
  -5  -7   7    4.60    3.70
  -5  -7   7    2.30    2.50
   4   7  -7   -1.00    2.70
   4   7  -7   -2.00    2.70
   4   7  -7   -5.00    4.80
   4   7  -7    1.10    2.60
   4   7  -7    0.90    3.00
  -4  -7   7    1.80    3.80
  -4  -7   7    0.50    2.40
  -4  -7   7    2.80    3.10
  -4  -7   7    3.00    2.40
  -4  -7   7   -2.90    2.80
   3   7  -7  517.15   40.20
   3   7  -7  495.55   41.80
   3   7  -7  493.95   40.20
   3   7  -7  515.95   39.80
   3   7  -7  479.85   39.60
  -3  -7   7  504.15   40.40
  -3  -7   7  532.15   40.20
  -3  -7   7  462.05   41.50
   2   7  -7    7.80    3.60
   2   7  -7   13.30    3.80
   2   7  -7   10.70    5.40
   2   7  -7    5.10    3.00
  -2  -7   7   12.00    3.40
  -2  -7   7   14.10    3.70
  -2  -7   7    9.60    6.40
  -2  -7   7    9.20    3.70
  -2  -7   7   13.00    3.50
   1   7  -7   19.80    4.80
   1   7  -7   12.80    3.70
   1   7  -7   15.60    4.80
   1   7  -7   19.90    4.30
  -1  -7   7   21.60    5.20
  -1  -7   7   14.10    3.80
  -1  -7   7   20.90    4.40
  -1  -7   7   17.80    4.30
  -1  -7   7   15.60    3.80
   0   7  -7  404.56   31.60
   0   7  -7  444.96   31.80
   0   7  -7  383.16   30.50
   0   7  -7  375.96   31.90
   0   7  -7  365.96   31.90
   0  -7   7  337.67   31.30
   0  -7   7  338.47   31.20
   0  -7   7  388.76   31.60
   0  -7   7  398.56   32.10
   0  -7   7  348.57   30.40
  -1   7  -7   -2.10    2.10
  -1   7  -7    1.40    3.10
  -1   7  -7   -0.20    2.60
  -1   7  -7    0.00    3.10
  -1   7  -7    1.80    1.70
  -1   7  -7   -1.70    3.20
   1  -7   7    3.30    2.20
   1  -7   7   -1.50    3.30
   1  -7   7    2.50    2.80
   1  -7   7    1.00    2.70
   1  -7   7    4.30    3.70
   1  -7   7   -0.90    3.00
  -2   7  -7   -0.10    3.50
  -2   7  -7   -0.40    3.10
  -2   7  -7    0.50    2.10
  -2   7  -7    3.10    2.30
  -2   7  -7   -3.80    3.00
   2  -7   7    1.00    2.90
   2  -7   7   -0.60    3.40
   2  -7   7    1.50    2.10
   2  -7   7    3.10    4.80
   2  -7   7   -0.60    2.70
   2  -7   7   -2.60    3.00
  -3   7  -7   74.69   10.80
  -3   7  -7   75.29   10.70
  -3   7  -7   88.99   11.10
  -3   7  -7   66.19    9.40
  -3   7  -7   82.49   11.90
  -3   7  -7   78.39    8.50
   3  -7   7   81.39   11.10
   3  -7   7   63.49   10.80
   3  -7   7   87.29    8.90
   3  -7   7   76.29   10.60
   3  -7   7   74.79    8.50
  -4   7  -7   33.40    7.40
  -4   7  -7   31.90    5.60
  -4   7  -7   21.20    6.40
  -4   7  -7   20.80    6.00
  -4   7  -7   28.00    6.40
  -4   7  -7   19.30    6.00
   4  -7   7   29.90    5.10
   4  -7   7   21.60    4.60
   4  -7   7   37.10   10.40
   4  -7   7   17.70    5.80
  -5   7  -7   -0.60    5.40
  -5   7  -7    0.50    5.80
  -5   7  -7   -3.10    4.50
  -5   7  -7   -0.40    4.50
  -5   7  -7    6.50    5.40
  -5   7  -7  -10.20    4.00
   5  -7   7    5.80    5.80
   5  -7   7    0.60    5.20
   5  -7   7    3.10    5.70
  -6   7  -7    6.90    7.50
  -6   7  -7   -5.90    5.10
  -6   7  -7    1.00    7.70
  -6   7  -7    7.80    6.20
  -6   7  -7   -3.50    6.30
  -6   7  -7    6.60    6.10
   6  -7   7   -0.60    8.40
   6  -7   7    5.10    5.60
   6  -7   7   -7.00   13.40
   6   6  -7    9.30    6.30
  -6  -6   7    4.90    4.00
  -6  -6   7   -1.80    3.40
   5   6  -7   81.89   12.70
  -5  -6   7   65.69    9.10
  -5  -6   7   83.19    8.30
  -5  -6   7   88.79    8.50
  -5  -6   7   87.89   10.10
  -5  -6   7   81.29    8.00
  -5  -6   7   82.39    8.30
   4   6  -7  149.19   12.40
   4   6  -7  144.49   12.30
   4   6  -7  140.29   12.50
   4   6  -7  146.59   12.50
   4   6  -7  160.48   14.70
   4   6  -7  165.08   16.40
  -4  -6   7  125.39   13.40
  -4  -6   7  149.29   13.20
  -4  -6   7  145.79   13.90
  -4  -6   7  145.79   11.70
  -4  -6   7  172.38   13.60
   3   6  -7    4.90    4.10
   3   6  -7   12.00    2.90
   3   6  -7    5.10    4.90
   3   6  -7    9.80    3.10
   3   6  -7   10.80    3.10
  -3  -6   7    6.20    3.00
  -3  -6   7   10.90    2.80
  -3  -6   7    8.60    3.60
  -3  -6   7    3.80    3.70
  -3  -6   7   11.40    3.10
   2   6  -7   41.20    5.40
   2   6  -7   33.20    6.40
   2   6  -7   48.50    5.60
   2   6  -7   39.10    6.80
   2   6  -7   34.90    5.80
  -2  -6   7   40.50    6.60
  -2  -6   7   36.10    5.40
  -2  -6   7   35.30    5.30
  -2  -6   7   42.60    6.20
  -2  -6   7   31.70    5.20
   1   6  -7   -0.30    2.10
   1   6  -7   -0.20    2.00
   1   6  -7    3.40    2.00
   1   6  -7    0.10    2.40
   1   6  -7    0.40    2.50
  -1  -6   7   -0.90    1.80
  -1  -6   7   -1.30    3.00
  -1  -6   7    2.00    2.80
  -1  -6   7   -1.10    2.00
  -1  -6   7    3.30    2.30
   0   6  -7  124.09   11.10
   0   6  -7   89.29   10.40
   0   6  -7  102.29   10.90
   0   6  -7   88.09   11.70
   0   6  -7   88.79    8.50
   0   6  -7   99.39   12.20
   0  -6   7   83.69    9.40
   0  -6   7   99.49   11.40
   0  -6   7   87.59   10.20
   0  -6   7   94.49   10.20
   0  -6   7  105.29   10.50
   0  -6   7  123.39   11.30
  -1   6  -7   48.90    8.00
  -1   6  -7   47.50    6.00
  -1   6  -7   54.19    7.70
  -1   6  -7   52.79    8.70
  -1   6  -7   56.89    7.60
   1  -6   7   59.49    8.10
   1  -6   7   45.00    6.90
   1  -6   7   57.09    7.20
   1  -6   7   43.50    6.20
   1  -6   7   63.59    7.80
   1  -6   7   50.89    7.20
  -2   6  -7   25.60    5.00
  -2   6  -7   22.40    5.00
  -2   6  -7   27.90    6.00
  -2   6  -7   42.50    7.40
  -2   6  -7   38.00    7.30
   2  -6   7   28.30    6.40
   2  -6   7   31.10    6.30
   2  -6   7   30.50    5.20
   2  -6   7   21.00    5.40
   2  -6   7   37.10    6.60
  -3   6  -7  513.95   38.30
  -3   6  -7  426.26   37.00
  -3   6  -7  498.55   38.20
  -3   6  -7  456.35   35.90
  -3   6  -7  431.76   38.10
  -3   6  -7  437.06   38.10
   3  -6   7  390.96   37.60
   3  -6   7  448.86   36.10
   3  -6   7  505.85   38.40
   3  -6   7  464.95   37.50
   3  -6   7  373.36   37.40
  -4   6  -7   19.70    6.60
  -4   6  -7   40.10    7.80
  -4   6  -7   26.90    6.50
  -4   6  -7   32.60    6.60
  -4   6  -7   26.30    5.20
  -4   6  -7   35.20    7.30
   4  -6   7   28.40    5.00
   4  -6   7   23.10    6.30
   4  -6   7   32.10    7.40
   4  -6   7   27.00    4.40
   4  -6   7   16.70    6.10
   4  -6   7   36.40    8.00
  -5   6  -7   29.20    7.10
  -5   6  -7   29.60    7.00
  -5   6  -7   48.80    9.00
  -5   6  -7   35.10    7.90
   5  -6   7   39.80    8.50
   5  -6   7   31.00    7.70
  -6   6  -7  245.18   19.50
  -6   6  -7  136.69   22.10
  -6   6  -7  144.79   20.30
  -6   6  -7  202.78   22.10
  -6   6  -7  201.58   20.80
   6  -6   7  186.98   22.00
   6  -6   7  167.18   21.40
   6  -6   7  242.98   18.70
   6   5  -7    2.10    5.70
  -6  -5   7    0.80    3.80
  -6  -5   7   -2.50    3.20
   5   5  -7   66.69   14.80
   5   5  -7   73.49   12.40
  -5  -5   7   55.49    5.80
  -5  -5   7   70.79    7.90
  -5  -5   7   57.69    5.90
  -5  -5   7   56.39    8.00
   4   5  -7  108.49   12.50
   4   5  -7   92.49   12.30
  -4  -5   7  104.69    9.50
  -4  -5   7   99.59    8.70
  -4  -5   7   99.09    9.30
  -4  -5   7  103.29    9.80
  -4  -5   7   89.99    9.20
  -4  -5   7  100.09   10.10
   3   5  -7   -1.70    1.60
   3   5  -7   -2.80    1.60
   3   5  -7    7.30    4.50
   3   5  -7    0.60    1.60
   3   5  -7   -0.30    1.70
  -3  -5   7   -0.10    1.70
  -3  -5   7    0.70    2.20
  -3  -5   7    3.00    2.00
  -3  -5   7   -1.90    2.40
  -3  -5   7    0.90    2.70
   2   5  -7    3.80    2.00
   2   5  -7    1.30    1.90
   2   5  -7   -0.80    1.80
   2   5  -7    2.40    2.00
   2   5  -7    2.30    4.20
  -2  -5   7    9.40    2.90
  -2  -5   7    2.10    2.60
  -2  -5   7    2.30    2.10
  -2  -5   7    6.00    2.00
  -2  -5   7    0.80    1.80
   1   5  -7  153.08   14.40
   1   5  -7  143.99   14.20
  -1  -5   7  172.18   14.20
  -1  -5   7  147.29   14.00
  -1  -5   7  152.38   13.60
  -1  -5   7  165.98   14.50
  -1  -5   7  141.49   14.00
   0   5  -7   14.30    3.60
   0   5  -7    6.60    3.00
   0   5  -7    8.10    3.10
   0   5  -7   10.30    2.80
   0   5  -7    3.80    1.70
   0   5  -7    6.20    3.10
   0  -5   7   11.60    3.30
   0  -5   7    3.80    2.40
   0  -5   7    7.70    2.60
   0  -5   7   11.00    3.40
  -1   5  -7    2.60    1.90
  -1   5  -7   -0.90    2.30
  -1   5  -7    0.10    2.10
  -1   5  -7    2.10    2.50
  -1   5  -7   -1.40    2.20
  -1   5  -7    0.10    1.90
   1  -5   7   -0.30    2.60
   1  -5   7   -2.90    1.90
   1  -5   7   -0.60    1.70
   1  -5   7    0.50    2.30
  -2   5  -7   -1.20    2.00
  -2   5  -7    1.60    2.40
  -2   5  -7   -0.20    2.80
  -2   5  -7    1.20    2.70
  -2   5  -7   -0.80    2.40
   2  -5   7    0.20    2.60
   2  -5   7   -1.20    2.70
   2  -5   7   -2.60    4.50
   2  -5   7    2.20    2.10
  -3   5  -7   -0.40    3.00
  -3   5  -7    1.50    2.90
  -3   5  -7   -0.40    3.00
  -3   5  -7    0.10    3.20
  -3   5  -7    0.10    3.00
  -3   5  -7    4.50    2.60
   3  -5   7   -1.30    2.30
   3  -5   7   -1.30    3.00
   3  -5   7   -3.20    4.30
   3  -5   7   -6.90    3.20
  -4   5  -7    4.30    4.10
  -4   5  -7    5.30    3.10
  -4   5  -7   -1.30    3.70
  -4   5  -7    1.80    3.70
  -4   5  -7    2.20    4.00
  -4   5  -7    4.10    3.40
   4  -5   7    3.80    3.90
   4  -5   7    1.90    4.10
   4  -5   7    7.40    5.10
   4  -5   7   -3.90    3.70
  -5   5  -7    2.70    5.20
  -5   5  -7    0.30    4.60
  -5   5  -7    0.70    4.50
  -5   5  -7   -2.00    4.10
  -5   5  -7   -8.20    3.80
  -5   5  -7   -0.70    4.00
   5  -5   7   -9.20    7.10
   5  -5   7   -4.60    5.00
  -6   5  -7  190.38   19.40
  -6   5  -7  118.39   22.90
  -6   5  -7  211.98   18.20
  -6   5  -7  220.28   21.40
   6  -5   7  147.19   19.90
   6  -5   7  130.39   19.20
   6  -5   7  193.18   17.80
  -7  -4   7    2.70    6.00
  -7  -4   7    9.80    5.70
  -7  -4   7   -4.00    4.10
   6   4  -7   17.70   10.10
  -6  -4   7   18.10    4.70
  -6  -4   7   14.10    4.30
  -6  -4   7   11.40    5.70
   5   4  -7    4.40    7.10
  -5  -4   7   -0.40    2.60
   4   4  -7  195.28   20.30
  -4  -4   7  182.68   16.90
  -4  -4   7  214.78   16.10
  -4  -4   7  188.38   16.00
  -4  -4   7  187.18   16.00
  -4  -4   7  184.98   16.10
  -4  -4   7  201.58   16.10
   3   4  -7    1.30    1.60
   3   4  -7    0.20    1.60
   3   4  -7   -2.60    5.10
   3   4  -7    1.30    1.50
  -3  -4   7    0.60    2.20
  -3  -4   7   -1.20    2.10
  -3  -4   7    0.90    2.20
  -3  -4   7   -1.60    1.60
  -3  -4   7   -0.80    0.90
  -3  -4   7   -1.20    1.60
   2   4  -7   41.10    5.50
   2   4  -7   59.09    9.10
   2   4  -7   52.59    5.60
  -2  -4   7   36.90    5.50
  -2  -4   7   39.30    5.30
  -2  -4   7   46.00    5.80
   1   4  -7  330.17   26.10
   1   4  -7  309.47   26.80
   1   4  -7  348.97   26.70
   1   4  -7  315.27   26.80
   1   4  -7  364.96   26.80
  -1  -4   7  303.87   25.00
  -1  -4   7  309.27   26.70
  -1  -4   7  321.67   26.80
  -1  -4   7  312.97   26.20
   0   4  -7   69.09    7.80
   0   4  -7   61.29    7.60
   0   4  -7   64.79    6.50
   0   4  -7   67.19    7.90
   0   4  -7   60.99    7.70
   0   4  -7   73.59    7.00
   0  -4   7   67.39    6.40
   0  -4   7   62.49    7.70
   0  -4   7   77.99    8.30
   0  -4   7   56.89    6.90
   0  -4   7   58.79    7.60
  -1   4  -7   43.20    7.70
  -1   4  -7   46.70    5.90
  -1   4  -7   46.40    6.80
  -1   4  -7   44.10    7.80
  -1   4  -7   50.59    5.90
  -1   4  -7   57.29    7.00
   1  -4   7   48.30    6.90
   1  -4   7   46.70    6.90
   1  -4   7   38.30    6.20
   1  -4   7   52.09    5.90
   1  -4   7   60.39    7.60
  -2   4  -7  370.26   29.50
  -2   4  -7  328.17   29.50
  -2   4  -7  378.46   29.60
  -2   4  -7  338.37   28.70
  -2   4  -7  309.17   29.40
   2  -4   7  340.27   28.10
   2  -4   7  397.06   30.30
   2  -4   7  388.66   28.90
   2  -4   7  305.47   29.10
   2  -4   7  289.37   29.00
  -3   4  -7    2.50    2.90
  -3   4  -7    0.10    2.30
  -3   4  -7    3.50    3.80
  -3   4  -7    1.70    3.50
  -3   4  -7    1.40    2.90
  -3   4  -7    1.70    2.90
   3  -4   7    1.40    2.00
   3  -4   7    1.30    2.40
   3  -4   7    1.00    3.50
   3  -4   7    2.60    3.70
  -4   4  -7   36.10    6.00
  -4   4  -7   29.40    6.30
  -4   4  -7   33.60    6.90
  -4   4  -7   29.50    7.10
  -4   4  -7   31.80    9.50
  -4   4  -7   41.50    7.70
   4  -4   7   34.80    6.70
   4  -4   7   28.50    6.70
   4  -4   7   21.60    6.60
  -5   4  -7   29.20    7.30
  -5   4  -7   20.00    6.50
  -5   4  -7   45.90    8.00
  -5   4  -7   12.20    5.60
  -5   4  -7   34.50    8.10
  -5   4  -7   34.40    6.90
   5  -4   7   40.40    9.40
   5  -4   7   22.40    7.80
   5  -4   7   28.80    7.10
   5  -4   7   30.30    7.50
  -6   4  -7   23.40    7.90
  -6   4  -7   25.10    8.50
  -6   4  -7   18.60    8.80
  -6   4  -7   35.00    8.60
   6  -4   7   32.80    7.20
   6  -4   7    5.90    9.40
   6  -4   7   15.60    7.70
   7   3  -7   21.80   12.40
  -7  -3   7   17.20    8.30
  -7  -3   7   14.10    5.40
  -7  -3   7   14.50    4.80
   6   3  -7    3.90    8.30
  -6  -3   7    5.80    3.30
  -6  -3   7    3.90    4.20
  -6  -3   7   -0.30    3.60
   5   3  -7    8.40    7.40
  -5  -3   7    1.60    2.50
  -5  -3   7    0.20    3.70
  -5  -3   7    2.80    2.70
   4   3  -7   -5.00    5.40
  -4  -3   7    0.60    2.30
  -4  -3   7    1.40    1.60
  -4  -3   7   -2.90    1.70
  -4  -3   7   -3.00    1.90
  -4  -3   7    5.00    3.40
  -4  -3   7   -3.00    1.40
   3   3  -7   34.00    4.00
   3   3  -7   31.30    4.20
   3   3  -7   27.30    4.10
   3   3  -7   35.50    4.10
   3   3  -7   42.50    9.00
  -3  -3   7   32.00    4.40
  -3  -3   7   31.20    4.50
  -3  -3   7   33.50    5.20
   2   3  -7   -2.10    1.60
   2   3  -7   -3.30    3.80
   2   3  -7    0.50    1.60
   2   3  -7   -0.40    1.60
  -2  -3   7    0.60    2.00
  -2  -3   7    0.30    1.80
  -2  -3   7    0.60    1.80
  -2  -3   7    1.20    1.00
  -2  -3   7    0.40    1.80
  -2  -3   7   -2.10    1.70
   1   3  -7  143.49   12.20
   1   3  -7  145.19   12.70
   1   3  -7  144.19   12.70
   1   3  -7  123.79   12.70
   1   3  -7  133.49   12.80
  -1  -3   7  141.79   13.10
  -1  -3   7  123.49   12.70
  -1  -3   7  150.98   13.20
  -1  -3   7  141.99   12.30
  -1  -3   7  133.19   11.50
  -1  -3   7  129.59   12.70
   0   3  -7   39.70    4.70
   0   3  -7   41.90    5.90
   0   3  -7   36.80    6.40
   0   3  -7   33.40    5.80
   0   3  -7   40.90    6.60
   0   3  -7   36.80    5.00
   0  -3   7   47.30    6.20
   0  -3   7   46.60    6.10
   0  -3   7   38.30    4.60
   0  -3   7   40.00    5.90
   0  -3   7   39.50    5.30
   0  -3   7   40.30    6.60
  -1   3  -7   43.60    7.20
  -1   3  -7   49.60    6.00
  -1   3  -7   49.99    8.20
  -1   3  -7   47.60    6.80
  -1   3  -7   35.90    7.00
  -1   3  -7   50.79    5.80
   1  -3   7   55.59    7.10
   1  -3   7   45.30    7.70
   1  -3   7   38.00    6.80
   1  -3   7   53.49    7.30
   1  -3   7   59.59    6.30
   1  -3   7   46.30    5.80
  -2   3  -7  394.06   34.60
  -2   3  -7  447.96   33.40
  -2   3  -7  397.46   34.60
  -2   3  -7  427.36   34.50
  -2   3  -7  436.96   34.50
  -2   3  -7  401.96   33.80
   2  -3   7  414.86   33.60
   2  -3   7  349.27   32.70
   2  -3   7  378.16   34.30
   2  -3   7  484.15   40.50
   2  -3   7  386.66   34.30
   2  -3   7  448.76   35.00
   2  -3   7  415.76   33.20
  -3   3  -7    3.30    3.40
  -3   3  -7    6.20    4.00
  -3   3  -7    8.00    4.00
  -3   3  -7    3.10    3.50
  -3   3  -7    1.40    2.50
  -3   3  -7    3.40    3.20
   3  -3   7   -2.70    3.40
   3  -3   7    1.80    2.10
   3  -3   7    7.20    2.70
   3  -3   7    3.60    3.50
   3  -3   7    8.10    4.40
   3  -3   7    1.70    3.60
  -4   3  -7   -2.60    2.80
  -4   3  -7    0.70    3.50
  -4   3  -7    7.80    7.00
  -4   3  -7    3.50    4.00
  -4   3  -7    4.50    3.90
  -4   3  -7   -1.50    3.40
   4  -3   7    1.30    4.20
   4  -3   7    5.10    4.30
   4  -3   7   -2.80    3.40
  -5   3  -7  499.95   45.20
  -5   3  -7  491.45   44.90
  -5   3  -7  601.04   43.30
  -5   3  -7  567.94   44.90
  -5   3  -7  487.25   44.70
  -5   3  -7  566.24   44.60
   5  -3   7  507.25   44.70
   5  -3   7  492.65   44.70
  -6   3  -7   -7.00    5.90
  -6   3  -7   -6.20    5.50
  -6   3  -7    0.60    5.80
   6  -3   7    0.60    7.70
   6  -3   7    3.10    6.50
   7   2  -7    1.70   10.50
  -7  -2   7   -2.50    3.80
  -7  -2   7    8.80    5.40
  -7  -2   7    6.50    5.60
   6   2  -7    1.90    7.70
  -6  -2   7    1.40    4.00
  -6  -2   7   -4.60    3.40
  -6  -2   7   -6.90    2.70
   5   2  -7    8.40    6.50
  -5  -2   7    9.40    3.50
  -5  -2   7    5.10    3.10
  -5  -2   7    3.50    3.80
   4   2  -7    4.80    5.30
  -4  -2   7    3.10    3.10
  -4  -2   7    6.00    2.00
  -4  -2   7    4.30    2.40
  -4  -2   7    5.90    2.00
   3   2  -7   57.79    5.70
   3   2  -7   49.20    5.70
   3   2  -7   62.59    6.50
   3   2  -7   47.00    5.70
   3   2  -7   55.69   10.50
   3   2  -7   62.29    6.00
  -3  -2   7   55.99    6.30
  -3  -2   7   60.79    6.40
  -3  -2   7   55.79    6.20
  -3  -2   7   53.99    6.20
  -3  -2   7   64.99    6.50
  -3  -2   7   59.19    8.10
   2   2  -7   68.69    6.80
   2   2  -7   63.19    9.30
   2   2  -7   54.99    6.60
   2   2  -7   70.09    6.70
  -2  -2   7   60.29    6.90
  -2  -2   7   57.49    6.90
  -2  -2   7   58.69    6.10
  -2  -2   7   59.29    7.80
  -2  -2   7   59.39    6.90
  -2  -2   7   61.59    6.60
  -2  -2   7   62.19    7.00
   1   2  -7  250.97   20.00
   1   2  -7  236.88   19.90
   1   2  -7  212.98   19.80
   1   2  -7  252.87   19.50
   1   2  -7  217.88   19.90
  -1  -2   7  214.98   19.90
  -1  -2   7  212.58   20.30
  -1  -2   7  235.38   20.10
  -1  -2   7  229.68   19.00
  -1  -2   7  242.88   20.30
  -1  -2   7  233.78   19.40
  -1  -2   7  248.08   20.30
   0   2  -7   45.50    5.90
   0   2  -7   28.50    5.50
   0   2  -7   44.60    6.70
   0   2  -7   28.80    5.50
   0   2  -7   38.30    4.90
   0   2  -7   39.70    4.80
   0  -2   7   34.20    5.10
   0  -2   7   26.00    5.30
   0  -2   7   44.30    6.80
   0  -2   7   26.70    5.30
   0  -2   7   44.30    6.80
   0  -2   7   31.20    4.50
   0  -2   7   40.20    6.70
  -1   2  -7   -1.40    2.00
  -1   2  -7    2.10    2.30
  -1   2  -7    0.30    1.80
  -1   2  -7    2.00    2.10
  -1   2  -7    0.40    2.20
  -1   2  -7    0.00    2.30
   1  -2   7    2.10    2.40
   1  -2   7   -1.20    1.50
   1  -2   7    0.80    2.60
   1  -2   7   -1.10    1.90
   1  -2   7    2.00    1.80
   1  -2   7   -2.20    1.60
   1  -2   7    0.50    2.10
  -2   2  -7  100.19   11.50
  -2   2  -7  109.19   11.50
  -2   2  -7   97.89   11.40
  -2   2  -7  107.89   11.20
  -2   2  -7  101.19   10.20
  -2   2  -7  100.69   11.70
   2  -2   7  110.59   11.80
   2  -2   7  103.89   11.60
   2  -2   7  108.29   10.40
   2  -2   7   95.59   11.30
   2  -2   7   95.29    9.80
  -3   2  -7    7.40    3.90
  -3   2  -7   11.00    4.00
  -3   2  -7   11.30    3.40
  -3   2  -7   10.00    4.20
  -3   2  -7    7.80    4.20
  -3   2  -7    9.00    4.40
   3  -2   7   12.30    4.60
   3  -2   7    9.90    2.80
   3  -2   7    8.30    4.30
   3  -2   7   11.00    4.60
   3  -2   7    6.80    4.20
   3  -2   7    9.80    4.20
  -4   2  -7   28.80    5.50
  -4   2  -7   19.90    6.70
  -4   2  -7   29.10    6.90
  -4   2  -7   10.20    5.40
  -4   2  -7   19.10    5.80
  -4   2  -7   23.10    6.10
   4  -2   7   21.50    6.30
   4  -2   7   20.40    5.80
   4  -2   7   19.20    6.50
   4  -2   7   22.20    6.30
   4  -2   7   27.20    7.10
  -5   2  -7   86.89   14.40
  -5   2  -7   54.89   11.00
  -5   2  -7   84.79   11.90
  -5   2  -7  102.99   13.30
  -5   2  -7   81.89   12.10
   5  -2   7  103.79   16.30
   5  -2   7   98.59   12.80
   5  -2   7  105.19   12.90
  -6   2  -7    3.00    5.40
  -6   2  -7  -10.10    5.50
  -6   2  -7   -6.00    6.00
  -6   2  -7   -6.40    6.20
  -6   2  -7    6.10   10.00
   6  -2   7   -4.60    6.60
   7   1  -7    4.90    9.90
  -7  -1   7   -6.80    6.80
  -7  -1   7   -0.20    4.90
  -7  -1   7  -13.40    4.80
   6   1  -7   -0.70    7.70
  -6  -1   7    5.40    4.80
  -6  -1   7   -0.80    3.70
  -6  -1   7    4.20    2.90
   5   1  -7    1.10    6.40
  -5  -1   7    1.40    3.50
  -5  -1   7   -0.50    2.50
   4   1  -7   -0.30    5.10
  -4  -1   7    1.80    1.80
  -4  -1   7    2.10    1.80
  -4  -1   7   -1.50    2.70
  -4  -1   7   -0.90    1.50
  -4  -1   7   -1.30    1.70
  -4  -1   7   -5.30    1.60
   3   1  -7    2.80    1.80
   3   1  -7    2.90    1.90
   3   1  -7    2.10    1.80
   3   1  -7   -1.60    4.70
   3   1  -7    1.90    1.90
  -3  -1   7    1.40    1.80
  -3  -1   7    2.50    1.60
  -3  -1   7    2.50    1.90
  -3  -1   7    2.70    2.60
  -3  -1   7    1.70    1.90
  -3  -1   7    1.10    1.80
   2   1  -7    7.20    5.50
   2   1  -7    8.70    2.90
   2   1  -7   15.60    3.20
  -2  -1   7    5.00    3.20
  -2  -1   7   15.50    3.50
  -2  -1   7   15.10    3.50
  -2  -1   7   10.40    3.40
  -2  -1   7   11.80    2.80
  -2  -1   7   11.10    2.70
  -2  -1   7   14.30    3.40
   1   1  -7  197.98   16.80
   1   1  -7  194.08   16.00
   1   1  -7  182.78   16.70
   1   1  -7  177.48   16.60
   1   1  -7  172.68   16.70
   1   1  -7  211.98   19.00
  -1  -1   7  182.18   16.00
  -1  -1   7  183.58   16.80
  -1  -1   7  178.78   17.20
  -1  -1   7  207.28   16.20
  -1  -1   7  173.58   16.60
  -1  -1   7  186.18   17.00
  -1  -1   7  196.08   17.00
   0   1  -7   62.99    7.60
   0   1  -7   67.59    6.60
   0   1  -7   65.09    7.60
   0   1  -7   63.49    7.70
   0   1  -7   62.19    6.90
   0   1  -7   53.09    7.30
   0  -1   7   50.99    7.30
   0  -1   7   66.29    6.90
   0  -1   7   46.10    7.00
   0  -1   7   45.20    6.80
   0  -1   7   56.09    7.30
   0  -1   7   56.99    6.40
   0  -1   7   48.50    7.20
  -1   1  -7  278.17   25.20
  -1   1  -7  311.47   25.50
  -1   1  -7  264.07   25.30
  -1   1  -7  295.77   24.80
  -1   1  -7  295.07   25.40
   1  -1   7  261.77   25.00
   1  -1   7  308.07   24.30
   1  -1   7  290.27   25.40
   1  -1   7  298.77   24.50
   1  -1   7  274.57   25.30
   1  -1   7  295.57   25.50
   1  -1   7  311.37   24.80
  -2   1  -7  153.48   14.50
  -2   1  -7  146.19   14.60
  -2   1  -7  124.09   14.30
  -2   1  -7  129.09   14.50
  -2   1  -7  142.29   13.20
  -2   1  -7  151.58   14.80
   2  -1   7  139.69   13.80
   2  -1   7  133.79   12.60
   2  -1   7  155.78   15.10
   2  -1   7  138.69   14.40
   2  -1   7  123.39   14.30
   2  -1   7  142.59   14.60
   2  -1   7  150.78   13.30
  -3   1  -7  331.97   30.00
  -3   1  -7  341.67   29.90
  -3   1  -7  329.07   28.30
  -3   1  -7  351.56   30.10
  -3   1  -7  315.77   30.00
  -3   1  -7  342.87   29.90
   3  -1   7  352.46   27.10
   3  -1   7  339.07   29.30
   3  -1   7  346.77   30.10
   3  -1   7  314.77   29.70
   3  -1   7  340.37   29.90
   3  -1   7  349.77   29.90
  -4   1  -7  169.28   18.00
  -4   1  -7  173.58   18.20
  -4   1  -7  186.98   18.40
  -4   1  -7  166.28   17.80
  -4   1  -7  162.08   16.50
  -4   1  -7  168.68   17.60
   4  -1   7  194.38   18.10
   4  -1   7  153.78   17.40
   4  -1   7  159.88   17.80
   4  -1   7  174.28   18.00
   4  -1   7  188.68   18.90
  -5   1  -7    5.20    5.50
  -5   1  -7    2.60    5.30
  -5   1  -7   10.10    5.50
  -5   1  -7    1.30    4.80
  -5   1  -7   -1.70    4.50
  -5   1  -7    6.60    4.80
   5  -1   7    2.30    5.00
   5  -1   7    8.80    5.40
  -6   1  -7    3.80    7.20
  -6   1  -7    3.80    6.50
  -6   1  -7   10.80    6.60
  -6   1  -7    9.60    6.50
  -6   1  -7    9.70    6.20
   6  -1   7    9.20    7.50
   7   0  -7    6.00    9.70
  -7   0   7    9.90    6.30
  -7   0   7    6.60    4.10
  -7   0   7    7.90    5.20
   6   0  -7    2.20    8.50
  -6   0   7   -0.50    4.10
  -6   0   7   -6.30    2.50
   5   0  -7    4.80    6.70
  -5   0   7    7.10    2.50
  -5   0   7    7.80    2.20
  -5   0   7    5.50    2.50
  -5   0   7    8.20    2.10
   4   0  -7    0.60    1.30
   4   0  -7    2.60    6.00
   4   0  -7   -0.90    1.30
  -4   0   7   -0.80    1.90
  -4   0   7    1.90    2.30
  -4   0   7    3.40    2.30
  -4   0   7    4.60    2.20
  -4   0   7   -1.40    2.80
   3   0  -7    7.00    5.60
   3   0  -7    1.60    2.00
   3   0  -7    0.30    2.00
   3   0  -7   -0.90    1.70
   3   0  -7    0.70    2.00
  -3   0   7   -0.30    2.40
  -3   0   7    0.20    2.20
  -3   0   7    3.00    2.40
  -3   0   7    3.60    2.40
  -3   0   7    2.40    2.70
  -3   0   7    2.70    2.10
  -3   0   7    4.40    2.50
   2   0  -7   18.90    7.20
   2   0  -7   12.00    3.30
   2   0  -7    5.90    2.70
   2   0  -7   13.50    3.20
   2   0  -7   18.90    3.90
   2   0  -7   13.40    3.00
  -2   0   7   18.50    4.20
  -2   0   7   15.60    4.00
  -2   0   7   21.50    3.80
  -2   0   7    9.70    3.20
  -2   0   7   20.30    5.80
  -2   0   7   18.20    4.10
  -2   0   7   17.20    4.10
   1   0  -7  104.49   11.00
   1   0  -7  120.59   10.20
   1   0  -7  105.99   14.30
   1   0  -7  105.19   10.80
   1   0  -7  119.59   13.30
   1   0  -7  102.39   11.00
  -1   0   7  117.49   10.20
  -1   0   7   92.89   10.30
  -1   0   7  109.59   11.40
  -1   0   7   95.29   10.90
  -1   0   7  107.79   11.10
  -1   0   7  101.29   10.90
   0   0  -7   12.20    4.00
   0   0  -7   13.20    4.20
   0   0  -7   10.30    2.90
   0   0  -7    6.40    3.80
   0   0  -7   12.80    3.60
   0   0  -7    9.20    3.20
   0   0   7    9.70    3.40
   0   0   7   10.60    3.40
   0   0   7    8.40    2.70
   0   0   7    9.90    3.50
   0   0   7   10.50    3.40
   0   0   7   11.10    3.70
   0   0   7   10.30    3.40
  -1   0  -7    0.40    2.70
  -1   0  -7    2.10    2.50
  -1   0  -7   -2.20    1.60
  -1   0  -7   -4.00    2.30
  -1   0  -7    1.40    2.70
  -1   0  -7    1.70    2.20
   1   0   7    1.40    2.70
   1   0   7    2.40    2.70
   1   0   7    3.80    2.80
   1   0   7    0.50    2.40
   1   0   7   -2.30    1.50
   1   0   7    1.30    2.00
   1   0   7   -1.70    2.30
  -2   0  -7    8.80    4.50
  -2   0  -7    8.40    4.20
  -2   0  -7   12.20    4.80
  -2   0  -7   11.80    3.20
  -2   0  -7    7.90    4.10
  -2   0  -7   17.50    4.30
   2   0   7   17.20    5.20
   2   0   7    6.50    3.00
   2   0   7    8.10    3.70
   2   0   7   13.30    4.00
   2   0   7   17.80    5.30
  -3   0  -7  536.15   41.60
  -3   0  -7  548.05   43.50
  -3   0  -7  492.25   43.30
  -3   0  -7  523.75   43.30
  -3   0  -7  533.85   43.40
  -3   0  -7  502.35   43.20
   3   0   7  472.25   45.00
   3   0   7  528.25   43.30
   3   0   7  472.75   42.40
   3   0   7  518.45   43.10
   3   0   7  500.15   43.00
   3   0   7  516.45   42.60
  -4   0  -7  114.99   12.70
  -4   0  -7  104.39   14.10
  -4   0  -7  127.49   14.50
  -4   0  -7  130.59   14.70
  -4   0  -7  125.19   14.50
  -4   0  -7  104.29   13.60
   4   0   7  136.69   14.70
   4   0   7  109.99   13.90
   4   0   7   93.19   13.50
  -5   0  -7    5.80    5.60
  -5   0  -7    2.80    5.00
  -5   0  -7    0.90    4.90
  -5   0  -7    8.40    5.80
  -5   0  -7    0.20    5.40
  -5   0  -7    3.20    5.60
   5   0   7    4.90    5.30
   5   0   7   -1.60    6.70
  -6   0  -7    1.00    7.60
  -6   0  -7    3.60    6.30
  -6   0  -7   11.50    6.80
  -6   0  -7   23.80    7.70
  -6   0  -7   13.20    8.20
   6   0   7    0.20    6.70
   7  -1  -7    3.50    9.30
  -7   1   7   15.40    6.80
  -7   1   7   12.80    4.20
  -7   1   7   16.10    6.50
   6  -1  -7   37.50   13.60
  -6   1   7   51.59    9.80
  -6   1   7   48.60    6.30
   5  -1  -7  171.68   21.40
  -5   1   7  171.08   14.90
  -5   1   7  161.38   14.70
  -5   1   7  179.58   14.90
  -5   1   7  171.88   17.90
   4  -1  -7    2.80    2.20
   4  -1  -7    6.20    7.50
   4  -1  -7    5.20    2.20
   4  -1  -7    6.90    2.40
   4  -1  -7    7.50    2.20
  -4   1   7    7.00    3.00
  -4   1   7    6.10    2.30
  -4   1   7    4.20    2.90
  -4   1   7    6.90    3.10
  -4   1   7    6.10    2.60
  -4   1   7   -0.70    2.70
   3  -1  -7    2.40    2.20
   3  -1  -7   -0.40    1.70
   3  -1  -7    3.30    2.20
   3  -1  -7   -0.10    2.00
   3  -1  -7    2.90    2.60
   3  -1  -7    1.50    5.70
  -3   1   7   -1.00    2.20
  -3   1   7    7.70    2.90
  -3   1   7   -3.30    2.00
  -3   1   7   -2.10    2.30
  -3   1   7    0.40    2.40
  -3   1   7    1.00    3.40
  -3   1   7    1.60    1.90
   2  -1  -7   14.30    3.10
   2  -1  -7   10.30    3.80
   2  -1  -7    9.60    3.30
   2  -1  -7   26.90    9.00
   2  -1  -7   16.70    4.20
  -2   1   7   13.90    4.80
  -2   1   7   10.40    3.50
  -2   1   7   11.50    2.60
  -2   1   7   15.30    4.00
  -2   1   7   17.00    4.20
  -2   1   7   11.90    3.50
   1  -1  -7  126.99   13.30
   1  -1  -7  143.89   15.50
   1  -1  -7  134.39   12.40
   1  -1  -7  118.29   13.50
   1  -1  -7  137.59   16.00
   1  -1  -7  120.69   13.20
   1  -1  -7  133.29   13.50
  -1   1   7  138.29   13.60
  -1   1   7  141.89   13.40
  -1   1   7  150.18   14.20
  -1   1   7  149.79   14.20
  -1   1   7  140.09   13.70
  -1   1   7  149.09   12.60
  -1   1   7  141.39   13.80
   0  -1  -7   13.30    4.40
   0  -1  -7   17.10    4.80
   0  -1  -7   14.30    4.50
   0  -1  -7   16.10    4.90
   0  -1  -7   16.50    4.70
   0   1   7   11.70    4.30
   0   1   7   15.90    3.70
   0   1   7   13.40    3.70
   0   1   7   11.60    4.20
   0   1   7   18.90    4.80
   0   1   7   10.40    4.60
   0   1   7   15.00    4.90
  -1  -1  -7    5.80    3.60
  -1  -1  -7   11.20    4.70
  -1  -1  -7    2.60    2.90
  -1  -1  -7    2.50    3.30
  -1  -1  -7    4.90    2.90
  -1  -1  -7    1.90    2.30
  -1  -1  -7    1.00    2.60
   1   1   7    5.80    3.70
   1   1   7    2.60    3.00
   1   1   7    9.10    4.00
   1   1   7    1.30    2.10
   1   1   7    6.50    3.40
   1   1   7    2.00    3.10
  -2  -1  -7   19.90    5.00
  -2  -1  -7   12.50    3.60
  -2  -1  -7   18.40    5.90
  -2  -1  -7   17.70    5.10
  -2  -1  -7   11.70    4.60
  -2  -1  -7   26.40    6.10
  -2  -1  -7   29.10    6.80
   2   1   7   14.90    5.10
   2   1   7   26.90    6.50
   2   1   7   21.30    6.10
   2   1   7   16.70    3.90
   2   1   7   12.80    4.50
   2   1   7   14.90    5.20
  -3  -1  -7   29.50    7.50
  -3  -1  -7   21.50    6.50
  -3  -1  -7   30.20    8.20
  -3  -1  -7   47.90   12.10
  -3  -1  -7   33.00    6.40
  -3  -1  -7   23.30    6.90
   3   1   7   30.70    5.10
   3   1   7   21.80    5.90
   3   1   7   27.10    7.30
   3   1   7   25.60    9.50
   3   1   7   21.70    6.80
   3   1   7   33.90    8.10
  -4  -1  -7   59.49    9.70
  -4  -1  -7   73.79   12.70
  -4  -1  -7   76.69   11.60
  -4  -1  -7   62.09   11.20
  -4  -1  -7   54.79   10.50
  -4  -1  -7   67.19   11.80
   4   1   7   82.49   13.00
   4   1   7   67.79   11.70
   4   1   7   76.99   11.70
   4   1   7   69.89   13.90
   4   1   7   77.19   12.40
  -5  -1  -7    0.20    5.30
  -5  -1  -7   -4.90    5.90
  -5  -1  -7   -8.40    5.70
  -5  -1  -7   -3.40    5.10
  -5  -1  -7    6.70    6.10
   5   1   7   -7.00    5.30
   6  -2  -7    1.60    7.60
  -6   2   7    0.80    2.80
  -6   2   7    6.10    3.70
  -6   2   7    5.00    3.10
  -6   2   7    6.40    3.30
  -6   2   7    4.40    5.10
  -6   2   7    7.70    2.60
   5  -2  -7   53.59    5.40
   5  -2  -7   55.39   15.80
  -5   2   7   49.99    7.10
  -5   2   7   47.60    7.20
  -5   2   7   55.49    6.00
  -5   2   7   54.59    7.60
  -5   2   7   42.50    6.60
  -5   2   7   49.50    9.00
   4  -2  -7    1.90    2.50
   4  -2  -7   -1.90    5.90
   4  -2  -7   -2.50    2.40
   4  -2  -7    2.60    2.40
   4  -2  -7   -0.60    1.90
   4  -2  -7   -1.30    2.50
  -4   2   7    0.50    2.80
  -4   2   7   -1.70    2.40
  -4   2   7    2.10    1.90
  -4   2   7    5.50    3.00
   3  -2  -7   25.30    9.30
   3  -2  -7   24.80    4.10
   3  -2  -7   15.80    4.10
   3  -2  -7   16.30    5.30
   3  -2  -7   20.20    4.30
  -3   2   7   25.60    5.70
  -3   2   7   14.80    4.70
  -3   2   7   19.30    4.70
  -3   2   7   14.40    4.40
  -3   2   7   16.30    4.40
  -3   2   7   17.70    3.40
  -3   2   7   14.90    4.60
   2  -2  -7  298.87   24.50
   2  -2  -7  308.37   23.30
   2  -2  -7  299.37   24.60
   2  -2  -7  250.87   25.00
   2  -2  -7  271.57   24.30
   2  -2  -7  302.17   27.60
   2  -2  -7  252.37   24.30
  -2   2   7  295.27   25.60
  -2   2   7  300.97   24.90
  -2   2   7  284.47   24.50
  -2   2   7  290.17   23.20
  -2   2   7  250.07   24.30
  -2   2   7  267.87   24.40
  -2   2   7  290.57   24.70
   1  -2  -7   97.39   11.40
   1  -2  -7   90.49   11.00
   1  -2  -7   97.09   11.40
   1  -2  -7  112.69   11.30
   1  -2  -7   86.59   12.70
   1  -2  -7   90.99    9.70
   1  -2  -7  106.09   11.30
  -1   2   7   96.79   11.20
  -1   2   7  105.59    9.80
  -1   2   7  112.09   11.80
  -1   2   7   97.09   10.80
  -1   2   7  111.29   11.40
  -1   2   7   96.99   11.30
  -1   2   7   96.29   11.30
   0  -2  -7   -2.30    1.90
   0  -2  -7    2.10    3.10
   0  -2  -7    2.40    3.10
   0  -2  -7   -0.20    4.70
   0  -2  -7   -1.30    2.60
   0  -2  -7    0.60    2.00
   0   2   7    0.50    2.70
   0   2   7    1.20    3.10
   0   2   7   -1.10    2.80
   0   2   7   -1.40    1.80
   0   2   7   -4.10    2.80
   0   2   7    2.00    3.00
  -1  -2  -7   12.90    3.90
  -1  -2  -7   11.70    3.90
  -1  -2  -7    9.50    4.60
  -1  -2  -7   10.30    4.00
  -1  -2  -7    5.30    4.00
  -1  -2  -7   14.20    5.70
   1   2   7   11.70    4.10
   1   2   7   15.40    5.70
   1   2   7    7.60    3.50
   1   2   7   16.60    4.40
   1   2   7    8.60    4.30
  -2  -2  -7    1.20    2.70
  -2  -2  -7    1.70    3.20
  -2  -2  -7    5.50    3.90
  -2  -2  -7    4.20    2.60
  -2  -2  -7    0.70    3.50
  -2  -2  -7    6.80    5.40
   2   2   7   -0.30    3.60
   2   2   7    4.70    3.00
   2   2   7    0.30    3.70
   2   2   7    2.40    3.40
   2   2   7    9.90    4.70
   2   2   7    1.60    3.90
  -3  -2  -7   79.09   10.60
  -3  -2  -7   61.69   11.50
  -3  -2  -7   55.69    8.10
  -3  -2  -7   61.19   10.80
  -3  -2  -7   52.89   10.60
  -3  -2  -7   85.49   12.80
  -3  -2  -7   79.89   19.20
   3   2   7   80.89   13.30
   3   2   7   67.09   11.20
   3   2   7   76.39   12.10
   3   2   7   77.09    8.20
   3   2   7   95.09   13.00
   3   2   7   54.09    9.30
  -4  -2  -7   14.20    7.90
  -4  -2  -7   13.80    5.60
  -4  -2  -7   11.60    6.30
  -4  -2  -7   17.30    7.30
  -4  -2  -7   11.30    5.80
  -4  -2  -7   10.50    6.00
   4   2   7   18.30    7.50
   4   2   7   10.40    6.00
   4   2   7    6.50    7.70
   4   2   7   17.80    6.80
   4   2   7   16.50    6.50
  -5  -2  -7    2.80    5.90
  -5  -2  -7    2.30    7.50
  -5  -2  -7    5.50    7.30
  -5  -2  -7   19.00   11.80
   5   2   7   26.10    8.10
   5   2   7   15.30    7.70
   6  -3  -7   76.89   20.00
  -6   3   7  102.29   11.00
  -6   3   7   98.79   12.30
  -6   3   7   95.49   10.60
  -6   3   7   88.69    8.40
  -6   3   7   89.89   13.10
  -6   3   7  115.79   11.20
   5  -3  -7   48.90   14.50
   5  -3  -7   36.30    5.50
   5  -3  -7   35.90    5.20
   5  -3  -7   38.50    5.70
  -5   3   7   30.90    6.10
  -5   3   7   37.40    6.70
  -5   3   7   40.30    6.90
  -5   3   7   35.80    8.20
   4  -3  -7   30.20    5.40
   4  -3  -7   23.30    4.00
   4  -3  -7   31.10    5.60
   4  -3  -7   15.80    5.20
   4  -3  -7   22.80    5.00
   4  -3  -7   25.40    9.30
  -4   3   7   20.20    3.50
  -4   3   7   36.60    6.30
  -4   3   7   20.60    5.30
  -4   3   7   26.60    5.60
  -4   3   7   30.00    7.60
  -4   3   7   26.90    5.70
   3  -3  -7   24.00    5.80
   3  -3  -7   16.90    3.40
   3  -3  -7   17.30    6.30
   3  -3  -7   24.50    4.80
   3  -3  -7   16.00    4.50
   3  -3  -7   29.20    5.60
   3  -3  -7    4.80    6.30
  -3   3   7   13.80    5.20
  -3   3   7   11.80    4.10
  -3   3   7   21.10    3.50
  -3   3   7   15.00    6.90
   2  -3  -7  122.59   13.30
   2  -3  -7  126.29   13.40
   2  -3  -7  131.89   16.40
   2  -3  -7  121.19   13.40
   2  -3  -7  102.59   13.30
   2  -3  -7  146.79   12.10
   2  -3  -7  139.69   13.50
  -2   3   7  142.99   14.40
  -2   3   7  142.49   13.70
  -2   3   7  114.79   13.40
  -2   3   7   97.09   13.10
  -2   3   7  127.79   11.60
  -2   3   7  142.79   14.20
  -2   3   7  124.09   17.80
   1  -3  -7  183.58   20.40
   1  -3  -7  195.48   18.20
   1  -3  -7  190.78   18.50
   1  -3  -7  161.28   18.00
   1  -3  -7  185.28   18.40
  -1   3   7  197.58   18.70
  -1   3   7  186.78   18.30
  -1   3   7  194.38   18.40
  -1   3   7  175.58   18.00
  -1   3   7  207.98   18.60
  -1   3   7  208.38   18.80
   0  -3  -7   -1.00    2.80
   0  -3  -7    1.20    5.80
   0  -3  -7    7.80    4.00
   0  -3  -7    0.50    2.40
   0  -3  -7   -3.60    3.20
   0  -3  -7    0.50    3.20
   0  -3  -7    1.40    3.80
   0  -3  -7    0.30    2.40
   0   3   7    0.90    3.00
   0   3   7    3.40    3.30
   0   3   7   -1.40    3.20
   0   3   7    0.10    2.70
   0   3   7    0.00    3.30
   0   3   7    1.20    2.80
  -1  -3  -7   38.50    7.80
  -1  -3  -7   25.40    5.30
  -1  -3  -7   18.90    6.40
  -1  -3  -7   24.50    6.40
  -1  -3  -7   14.20    4.20
  -1  -3  -7   12.10    4.50
   1   3   7   23.00    4.90
   1   3   7   28.70    6.80
   1   3   7   23.80   10.50
   1   3   7   18.10    6.20
   1   3   7   21.30    6.30
   1   3   7   24.50    7.30
  -2  -3  -7   31.70    7.60
  -2  -3  -7   36.90    6.70
  -2  -3  -7   35.80    7.90
  -2  -3  -7   38.90    9.40
  -2  -3  -7   31.20    7.50
  -2  -3  -7   39.70    7.60
  -2  -3  -7   35.50    7.90
   2   3   7   33.30    6.30
   2   3   7   24.30    7.30
   2   3   7   29.10    7.50
   2   3   7   22.20    7.40
   2   3   7   30.00    7.40
   2   3   7   48.90    9.90
  -3  -3  -7   11.20    6.20
  -3  -3  -7    2.20    4.40
  -3  -3  -7   -1.80    5.80
  -3  -3  -7    4.10    3.40
  -3  -3  -7   -4.70    4.00
  -3  -3  -7   10.80    5.40
  -3  -3  -7    7.50    5.30
   3   3   7    4.40    4.10
   3   3   7   -1.70    2.60
   3   3   7   -6.30    4.80
   3   3   7    3.50    5.10
   3   3   7    5.90    5.80
  -4  -3  -7   -5.00    4.30
  -4  -3  -7    4.30    3.90
  -4  -3  -7   -0.90    5.50
  -4  -3  -7    3.60    9.70
  -4  -3  -7    4.00    5.80
  -4  -3  -7    6.50    8.40
   4   3   7    6.80    7.30
   4   3   7    3.60    5.70
  -5  -3  -7   28.50   10.30
  -5  -3  -7    7.80    6.70
  -5  -3  -7   48.50   15.60
  -5  -3  -7   63.59   22.30
  -5  -3  -7   23.40    8.00
   5   3   7   38.80   10.20
   5   3   7    3.80    8.00
   6  -4  -7   35.90   14.50
  -6   4   7   28.20    8.50
  -6   4   7   49.50    7.70
  -6   4   7   56.59   11.00
  -6   4   7   52.99    8.30
   5  -4  -7    1.90    5.30
   5  -4  -7   -1.30    3.60
   5  -4  -7    5.60    4.60
   5  -4  -7   -4.30    3.60
   5  -4  -7   -3.50    7.10
  -5   4   7    8.00    4.40
  -5   4   7   -1.60    4.20
  -5   4   7    4.30    4.60
  -5   4   7    3.80    4.30
  -5   4   7   -2.40    4.00
   4  -4  -7    2.50    2.40
   4  -4  -7    6.80    3.80
   4  -4  -7   16.30    4.50
   4  -4  -7    9.50    7.80
   4  -4  -7    9.10    4.00
  -4   4   7    5.30    4.50
  -4   4   7    7.20    4.20
  -4   4   7    0.20    3.70
  -4   4   7    7.40    4.40
  -4   4   7    8.70    4.90
  -4   4   7   11.50    6.10
   3  -4  -7  767.92   65.19
   3  -4  -7  752.42   65.29
   3  -4  -7  728.23   66.49
   3  -4  -7  981.20   65.59
   3  -4  -7  785.22   69.99
  -3   4   7  809.12   66.89
  -3   4   7  767.02   65.39
  -3   4   7  979.80   66.49
  -3   4   7  834.42   65.69
   2  -4  -7   20.80    6.50
   2  -4  -7    8.50    3.60
   2  -4  -7   25.80    6.20
   2  -4  -7    3.10    5.60
   2  -4  -7   19.00    5.30
   2  -4  -7   21.50    5.20
   2  -4  -7   15.70    5.30
  -2   4   7   26.20    7.00
  -2   4   7    6.50    4.20
  -2   4   7   19.80    5.10
  -2   4   7   10.20    4.70
  -2   4   7   27.90    9.80
  -2   4   7   19.10    5.20
   1  -4  -7   65.99   10.20
   1  -4  -7   53.09    9.80
   1  -4  -7   54.99    9.70
   1  -4  -7   59.69    7.80
   1  -4  -7   60.59   13.50
   1  -4  -7   57.09   10.20
   1  -4  -7   58.89    9.40
  -1   4   7   69.29    9.30
  -1   4   7   77.19   11.70
  -1   4   7   61.19   10.10
  -1   4   7   85.49   12.30
  -1   4   7   55.49    9.60
  -1   4   7   79.89   11.40
   0  -4  -7   30.50    7.10
   0  -4  -7   33.10    7.00
   0  -4  -7   22.10    7.20
   0  -4  -7   34.30    5.70
   0  -4  -7   23.50    6.90
   0  -4  -7   30.90    7.60
   0  -4  -7   20.80    8.30
   0   4   7   21.70    6.80
   0   4   7   14.40    5.30
   0   4   7   20.40    4.80
   0   4   7   17.60    5.60
   0   4   7   33.20    6.80
   0   4   7   27.50    9.50
  -1  -4  -7   22.60    5.20
  -1  -4  -7   33.20    6.60
  -1  -4  -7   30.90    7.80
  -1  -4  -7   23.30    6.20
  -1  -4  -7   22.00    7.10
  -1  -4  -7   30.60    9.40
  -1  -4  -7   27.40    7.30
  -1  -4  -7   27.70    6.90
   1   4   7   23.60    6.20
   1   4   7   23.80    6.80
   1   4   7   27.50    5.50
   1   4   7   32.50    7.90
   1   4   7   39.70    8.40
   1   4   7   27.80    7.40
  -2  -4  -7   -0.70    6.10
  -2  -4  -7   -6.30    6.70
  -2  -4  -7    0.50    3.60
  -2  -4  -7   -3.70    3.50
  -2  -4  -7    5.80    4.40
  -2  -4  -7   -0.20    4.30
   2   4   7    9.00    4.20
   2   4   7    5.20    5.00
   2   4   7    1.20    5.60
   2   4   7    6.00    5.30
   2   4   7   11.50    5.20
  -3  -4  -7   10.20    6.70
  -3  -4  -7    4.80    4.00
  -3  -4  -7   10.10    4.80
  -3  -4  -7   10.10    8.10
  -3  -4  -7    1.50    4.70
  -3  -4  -7    3.00    5.30
  -3  -4  -7    3.40    7.80
   3   4   7   23.50    8.20
   3   4   7    4.10    6.00
   3   4   7    1.50    6.80
   3   4   7    3.80    3.30
   3   4   7   13.10    6.50
   3   4   7    5.70    7.60
  -4  -4  -7   22.60    7.40
  -4  -4  -7   23.00    8.60
  -4  -4  -7   30.50   10.90
  -4  -4  -7   32.80   10.40
  -4  -4  -7   27.50    6.30
  -4  -4  -7   13.30    7.30
   4   4   7    7.90    6.70
   4   4   7   25.50    9.00
   6  -5  -7   21.70   11.00
   6  -5  -7   13.90    6.30
  -6   5   7   10.40    7.00
  -6   5   7   18.80    6.20
  -6   5   7   22.30    7.30
  -6   5   7   10.60    5.90
  -6   5   7   15.50    7.00
   5  -5  -7   -1.30    4.70
   5  -5  -7   14.00    8.90
   5  -5  -7   -3.70    4.20
  -5   5   7    6.80    4.80
  -5   5   7    6.00    5.10
  -5   5   7  -13.40    4.90
  -5   5   7    1.80    5.40
   4  -5  -7    8.30    8.20
   4  -5  -7    6.80    6.60
   4  -5  -7    7.20    5.20
   4  -5  -7    7.60    2.60
   4  -5  -7    7.90    7.10
   4  -5  -7    1.50    6.30
  -4   5   7   11.00    4.70
  -4   5   7   10.90    5.20
  -4   5   7   10.10    6.80
  -4   5   7    1.40    5.00
  -4   5   7    3.50    4.50
  -4   5   7   15.20    6.10
   3  -5  -7   19.80    5.40
   3  -5  -7    9.10    4.80
   3  -5  -7    3.20    2.90
   3  -5  -7   13.50    6.30
   3  -5  -7   11.40    7.00
   3  -5  -7   -1.40    4.40
  -3   5   7    3.90    3.50
  -3   5   7   15.60    5.90
  -3   5   7   10.00    5.10
  -3   5   7   -3.70    8.10
  -3   5   7    9.20    4.70
   2  -5  -7  120.29   14.80
   2  -5  -7  125.99   15.10
   2  -5  -7  134.39   16.10
   2  -5  -7  122.49   17.90
   2  -5  -7  142.99   15.60
   2  -5  -7  143.29   14.80
  -2   5   7  124.79   14.80
  -2   5   7  132.69   15.70
  -2   5   7  149.09   15.50
  -2   5   7  160.88   15.40
  -2   5   7  129.39   15.40
  -2   5   7  128.39   14.70
   1  -5  -7   19.10    6.00
   1  -5  -7   20.20    6.40
   1  -5  -7   21.30    4.70
   1  -5  -7   20.70    6.80
   1  -5  -7   25.50    7.80
   1  -5  -7   17.70    6.40
   1  -5  -7   13.50    7.20
  -1   5   7   16.20    5.90
  -1   5   7   21.90    6.80
  -1   5   7    8.60    5.60
  -1   5   7   17.70    6.40
  -1   5   7   26.00    7.60
  -1   5   7   25.30    6.30
   0  -5  -7   10.80    5.40
   0  -5  -7    4.50    3.70
   0  -5  -7    8.40    6.10
   0  -5  -7    2.00    5.40
   0  -5  -7   17.60    6.20
   0  -5  -7    6.90    5.50
   0  -5  -7   10.20    5.50
   0   5   7   18.20    5.70
   0   5   7    9.10    5.10
   0   5   7    9.10    5.00
   0   5   7    3.50    4.40
   0   5   7    5.90    6.00
  -1  -5  -7   26.30    5.60
  -1  -5  -7   14.90    6.30
  -1  -5  -7    3.60    7.30
  -1  -5  -7   32.10    9.00
  -1  -5  -7   16.20    8.60
  -1  -5  -7   20.70    5.30
  -1  -5  -7   20.60    6.00
  -1  -5  -7   34.80    7.90
   1   5   7   35.70    8.20
   1   5   7   22.80    7.30
   1   5   7   23.90    7.40
   1   5   7   32.70    7.20
   1   5   7   25.60    7.80
  -2  -5  -7    7.00    8.80
  -2  -5  -7   27.10    7.90
  -2  -5  -7   20.90    6.30
  -2  -5  -7   20.60    6.10
  -2  -5  -7   32.30    9.70
  -2  -5  -7   29.10    6.40
  -2  -5  -7   15.50    8.30
   2   5   7   28.70    9.30
   2   5   7   40.50    8.10
   2   5   7   13.50    6.80
   2   5   7   35.90    9.60
  -3  -5  -7   -2.10    5.50
  -3  -5  -7   -5.90   11.80
  -3  -5  -7    4.20    5.20
  -3  -5  -7    4.50    6.60
  -3  -5  -7   -9.00    8.30
  -3  -5  -7    3.80    4.80
   3   5   7    0.70    3.90
   3   5   7   13.70    7.40
   3   5   7   10.60    7.20
   3   5   7   14.90    9.10
  -4  -5  -7   -0.20    7.40
  -4  -5  -7   11.50    5.40
  -4  -5  -7    1.30    6.80
  -4  -5  -7   -2.30    8.90
  -4  -5  -7    4.70   11.30
  -4  -5  -7   35.70   12.10
   4   5   7    7.00    9.30
   4   5   7   21.70    8.80
   5  -6  -7    8.30    7.20
   5  -6  -7   19.70    7.30
   5  -6  -7   13.20    9.30
  -5   6   7   10.20    7.40
  -5   6   7   20.30    8.50
  -5   6   7    1.60    6.60
  -5   6   7   15.10    6.40
   4  -6  -7  210.08   17.70
   4  -6  -7  244.78   21.80
   4  -6  -7  250.87   21.90
   4  -6  -7  177.98   25.80
  -4   6   7  204.88   22.10
  -4   6   7  258.57   22.60
  -4   6   7  197.68   21.50
  -4   6   7  235.08   22.40
  -4   6   7  208.28   22.70
   3  -6  -7   -0.30    4.20
   3  -6  -7    3.70    6.10
   3  -6  -7    8.30    5.10
   3  -6  -7    4.70    3.40
   3  -6  -7   -0.10    6.70
   3  -6  -7    3.80    6.90
   3  -6  -7   11.90    9.00
  -3   6   7    3.20    5.70
  -3   6   7   11.70    5.30
  -3   6   7    8.00    4.50
  -3   6   7   15.30    6.30
  -3   6   7   18.60    7.10
  -3   6   7    8.70    6.00
   2  -6  -7   10.30    6.70
   2  -6  -7    9.00    4.20
   2  -6  -7   22.50    6.80
   2  -6  -7    7.00    4.70
   2  -6  -7   12.00    6.40
   2  -6  -7   10.80    5.70
   2  -6  -7   12.70    8.90
  -2   6   7    6.20    5.40
  -2   6   7   10.40    6.80
  -2   6   7   17.10    6.30
  -2   6   7   15.70    6.10
  -2   6   7   16.70    5.60
  -2   6   7    7.90    6.30
   1  -6  -7    2.60    6.60
   1  -6  -7   14.30    7.20
   1  -6  -7   14.90    6.60
   1  -6  -7    8.40    3.80
   1  -6  -7   14.60    5.70
  -1   6   7    1.80    5.70
  -1   6   7    7.40    3.60
  -1   6   7   16.60    6.70
  -1   6   7   -1.00    5.90
  -1   6   7   -0.20    6.50
  -1   6   7   10.70    6.30
   0  -6  -7   18.00    7.10
   0  -6  -7   13.60    9.20
   0  -6  -7   10.30    6.20
   0  -6  -7    5.80    5.30
   0  -6  -7   24.30    5.70
   0  -6  -7    5.50    7.10
   0  -6  -7    3.00    7.50
   0   6   7   13.40    8.10
   0   6   7   26.50    7.10
   0   6   7   20.40    5.90
   0   6   7    9.90    5.90
   0   6   7    0.20    6.10
   0   6   7   24.00    7.80
  -1  -6  -7   68.09   10.70
  -1  -6  -7   93.89   14.10
  -1  -6  -7   75.59   13.40
  -1  -6  -7   28.70   11.50
  -1  -6  -7   59.79   10.10
  -1  -6  -7  101.29   14.70
   1   6   7   50.19   10.80
   1   6   7   66.39    9.90
   1   6   7   78.69   14.50
   1   6   7   85.39   13.30
   1   6   7   56.99   12.20
  -2  -6  -7   14.50    9.40
  -2  -6  -7   14.60   11.60
  -2  -6  -7   22.60    8.60
  -2  -6  -7   29.20   11.10
  -2  -6  -7   14.00    8.40
  -2  -6  -7    6.50    5.70
  -2  -6  -7    8.10    6.50
   2   6   7   26.70    9.30
   2   6   7   16.40   10.20
   2   6   7   29.40   10.90
   2   6   7   11.90    8.10
   2   6   7    5.50    4.70
  -3  -6  -7    1.90    6.90
  -3  -6  -7    7.60    7.60
  -3  -6  -7    7.70   10.70
  -3  -6  -7   13.20    7.30
  -3  -6  -7   -2.60   11.00
  -3  -6  -7   -8.60    7.90
   3   6   7    1.80    7.70
   3   6   7   -9.50    8.70
   3   6   7    5.10    4.70
   4  -7  -7  290.97   35.80
   4  -7  -7  364.66   26.60
  -4   7   7  331.07   32.50
   3  -7  -7   -6.40   10.50
   3  -7  -7    6.30    7.40
   3  -7  -7    4.60    3.60
   3  -7  -7    7.40    6.60
  -3   7   7   13.00    7.00
  -3   7   7    6.30    5.80
  -3   7   7    9.50    7.80
  -3   7   7    3.40    6.70
  -3   7   7   12.50    6.40
   2  -7  -7   -7.20   11.10
   2  -7  -7   -1.70    4.10
   2  -7  -7   -7.40    7.50
   2  -7  -7   -1.70    7.00
   2  -7  -7   16.40    6.80
  -2   7   7    9.50    6.80
  -2   7   7    2.80    6.70
  -2   7   7   11.00    6.40
  -2   7   7   -0.20    7.10
  -2   7   7    3.30    4.40
   1  -7  -7   43.90    9.40
   1  -7  -7   32.60   12.60
   1  -7  -7   46.20   10.60
   1  -7  -7   37.70    7.20
   1  -7  -7   40.90    9.50
   1  -7  -7   36.30   10.60
  -1   7   7   56.39    9.50
  -1   7   7   49.90   11.10
  -1   7   7   68.29   12.00
  -1   7   7   75.79   13.20
  -1   7   7   43.80   11.70
   0  -7  -7   -1.60    5.50
   0  -7  -7  -10.90    6.00
   0  -7  -7   -4.40    4.70
   0  -7  -7    9.20    8.50
   0  -7  -7    1.50    5.00
   0  -7  -7    4.20    8.50
   0   7   7    1.50    4.60
   0   7   7    0.60    7.40
   0   7   7    6.00    7.80
   0   7   7   -4.20    6.50
   0   7   7   -5.60    7.50
  -1  -7  -7   -6.10    5.70
  -1  -7  -7  -12.10   10.10
  -1  -7  -7  -12.60    6.30
  -1  -7  -7   -9.00    6.30
  -1  -7  -7   -1.40    6.90
  -1  -7  -7    0.70    9.90
  -1  -7  -7   -2.00    5.10
   1   7   7    0.60    4.50
   1   7   7   -0.10    8.40
   1   7   7   -2.00    8.70
   1   7   7  -18.20    9.20
   1   7   7  -13.70    6.20
  -2  -7  -7    4.40    9.20
  -2  -7  -7   20.00   12.90
  -2  -7  -7    6.20    7.50
  -2  -7  -7   -7.80    6.00
  -2  -7  -7   -6.10    5.40
   2   7   7   -2.40    8.70
   2   7   7    6.50    8.60
   2   7   7    7.40    5.40
   3  -8  -7   42.10   10.50
   3  -8  -7   53.59   10.80
   3  -8  -7   45.50    9.60
   3  -8  -7   26.00    9.40
  -3   8   7   68.69   13.50
  -3   8   7   58.29   13.00
  -3   8   7   64.89   14.80
   2  -8  -7   -2.40    4.50
   2  -8  -7   -3.10    7.20
   2  -8  -7   -2.30    8.90
   2  -8  -7    0.60    8.10
  -2   8   7   13.30   11.00
  -2   8   7   -0.40    5.60
  -2   8   7    3.70    9.40
  -2   8   7    2.80    6.90
  -2   8   7   -0.40    7.40
   1  -8  -7    2.30    7.30
   1  -8  -7    3.60    8.20
   1  -8  -7   -3.10    5.00
   1  -8  -7   -0.80    6.70
  -1   8   7   -1.60    5.50
  -1   8   7    3.70    9.50
  -1   8   7   11.50    7.20
  -1   8   7    3.80    8.10
  -1   8   7   -3.50    8.90
   0  -8  -7   15.20    9.70
   0  -8  -7   13.90   10.90
   0  -8  -7    8.90   12.60
   0  -8  -7   23.40    7.70
   0  -8  -7   31.20    8.70
   0   8   7   28.10   10.60
   0   8   7   24.80   12.30
   0   8   7   28.70   10.00
   0   8   7   29.80   11.60
   0   8   7   32.60    9.10
  -1  -8  -7   45.60   13.90
  -1  -8  -7   59.39   12.30
  -1  -8  -7   30.80   11.00
  -1  -8  -7   19.10   20.10
   1   8   7   49.00   12.30
   1   8   7   36.50    8.90
   1   8   7   44.40   11.50
   1   8   7   40.90   15.20
   1  -9  -7   -2.70    8.80
   1  -9  -7  -15.20    9.50
   1  -9  -7   -8.20    9.70
   1  -9  -7   -1.10    6.50
  -1   9   7    6.70   12.80
  -1   9   7   26.90   10.20
  -1   9   7   -0.90    5.30
  -2 -13   8   -7.80    6.00
  -2 -13   8  -21.90   13.40
  -2 -13   8    7.20    7.40
  -2 -13   8    5.30    5.50
  -2 -13   8   13.10   11.80
   1  13  -8   65.09    8.70
  -1 -13   8   61.39   13.80
  -1 -13   8   58.49   10.60
  -1 -13   8   56.19   14.60
   0  13  -8   -1.80    5.60
   0 -13   8   24.00   12.20
   0 -13   8   11.60    6.70
   0 -13   8   -0.50    6.20
   0 -13   8   -2.80    4.60
   0 -13   8  -10.00    9.70
  -1  13  -8    3.40    6.20
   1 -13   8   -1.70    6.70
   1 -13   8   -2.80    3.90
   1 -13   8   14.10   11.90
   1 -13   8   -1.90    6.40
   1 -13   8  -11.40   10.20
  -2  13  -8    1.20    8.20
  -2  13  -8   27.30   11.60
  -2  13  -8    9.10    5.90
   2 -13   8   14.20    7.90
   2 -13   8   10.80    7.20
   2 -13   8    9.00    4.70
   2 -13   8  -14.00   14.00
   3  12  -8   28.10    7.90
   3  12  -8   12.70    8.50
  -3 -12   8   25.40   10.10
  -3 -12   8   21.10   10.10
  -3 -12   8   32.50    6.40
  -3 -12   8    8.00    5.90
  -2 -12   8   -3.40    4.50
  -2 -12   8    0.10    5.00
  -2 -12   8   -1.40    5.00
  -2 -12   8  -19.50    7.20
  -2 -12   8   -3.50    8.20
   1  12  -8  248.18   22.00
  -1 -12   8  269.97   27.90
  -1 -12   8  333.37   28.20
  -1 -12   8  289.07   24.40
  -1 -12   8  263.07   25.70
   0  12  -8   18.70    8.10
   0  12  -8   -3.00    4.30
   0 -12   8   -3.50    7.90
   0 -12   8   11.60    4.70
   0 -12   8    5.20    6.00
   0 -12   8    9.20    5.20
   0 -12   8   10.50    9.90
  -1  12  -8   -1.00    3.50
  -1  12  -8    0.00    6.60
  -1  12  -8    2.10    7.30
  -1  12  -8   12.50   10.10
   1 -12   8   10.70    8.60
   1 -12   8  -14.40    8.90
   1 -12   8   -3.70    5.30
   1 -12   8   -5.00    8.00
   1 -12   8   -1.70    5.00
   1 -12   8    3.00    3.80
  -2  12  -8  109.99   16.40
  -2  12  -8   89.99   14.90
  -2  12  -8  119.19   15.20
  -2  12  -8   97.19   13.50
  -2  12  -8  118.09   16.70
   2 -12   8  143.09   18.60
   2 -12   8   93.79   17.60
   2 -12   8  102.79   14.30
   2 -12   8   84.29   10.70
   2 -12   8   89.89   14.50
   2 -12   8   60.89   12.20
  -3  12  -8    2.70    5.60
  -3  12  -8    2.60    6.70
  -3  12  -8  -12.70    6.70
  -3  12  -8    9.40    9.60
   3 -12   8   13.00    7.20
   3 -12   8   -5.60    7.30
   3 -12   8    3.10    7.00
   4  11  -8   13.40    6.70
   4  11  -8   18.00    7.70
   4  11  -8  -14.40   12.50
  -4 -11   8    0.20    4.70
  -4 -11   8   14.00    9.00
  -4 -11   8   18.00    8.90
  -4 -11   8    5.10    5.10
  -4 -11   8    9.50    5.00
   3  11  -8   17.80    7.00
   3  11  -8   15.80    6.80
  -3 -11   8    3.60    4.90
  -3 -11   8    9.00    4.90
  -3 -11   8    2.50    7.00
  -3 -11   8   19.80    7.70
  -3 -11   8   27.60    5.20
   2  11  -8   20.50    6.60
  -2 -11   8    3.00    7.10
  -2 -11   8    8.80    4.60
  -2 -11   8    6.60    5.00
  -2 -11   8   14.20    7.00
  -2 -11   8   14.00    4.80
   1  11  -8   35.90    7.60
   1  11  -8   35.60    8.20
   1  11  -8   39.90    4.20
   1  11  -8   35.70    5.40
  -1 -11   8   28.80    6.40
  -1 -11   8   32.00    6.60
  -1 -11   8   30.00    7.20
  -1 -11   8   30.90    8.20
  -1 -11   8   33.50    9.40
   0  11  -8   19.10    5.70
   0  11  -8   12.10    6.80
   0  11  -8   20.20    4.40
   0  11  -8   22.60    3.80
   0 -11   8    4.50    6.70
   0 -11   8   11.80    5.30
   0 -11   8   21.50    5.50
   0 -11   8   12.70    4.70
   0 -11   8   13.20    7.10
   0 -11   8   14.80    7.80
  -1  11  -8    0.50    5.50
  -1  11  -8    2.70    5.70
  -1  11  -8    0.80    3.10
   1 -11   8    6.40    7.50
   1 -11   8   13.20    6.20
   1 -11   8    3.40    3.50
   1 -11   8    3.00    3.80
   1 -11   8    5.90    7.90
   1 -11   8    0.90    5.90
  -2  11  -8   10.80    7.50
  -2  11  -8   20.70    7.00
  -2  11  -8   15.10    4.70
  -2  11  -8   23.10    8.70
  -2  11  -8   17.10    7.10
   2 -11   8   11.20    6.10
   2 -11   8   10.10    9.80
   2 -11   8   10.50    7.00
   2 -11   8   17.30    5.90
   2 -11   8    7.10   12.40
   2 -11   8   19.30    7.90
  -3  11  -8  -10.60    7.10
  -3  11  -8    3.80    6.60
  -3  11  -8   -2.20    5.90
  -3  11  -8    7.60    8.30
  -3  11  -8   -9.80    4.10
   3 -11   8   10.30    4.30
   3 -11   8   -5.80    5.90
   3 -11   8    0.40    6.50
  -4  11  -8    2.70    6.90
  -4  11  -8   -1.00    6.40
  -4  11  -8    6.00    6.60
  -4  11  -8    2.80    8.60
  -4  11  -8  -19.00    9.70
   4 -11   8  -12.80    7.30
   4 -11   8   -4.70    4.00
   4 -11   8   -6.60    7.00
   4 -11   8   -2.90    7.40
   4  10  -8    6.40    5.70
   4  10  -8    2.00    5.80
   4  10  -8   -0.70    5.50
  -4 -10   8    3.30    4.10
  -4 -10   8    3.10    4.60
  -4 -10   8    8.10    6.80
  -4 -10   8    4.90    4.60
  -4 -10   8    1.30    6.10
   3  10  -8   69.89   14.80
   3  10  -8   65.59   11.50
  -3 -10   8   61.89    9.20
  -3 -10   8   68.19    9.60
  -3 -10   8   52.49    9.70
  -3 -10   8   70.69   10.00
  -3 -10   8   71.79    8.80
   2  10  -8   94.09   12.20
   2  10  -8   92.99   12.00
   2  10  -8   96.49   12.20
   2  10  -8  105.39   12.20
  -2 -10   8   57.79   11.30
  -2 -10   8   93.79   10.40
  -2 -10   8   99.99   12.30
  -2 -10   8   87.19   11.20
  -2 -10   8   83.69   10.80
   1  10  -8    8.50    5.10
   1  10  -8   11.40    5.70
  -1 -10   8   11.10    4.40
  -1 -10   8    3.10    5.30
  -1 -10   8   13.10    4.40
  -1 -10   8   15.30    4.50
  -1 -10   8   17.20    6.00
   0  10  -8   17.70    6.10
   0  10  -8   24.70    5.90
   0  10  -8   23.00    6.30
   0  10  -8   17.00    5.80
   0 -10   8   22.50    5.00
   0 -10   8   26.70    9.90
   0 -10   8   16.00    5.20
   0 -10   8   28.60    7.60
  -1  10  -8   39.60    7.80
  -1  10  -8   39.50    8.10
  -1  10  -8   69.19   10.80
  -1  10  -8   52.89    9.10
  -1  10  -8   46.30    6.70
   1 -10   8   51.99    9.30
   1 -10   8   69.69   11.10
   1 -10   8   56.39    7.20
   1 -10   8   46.40    9.80
   1 -10   8   46.30    8.60
   1 -10   8   41.20    7.60
   1 -10   8   52.39   13.50
  -2  10  -8   12.50    5.20
  -2  10  -8    9.30    4.00
  -2  10  -8   18.90    7.40
  -2  10  -8   16.60    4.80
  -2  10  -8   11.60    6.50
   2 -10   8   26.80    7.30
   2 -10   8    7.80    5.00
   2 -10   8   19.70    8.10
   2 -10   8    8.30    6.80
   2 -10   8   11.50    4.00
   2 -10   8   10.50    6.00
  -3  10  -8   25.60    5.50
  -3  10  -8   12.80    7.90
  -3  10  -8   12.60    6.40
  -3  10  -8    4.70    5.70
  -3  10  -8   27.80    8.30
  -3  10  -8   14.10    5.10
   3 -10   8   15.30    5.40
   3 -10   8    9.60    8.30
   3 -10   8    7.90    5.90
   3 -10   8   14.00    6.10
   3 -10   8   13.70    3.90
  -4  10  -8   13.30    6.40
  -4  10  -8    4.00    6.30
  -4  10  -8   11.30    8.30
  -4  10  -8    3.70    6.90
  -4  10  -8   16.30    5.60
  -4  10  -8   10.10    7.50
   4 -10   8    2.80    5.60
   4 -10   8    8.20    7.40
   4 -10   8    6.40    4.00
   4 -10   8   12.40    7.00
   5   9  -8   20.10    5.40
   5   9  -8   45.60   10.10
  -5  -9   8   24.10    6.40
  -5  -9   8   19.90    7.20
  -5  -9   8   22.20    5.00
  -5  -9   8   21.50    6.40
   4   9  -8   -2.90    4.80
   4   9  -8    5.70    5.10
   4   9  -8   -0.40    4.00
   4   9  -8   -0.40    4.30
  -4  -9   8   -0.80    3.20
  -4  -9   8  -12.20    5.10
  -4  -9   8    4.40    4.20
  -4  -9   8  -10.20    4.70
  -4  -9   8   -0.30    3.10
   3   9  -8    6.30    4.60
   3   9  -8    3.20    4.30
   3   9  -8    8.50    5.50
   3   9  -8    4.20    5.70
  -3  -9   8    9.30    6.40
  -3  -9   8   19.00    4.70
  -3  -9   8    8.30    3.70
  -3  -9   8    5.40    5.30
  -3  -9   8    2.30    3.30
   2   9  -8   33.60    6.70
   2   9  -8   51.19   10.60
   2   9  -8   29.30    6.90
   2   9  -8   31.30    6.50
  -2  -9   8   26.00    5.80
  -2  -9   8   23.20    5.50
  -2  -9   8   36.70    5.90
  -2  -9   8   22.80    6.30
  -2  -9   8   33.40    7.00
   1   9  -8    0.00    3.10
   1   9  -8    1.00    4.00
   1   9  -8   -3.50    3.50
   1   9  -8   -6.50    3.60
  -1  -9   8   -1.80    2.60
  -1  -9   8    4.50    5.10
  -1  -9   8    2.30    4.30
  -1  -9   8   -4.80    2.60
   0   9  -8   10.00    5.10
   0   9  -8   18.10    3.10
   0   9  -8   17.60    5.50
   0   9  -8   17.30    6.10
   0   9  -8   20.20    5.60
   0  -9   8   18.10    8.20
   0  -9   8   21.80    5.80
   0  -9   8   20.50    6.50
   0  -9   8   21.30    4.80
   0  -9   8   27.10    6.20
  -1   9  -8   96.19   12.80
  -1   9  -8   92.89   12.90
  -1   9  -8  118.09   13.00
  -1   9  -8   93.69   10.20
  -1   9  -8  130.69   13.40
  -1   9  -8  109.49   10.80
   1  -9   8   89.99   12.00
   1  -9   8  107.79   10.70
   1  -9   8  113.89   14.30
   1  -9   8   99.39   12.20
   1  -9   8  124.99   13.70
   1  -9   8   87.99   11.40
  -2   9  -8    8.50    3.70
  -2   9  -8    3.10    5.60
  -2   9  -8    7.10    5.20
  -2   9  -8   14.20    4.20
  -2   9  -8   13.70    5.40
  -2   9  -8    1.80    4.40
   2  -9   8    1.60    4.10
   2  -9   8    8.30    6.20
   2  -9   8   -0.20    6.50
   2  -9   8    9.40    4.90
   2  -9   8    7.20    4.20
   2  -9   8    7.50    4.70
   2  -9   8   11.90    3.70
  -3   9  -8   30.40    5.60
  -3   9  -8   14.60    5.80
  -3   9  -8   15.20    6.70
  -3   9  -8   11.50    6.40
  -3   9  -8   19.70    7.40
  -3   9  -8   18.20   10.60
   3  -9   8   15.40    7.80
   3  -9   8   14.50    4.10
   3  -9   8   17.90    5.20
   3  -9   8   25.10    6.90
   3  -9   8   15.50    5.90
  -4   9  -8  124.39   16.50
  -4   9  -8  123.19   16.00
  -4   9  -8  163.68   18.00
  -4   9  -8  139.09   15.20
  -4   9  -8  145.99   13.30
   4  -9   8  106.59   13.40
   4  -9   8  114.89   16.30
   4  -9   8  133.49   13.30
   4  -9   8  138.29   20.10
  -5   9  -8    4.60    5.50
  -5   9  -8   -5.40    8.80
  -5   9  -8   -9.00    8.00
  -5   9  -8    2.70   10.20
  -5   9  -8    2.00    6.50
  -5   9  -8   -0.90   10.50
   5  -9   8    3.80    7.70
   5  -9   8    5.20    8.10
   5  -9   8   -0.60    4.60
   5   8  -8    4.20    5.10
  -5  -8   8    4.00    7.60
  -5  -8   8    6.90    4.40
  -5  -8   8    2.00    4.20
  -5  -8   8   10.00    3.60
  -5  -8   8    6.60    3.40
   4   8  -8   21.00    4.70
   4   8  -8   24.20    5.80
   4   8  -8   21.10    4.70
   4   8  -8   28.30    4.90
   4   8  -8   19.60    7.40
  -4  -8   8   23.20    4.90
  -4  -8   8   22.90    5.60
  -4  -8   8   21.70    4.40
  -4  -8   8   22.20    5.60
  -4  -8   8   18.20    4.10
   3   8  -8   28.50    5.50
   3   8  -8   22.20    5.60
   3   8  -8   26.20    5.60
   3   8  -8   35.70    5.90
  -3  -8   8   33.10    6.90
  -3  -8   8   23.90    4.90
  -3  -8   8   23.20    4.90
  -3  -8   8   30.30    5.30
  -3  -8   8   19.80    5.50
   2   8  -8   -0.70    3.20
   2   8  -8    9.70    5.30
   2   8  -8    4.80    3.30
   2   8  -8    8.90    3.70
  -2  -8   8    4.30    3.30
  -2  -8   8    2.50    4.40
  -2  -8   8   -0.10    3.90
  -2  -8   8    4.70    3.00
  -2  -8   8    4.30    3.20
   1   8  -8   -0.50    3.00
   1   8  -8    2.80    3.80
   1   8  -8   -1.50    3.40
   1   8  -8   -3.80    2.70
  -1  -8   8   -1.10    2.40
  -1  -8   8   11.30    4.40
  -1  -8   8    1.50    2.90
  -1  -8   8    4.90    4.30
  -1  -8   8    2.30    2.80
   0   8  -8    2.70    3.30
   0   8  -8    3.90    4.10
   0   8  -8    3.50    1.80
   0   8  -8    7.60    3.90
   0   8  -8   -1.40    3.40
   0   8  -8    6.10    3.00
   0  -8   8    8.60    4.60
   0  -8   8   -0.40    4.10
   0  -8   8    4.30    3.70
   0  -8   8    5.00    3.00
   0  -8   8    1.20    3.30
  -1   8  -8   -3.90    2.00
  -1   8  -8   -1.00    2.40
  -1   8  -8    5.90    3.70
  -1   8  -8    0.00    3.60
  -1   8  -8   -1.40    3.40
  -1   8  -8   -5.30    3.20
   1  -8   8    1.30    3.90
   1  -8   8   -2.90    4.40
   1  -8   8    5.80    4.80
   1  -8   8    1.10    3.20
   1  -8   8    4.10    2.70
   1  -8   8    2.20    3.60
  -2   8  -8   12.60    5.10
  -2   8  -8   13.70    6.20
  -2   8  -8    8.80    4.80
  -2   8  -8    8.40    3.70
  -2   8  -8   11.90    3.50
  -2   8  -8    6.40    4.80
   2  -8   8    6.30    4.10
   2  -8   8   12.20    8.90
   2  -8   8   13.80    3.70
   2  -8   8   12.00    5.10
   2  -8   8   10.20    5.00
   2  -8   8   14.80    6.00
  -3   8  -8   14.10    6.40
  -3   8  -8   38.70    6.00
  -3   8  -8   20.20    6.80
  -3   8  -8   23.20    5.70
  -3   8  -8   22.60    5.20
  -3   8  -8   24.20   12.50
   3  -8   8   21.60    6.00
   3  -8   8   19.50    5.90
   3  -8   8    8.70    6.20
   3  -8   8   25.70    5.20
   3  -8   8   21.90    6.40
   3  -8   8   23.50    5.50
   3  -8   8   12.90    4.40
  -4   8  -8   91.29   13.40
  -4   8  -8   61.49   10.70
  -4   8  -8   73.89   12.10
  -4   8  -8   62.99   10.40
  -4   8  -8   87.29   10.60
  -4   8  -8   74.79    9.00
   4  -8   8   44.90    9.90
   4  -8   8   75.99    8.80
   4  -8   8   74.39    8.50
   4  -8   8   61.09   11.50
   4  -8   8   48.30   10.90
   4  -8   8   48.80   10.60
  -5   8  -8    1.40    5.10
  -5   8  -8    0.10    5.30
  -5   8  -8    2.70    7.60
  -5   8  -8    6.50    6.10
  -5   8  -8    1.00    6.80
  -5   8  -8    1.10    5.90
   5  -8   8   12.00    6.90
   5  -8   8   -1.70    8.00
   5  -8   8   14.80    4.20
   6   7  -8    2.00    6.60
  -6  -7   8   -7.20    4.20
   5   7  -8    2.80    4.90
  -5  -7   8    1.00    2.70
  -5  -7   8    9.20    3.90
  -5  -7   8    2.20    2.70
  -5  -7   8    2.90    4.40
  -5  -7   8   -2.50    3.60
   4   7  -8   59.89    6.90
   4   7  -8   54.49    7.30
   4   7  -8   47.50   12.60
   4   7  -8   56.99    7.30
   4   7  -8   72.09   12.50
   4   7  -8   63.99    7.60
  -4  -7   8   63.49    7.30
  -4  -7   8   54.39    8.00
  -4  -7   8   62.39    7.40
  -4  -7   8   49.20   10.80
  -4  -7   8   52.79    7.90
   3   7  -8    2.80    3.20
   3   7  -8    5.80    3.30
   3   7  -8    8.40    5.20
   3   7  -8    6.80    3.50
   3   7  -8    1.10    2.90
  -3  -7   8    9.00    3.50
  -3  -7   8    6.50    2.90
  -3  -7   8   -4.30    3.20
  -3  -7   8   -0.30    3.70
  -3  -7   8    4.40    3.00
   2   7  -8    0.20    2.70
   2   7  -8   -0.90    2.40
   2   7  -8   -3.00    4.80
   2   7  -8    2.90    2.90
   2   7  -8    1.60    2.30
  -2  -7   8   -4.30    2.10
  -2  -7   8    4.10    3.70
  -2  -7   8    2.30    3.70
  -2  -7   8   -1.30    2.10
  -2  -7   8    0.50    2.20
   1   7  -8   15.70    4.50
   1   7  -8   18.20    4.20
   1   7  -8   18.10    5.10
   1   7  -8   17.80    4.40
   1   7  -8   22.60    5.00
  -1  -7   8   18.40    4.10
  -1  -7   8   28.20    5.90
  -1  -7   8   22.90    5.10
  -1  -7   8   22.00    5.10
  -1  -7   8   24.60    5.00
   0   7  -8   14.80    3.80
   0   7  -8   17.30    4.90
   0   7  -8   10.30    2.60
   0   7  -8   18.90    5.20
   0   7  -8   19.40    5.40
   0   7  -8   15.50    4.50
   0  -7   8   19.20    5.30
   0  -7   8   17.30    4.00
   0  -7   8   12.50    4.10
   0  -7   8   12.30    4.10
   0  -7   8   17.90    5.00
  -1   7  -8   -0.10    3.00
  -1   7  -8    0.30    2.10
  -1   7  -8    2.90    3.50
  -1   7  -8    0.00    3.20
  -1   7  -8   -1.10    3.30
  -1   7  -8    5.50    2.70
   1  -7   8    2.50    6.70
   1  -7   8    0.10    4.00
   1  -7   8   -0.10    2.40
   1  -7   8   -5.30    4.00
   1  -7   8    3.70    3.40
   1  -7   8    1.00    2.90
  -2   7  -8    3.50    5.50
  -2   7  -8    5.90    2.90
  -2   7  -8    0.90    3.90
  -2   7  -8    4.00    3.70
  -2   7  -8    3.70    2.70
  -2   7  -8    7.00    3.70
   2  -7   8    8.70    4.70
   2  -7   8   -1.60    4.30
   2  -7   8    7.50    2.70
   2  -7   8   -1.40    3.40
   2  -7   8    3.40    3.30
  -3   7  -8   46.30    8.50
  -3   7  -8   56.69   10.10
  -3   7  -8   36.20    6.50
  -3   7  -8   49.50    6.80
   3  -7   8   37.10    7.50
   3  -7   8   28.50    7.50
   3  -7   8   40.50    8.50
   3  -7   8   37.10    6.10
   3  -7   8   34.20    7.50
  -4   7  -8    8.20    4.90
  -4   7  -8   14.20    5.30
  -4   7  -8   16.90    5.10
  -4   7  -8    4.20    5.90
  -4   7  -8    7.60    5.50
  -4   7  -8    7.90    6.40
   4  -7   8    4.80    3.50
   4  -7   8    5.00    5.40
   4  -7   8    9.20    3.80
   4  -7   8    9.70    9.40
   4  -7   8   12.90    4.80
   4  -7   8    4.90    5.00
  -5   7  -8    7.40    5.20
  -5   7  -8    6.10    5.70
  -5   7  -8   -1.70    5.40
  -5   7  -8   11.60    7.20
  -5   7  -8    6.50    7.30
  -5   7  -8   14.30    5.90
   5  -7   8    5.00    7.80
   5  -7   8   -6.10    6.00
  -6  -6   8    3.90    3.80
  -6  -6   8    7.70    4.90
   5   6  -8    5.40   10.50
  -5  -6   8    7.70    3.80
  -5  -6   8    4.00    2.00
  -5  -6   8   13.60    2.90
  -5  -6   8   13.90    2.90
  -5  -6   8    7.00    3.50
  -5  -6   8    7.20    3.30
   4   6  -8   27.60    3.70
   4   6  -8   25.60    4.50
   4   6  -8   30.60    8.00
   4   6  -8   23.70    3.70
   4   6  -8   21.40    3.60
  -4  -6   8   21.10    4.40
  -4  -6   8   25.90    8.40
  -4  -6   8   29.50    4.70
  -4  -6   8   24.60    4.60
  -4  -6   8   25.70    4.80
   3   6  -8    3.60    5.30
   3   6  -8   -1.30    2.20
   3   6  -8    1.10    2.40
   3   6  -8   -1.70    2.50
  -3  -6   8   -1.80    2.60
  -3  -6   8   -1.00    3.20
  -3  -6   8   -0.70    2.20
  -3  -6   8   -5.10    3.10
   2   6  -8   -3.00    2.40
   2   6  -8   -0.10    2.40
   2   6  -8   -1.90    2.30
   2   6  -8    0.80    2.40
   2   6  -8   -7.50    4.40
  -2  -6   8   -1.60    2.00
  -2  -6   8    0.20    2.20
  -2  -6   8   -0.70    3.00
  -2  -6   8   -1.80    2.10
  -2  -6   8   -5.80    2.40
   1   6  -8   10.10    3.30
   1   6  -8    6.10    3.50
   1   6  -8   11.50    3.80
   1   6  -8    7.80    3.80
   1   6  -8   10.10    3.30
  -1  -6   8   14.30    5.30
  -1  -6   8   14.70    3.30
  -1  -6   8    9.00    3.80
  -1  -6   8   13.90    4.10
  -1  -6   8    8.40    3.30
   0   6  -8   24.40    5.70
   0   6  -8   24.70    5.40
   0   6  -8   35.30    5.10
   0   6  -8   21.80    3.60
   0   6  -8   23.20    4.80
   0  -6   8   27.50    5.00
   0  -6   8   24.50    5.60
   0  -6   8   20.00    4.60
   0  -6   8   25.10    5.60
   0  -6   8   20.80    5.00
  -1   6  -8   12.40    3.30
  -1   6  -8   12.10    4.90
  -1   6  -8   12.70    4.80
  -1   6  -8    9.30    6.80
  -1   6  -8    8.80    3.50
  -1   6  -8   11.10    3.10
   1  -6   8    4.00    3.10
   1  -6   8    7.30    3.90
   1  -6   8   14.90    5.10
   1  -6   8   10.10    4.00
   1  -6   8   14.40    3.60
  -2   6  -8    2.00    3.50
  -2   6  -8    0.10    3.30
  -2   6  -8    1.50    2.60
  -2   6  -8    0.10    2.50
  -2   6  -8    0.60    2.80
  -2   6  -8   -0.80    3.20
   2  -6   8   -0.70    4.60
   2  -6   8   -2.00    3.30
   2  -6   8    1.00    2.30
   2  -6   8   -2.90    3.50
   2  -6   8    0.60    3.20
  -3   6  -8   37.50    7.60
  -3   6  -8   33.80   11.10
  -3   6  -8   18.50    5.50
  -3   6  -8   19.20    5.00
  -3   6  -8   16.10    5.50
  -3   6  -8   22.70    5.90
   3  -6   8   22.10    5.80
   3  -6   8   20.40    4.60
   3  -6   8   23.10    6.80
   3  -6   8   31.90    7.60
   3  -6   8   22.70    6.00
  -4   6  -8   16.80    5.50
  -4   6  -8   20.30    6.30
  -4   6  -8   21.60    5.80
  -4   6  -8   14.20    5.40
  -4   6  -8   18.80    5.10
   4  -6   8   15.40    6.50
   4  -6   8   18.00    3.70
   4  -6   8   15.70    5.80
   4  -6   8   16.80    4.50
  -5   6  -8   15.70    6.00
  -5   6  -8   12.10    6.50
  -5   6  -8   12.20    5.70
  -5   6  -8   25.10    7.70
  -5   6  -8   14.00    6.50
   5  -6   8   -1.10    5.90
   5  -6   8   -1.50    6.30
   6   5  -8   59.19   12.90
  -6  -5   8   53.59   10.60
  -6  -5   8   34.80    6.90
  -6  -5   8   52.89    7.10
   5   5  -8    7.50    8.70
  -5  -5   8    0.90    2.40
  -5  -5   8    9.00    3.60
  -5  -5   8    2.90    2.70
  -4  -5   8   10.50    1.90
  -4  -5   8    8.80    2.70
  -4  -5   8    8.40    5.90
  -4  -5   8    7.60    2.90
  -4  -5   8   19.30    3.70
  -4  -5   8   12.40    3.80
   3   5  -8   24.00    7.70
   3   5  -8   17.20    3.30
   3   5  -8   14.60    3.20
   3   5  -8   15.60    3.60
   3   5  -8   15.00    3.20
  -3  -5   8   11.90    3.90
  -3  -5   8   15.20    4.20
  -3  -5   8   17.30    4.30
  -3  -5   8   11.40    3.40
  -3  -5   8    9.60    3.40
   2   5  -8   21.30    4.20
   2   5  -8   19.10    4.20
   2   5  -8   24.00    4.20
   2   5  -8   22.00    4.40
   2   5  -8   30.30    7.60
  -2  -5   8   18.80    4.50
  -2  -5   8   24.30    4.30
  -2  -5   8   23.60    4.70
  -2  -5   8   17.20    4.30
  -2  -5   8   28.90    5.50
   1   5  -8  165.08   15.50
   1   5  -8  158.08   15.30
   1   5  -8  172.68   15.10
   1   5  -8  156.68   14.40
   1   5  -8  182.08   15.00
  -1  -5   8  151.18   14.90
  -1  -5   8  148.99   14.40
  -1  -5   8  140.99   14.80
  -1  -5   8  182.48   15.20
   0   5  -8    1.40    1.90
   0   5  -8   -0.70    2.30
   0   5  -8    0.10    2.60
   0   5  -8    0.60    3.20
   0   5  -8    2.80    2.00
   0   5  -8   -0.20    2.60
   0  -5   8   -1.00    2.10
   0  -5   8    0.70    1.90
   0  -5   8   -0.50    2.60
  -1   5  -8    3.70    2.80
  -1   5  -8    0.50    2.20
  -1   5  -8    1.60    2.20
  -1   5  -8    0.00    2.50
  -1   5  -8    3.10    3.40
  -1   5  -8    3.40    3.00
   1  -5   8   -2.20    2.30
   1  -5   8    0.90    2.50
   1  -5   8    3.70    2.30
  -2   5  -8    0.90    2.70
  -2   5  -8    2.90    3.00
  -2   5  -8    1.20    3.30
  -2   5  -8    7.30    4.10
  -2   5  -8    4.90    2.90
   2  -5   8   -0.90    2.20
   2  -5   8    4.60    3.30
   2  -5   8    1.30    3.00
  -3   5  -8   35.40    8.10
  -3   5  -8   45.30    8.50
  -3   5  -8   39.30    7.50
  -3   5  -8   62.29   10.00
  -3   5  -8   55.19    6.80
  -3   5  -8   42.30    7.00
   3  -5   8   38.10    6.20
   3  -5   8   50.09    9.20
   3  -5   8   30.70    6.90
   3  -5   8   53.19    9.20
  -4   5  -8    0.70    5.10
  -4   5  -8   17.70    5.70
  -4   5  -8   15.30    4.90
  -4   5  -8   13.40    4.40
  -4   5  -8    7.90    5.30
  -4   5  -8    7.80    4.70
   4  -5   8    3.40    5.00
   4  -5   8   13.90    7.30
   4  -5   8   10.30   10.10
   4  -5   8    7.30    7.30
  -5   5  -8    1.20    5.00
  -5   5  -8    5.30    5.00
  -5   5  -8   -7.80    5.70
  -5   5  -8   -0.70    5.40
  -5   5  -8    2.50    4.60
  -5   5  -8    9.00    5.20
   5  -5   8    4.90    5.80
   5  -5   8   -2.80    5.10
  -6   5  -8  304.67   29.40
  -6   5  -8  341.87   31.60
  -6   5  -8  234.48   28.90
  -6   5  -8  357.66   28.20
  -6   5  -8  274.57   29.60
   6  -5   8  321.97   27.30
   6   4  -8   14.70   10.30
  -6  -4   8  -10.50    3.50
  -6  -4   8    2.50    3.90
  -6  -4   8   -0.20    4.20
   5   4  -8    2.70    7.60
  -5  -4   8   -1.80    3.50
  -5  -4   8    0.70    3.10
  -5  -4   8   -3.80    2.30
   4   4  -8    9.90    7.00
  -4  -4   8    3.80    2.20
  -4  -4   8    3.20    2.70
  -4  -4   8    1.30    2.10
  -4  -4   8    6.40    2.70
  -4  -4   8    1.40    2.70
  -4  -4   8    0.90    1.70
   3   4  -8   17.40    6.60
   3   4  -8   18.80    3.60
   3   4  -8   18.80    3.40
   3   4  -8   16.20    3.20
   3   4  -8   20.40    3.90
  -3  -4   8   19.50    3.80
  -3  -4   8   17.70    2.40
  -3  -4   8   23.70    4.50
  -3  -4   8   13.70    3.80
  -3  -4   8   19.60    4.10
  -3  -4   8   29.00    5.10
   2   4  -8    4.90    2.50
   2   4  -8    1.70    2.00
   2   4  -8   -1.30    2.10
   2   4  -8    2.80    2.30
   2   4  -8    7.50    5.00
  -2  -4   8    2.30    2.20
  -2  -4   8    4.40    1.20
  -2  -4   8    3.00    2.30
  -2  -4   8    2.80    2.20
   1   4  -8  201.88   18.70
   1   4  -8  191.48   18.60
   1   4  -8  227.68   18.60
   1   4  -8  209.88   17.80
   1   4  -8  226.68   18.50
  -1  -4   8  184.58   18.50
  -1  -4   8  199.48   18.50
  -1  -4   8  204.38   17.90
  -1  -4   8  228.68   19.20
  -1  -4   8  195.28   16.60
  -1  -4   8  236.38   19.20
   0   4  -8   28.70    6.00
   0   4  -8   31.80    7.50
   0   4  -8   52.79    7.20
   0   4  -8   41.40    7.30
   0   4  -8   48.20    5.70
   0   4  -8   46.90    5.30
   0  -4   8   49.99    7.00
   0  -4   8   53.89    7.20
   0  -4   8   49.30    6.80
   0  -4   8   46.80    5.80
   0  -4   8   33.30    4.80
   0  -4   8   27.80    6.00
  -1   4  -8   25.40    5.80
  -1   4  -8   21.90    4.90
  -1   4  -8   22.90    4.60
  -1   4  -8   22.60    4.50
  -1   4  -8   20.30    5.20
   1  -4   8   20.90    5.30
   1  -4   8   21.70    5.40
   1  -4   8   31.60    5.00
   1  -4   8   20.00    5.40
   1  -4   8   17.90    4.60
   1  -4   8   21.30    4.20
  -2   4  -8  181.38   17.40
  -2   4  -8  179.68   16.60
  -2   4  -8  163.48   14.90
  -2   4  -8  152.58   16.40
  -2   4  -8  152.38   16.40
  -2   4  -8  171.18   15.70
   2  -4   8  146.59   14.70
   2  -4   8  166.28   15.10
   2  -4   8  185.38   17.30
   2  -4   8  146.99   16.20
   2  -4   8  143.39   16.00
   2  -4   8  177.38   19.80
   2  -4   8  183.38   16.70
  -3   4  -8  102.09   12.80
  -3   4  -8  102.29   12.00
  -3   4  -8  110.69   11.10
  -3   4  -8  116.39   13.10
  -3   4  -8   95.29   12.20
  -3   4  -8  132.59   13.40
   3  -4   8   77.79   10.10
   3  -4   8  109.69   13.20
   3  -4   8  120.49   11.20
   3  -4   8   82.29   12.30
   3  -4   8  132.39   13.70
  -4   4  -8   -2.20    3.70
  -4   4  -8   -0.60    4.30
  -4   4  -8    4.70    5.10
  -4   4  -8    3.30    4.20
  -4   4  -8   -0.20    3.70
  -4   4  -8    3.50    4.30
   4  -4   8    2.40    4.50
  -5   4  -8    8.60    5.90
  -5   4  -8    6.10    6.10
  -5   4  -8    8.80    5.60
  -5   4  -8    6.20    5.00
  -5   4  -8    2.40    5.60
   5  -4   8    3.70    5.80
   5  -4   8    0.20    5.10
  -6   4  -8    1.50    5.90
  -6   4  -8   -6.80    7.90
  -6   4  -8    0.30    6.50
  -6   4  -8   -8.20    5.40
   6  -4   8   -4.00    7.50
   6   3  -8   -2.70    8.20
  -6  -3   8   10.80    4.20
  -6  -3   8   -1.10    3.50
  -6  -3   8    1.10    4.20
   5   3  -8   -8.50    6.50
  -5  -3   8    5.60    2.80
  -5  -3   8   -3.00    3.00
  -5  -3   8   -2.90    2.60
   4   3  -8    0.00    6.00
  -4  -3   8   -1.10    1.80
  -4  -3   8   -1.00    3.00
  -4  -3   8   -3.00    2.20
  -4  -3   8   -0.70    1.90
  -4  -3   8   -3.90    2.10
   3   3  -8   24.00    4.00
   3   3  -8   44.60    9.20
   3   3  -8   26.80    4.10
   3   3  -8   24.90    4.10
   3   3  -8   28.80    4.10
   3   3  -8   29.90    5.00
  -3  -3   8   22.90    4.50
  -3  -3   8   20.30    3.30
  -3  -3   8   29.30    4.90
  -3  -3   8   21.00    4.40
  -3  -3   8   26.90    6.00
   2   3  -8    6.70    2.90
   2   3  -8   11.50    3.20
   2   3  -8   23.30    6.80
   2   3  -8   15.60    3.50
   2   3  -8   14.20    3.50
  -2  -3   8   14.20    3.40
  -2  -3   8   14.80    3.90
  -2  -3   8    9.50    3.40
  -2  -3   8   11.30    2.50
  -2  -3   8   11.50    3.70
  -2  -3   8   13.90    3.40
  -2  -3   8   19.70    4.20
   1   3  -8  280.67   25.20
   1   3  -8  340.17   24.70
   1   3  -8  274.77   25.10
   1   3  -8  315.17   25.10
   1   3  -8  299.37   25.00
  -1  -3   8  293.57   25.20
  -1  -3   8  280.37   24.40
  -1  -3   8  289.57   25.30
  -1  -3   8  267.07   25.60
  -1  -3   8  323.87   25.60
  -1  -3   8  308.97   25.50
  -1  -3   8  282.97   23.70
   0   3  -8  271.77   24.30
   0   3  -8  292.97   22.90
   0   3  -8  249.68   23.90
   0   3  -8  285.97   24.10
   0   3  -8  282.07   23.00
   0  -3   8  289.37   24.30
   0  -3   8  256.27   23.80
   0  -3   8  304.47   24.50
   0  -3   8  253.07   23.90
   0  -3   8  291.67   22.80
   0  -3   8  252.37   23.90
   0  -3   8  269.47   23.00
  -1   3  -8   35.00    6.40
  -1   3  -8   27.90    6.70
  -1   3  -8   38.40    6.10
  -1   3  -8   43.90    5.30
  -1   3  -8   33.20    6.60
  -1   3  -8   45.30   10.40
   1  -3   8   51.29    8.40
   1  -3   8   22.20    5.40
   1  -3   8   40.70    6.50
   1  -3   8   36.00    6.70
   1  -3   8   38.90    7.00
   1  -3   8   40.10    6.20
   1  -3   8   30.20    5.40
  -2   3  -8   29.90    6.10
  -2   3  -8   51.89    8.20
  -2   3  -8   36.20    6.10
  -2   3  -8   30.70    6.60
  -2   3  -8   48.10    8.60
  -2   3  -8   38.50    7.80
   2  -3   8   41.30    7.80
   2  -3   8   34.10    6.10
   2  -3   8   31.60    6.30
   2  -3   8   40.10   12.40
   2  -3   8   44.20    7.00
   2  -3   8   34.00    5.80
   2  -3   8   45.00    7.90
  -3   3  -8  145.19   15.50
  -3   3  -8  139.89   14.20
  -3   3  -8  135.69   15.50
  -3   3  -8  145.39   16.00
  -3   3  -8  162.18   16.30
  -3   3  -8  155.18   16.10
   3  -3   8  156.48   14.30
   3  -3   8  110.39   15.30
   3  -3   8  142.79   16.10
   3  -3   8  151.98   15.10
   3  -3   8  151.68   16.40
   3  -3   8  169.18   16.50
  -4   3  -8   -1.00    4.00
  -4   3  -8   -2.80    3.40
  -4   3  -8   -0.70    3.80
  -4   3  -8   -3.90    4.10
  -4   3  -8  -11.00    4.40
  -4   3  -8    1.90    4.30
   4  -3   8   -3.90    3.70
   4  -3   8   -6.40    5.20
   4  -3   8    1.60    4.80
   4  -3   8   12.30    6.50
  -5   3  -8   68.19   11.30
  -5   3  -8   96.19   13.00
  -5   3  -8   63.19   11.80
  -5   3  -8   51.69   10.60
  -5   3  -8   80.59   11.90
  -5   3  -8   94.29   11.30
   5  -3   8   47.90    9.80
   5  -3   8   60.39   10.80
  -6   3  -8   -4.10    6.60
  -6   3  -8   -2.70    7.00
  -6   3  -8    7.10    6.50
  -6   3  -8   15.20    7.90
  -6   3  -8    2.20    7.80
   6  -3   8   16.50    9.40
   6  -3   8   18.50   12.60
   6   2  -8  -13.60    7.30
  -6  -2   8    1.50    4.50
  -6  -2   8    1.40    3.80
  -6  -2   8    2.50    4.50
   5   2  -8   14.70    8.40
  -5  -2   8    7.50    3.50
  -5  -2   8   12.50    2.40
  -5  -2   8   11.90    2.40
  -5  -2   8   12.70    4.60
   4   2  -8   61.79   12.50
  -4  -2   8   55.49    6.90
  -4  -2   8   59.99    9.00
  -4  -2   8   60.99    6.60
  -4  -2   8   58.89    6.60
   3   2  -8    2.30    2.70
   3   2  -8    3.90    2.30
   3   2  -8    4.90    2.30
   3   2  -8    6.30    4.90
   3   2  -8    5.50    2.70
   3   2  -8   10.60    2.80
  -3  -2   8    1.70    2.40
  -3  -2   8    5.30    2.50
  -3  -2   8   11.90    3.20
  -3  -2   8    8.90    4.10
  -3  -2   8    8.00    3.30
  -3  -2   8    4.60    2.90
  -3  -2   8    6.00    2.60
   2   2  -8    2.50    2.00
   2   2  -8    0.40    1.90
   2   2  -8    1.90    2.10
   2   2  -8    1.50    2.40
   2   2  -8   -0.50    4.10
  -2  -2   8    1.90    2.10
  -2  -2   8    2.50    2.30
  -2  -2   8   -0.10    1.80
  -2  -2   8   -0.80    2.20
  -2  -2   8    2.70    2.40
  -2  -2   8    2.40    2.50
  -2  -2   8   -1.30    1.50
   1   2  -8  345.17   29.20
   1   2  -8  368.06   29.00
   1   2  -8  408.56   29.50
   1   2  -8  352.36   29.00
   1   2  -8  328.57   29.00
  -1  -2   8  358.36   30.10
  -1  -2   8  324.27   28.90
  -1  -2   8  355.96   28.30
  -1  -2   8  323.17   29.60
  -1  -2   8  309.87   29.00
  -1  -2   8  365.46   29.40
  -1  -2   8  334.07   27.90
   0   2  -8    6.90    2.70
   0   2  -8    7.00    3.60
   0   2  -8    4.00    2.80
   0   2  -8    7.20    2.70
   0   2  -8   12.00    4.20
   0   2  -8   17.20    7.60
   0  -2   8    8.40    3.00
   0  -2   8    8.20    3.40
   0  -2   8    6.40    2.30
   0  -2   8    5.50    3.20
   0  -2   8    6.20    2.60
   0  -2   8    6.10    3.10
   0  -2   8    4.60    3.00
  -1   2  -8  221.18   19.00
  -1   2  -8  200.78   19.70
  -1   2  -8  206.28   24.40
  -1   2  -8  220.98   18.30
  -1   2  -8  209.58   19.90
  -1   2  -8  211.48   19.60
   1  -2   8  231.98   20.00
   1  -2   8  188.38   19.20
   1  -2   8  191.68   19.40
   1  -2   8  226.88   20.10
   1  -2   8  187.48   18.40
   1  -2   8  214.88   18.70
   1  -2   8  219.38   18.40
  -2   2  -8    2.00    3.50
  -2   2  -8   -0.40    3.10
  -2   2  -8    0.50    2.60
  -2   2  -8   -2.40    3.10
  -2   2  -8    2.10    2.90
  -2   2  -8   -0.80    2.60
   2  -2   8    1.40    3.00
   2  -2   8   -2.80    2.40
   2  -2   8   -0.30    2.70
   2  -2   8    1.50    2.20
   2  -2   8   -2.40    3.00
   2  -2   8    2.30    3.60
  -3   2  -8  262.47   25.20
  -3   2  -8  271.77   25.00
  -3   2  -8  227.88   24.90
  -3   2  -8  281.17   25.40
  -3   2  -8  276.17   23.40
  -3   2  -8  275.97   25.40
   3  -2   8  270.47   25.30
   3  -2   8  279.57   25.50
   3  -2   8  290.97   25.50
   3  -2   8  290.17   24.70
   3  -2   8  250.87   25.20
  -4   2  -8   32.20    7.60
  -4   2  -8   35.30    8.50
  -4   2  -8   27.30    6.60
  -4   2  -8   26.50    7.10
  -4   2  -8   35.70    6.50
  -4   2  -8   33.50    7.70
   4  -2   8   42.20   11.10
   4  -2   8   36.00    8.90
   4  -2   8   15.50    6.10
   4  -2   8   20.80    6.00
  -5   2  -8   62.09    9.90
  -5   2  -8   56.59   10.40
  -5   2  -8   85.39   11.20
  -5   2  -8   56.09   10.70
  -5   2  -8   80.99   13.10
  -5   2  -8   33.30    8.60
   5  -2   8   50.79   10.20
   5  -2   8   35.20    7.90
   6   1  -8   12.00   11.00
  -6  -1   8    5.40    5.40
  -6  -1   8   10.30    4.10
  -6  -1   8   12.90    5.20
   5   1  -8   86.79   17.30
  -5  -1   8   70.99   11.00
  -5  -1   8   90.09    8.30
  -5  -1   8   90.89    8.20
  -5  -1   8   81.29    9.10
   4   1  -8  109.99    9.30
   4   1  -8  105.79    9.10
   4   1  -8  129.59   10.00
   4   1  -8   99.89   14.60
  -4  -1   8  110.69   10.60
  -4  -1   8  104.39   10.60
  -4  -1   8  103.79   12.90
  -4  -1   8  115.69   11.50
  -4  -1   8   98.69   10.30
   3   1  -8    2.50    2.20
   3   1  -8   -2.00    2.00
   3   1  -8   -1.90    3.10
   3   1  -8    1.10    2.30
   3   1  -8   -2.50    4.50
  -3  -1   8    0.40    2.10
  -3  -1   8   -0.60    2.20
  -3  -1   8    0.20    2.20
  -3  -1   8   -2.00    2.10
  -3  -1   8    1.00    2.30
  -3  -1   8   -3.20    1.80
  -3  -1   8   -2.60    2.10
   2   1  -8    0.90    2.40
   2   1  -8    1.70    2.40
   2   1  -8    2.70    2.40
   2   1  -8    5.70    2.90
   2   1  -8    0.20    4.20
  -2  -1   8    1.90    2.40
  -2  -1   8    3.50    2.40
  -2  -1   8    8.70    2.80
  -2  -1   8    5.90    2.90
  -2  -1   8    0.80    2.10
  -2  -1   8    8.40    3.60
  -2  -1   8    2.60    2.30
   1   1  -8  626.24   48.70
   1   1  -8  655.03   51.29
   1   1  -8  584.24   48.60
   1   1  -8  635.94   48.60
   1   1  -8  593.94   49.30
   1   1  -8  587.44   48.60
  -1  -1   8  578.74   48.80
  -1  -1   8  586.64   47.80
  -1  -1   8  580.94   49.20
  -1  -1   8  600.94   48.80
  -1  -1   8  604.24   49.80
  -1  -1   8  670.83   48.00
  -1  -1   8  584.54   48.70
   0   1  -8  118.69   12.90
   0   1  -8  125.19   13.50
   0   1  -8  134.19   13.20
   0   1  -8  118.29   15.10
   0   1  -8  110.49   11.60
   0   1  -8  122.99   12.10
   0  -1   8  138.59   12.10
   0  -1   8  138.99   13.30
   0  -1   8  132.39   13.30
   0  -1   8  121.99   12.80
   0  -1   8  113.59   12.00
   0  -1   8  115.59   12.50
   0  -1   8  124.49   13.10
  -1   1  -8   37.90    7.30
  -1   1  -8   40.60    7.80
  -1   1  -8   41.20    6.50
  -1   1  -8   46.30    8.30
  -1   1  -8   36.50    6.50
   1  -1   8   41.30    7.20
   1  -1   8   30.30    6.20
   1  -1   8   29.20    5.40
   1  -1   8   48.60    8.60
   1  -1   8   34.10    7.30
   1  -1   8   40.30    5.80
  -2   1  -8    6.00    3.50
  -2   1  -8    0.30    2.70
  -2   1  -8    0.10    6.90
  -2   1  -8    3.10    4.20
  -2   1  -8    0.60    2.90
  -2   1  -8    5.50    4.00
   2  -1   8   -1.30    2.30
   2  -1   8    2.60    3.40
   2  -1   8    2.60    4.00
   2  -1   8    2.40    3.20
   2  -1   8    2.90    2.40
   2  -1   8   -0.70    2.90
   2  -1   8   -0.20    3.00
  -3   1  -8   19.60    5.80
  -3   1  -8   17.10    8.00
  -3   1  -8   30.00    8.20
  -3   1  -8   27.70    5.70
  -3   1  -8   25.80    6.60
  -3   1  -8   31.80    7.80
   3  -1   8   28.10    6.40
   3  -1   8   14.50    4.90
   3  -1   8   24.10    4.40
   3  -1   8   23.60    6.60
   3  -1   8   21.10    6.60
   3  -1   8   31.90    7.00
  -4   1  -8    0.70    3.70
  -4   1  -8    2.40    5.00
  -4   1  -8    7.00    4.40
  -4   1  -8    0.70    4.60
  -4   1  -8    0.80    5.20
  -4   1  -8    0.40    4.60
   4  -1   8    0.30    4.40
   4  -1   8   -2.20    5.20
   4  -1   8    0.10    5.30
   4  -1   8    7.00    6.30
  -5   1  -8   22.70    8.10
  -5   1  -8   22.40    7.70
  -5   1  -8   24.20    7.70
  -5   1  -8   22.90    7.10
  -5   1  -8   26.30    7.60
   5  -1   8   26.80    7.90
   5  -1   8   16.90    6.70
   6   0  -8   23.60   11.50
  -6   0   8    4.50    5.10
  -6   0   8   13.10    3.70
   5   0  -8   67.39   14.80
  -5   0   8   66.29    7.50
  -5   0   8   82.49    8.20
  -5   0   8   62.89   11.80
  -5   0   8   69.69    8.20
  -5   0   8   65.99    7.80
  -5   0   8   91.19    9.50
   4   0  -8   -0.90    5.80
   4   0  -8    3.70    6.10
   4   0  -8    5.90    2.20
   4   0  -8    2.80    2.10
   4   0  -8    5.10    2.20
   4   0  -8    2.50    2.10
  -4   0   8    1.60    2.60
  -4   0   8    0.10    2.50
  -4   0   8    3.30    2.70
  -4   0   8    2.10    2.90
  -4   0   8    0.60    2.80
  -4   0   8   -1.00    3.50
   3   0  -8   26.50    8.40
   3   0  -8   34.60    5.60
   3   0  -8   27.90    5.20
   3   0  -8   35.00    5.50
   3   0  -8   30.30    5.20
   3   0  -8   24.80    5.40
  -3   0   8   39.80    6.40
  -3   0   8   38.80    5.60
  -3   0   8   31.60    5.80
  -3   0   8   42.40    6.50
  -3   0   8   39.50    8.40
  -3   0   8   38.60    6.20
  -3   0   8   35.00    6.00
   2   0  -8  101.19   11.10
   2   0  -8  115.19   14.50
   2   0  -8  103.19   11.40
   2   0  -8   97.29   10.90
  -2   0   8  115.99   11.60
  -2   0   8  112.59   12.40
  -2   0   8  110.69   11.10
  -2   0   8  109.59   11.40
  -2   0   8  114.39   10.60
  -2   0   8  106.09   11.30
   1   0  -8  431.26   36.20
   1   0  -8  447.06   36.30
   1   0  -8  429.36   36.10
   1   0  -8  451.25   38.70
   1   0  -8  491.75   35.40
   1   0  -8  412.86   36.00
  -1   0   8  426.86   36.20
  -1   0   8  407.36   36.00
  -1   0   8  420.96   36.30
  -1   0   8  428.56   35.60
  -1   0   8  429.26   36.30
  -1   0   8  463.05   35.20
  -1   0   8  435.66   36.70
   0   0  -8   14.20    4.60
   0   0  -8   17.20    5.60
   0   0  -8   17.40    4.40
   0   0  -8   18.40    5.30
   0   0  -8   15.00    3.80
   0   0  -8   23.40    5.30
   0   0   8   22.80    5.70
   0   0   8   16.50    4.60
   0   0   8   16.50    4.00
   0   0   8   15.80    4.80
   0   0   8   18.20    5.20
   0   0   8   15.50    4.90
   0   0   8   16.10    4.70
  -1   0  -8   19.20    5.30
  -1   0  -8   19.20    4.20
  -1   0  -8   20.70    6.10
  -1   0  -8   10.90    4.50
  -1   0  -8   15.60    5.20
  -1   0  -8   18.30    5.00
   1   0   8   14.40    3.60
   1   0   8   13.00    4.60
   1   0   8   28.90    5.90
   1   0   8   22.30    6.10
   1   0   8   10.80    3.60
   1   0   8   17.00    5.20
   1   0   8   15.30    4.40
  -2   0  -8  168.28   19.20
  -2   0  -8  159.08   17.10
  -2   0  -8  166.78   17.70
  -2   0  -8  179.48   17.80
  -2   0  -8  195.58   16.30
  -2   0  -8  163.88   17.60
   2   0   8  172.78   15.80
   2   0   8  168.88   17.90
   2   0   8  167.68   17.60
   2   0   8  189.28   18.10
   2   0   8  178.48   18.10
   2   0   8  152.98   16.70
  -3   0  -8   -1.10    3.40
  -3   0  -8    2.70    7.90
  -3   0  -8    0.50    3.90
  -3   0  -8   -2.80    3.10
  -3   0  -8   -1.20    4.40
   3   0   8    5.80    4.40
   3   0   8   -0.30    3.70
   3   0   8    7.00    5.50
   3   0   8    0.00    4.00
   3   0   8    6.90    5.20
   3   0   8    1.50    2.30
  -4   0  -8    9.10    5.10
  -4   0  -8    6.70    5.10
  -4   0  -8    4.60    5.50
  -4   0  -8    3.10    6.50
  -4   0  -8    9.90    5.60
   4   0   8   10.60    6.50
   4   0   8    7.70    6.50
   4   0   8    8.90    5.80
   4   0   8   12.40    7.90
  -5   0  -8   84.69   13.00
  -5   0  -8   50.39   11.50
  -5   0  -8   66.29   11.70
  -5   0  -8   57.09   11.70
   5   0   8   41.80    9.40
   5   0   8   63.79   11.50
   6  -1  -8   -1.00    7.30
  -6   1   8    2.40    2.70
  -6   1   8    4.30    3.30
  -6   1   8    2.00    3.10
  -6   1   8    8.90    5.40
   5  -1  -8   48.80   13.10
  -5   1   8   46.90    7.00
  -5   1   8   45.90    6.50
  -5   1   8   60.49    7.60
  -5   1   8   75.69    7.80
  -5   1   8   50.39    7.50
  -5   1   8   57.59   10.70
   4  -1  -8    6.70    6.30
   4  -1  -8    2.40    2.80
   4  -1  -8   -0.40    2.40
   4  -1  -8    4.00    2.60
   4  -1  -8    4.60    3.00
   4  -1  -8    0.80    2.50
  -4   1   8    8.30    3.30
  -4   1   8    3.00    2.90
  -4   1   8    3.70    4.40
  -4   1   8    6.70    4.70
  -4   1   8   -4.20    2.10
  -4   1   8    1.50    3.00
  -4   1   8    3.50    2.90
   3  -1  -8  162.48   16.20
   3  -1  -8  178.98   20.70
   3  -1  -8  184.48   16.70
   3  -1  -8  158.18   17.60
   3  -1  -8  181.18   15.90
  -3   1   8  210.58   19.50
  -3   1   8  176.08   16.90
  -3   1   8  178.38   17.00
  -3   1   8  181.18   16.80
  -3   1   8  192.08   17.20
  -3   1   8  193.18   15.90
  -3   1   8  189.58   18.70
   2  -1  -8  607.74   50.29
   2  -1  -8  596.94   50.39
   2  -1  -8  631.74   53.79
   2  -1  -8  682.53   50.59
  -2   1   8  632.64   50.59
  -2   1   8  620.44   51.79
  -2   1   8  608.84   50.59
  -2   1   8  694.33   51.19
  -2   1   8  698.03   49.70
  -2   1   8  548.05   50.29
  -2   1   8  610.74   50.69
   1  -1  -8   86.89   10.40
   1  -1  -8  101.39    9.40
   1  -1  -8   89.79   12.20
   1  -1  -8   91.09   14.10
   1  -1  -8   72.19   10.00
   1  -1  -8   77.19   10.40
   1  -1  -8  100.29   10.70
  -1   1   8   79.89   10.10
  -1   1   8   81.39   10.20
  -1   1   8   80.59    9.80
  -1   1   8   78.89   10.60
  -1   1   8   86.19    9.10
  -1   1   8   92.99   10.70
  -1   1   8   79.99   10.20
   0  -1  -8   59.19    9.40
   0  -1  -8   65.99    7.80
   0  -1  -8   52.29    8.50
   0  -1  -8   49.20    6.60
   0  -1  -8   57.09    9.40
   0  -1  -8   36.60    8.10
   0   1   8   42.80    8.10
   0   1   8   38.80    7.80
   0   1   8   56.29    9.90
   0   1   8   50.09    8.50
   0   1   8   51.89    6.90
   0   1   8   52.79    8.70
   0   1   8   52.49    7.20
  -1  -1  -8   65.79   10.80
  -1  -1  -8   70.49    9.00
  -1  -1  -8   56.19    9.80
  -1  -1  -8   58.99    8.30
  -1  -1  -8   71.59   10.10
  -1  -1  -8   60.89    7.90
   1   1   8   80.09   10.90
   1   1   8   65.59    9.40
   1   1   8   67.99   11.40
   1   1   8   72.19   11.60
   1   1   8   57.79    9.00
   1   1   8   56.29    7.90
  -2  -1  -8   -2.40    3.30
  -2  -1  -8    2.40    4.10
  -2  -1  -8   -4.40    4.10
  -2  -1  -8   -0.10    4.20
  -2  -1  -8   -3.30    2.40
   2   1   8    1.60    3.90
   2   1   8    1.30    3.90
   2   1   8   -1.30    3.70
   2   1   8    3.80    3.20
   2   1   8   -1.00    3.20
   2   1   8    5.80    4.20
  -3  -1  -8   -6.30    5.50
  -3  -1  -8   -6.60    5.10
  -3  -1  -8   -0.40    3.90
  -3  -1  -8    2.00    5.10
   3   1   8    0.60    2.50
   3   1   8   -2.20    5.30
   3   1   8   -7.10    4.80
   3   1   8   -1.30    4.20
   3   1   8   -7.30    3.30
  -4  -1  -8    6.30    5.70
  -4  -1  -8   -1.40    6.40
  -4  -1  -8    5.60    7.20
  -4  -1  -8    3.60    4.70
  -4  -1  -8   12.60    6.30
   4   1   8    1.00    7.00
   4   1   8    2.70    5.30
  -5  -1  -8    5.10   12.30
  -5  -1  -8    3.10    6.70
  -5  -1  -8  -13.00    7.30
  -5  -1  -8    0.30   10.80
  -5  -1  -8    6.90    8.50
   5   1   8   -6.20    6.90
   5   1   8    0.70    6.50
   6  -2  -8    2.80    7.20
  -6   2   8   -3.10    3.20
  -6   2   8    4.00    3.90
  -6   2   8   -3.40    3.90
  -6   2   8    0.20    5.00
  -6   2   8    1.30    3.50
  -6   2   8    2.30    2.70
   5  -2  -8   18.60    8.90
   5  -2  -8   44.00    5.50
   5  -2  -8   25.10    5.20
  -5   2   8   33.10    5.80
  -5   2   8   50.19    6.80
  -5   2   8   34.10    4.90
  -5   2   8   28.30    7.60
  -5   2   8   36.60    6.20
  -5   2   8   35.60    6.80
   4  -2  -8    1.30    3.10
   4  -2  -8   -1.90    3.30
   4  -2  -8   -0.40    7.90
   4  -2  -8   -0.10    3.20
   4  -2  -8   -0.50    2.60
   4  -2  -8   -0.50    2.90
  -4   2   8   -0.90    2.60
  -4   2   8    1.00    3.50
  -4   2   8    1.30    3.30
  -4   2   8    3.50    4.40
  -4   2   8    0.00    2.20
  -4   2   8    1.30    3.20
  -4   2   8   -1.00    4.40
   3  -2  -8  214.78   20.80
   3  -2  -8  212.98   20.90
   3  -2  -8  235.08   25.60
   3  -2  -8  267.97   21.40
   3  -2  -8  242.78   19.90
  -3   2   8  227.38   21.10
  -3   2   8  221.38   22.60
  -3   2   8  230.58   19.90
  -3   2   8  244.38   21.80
  -3   2   8  242.78   21.80
  -3   2   8  235.08   21.40
  -3   2   8  257.67   21.60
   2  -2  -8 1544.35  125.19
   2  -2  -8 1617.64  128.99
   2  -2  -8 1560.34  125.39
   2  -2  -8 1721.83  125.29
   2  -2  -8 1710.33  125.09
   2  -2  -8 1692.23  125.19
   2  -2  -8 1446.56  126.09
  -2   2   8 1663.63  126.69
  -2   2   8 1643.54  125.79
  -2   2   8 1713.63  124.09
  -2   2   8 1499.35  125.39
  -2   2   8 1457.45  125.09
  -2   2   8 1645.34  125.59
  -2   2   8 1882.41  128.89
   1  -2  -8   85.99   12.30
   1  -2  -8   79.79   10.30
   1  -2  -8   73.99    8.70
   1  -2  -8   81.89   10.30
   1  -2  -8   84.79   10.80
   1  -2  -8   84.79   10.60
  -1   2   8   73.09   10.10
  -1   2   8   69.59    9.80
  -1   2   8   73.69    8.50
  -1   2   8   82.69   10.30
  -1   2   8   76.49   11.00
  -1   2   8   87.29   10.10
  -1   2   8   64.59    9.70
   0  -2  -8    3.20    3.90
   0  -2  -8    4.20    3.40
   0  -2  -8    1.00    4.00
   0  -2  -8    3.40    2.90
   0  -2  -8   -1.90    3.80
   0  -2  -8    1.50    5.60
   0  -2  -8    3.40    4.00
   0  -2  -8    3.40    3.10
   0   2   8    1.10    3.30
   0   2   8    6.60    4.70
   0   2   8    2.70    3.20
   0   2   8    2.90    4.00
   0   2   8    5.70    4.20
   0   2   8   11.50    4.70
  -1  -2  -8   17.60    5.50
  -1  -2  -8   24.90    6.70
  -1  -2  -8   13.20    4.60
  -1  -2  -8   13.20    5.30
  -1  -2  -8   14.10    5.40
  -1  -2  -8   18.00    6.60
  -1  -2  -8   11.20    4.30
   1   2   8   19.40    6.50
   1   2   8   12.90    5.10
   1   2   8   19.20    5.50
   1   2   8   24.10    6.40
   1   2   8   18.10    5.60
  -2  -2  -8    4.60    3.90
  -2  -2  -8    1.40    3.50
  -2  -2  -8    3.40    4.70
  -2  -2  -8    6.80    6.00
  -2  -2  -8    2.20    4.10
  -2  -2  -8   -3.40    3.10
   2   2   8   -0.60    3.40
   2   2   8   -1.20    2.50
   2   2   8    2.70    5.00
   2   2   8    0.20    4.60
   2   2   8   -0.60    5.00
   2   2   8    1.40    3.70
  -3  -2  -8    2.40    6.30
  -3  -2  -8   -9.40    6.00
  -3  -2  -8    1.60    4.30
  -3  -2  -8    5.00    5.10
  -3  -2  -8    0.60    4.40
  -3  -2  -8    2.30    4.90
   3   2   8    2.60    3.30
   3   2   8   -4.60    5.10
   3   2   8    1.90    4.80
   3   2   8    3.00    4.10
   3   2   8    0.00   10.20
   3   2   8    1.60    5.90
  -4  -2  -8   -0.10    8.70
  -4  -2  -8   -1.10    5.40
  -4  -2  -8    6.40    6.20
  -4  -2  -8  -10.50    6.90
  -4  -2  -8   13.70    6.80
   4   2   8    7.80    6.20
   4   2   8    0.40    5.50
  -5  -2  -8    1.30    6.40
  -5  -2  -8    3.90    9.80
  -5  -2  -8    9.80    6.60
  -5  -2  -8   -5.50    6.30
  -5  -2  -8    9.40    8.70
   5   2   8    2.30    7.80
   5   2   8    5.50    9.00
   6  -3  -8   -0.10    7.70
  -6   3   8    2.20    5.10
  -6   3   8    3.60    4.40
  -6   3   8    5.00    6.20
  -6   3   8   10.30    7.80
  -6   3   8   14.30    7.10
   5  -3  -8   -3.20    4.40
   5  -3  -8   -2.40    3.90
   5  -3  -8   -6.60    3.20
   5  -3  -8    4.00    7.60
  -5   3   8   -9.50    3.90
  -5   3   8   -2.50    4.20
  -5   3   8   -8.30    4.10
  -5   3   8   -0.80    4.60
  -5   3   8   -2.00    2.30
   4  -3  -8    1.50    2.80
   4  -3  -8    0.20    3.60
   4  -3  -8    4.70    4.10
   4  -3  -8    1.80    7.50
  -4   3   8   -0.40    3.60
  -4   3   8   -4.00    5.00
  -4   3   8   -1.60    3.50
  -4   3   8   -2.80    3.70
  -4   3   8    0.90    3.60
  -4   3   8    0.40    3.80
   3  -3  -8   93.59   11.40
   3  -3  -8   90.39   15.00
   3  -3  -8   73.89   11.30
   3  -3  -8   97.29    9.90
   3  -3  -8   89.79   11.50
   3  -3  -8   96.29   11.00
   3  -3  -8   98.49   15.00
  -3   3   8  107.59   12.40
  -3   3   8   84.19   12.20
  -3   3   8   89.39   11.40
  -3   3   8   97.49    9.60
  -3   3   8  115.99   12.00
  -3   3   8  104.29   11.40
  -3   3   8  101.99   11.40
   2  -3  -8   65.29    9.40
   2  -3  -8   55.59    8.90
   2  -3  -8   51.99    9.80
   2  -3  -8   48.30    8.60
   2  -3  -8   71.09    9.80
   2  -3  -8   73.39    8.00
   2  -3  -8   47.40   11.90
  -2   3   8   61.29    8.90
  -2   3   8   44.80    8.20
  -2   3   8   68.39    9.50
  -2   3   8   72.49   10.90
  -2   3   8   64.79   13.00
  -2   3   8   71.99   10.60
  -2   3   8   69.09    7.50
   1  -3  -8   41.20    9.10
   1  -3  -8   40.40    7.80
   1  -3  -8   32.70    7.90
   1  -3  -8   41.20   11.80
   1  -3  -8   32.20    5.60
   1  -3  -8   49.00    8.20
   1  -3  -8   41.00    8.00
  -1   3   8   34.70    7.40
  -1   3   8   53.59   11.50
  -1   3   8   34.30    8.00
  -1   3   8   50.59    8.90
  -1   3   8   22.90    6.20
  -1   3   8   27.50    6.70
   0  -3  -8   -4.30    4.80
   0  -3  -8   -3.50    4.50
   0  -3  -8    3.90    4.00
   0  -3  -8   -2.90    2.60
   0  -3  -8    0.30    3.40
   0  -3  -8    1.90    4.10
   0  -3  -8    0.20    4.50
   0  -3  -8   -3.60    3.70
   0   3   8   -3.00    3.00
   0   3   8    1.60    4.10
   0   3   8    1.60    4.40
   0   3   8   -1.70    2.70
   0   3   8    7.50    4.80
  -1  -3  -8  287.37   27.80
  -1  -3  -8  316.87   27.90
  -1  -3  -8  295.17   28.30
  -1  -3  -8  297.87   25.70
  -1  -3  -8  258.97   26.40
  -1  -3  -8  306.27   27.20
  -1  -3  -8  305.27   28.10
   1   3   8  286.17   27.90
   1   3   8  313.67   28.30
   1   3   8  296.17   27.60
   1   3   8  314.07   27.70
   1   3   8  287.27   27.60
   1   3   8  312.67   26.60
  -2  -3  -8   -2.70    4.30
  -2  -3  -8    4.90    6.30
  -2  -3  -8    4.80    5.90
  -2  -3  -8   -1.30    3.50
  -2  -3  -8    0.60    4.50
  -2  -3  -8    0.10    4.30
  -2  -3  -8    6.50    6.30
   2   3   8    0.50    5.40
   2   3   8    0.50    6.20
   2   3   8   -2.00    3.50
   2   3   8    0.30    4.70
   2   3   8   -0.40    2.80
   2   3   8    2.60    5.80
  -3  -3  -8    0.20    4.10
  -3  -3  -8   -1.40    5.40
  -3  -3  -8    5.30    8.20
  -3  -3  -8    0.20    4.60
  -3  -3  -8   -1.70    4.00
   3   3   8   -2.80    5.10
   3   3   8    7.00    7.90
   3   3   8   -5.00    6.50
   3   3   8   -3.90    5.00
   3   3   8    4.60    3.60
  -4  -3  -8   93.79   20.40
  -4  -3  -8  131.19   18.90
  -4  -3  -8   94.19   17.50
  -4  -3  -8  126.19   17.20
  -4  -3  -8  112.09   15.70
   4   3   8  120.99   18.60
   4   3   8   97.89   16.60
   5  -4  -8    1.30    4.60
   5  -4  -8   14.30    9.50
   5  -4  -8    5.10    5.20
  -5   4   8    3.00    6.00
  -5   4   8    0.40    4.60
  -5   4   8   -3.10    5.10
  -5   4   8    9.60    5.20
  -5   4   8    6.70    5.20
   4  -4  -8   37.40    7.30
   4  -4  -8   39.00    9.50
   4  -4  -8   18.10    4.30
   4  -4  -8   34.60    6.80
   4  -4  -8   38.30   11.70
   4  -4  -8   33.20    7.00
  -4   4   8   27.90    8.00
  -4   4   8   29.40    6.30
  -4   4   8   15.70    6.20
  -4   4   8   24.80    6.50
  -4   4   8    6.50    6.80
  -4   4   8   41.00    7.10
   3  -4  -8  368.66   35.60
   3  -4  -8  335.87   37.80
   3  -4  -8  364.96   34.10
   3  -4  -8  419.06   34.60
   3  -4  -8  455.95   34.40
  -3   4   8  397.56   34.70
  -3   4   8  381.06   35.60
  -3   4   8  458.15   35.40
  -3   4   8  372.06   34.10
  -3   4   8  403.66   35.00
  -3   4   8  431.66   34.70
   2  -4  -8    5.30    3.40
   2  -4  -8    9.90   10.20
   2  -4  -8    1.40    4.80
   2  -4  -8    7.10    4.60
   2  -4  -8   -1.50    7.10
   2  -4  -8   14.10    5.50
   2  -4  -8    9.20    5.00
  -2   4   8   10.40    4.80
  -2   4   8   12.70    5.10
  -2   4   8   13.60    5.00
  -2   4   8   15.00    5.60
  -2   4   8    4.80    5.40
  -2   4   8    8.30    4.10
   1  -4  -8   17.80    6.00
   1  -4  -8   11.50    5.80
   1  -4  -8   23.30    5.60
   1  -4  -8   18.20    6.20
   1  -4  -8    9.80    7.00
   1  -4  -8    8.40    5.40
  -1   4   8    7.20    5.30
  -1   4   8   20.40    6.50
  -1   4   8   22.10    6.50
  -1   4   8   19.60    7.40
  -1   4   8   23.80    7.30
   0  -4  -8   38.80    7.10
   0  -4  -8   36.40    8.50
   0  -4  -8   52.79   10.30
   0  -4  -8   23.50    6.10
   0  -4  -8   55.99   10.10
   0  -4  -8   43.00    8.40
   0  -4  -8   27.30    9.60
   0   4   8   42.70    8.90
   0   4   8   37.10    9.80
   0   4   8   39.10    9.00
   0   4   8   34.90    8.10
   0   4   8   31.40    7.50
  -1  -4  -8   53.19   11.20
  -1  -4  -8   60.59    9.30
  -1  -4  -8   55.69    9.80
  -1  -4  -8   72.89   12.70
  -1  -4  -8   63.89   10.80
  -1  -4  -8   57.99   11.60
  -1  -4  -8   94.39   18.10
  -1  -4  -8   62.19   11.20
   1   4   8   57.19   12.00
   1   4   8   57.99   11.20
   1   4   8   89.39   14.80
   1   4   8   77.09   12.00
   1   4   8   55.69   10.80
   1   4   8   78.09   12.80
  -2  -4  -8    0.90    7.40
  -2  -4  -8    2.80    4.40
  -2  -4  -8   -6.60    7.40
  -2  -4  -8    6.90    4.50
  -2  -4  -8   -0.90    4.40
  -2  -4  -8  -10.40    5.80
   2   4   8    2.60    6.40
   2   4   8    1.10    3.50
   2   4   8    3.20    5.70
   2   4   8    4.90    6.20
   2   4   8    2.60    5.30
  -3  -4  -8   20.40    8.20
  -3  -4  -8   23.20   10.90
  -3  -4  -8   21.40    8.00
  -3  -4  -8   15.30    5.40
  -3  -4  -8   25.60   10.90
  -3  -4  -8   13.30    7.30
   3   4   8   29.90    8.50
   3   4   8   19.30   10.90
   3   4   8   11.10    5.00
   3   4   8   15.60    7.60
  -4  -4  -8   32.00    8.30
  -4  -4  -8   21.40   13.30
  -4  -4  -8   60.49   15.50
  -4  -4  -8   33.70   13.00
  -4  -4  -8   38.70   13.20
  -4  -4  -8   21.60    8.30
   4   4   8   42.90   10.20
   4   4   8   47.30   11.80
   5  -5  -8    1.10    5.30
   5  -5  -8   -4.20    5.80
   5  -5  -8    1.40    6.30
  -5   5   8    4.00    5.60
  -5   5   8    2.60    6.40
  -5   5   8   -1.70    5.50
  -5   5   8   -0.90    6.30
   4  -5  -8    9.30    7.60
   4  -5  -8   17.40    9.60
   4  -5  -8   14.00    3.60
  -4   5   8   11.50    6.10
  -4   5   8   19.80    6.50
  -4   5   8   15.20    6.60
  -4   5   8    6.00    4.70
  -4   5   8   19.40    7.10
   3  -5  -8  475.45   37.80
   3  -5  -8  378.86   41.70
   3  -5  -8  518.75   37.90
   3  -5  -8  394.06   40.20
   3  -5  -8  409.26   43.30
  -3   5   8  394.36   37.70
  -3   5   8  464.25   39.80
  -3   5   8  401.46   38.10
  -3   5   8  393.86   37.80
  -3   5   8  477.05   38.00
  -3   5   8  484.55   38.70
   2  -5  -8   10.10    6.60
   2  -5  -8    8.60    5.80
   2  -5  -8    4.40    4.70
   2  -5  -8    6.80    6.10
   2  -5  -8    5.90    4.90
   2  -5  -8   12.70    8.10
   2  -5  -8    5.70    3.50
  -2   5   8    6.10    5.50
  -2   5   8   16.80    6.20
  -2   5   8    3.00    3.70
  -2   5   8    9.40    5.50
  -2   5   8    5.00    5.60
  -2   5   8    6.30    5.90
   1  -5  -8    3.60    6.60
   1  -5  -8    3.80    6.90
   1  -5  -8    1.70    6.20
   1  -5  -8    6.20    4.30
   1  -5  -8    2.50    5.70
   1  -5  -8    3.20    5.10
   1  -5  -8   -4.70    3.90
  -1   5   8   -0.20    6.10
  -1   5   8    2.10    4.60
  -1   5   8    6.40    5.60
  -1   5   8    6.70    4.60
  -1   5   8   -2.00    5.30
  -1   5   8    3.10    5.30
   0  -5  -8  203.78   19.60
   0  -5  -8  217.08   25.30
   0  -5  -8  216.98   22.00
   0  -5  -8  236.98   23.80
   0  -5  -8  198.48   26.20
   0  -5  -8  190.28   25.40
   0  -5  -8  232.78   22.40
   0   5   8  254.27   22.80
   0   5   8  195.18   23.10
   0   5   8  212.88   22.60
   0   5   8  231.88   21.50
   0   5   8  175.38   21.80
  -1  -5  -8    3.10    4.60
  -1  -5  -8    6.10    9.90
  -1  -5  -8    1.10    4.90
  -1  -5  -8    4.20    5.10
  -1  -5  -8    1.60    4.50
  -1  -5  -8    9.90    7.60
  -1  -5  -8    2.30    6.10
  -1  -5  -8  -11.70    7.20
   1   5   8    1.10    6.40
   1   5   8    5.10    6.40
   1   5   8    6.00    5.80
   1   5   8    5.40    3.90
   1   5   8   -1.50    6.30
   1   5   8    1.00    7.60
  -2  -5  -8   41.30   11.20
  -2  -5  -8   15.50    5.80
  -2  -5  -8   15.00    6.40
  -2  -5  -8   34.00   11.70
  -2  -5  -8   28.60   10.30
  -2  -5  -8   32.50    8.90
  -2  -5  -8   38.90    9.20
   2   5   8   26.70    5.90
   2   5   8   27.00   10.20
   2   5   8   31.40   10.80
  -3  -5  -8   60.69   17.50
  -3  -5  -8   92.49   12.60
  -3  -5  -8   93.99   15.80
  -3  -5  -8  128.69   19.40
  -3  -5  -8  105.99   16.00
  -3  -5  -8   58.69   15.50
   3   5   8  103.09   14.90
   3   5   8   60.89   13.80
   3   5   8   61.99   10.50
   4  -6  -8   24.10    7.80
   4  -6  -8   24.90    9.00
   4  -6  -8   24.70    4.40
   4  -6  -8    4.40    8.40
  -4   6   8   15.50    9.30
  -4   6   8   22.30    7.70
  -4   6   8   34.90   10.20
   3  -6  -8   67.59    9.90
   3  -6  -8  103.99   12.90
   3  -6  -8  107.49   14.20
  -3   6   8   94.99   13.10
  -3   6   8   91.99   13.50
  -3   6   8   84.39   14.10
  -3   6   8   67.39   13.40
  -3   6   8   71.79   12.40
   2  -6  -8   -1.60    7.60
   2  -6  -8    5.40    7.10
   2  -6  -8    4.30    4.00
   2  -6  -8   11.30    6.40
  -2   6   8    8.50    6.30
  -2   6   8    5.70    6.00
  -2   6   8   11.50    6.40
  -2   6   8    0.70    6.30
   1  -6  -8   16.30    6.90
   1  -6  -8   17.30   10.00
   1  -6  -8   12.20    8.20
   1  -6  -8    9.20    8.20
   1  -6  -8   12.50    6.60
   1  -6  -8    4.50    4.40
   1  -6  -8    7.30    8.70
  -1   6   8    3.50   11.80
  -1   6   8    0.60    4.20
  -1   6   8    2.70    7.60
  -1   6   8    1.70    6.30
  -1   6   8    6.10    6.10
   0  -6  -8   13.40    9.10
   0  -6  -8   15.20    6.40
   0  -6  -8    6.00    7.80
   0  -6  -8    4.30    6.60
   0  -6  -8    3.70    6.20
   0   6   8    6.80    3.80
   0   6   8    5.60    7.60
   0   6   8   17.20    9.60
   0   6   8   23.70    8.60
   0   6   8    5.00    6.20
  -1  -6  -8    0.70    6.30
  -1  -6  -8   -7.90   10.00
  -1  -6  -8    6.50    6.20
  -1  -6  -8   12.00    8.50
  -1  -6  -8   -8.10    6.40
  -1  -6  -8   11.80   10.10
  -1  -6  -8   -8.00    9.90
   1   6   8    0.20    4.30
   1   6   8   -5.40    6.80
   1   6   8   13.20   10.20
   1   6   8   -9.10    8.50
  -2  -6  -8   -3.60    8.50
  -2  -6  -8    4.00    6.70
  -2  -6  -8  -12.90   11.40
  -2  -6  -8    3.40    5.30
  -2  -6  -8   -1.30   10.40
  -2  -6  -8   14.10    8.40
  -2  -6  -8   11.80   12.00
   2   6   8   11.30    8.80
   2   6   8   -1.30   14.70
   2   6   8   -1.20    8.10
   2   6   8   -4.80    3.90
   4  -7  -8   72.39   13.90
   4  -7  -8  124.19   10.50
   4  -7  -8  115.89   24.10
  -4   7   8  110.09   17.10
  -4   7   8   95.59   15.80
  -4   7   8  116.89   16.50
  -4   7   8  123.09   16.70
   3  -7  -8    0.00    7.50
   3  -7  -8   -9.00    7.90
   3  -7  -8   -3.00    4.70
   3  -7  -8    3.70    7.40
  -3   7   8   -0.30    7.80
  -3   7   8    2.20   11.80
  -3   7   8    1.30    5.00
   2  -7  -8    0.50    7.50
   2  -7  -8    4.40    8.70
   2  -7  -8    0.80    4.80
   2  -7  -8  -14.70    6.90
  -2   7   8    3.10    7.50
  -2   7   8   14.10    8.90
  -2   7   8    5.00    6.70
  -2   7   8    0.70    4.10
  -2   7   8   -8.90    7.00
   1  -7  -8   12.60    9.90
   1  -7  -8   31.30    9.70
   1  -7  -8   14.70    5.90
   1  -7  -8   17.30    7.70
  -1   7   8   30.70    8.80
  -1   7   8   15.20   11.00
  -1   7   8   29.50    9.60
  -1   7   8   11.90    9.50
  -1   7   8   35.90    9.60
   0  -7  -8    1.10    5.70
   0  -7  -8    4.70    7.10
   0  -7  -8    8.50    7.70
   0  -7  -8    1.70    7.90
   0  -7  -8   14.50   12.20
   0   7   8    1.50   10.10
   0   7   8    6.20    8.90
   0   7   8    3.30    7.10
   0   7   8   -4.30    5.20
   0   7   8  -23.60   14.70
  -1  -7  -8   -9.90    7.70
  -1  -7  -8   -6.10    8.20
  -1  -7  -8   -1.30    9.30
  -1  -7  -8   41.40   15.00
   1   7   8   10.20   11.70
   1   7   8   27.40   10.40
   1   7   8    2.80    4.60
   1   7   8   -3.10    8.60
   2  -8  -8   17.30    9.80
   2  -8  -8    3.70    6.30
   2  -8  -8   10.10   10.50
   2  -8  -8   18.60   10.40
  -2   8   8   20.20    8.00
  -2   8   8    9.00   11.70
  -2   8   8   21.80    8.90
  -2   8   8   27.90   11.70
   1  -8  -8   48.20    8.50
   1  -8  -8   69.99   13.70
   1  -8  -8   38.60   13.20
   1  -8  -8   63.89   20.70
  -1   8   8   73.59   20.20
  -1   8   8   69.29   14.00
  -1   8   8   38.10   13.00
  -1   8   8   45.40   14.40
   0  -8  -8   14.00    9.90
   0  -8  -8   14.90    9.90
   0  -8  -8  -10.00    9.90
   0   8   8   -1.00    6.00
   0   8   8   25.20   10.00
   0   8   8   -5.30   10.20
   1  13  -9  207.68   22.90
  -1 -13   9  194.38   24.80
  -1 -13   9  177.18   25.00
  -1 -13   9  182.28   19.50
   0  13  -9   74.89    8.40
   0  13  -9   41.00    9.50
   0  13  -9   60.49   12.60
   0 -13   9   53.69   13.40
   0 -13   9   89.79   10.60
   0 -13   9   82.29   16.00
   0 -13   9   54.99   10.80
   0 -13   9   44.50   10.60
  -1  13  -9  -13.20    7.80
  -1  13  -9    7.10    7.20
  -1  13  -9   -3.60    4.50
   1 -13   9    6.80    7.40
   1 -13   9  -16.40   12.80
   1 -13   9   -7.80    4.20
   1 -13   9   13.40    7.10
   1 -13   9    7.30   11.30
  -2  13  -9   31.40    7.30
  -2  13  -9   36.90   10.60
  -2  13  -9   13.50    9.40
   2 -13   9   45.10   16.60
   2 -13   9   30.60   10.20
   2 -13   9   34.00    6.80
   2 -13   9   38.20    9.40
   3  12  -9   12.10    8.60
   3  12  -9   -6.80    8.30
  -3 -12   9  -21.50    9.00
  -3 -12   9   -3.60    4.90
  -3 -12   9   26.90   10.10
  -3 -12   9    1.70    5.50
  -3 -12   9    4.40    5.40
   2  12  -9    6.30    8.20
  -2 -12   9   11.50    5.60
  -2 -12   9    2.30    9.10
  -2 -12   9   14.40    6.90
  -2 -12   9    5.30    9.20
   1  12  -9    1.00    6.10
  -1 -12   9    1.20    5.10
  -1 -12   9  -12.10    8.80
  -1 -12   9   -1.10    3.90
  -1 -12   9   -2.10    5.20
  -1 -12   9    0.30    8.60
   0  12  -9   19.70    8.40
   0  12  -9   25.20    7.60
   0  12  -9    5.00    4.20
   0  12  -9   10.00    3.60
   0 -12   9    8.30    5.10
   0 -12   9    4.40    4.90
   0 -12   9   11.10   10.90
   0 -12   9   11.70    5.90
   0 -12   9   14.20    9.40
  -1  12  -9    0.40    6.10
  -1  12  -9   -3.90    3.50
  -1  12  -9  -11.60    8.00
   1 -12   9   -3.80    5.40
   1 -12   9    2.20    5.50
   1 -12   9    3.70    9.70
   1 -12   9   20.30   10.60
   1 -12   9   -1.40    4.00
  -2  12  -9    2.60   13.60
  -2  12  -9   -0.40    7.60
  -2  12  -9    0.80    5.10
  -2  12  -9   10.70    7.80
   2 -12   9   21.90   11.80
   2 -12   9    4.60    6.40
   2 -12   9    6.90    7.40
   2 -12   9    9.30    6.60
   2 -12   9    8.00    4.30
  -3  12  -9   22.40    8.20
  -3  12  -9    4.00    5.90
  -3  12  -9   11.80    8.10
  -3  12  -9  -15.50   16.10
  -3  12  -9    0.40   15.10
   3 -12   9    0.90    8.40
   3 -12   9    3.80    4.60
   3 -12   9    4.30    7.50
   3 -12   9  -12.30    8.30
   4  11  -9   -3.30    7.10
   4  11  -9   -8.20    7.20
   4  11  -9    8.70    7.30
  -4 -11   9    3.80    5.00
  -4 -11   9  -21.60    7.80
  -4 -11   9    1.90    9.30
  -4 -11   9   -0.70    4.40
  -4 -11   9   -2.00    5.00
   3  11  -9   -7.30    6.00
   3  11  -9   16.00    9.90
  -3 -11   9   -4.50    7.00
  -3 -11   9   -2.60    5.20
   2  11  -9  144.99   15.90
   2  11  -9  146.19   15.30
  -2 -11   9   89.99   15.10
  -2 -11   9  111.99   13.50
  -2 -11   9  100.89   15.20
  -2 -11   9  103.69   13.30
  -2 -11   9  117.39   12.70
   1  11  -9   20.70    6.90
   1  11  -9   17.70    6.40
   1  11  -9    7.10    5.30
  -1 -11   9    8.20    4.70
  -1 -11   9   16.40    5.70
  -1 -11   9   15.50    7.70
  -1 -11   9    3.90    4.70
  -1 -11   9   -0.70    7.10
   0  11  -9   -3.40    6.00
   0  11  -9  -13.50    5.10
   0  11  -9   -3.70    5.40
   0  11  -9   -4.50    5.00
   0  11  -9    2.30    3.00
   0 -11   9   -0.50    7.80
   0 -11   9   -3.70    4.20
   0 -11   9   -8.50    7.00
   0 -11   9   -3.00    4.20
   0 -11   9    5.40    3.80
  -1  11  -9   10.90    3.90
  -1  11  -9    9.00    5.90
  -1  11  -9    8.60    6.70
  -1  11  -9   -4.20    5.30
   1 -11   9    9.20    6.00
   1 -11   9    8.90    4.10
   1 -11   9    2.50    5.20
   1 -11   9    7.80    8.40
   1 -11   9    8.90    5.60
   1 -11   9    8.40    9.40
  -2  11  -9    5.20    7.60
  -2  11  -9   -6.80    6.30
  -2  11  -9   -3.30    7.80
  -2  11  -9    7.20    6.30
  -2  11  -9    0.60    3.80
   2 -11   9    0.80    5.70
   2 -11   9  -10.40   10.40
   2 -11   9    5.10    3.80
   2 -11   9   10.70    7.30
  -3  11  -9    7.40    9.20
  -3  11  -9   20.30   11.70
  -3  11  -9    2.30    7.20
  -3  11  -9    7.70    6.20
  -3  11  -9    2.20    4.90
   3 -11   9    7.50    6.80
   3 -11   9   -5.20    6.60
   3 -11   9   -0.10    6.10
   3 -11   9    6.90    4.30
   3 -11   9   -6.70   11.60
  -4  11  -9   18.60    6.50
  -4  11  -9   17.50    6.90
  -4  11  -9   -5.00    7.50
  -4  11  -9    1.70   16.80
  -4  11  -9    4.20   10.70
   4 -11   9   -6.70    7.10
   4 -11   9   -7.60    4.20
   4 -11   9   -5.50    7.90
   4 -11   9    1.80    8.30
   4  10  -9   22.80    6.60
   4  10  -9    7.80    6.20
  -4 -10   9    0.80    6.90
  -4 -10   9   -4.00    6.50
   3  10  -9    5.00    7.10
  -3 -10   9   -7.30    6.00
  -3 -10   9  -11.10    5.30
  -3 -10   9    5.80    4.30
  -3 -10   9    2.00    3.90
  -3 -10   9    2.80    3.90
   2  10  -9  147.59   15.30
   2  10  -9  129.79   15.30
   2  10  -9  155.98   15.90
   2  10  -9  123.79   15.10
  -2 -10   9  134.29   14.10
  -2 -10   9  136.09   14.60
  -2 -10   9  118.19   16.70
  -2 -10   9  131.29   15.60
  -2 -10   9  125.69   13.80
   1  10  -9   -6.30    4.10
   1  10  -9   -8.60    4.50
   1  10  -9   -2.10    4.40
   1  10  -9    1.20    4.50
  -1 -10   9   -5.90    3.30
  -1 -10   9   -3.90    3.10
  -1 -10   9   -0.90    5.90
  -1 -10   9    0.50    5.50
  -1 -10   9    4.40    3.80
   0  10  -9    0.00    4.80
   0  10  -9    1.90    2.10
   0  10  -9   -0.50    4.20
   0  10  -9    0.70    5.50
   0 -10   9    3.50    4.10
   0 -10   9    8.00    6.60
   0 -10   9    4.00    3.30
   0 -10   9    2.10    3.70
   0 -10   9    3.70    5.40
  -1  10  -9   41.10    8.90
  -1  10  -9   48.00    7.00
  -1  10  -9   50.59    9.80
  -1  10  -9   39.40    9.80
  -1  10  -9   69.29    9.10
  -1  10  -9   64.99   10.50
   1 -10   9   40.40    8.00
   1 -10   9   64.89   10.20
   1 -10   9   66.09   11.80
   1 -10   9   63.69    7.90
  -2  10  -9   -6.70    6.00
  -2  10  -9    4.80    4.80
  -2  10  -9   12.10    6.40
  -2  10  -9   -1.10    4.60
  -2  10  -9   -0.20    3.50
  -2  10  -9   -6.00    7.80
   2 -10   9   -3.80    6.60
   2 -10   9   -1.20    8.10
   2 -10   9    2.80    3.50
   2 -10   9   -1.80    4.50
   2 -10   9    7.30    5.40
   2 -10   9   -2.10    6.70
   2 -10   9    1.40    5.50
  -3  10  -9   43.90    9.90
  -3  10  -9   52.19    7.80
  -3  10  -9   41.60    9.70
  -3  10  -9   27.50    8.80
  -3  10  -9   36.50    7.90
  -3  10  -9   35.40    6.60
   3 -10   9   39.90   11.20
   3 -10   9   27.50    5.90
   3 -10   9   33.60    7.90
   3 -10   9   41.20   15.90
   3 -10   9   23.40    7.70
  -4  10  -9    5.40    7.30
  -4  10  -9   19.10    8.30
  -4  10  -9   38.10   11.90
  -4  10  -9   37.30    9.80
  -4  10  -9   36.10    8.80
  -4  10  -9   39.30    7.70
   4 -10   9   25.90    9.00
   4 -10   9   21.30    6.20
   4 -10   9   29.60    8.00
   4 -10   9   19.70    8.40
  -5  -9   9   -0.10    5.70
  -5  -9   9  -12.70    6.50
  -5  -9   9   -2.10    4.80
  -5  -9   9    2.00    3.80
  -5  -9   9    7.70    6.30
   4   9  -9    3.60    4.80
   4   9  -9   -0.30    5.10
   4   9  -9    6.40    4.80
  -4  -9   9    3.10    3.50
  -4  -9   9    8.80    4.10
  -4  -9   9   -2.70    4.10
  -4  -9   9    5.80    6.20
   3   9  -9    7.30    4.40
   3   9  -9    7.20    4.80
   3   9  -9    2.80    4.30
  -3  -9   9    0.30    3.30
  -3  -9   9   -8.20    6.20
  -3  -9   9    0.10    5.20
  -3  -9   9    4.70    3.90
  -3  -9   9    6.30    3.50
   2   9  -9    1.70    4.30
   2   9  -9   -2.50    4.20
   2   9  -9   -5.70    7.10
   2   9  -9    3.20    5.20
  -2  -9   9  -12.40    4.60
  -2  -9   9   -5.30    2.70
  -2  -9   9   -2.60    3.50
  -2  -9   9   -1.10    3.20
  -2  -9   9   -2.80    4.90
   1   9  -9    7.40    4.60
   1   9  -9    5.30    7.90
   1   9  -9   10.10    5.00
   1   9  -9    7.10    4.50
  -1  -9   9    6.80    3.70
  -1  -9   9    5.10    4.70
  -1  -9   9   15.70    5.40
  -1  -9   9    4.80    3.80
  -1  -9   9    5.20    3.30
   0   9  -9    3.50    4.20
   0   9  -9   -1.10    1.80
   0   9  -9   -2.10    4.20
   0   9  -9    2.80    4.50
   0   9  -9    8.50    4.30
   0   9  -9    0.30    3.90
   0  -9   9    1.80    3.50
   0  -9   9   -9.70    5.30
   0  -9   9   -0.20    5.20
   0  -9   9   -0.60    2.60
  -1   9  -9    5.10    4.10
  -1   9  -9   14.20    6.30
  -1   9  -9    9.50    3.20
  -1   9  -9   17.40    5.00
  -1   9  -9   15.40    6.00
  -1   9  -9   12.40    5.60
   1  -9   9    9.80    6.10
   1  -9   9    9.20    4.10
  -2   9  -9   -0.80    5.70
  -2   9  -9    0.30    3.80
  -2   9  -9    1.80    3.10
  -2   9  -9   -3.20    4.60
  -2   9  -9    0.10    4.40
  -2   9  -9    7.00    5.80
   2  -9   9    3.50    5.60
   2  -9   9   -6.60    6.00
   2  -9   9   11.00    7.10
   2  -9   9    1.20    4.40
   2  -9   9    7.50    4.70
  -3   9  -9   39.00    6.60
  -3   9  -9   47.70   10.70
  -3   9  -9   39.50    8.30
  -3   9  -9   29.90    7.50
  -3   9  -9   23.70    7.50
  -3   9  -9   42.00    8.50
   3  -9   9   48.20    7.90
   3  -9   9   35.80    7.50
   3  -9   9   45.80   11.40
   3  -9   9   28.10    8.30
   3  -9   9   31.20    7.50
   3  -9   9   33.40    8.40
   3  -9   9   26.10    8.20
  -4   9  -9    5.70    5.90
  -4   9  -9   -0.70    5.60
  -4   9  -9    5.10    5.40
  -4   9  -9   10.60    8.10
  -4   9  -9    4.00    7.50
  -4   9  -9    0.30    5.90
   4  -9   9   -1.00    4.10
   4  -9   9    1.60    5.40
   4  -9   9    7.20    6.90
   4  -9   9    6.80    6.40
  -5  -8   9   -5.60    3.90
  -5  -8   9    5.70    3.40
  -5  -8   9    4.60    3.60
  -5  -8   9    6.60    5.10
   4   8  -9   -4.50    3.50
   4   8  -9    8.20    4.10
   4   8  -9   -5.10    3.50
  -4  -8   9    0.50    5.10
  -4  -8   9    0.40    3.10
  -4  -8   9   -1.40    2.80
  -4  -8   9    0.40    4.00
  -4  -8   9   -1.60    4.30
   3   8  -9   10.70    4.50
   3   8  -9   15.50    4.60
   3   8  -9   11.40    4.30
  -3  -8   9   13.40    5.50
  -3  -8   9   15.40    4.20
  -3  -8   9   22.90    5.70
  -3  -8   9   15.10    4.40
  -3  -8   9   14.00    3.90
   2   8  -9   -2.30    5.70
   2   8  -9   -2.30    3.50
   2   8  -9    0.20    3.50
   2   8  -9   -0.60    3.50
  -2  -8   9    3.30    3.00
  -2  -8   9   12.30    4.10
  -2  -8   9   -1.30    2.80
  -2  -8   9    0.40    4.20
  -2  -8   9   -3.60    2.80
   1   8  -9    7.30    4.00
   1   8  -9    4.60    3.70
   1   8  -9    6.80    4.00
   1   8  -9    8.10    3.80
   1   8  -9    5.10    4.10
  -1  -8   9    4.80    3.50
  -1  -8   9    2.90    4.80
  -1  -8   9   20.40    5.20
  -1  -8   9    3.30    2.70
   0   8  -9    7.30    5.30
   0   8  -9    7.80    4.80
   0   8  -9   15.20    2.60
   0   8  -9    4.00    4.00
   0   8  -9    8.70    4.00
   0   8  -9   16.40    4.80
   0  -8   9    7.60    5.80
   0  -8   9    6.70    3.80
   0  -8   9    7.90    4.10
   0  -8   9   13.40    4.80
   0  -8   9   11.60    4.90
  -1   8  -9   -0.30    3.60
  -1   8  -9   -1.70    4.00
  -1   8  -9   -1.20    4.80
  -1   8  -9   -6.60    3.30
  -1   8  -9   -0.50    2.60
  -1   8  -9   -1.10    3.00
   1  -8   9    2.30    5.60
   1  -8   9   -3.60    4.10
   1  -8   9   -3.10    3.50
   1  -8   9    1.50    2.60
   1  -8   9   -2.30    3.20
  -2   8  -9    7.60    3.90
  -2   8  -9    2.90    4.10
  -2   8  -9    9.00    5.70
  -2   8  -9   19.60    4.40
  -2   8  -9    3.40    4.80
  -2   8  -9    8.00    5.70
   2  -8   9   19.30    6.10
   2  -8   9    9.30    5.20
   2  -8   9    7.90    4.80
   2  -8   9    3.60    6.50
   2  -8   9    5.80    3.50
  -3   8  -9   -2.70    5.40
  -3   8  -9   -3.00    3.70
  -3   8  -9    1.30    4.50
  -3   8  -9   -4.50    5.60
  -3   8  -9   -7.40    4.00
   3  -8   9    0.00    4.60
   3  -8   9    3.80    4.20
   3  -8   9    0.50    6.80
   3  -8   9    2.70    7.20
   3  -8   9    2.70    4.90
  -4   8  -9   27.00    8.60
  -4   8  -9   17.90    6.70
  -4   8  -9   22.50    7.30
  -4   8  -9   25.90    8.70
  -4   8  -9   24.10    7.10
  -4   8  -9   24.60    6.20
   4  -8   9   22.00   10.40
   4  -8   9   28.30    5.50
   4  -8   9   20.70    5.30
   4  -8   9   15.80    7.40
   4  -8   9   12.00    6.60
  -5   8  -9   11.40   14.00
  -5   8  -9  -10.40    8.30
  -5   8  -9  -10.40    9.80
  -5   8  -9   -7.80    6.30
  -5   8  -9   -7.80    7.20
  -5   8  -9    3.30    6.00
   5  -8   9    0.20    7.00
   5  -8   9    2.20    8.40
   5   7  -9   -0.10    9.50
  -5  -7   9   19.80    5.00
  -5  -7   9    8.60    3.50
  -5  -7   9   14.80    3.80
  -5  -7   9   17.40    5.20
  -5  -7   9   10.60    4.60
   4   7  -9   -2.90    3.30
   4   7  -9    0.90    3.20
   4   7  -9   -4.50    3.30
   4   7  -9    2.80    7.40
  -4  -7   9   -0.30    2.70
  -4  -7   9    0.60    3.70
  -4  -7   9   -4.90    3.90
  -4  -7   9    2.20    3.10
   3   7  -9    2.40    3.90
   3   7  -9    5.60    3.40
   3   7  -9    6.20    3.60
   3   7  -9    7.10    6.30
   3   7  -9    0.40    3.30
  -3  -7   9    3.40    3.30
  -3  -7   9    1.70    3.10
  -3  -7   9   -2.00    2.60
  -3  -7   9   12.00    4.00
  -3  -7   9    6.60    4.50
   2   7  -9    0.60    3.10
   2   7  -9    3.20    3.30
   2   7  -9   -2.00    5.50
   2   7  -9    1.60    3.10
   2   7  -9    1.20    2.80
  -2  -7   9   -0.10    2.90
  -2  -7   9   -7.00    3.70
  -2  -7   9    2.40    2.80
  -2  -7   9    6.70    3.90
  -2  -7   9   -0.30    2.90
   1   7  -9   14.80    4.70
   1   7  -9   21.00    5.30
   1   7  -9   13.90    3.70
   1   7  -9   13.70    4.40
   1   7  -9   18.50    4.90
  -1  -7   9   20.20    5.20
  -1  -7   9   23.60    5.90
  -1  -7   9   17.90    4.20
  -1  -7   9   17.60    4.80
  -1  -7   9   16.70    4.60
   0   7  -9   19.00    3.30
   0   7  -9   22.00    5.90
   0   7  -9   15.40    4.30
   0   7  -9   21.20    5.30
   0   7  -9   17.10    5.50
   0   7  -9   15.00    5.00
   0  -7   9   15.80    5.00
   0  -7   9   12.80    5.00
   0  -7   9   24.50    6.40
   0  -7   9   24.20    6.20
   0  -7   9   19.10    4.30
  -1   7  -9    8.70    4.60
  -1   7  -9    8.80    3.40
  -1   7  -9    6.80    3.30
  -1   7  -9    9.60    4.70
  -1   7  -9   21.00    5.80
  -1   7  -9   12.50    4.30
   1  -7   9    3.40    5.40
   1  -7   9   11.90    5.70
   1  -7   9    7.90    3.20
   1  -7   9    9.30    4.00
   1  -7   9   10.60    4.40
  -2   7  -9    1.10    4.10
  -2   7  -9    2.10    3.90
  -2   7  -9    6.50    4.50
  -2   7  -9    4.00    3.40
  -2   7  -9   -1.60    4.50
  -2   7  -9    1.40    3.20
   2  -7   9    6.10    5.10
   2  -7   9    4.90    3.90
   2  -7   9    0.70    4.60
   2  -7   9    3.10    3.00
   2  -7   9    2.90    4.30
  -3   7  -9   26.50    7.90
  -3   7  -9   18.90    5.20
  -3   7  -9   14.70    5.70
  -3   7  -9   14.80    5.30
  -3   7  -9   17.50    6.60
  -3   7  -9   11.70    5.40
   3  -7   9    8.90    7.40
   3  -7   9   19.20    6.10
   3  -7   9   27.60    7.20
   3  -7   9   18.40    6.40
  -4   7  -9    9.40    5.00
  -4   7  -9    1.00    7.20
  -4   7  -9    4.90    5.50
  -4   7  -9   14.90    6.30
  -4   7  -9   12.40    7.60
  -4   7  -9    0.90    4.50
   4  -7   9   11.00    3.70
   4  -7   9   19.90   10.20
   4  -7   9    7.50    5.90
   4  -7   9    1.60    3.90
   4  -7   9   10.90    5.80
   4  -7   9    3.50    8.40
  -5   7  -9   14.50    8.20
  -5   7  -9   10.20    8.60
  -5   7  -9   15.50    6.80
  -5   7  -9   10.20    6.20
   5  -7   9    3.70    7.50
   5  -7   9   -4.10    6.80
   6   6  -9   23.00   12.70
  -6  -6   9   18.10    4.30
  -6  -6   9   20.30    5.70
  -6  -6   9   25.60    8.80
   5   6  -9   22.00    9.90
  -5  -6   9   12.20    3.30
  -5  -6   9    5.50    3.80
  -5  -6   9    8.20    4.10
  -5  -6   9    6.40    2.90
  -5  -6   9   13.70    3.80
   4   6  -9    6.70    3.00
   4   6  -9    2.80    3.00
   4   6  -9    4.10    2.80
  -4  -6   9    3.60    3.50
  -4  -6   9   -3.30    7.30
  -4  -6   9    2.80    3.00
  -4  -6   9    1.90    2.50
  -4  -6   9    5.80    3.80
   3   6  -9   -0.70    2.90
   3   6  -9    3.70    3.10
   3   6  -9    4.00    3.10
   3   6  -9    7.60    8.20
  -3  -6   9    5.50    3.50
  -3  -6   9   -0.10    2.80
  -3  -6   9    3.00    3.30
  -3  -6   9   -2.30    3.50
  -3  -6   9    2.60    2.80
   2   6  -9   14.90    4.10
   2   6  -9   39.70   15.50
   2   6  -9   13.80    4.40
   2   6  -9   18.70    4.20
   2   6  -9   18.00    4.30
   2   6  -9   17.80    4.00
  -2  -6   9   14.10    4.50
  -2  -6   9   16.30    4.40
  -2  -6   9   21.90    4.70
  -2  -6   9   19.10    5.30
  -2  -6   9   27.00    8.20
   1   6  -9   86.59   10.90
   1   6  -9   84.69   10.50
   1   6  -9  104.89   10.80
   1   6  -9  101.09   10.10
   1   6  -9  102.19   10.60
  -1  -6   9   72.09   10.10
  -1  -6   9   74.29    9.40
  -1  -6   9  109.79   10.90
  -1  -6   9  120.19   11.60
  -1  -6   9   82.69   10.40
   0   6  -9    3.00    2.20
   0   6  -9    2.80    3.00
   0   6  -9    0.90    3.40
   0   6  -9    0.30    3.40
   0   6  -9    0.70    2.80
   0   6  -9    2.20    3.20
   0  -6   9    2.90    3.60
   0  -6   9    0.70    3.60
   0  -6   9    9.10    4.70
   0  -6   9    1.80    2.70
   0  -6   9   -0.40    2.60
  -1   6  -9   71.49    7.90
  -1   6  -9   46.00    8.00
  -1   6  -9   62.79   10.10
  -1   6  -9   62.29    7.40
  -1   6  -9   66.49    9.30
  -1   6  -9   44.50    8.50
   1  -6   9   46.00    8.60
   1  -6   9   76.79   15.10
   1  -6   9   70.89    7.90
   1  -6   9   50.89    8.90
  -2   6  -9  107.99   11.80
  -2   6  -9  121.79   11.80
  -2   6  -9  133.89   13.90
  -2   6  -9  133.69   14.10
  -2   6  -9  105.09   13.40
  -2   6  -9  120.09   13.50
   2  -6   9   90.99   12.60
   2  -6   9   99.39   11.40
   2  -6   9  124.99   13.60
   2  -6   9   99.29   13.00
  -3   6  -9    1.70    3.10
  -3   6  -9    2.70    3.60
  -3   6  -9    2.60    4.20
  -3   6  -9    1.10    4.60
  -3   6  -9   -0.10    3.90
  -3   6  -9   -5.10    7.10
   3  -6   9   -1.50    4.20
   3  -6   9    3.90    5.00
   3  -6   9    0.40    6.20
   3  -6   9   -4.00    4.10
  -4   6  -9   17.80    7.80
  -4   6  -9   10.70    5.80
  -4   6  -9    7.40    6.00
  -4   6  -9   23.90    6.00
  -4   6  -9   14.40    6.10
  -4   6  -9   22.80    6.10
   4  -6   9   10.40    5.30
   4  -6   9   13.40    6.20
   4  -6   9   17.80    6.80
   4  -6   9   18.60    4.90
   4  -6   9    8.50    6.20
   4  -6   9   29.60    9.10
   4  -6   9   16.20    3.80
  -5   6  -9   11.70    5.90
  -5   6  -9    7.10    7.30
  -5   6  -9   -0.90    7.50
  -5   6  -9   10.70    5.90
  -5   6  -9    0.20    6.10
  -5   6  -9   -1.50    6.20
   5  -6   9   13.70    7.20
   5  -6   9   -4.90    6.90
   6   5  -9   -1.10    9.70
  -6  -5   9    1.30    5.70
  -6  -5   9    3.10    4.40
  -6  -5   9   -4.40    4.00
   5   5  -9   50.09   12.80
  -5  -5   9   39.40    9.20
  -5  -5   9   38.40    5.50
  -5  -5   9   39.10    5.60
  -5  -5   9   28.00    6.00
  -5  -5   9   33.50    5.00
  -5  -5   9   36.60    4.80
  -5  -5   9   36.10    4.80
   4   5  -9   11.00    2.80
   4   5  -9    4.00    2.30
   4   5  -9    4.00    7.60
   4   5  -9    9.90    2.60
  -4  -5   9   10.40    4.10
  -4  -5   9   12.70    3.60
  -4  -5   9   10.70    3.90
  -4  -5   9    9.70    3.00
  -4  -5   9    8.80    3.20
   3   5  -9   64.29    7.60
   3   5  -9   81.39   11.10
   3   5  -9   63.69    7.40
   3   5  -9   71.89    7.60
  -3  -5   9   62.49    8.10
  -3  -5   9   48.50    8.30
  -3  -5   9   58.09    8.80
  -3  -5   9   62.79    8.40
   2   5  -9    1.30    5.00
   2   5  -9    5.00    2.70
   2   5  -9    2.90    2.90
   2   5  -9    3.10    2.60
   2   5  -9    6.90    2.90
   2   5  -9    3.40    3.20
  -2  -5   9    3.70    2.80
  -2  -5   9    3.00    3.50
  -2  -5   9    6.60    3.50
  -2  -5   9    4.00    3.00
   1   5  -9   84.39   10.30
   1   5  -9   78.49   10.30
   1   5  -9   89.19    9.90
   1   5  -9   89.59    9.90
   1   5  -9   87.39    9.30
  -1  -5   9   83.49    9.20
  -1  -5   9   87.09   10.20
  -1  -5   9   90.09   10.30
   0   5  -9  130.09   12.30
   0   5  -9  149.69   14.10
   0   5  -9  137.39   13.50
   0   5  -9  118.39   13.80
   0   5  -9  127.79   13.80
   0   5  -9  139.39   14.20
   0  -5   9  139.19   12.70
   0  -5   9  109.09   13.20
   0  -5   9  124.19   13.30
  -1   5  -9   39.60    7.30
  -1   5  -9   37.60    7.80
  -1   5  -9   37.80    6.00
  -1   5  -9   58.99    9.20
  -1   5  -9   45.90    6.80
  -1   5  -9   40.20    7.50
   1  -5   9   33.40    6.00
   1  -5   9   37.50    7.30
   1  -5   9   30.50    6.90
  -2   5  -9   15.50    4.70
  -2   5  -9   17.90    4.60
  -2   5  -9   30.00    6.50
  -2   5  -9   14.70    4.60
  -2   5  -9    8.90    4.50
   2  -5   9   14.70    4.10
   2  -5   9   12.10    4.90
   2  -5   9   13.30    4.50
  -3   5  -9   61.49    7.90
  -3   5  -9   56.39    9.30
  -3   5  -9   44.80    8.80
  -3   5  -9   82.89   11.90
  -3   5  -9   46.00    8.40
   3  -5   9   40.70    7.90
   3  -5   9   50.49    6.80
   3  -5   9   45.70    9.30
  -4   5  -9    5.40    4.80
  -4   5  -9    4.90    4.70
  -4   5  -9   -1.10    4.30
  -4   5  -9   -4.70    5.00
  -4   5  -9    3.50    5.60
  -4   5  -9   -7.80    4.40
   4  -5   9    4.70    5.80
   4  -5   9   -2.70    5.00
   4  -5   9   -0.30    4.70
  -5   5  -9   13.60    7.70
  -5   5  -9    5.60    6.50
  -5   5  -9   21.00    6.60
  -5   5  -9   10.40    6.80
  -5   5  -9    7.40    7.00
  -5   5  -9   14.90    6.40
   5  -5   9    0.90   11.20
   5  -5   9   10.40    6.70
   6   4  -9   -2.00    9.50
  -6  -4   9   -2.10    4.60
  -6  -4   9   -6.40    3.50
  -6  -4   9    0.20    4.10
   5   4  -9  -10.90    7.80
  -5  -4   9    0.10    3.20
  -5  -4   9    2.60    2.00
  -5  -4   9   -0.20    4.10
  -5  -4   9    2.30    3.60
  -5  -4   9    9.10    2.80
  -5  -4   9   -1.60    2.50
  -5  -4   9    1.60    2.40
   4   4  -9    7.80    7.60
  -4  -4   9    3.40    3.60
  -4  -4   9    5.20    5.70
  -4  -4   9   11.10    3.20
  -4  -4   9    4.10    2.10
  -4  -4   9    1.10    3.40
  -4  -4   9    6.50    2.00
  -4  -4   9    2.10    4.30
  -4  -4   9    5.30    2.80
   3   4  -9    9.80    3.00
   3   4  -9   10.70    6.60
   3   4  -9    5.90    3.00
   3   4  -9    2.60    2.70
   3   4  -9   10.70    5.20
   3   4  -9    2.10    3.00
  -3  -4   9    4.70    2.60
  -3  -4   9    5.50    2.80
  -3  -4   9   10.70    3.40
   2   4  -9   11.90    3.40
   2   4  -9   22.30    7.30
   2   4  -9   11.30    3.90
   2   4  -9   13.70    4.00
   2   4  -9   14.80    3.90
   2   4  -9   10.20    3.50
  -2  -4   9   10.20    3.70
  -2  -4   9   12.30    3.70
  -2  -4   9   15.00    2.40
  -2  -4   9   16.30    4.60
  -2  -4   9    6.20    3.10
   1   4  -9    3.60    2.90
   1   4  -9    7.40    3.10
   1   4  -9    9.10    3.60
   1   4  -9    5.80    3.10
   1   4  -9    3.30    3.60
  -1  -4   9    3.70    2.90
  -1  -4   9    4.60    3.40
  -1  -4   9    8.90    2.20
  -1  -4   9    9.80    3.80
  -1  -4   9    6.00    3.70
  -1  -4   9    5.80    3.20
   0   4  -9   78.69    7.80
   0   4  -9   56.39    8.70
   0   4  -9   68.59    7.90
   0   4  -9   78.49    9.70
   0   4  -9   68.69    9.00
   0   4  -9   82.79    9.50
   0  -4   9   69.49    8.00
   0  -4   9   75.89    9.90
   0  -4   9   63.29    8.70
   0  -4   9   68.99    7.50
   0  -4   9   66.99    9.00
   0  -4   9   71.69    9.40
  -1   4  -9   99.39   12.60
  -1   4  -9  119.99   12.90
  -1   4  -9  100.39   11.30
  -1   4  -9  134.99   13.10
  -1   4  -9  117.19   11.60
  -1   4  -9  114.59   13.10
   1  -4   9  105.99   11.60
   1  -4   9  100.29   11.70
   1  -4   9  133.39   13.60
   1  -4   9  121.59   11.40
   1  -4   9  124.39   13.20
   1  -4   9   97.49   12.20
   1  -4   9  125.49   13.80
  -2   4  -9   51.99    7.30
  -2   4  -9   38.80    6.80
  -2   4  -9   48.50    8.20
  -2   4  -9   48.70    8.60
  -2   4  -9   27.90    7.10
  -2   4  -9   33.60    7.10
   2  -4   9   36.50    6.20
   2  -4   9   39.70    6.70
   2  -4   9   30.50    6.50
   2  -4   9   40.40    8.50
   2  -4   9   39.70    7.90
   2  -4   9   36.20    7.60
   2  -4   9   28.00    6.30
  -3   4  -9   52.29    9.80
  -3   4  -9   51.59    9.00
  -3   4  -9   84.19   12.30
  -3   4  -9   39.40   11.30
  -3   4  -9   74.69    8.60
   3  -4   9   53.09    8.30
   3  -4   9   51.59   10.10
   3  -4   9   33.30    7.90
   3  -4   9   63.09    9.10
   3  -4   9   52.39    6.70
  -4   4  -9   -4.40    5.50
  -4   4  -9   -6.50    4.30
  -4   4  -9    5.10    5.50
  -4   4  -9   -2.10    3.80
  -4   4  -9    5.30    4.90
  -4   4  -9   -4.70    6.60
   4  -4   9   -1.40    4.90
   4  -4   9   -1.20    5.00
  -5   4  -9   29.70    8.80
  -5   4  -9   23.50    7.20
  -5   4  -9   17.80    7.00
  -5   4  -9   27.30    8.00
  -5   4  -9   53.69   10.70
  -5   4  -9   36.20    8.80
   5  -4   9   25.60    8.40
   6   3  -9   10.20   10.50
  -6  -3   9    7.20    4.30
  -6  -3   9    9.70    4.30
  -6  -3   9   13.20    5.60
   5   3  -9   52.59   12.40
  -5  -3   9   41.50    5.80
  -5  -3   9   50.49    6.80
  -5  -3   9   46.00   10.20
  -5  -3   9   46.40    6.50
  -5  -3   9   47.90    5.40
  -5  -3   9   47.10    7.30
  -5  -3   9   51.59    5.80
   4   3  -9   90.79    7.50
   4   3  -9   88.39   13.40
   4   3  -9   92.69    7.60
  -4  -3   9   72.19    8.60
  -4  -3   9   84.19    9.40
  -4  -3   9   80.19    8.70
  -4  -3   9   76.99   10.90
   3   3  -9   -1.10    3.30
   3   3  -9    2.80    2.50
   3   3  -9    6.50    6.40
   3   3  -9   -1.80    2.20
   3   3  -9    0.00    2.20
   3   3  -9    2.00    2.50
  -3  -3   9   -0.40    2.60
  -3  -3   9    0.10    2.50
  -3  -3   9    4.20    2.00
  -3  -3   9    1.90    2.70
  -3  -3   9    3.10    2.60
  -3  -3   9    0.30    2.60
  -3  -3   9   -4.10    2.90
   2   3  -9   24.20    5.00
   2   3  -9   24.40    5.40
   2   3  -9   21.20    4.60
   2   3  -9   18.20    6.40
   2   3  -9   23.50    4.80
   2   3  -9   24.90    4.60
  -2  -3   9   13.20    5.20
  -2  -3   9   19.90    4.70
  -2  -3   9   21.50    5.10
  -2  -3   9   17.90    4.60
  -2  -3   9   24.40    4.80
  -2  -3   9   32.30    4.10
  -2  -3   9   20.20    4.80
   1   3  -9   18.30    4.50
   1   3  -9   23.40    5.30
   1   3  -9   24.00    5.60
   1   3  -9   18.40    4.70
   1   3  -9   24.10    4.40
  -1  -3   9   17.80    5.40
  -1  -3   9   25.70    4.30
  -1  -3   9   14.00    4.30
  -1  -3   9   21.10    5.20
  -1  -3   9   18.50    5.10
  -1  -3   9   26.20    5.80
  -1  -3   9   24.20    4.80
   0   3  -9  115.39   10.90
   0   3  -9  112.99   12.30
   0   3  -9  113.39   12.30
   0   3  -9  101.49   10.80
   0   3  -9  105.99   11.90
   0   3  -9  110.09   12.40
   0  -3   9   97.09   11.90
   0  -3   9  105.99   12.20
   0  -3   9  120.69   12.80
   0  -3   9  114.19   10.70
   0  -3   9   90.79   11.50
   0  -3   9  116.29   11.30
   0  -3   9  123.49   12.50
  -1   3  -9   75.49   10.50
  -1   3  -9   93.99   11.30
  -1   3  -9   86.09    9.30
  -1   3  -9   85.79   10.90
  -1   3  -9   87.29    9.70
  -1   3  -9   91.69   11.10
   1  -3   9   75.79    9.50
   1  -3   9   76.89    9.40
   1  -3   9   93.79   11.70
   1  -3   9   94.69   10.80
   1  -3   9   82.09    9.50
   1  -3   9   90.79   11.00
   1  -3   9   83.79   10.80
  -2   3  -9  183.48   19.10
  -2   3  -9  220.38   19.70
  -2   3  -9  192.58   17.80
  -2   3  -9  211.88   18.70
  -2   3  -9  209.68   20.70
  -2   3  -9  174.08   19.40
   2  -3   9  181.58   19.40
   2  -3   9  151.08   17.20
   2  -3   9  199.38   19.40
   2  -3   9  196.78   17.80
   2  -3   9  201.68   18.40
   2  -3   9  232.38   20.40
   2  -3   9  210.78   19.70
  -3   3  -9   76.19   11.70
  -3   3  -9   46.50    9.10
  -3   3  -9   57.89    9.70
  -3   3  -9   70.89   15.90
  -3   3  -9   45.60    9.50
  -3   3  -9   67.19    9.30
   3  -3   9   71.09   11.40
   3  -3   9   48.30   10.20
   3  -3   9   58.39    8.90
   3  -3   9   87.49   13.20
   3  -3   9   45.20    6.50
   3  -3   9   49.60    7.70
   3  -3   9   44.30    8.50
  -4   3  -9   -0.60    6.30
  -4   3  -9    7.40    4.90
  -4   3  -9    8.40    5.30
  -4   3  -9   12.00    5.40
  -4   3  -9    5.90    5.30
  -4   3  -9    7.80    6.30
   4  -3   9    4.00    6.00
   4  -3   9    4.30    6.70
   4  -3   9    0.80    4.90
   4  -3   9    9.50    7.20
   4  -3   9    5.30    5.60
  -5   3  -9   38.80    9.20
  -5   3  -9   43.40   10.00
  -5   3  -9   13.60    6.80
  -5   3  -9   45.00    9.50
  -5   3  -9   29.30    8.00
   5  -3   9   27.90    8.20
   5  -3   9   35.80   14.20
   6   2  -9    6.20   10.80
  -6  -2   9    8.10    5.20
  -6  -2   9   24.90    5.70
  -6  -2   9   13.50    5.00
   5   2  -9   10.20    7.20
  -5  -2   9    0.30    2.30
  -5  -2   9    5.80    2.70
  -5  -2   9    1.70    3.50
  -5  -2   9    6.20    5.10
   4   2  -9   75.79    7.40
   4   2  -9   79.09    8.30
   4   2  -9   82.99    7.50
   4   2  -9   84.69    7.40
   4   2  -9   82.09   17.10
  -4  -2   9   77.69    8.60
  -4  -2   9   80.49   10.80
  -4  -2   9   74.29    8.90
  -4  -2   9   79.49    8.90
  -4  -2   9   76.69    8.50
   3   2  -9   21.90    4.10
   3   2  -9   34.30   10.00
   3   2  -9   27.90    4.90
   3   2  -9   20.10    4.20
   3   2  -9   33.80    5.40
  -3  -2   9   16.00    5.60
  -3  -2   9   27.20    5.20
  -3  -2   9   24.80    4.80
  -3  -2   9   20.40    4.80
  -3  -2   9   23.30    7.30
  -3  -2   9   18.40    4.20
  -3  -2   9   25.30    5.00
   2   2  -9   43.90    6.60
   2   2  -9   44.10   10.50
   2   2  -9   50.89    6.80
   2   2  -9   37.40    6.80
   2   2  -9   42.90    7.10
  -2  -2   9   45.60    6.80
  -2  -2   9   49.30    6.30
  -2  -2   9   51.79    6.50
  -2  -2   9   43.80    9.00
  -2  -2   9   41.70    7.00
  -2  -2   9   47.30    7.40
   1   2  -9  331.67   29.80
   1   2  -9  331.57   30.00
   1   2  -9  383.86   30.10
   1   2  -9  370.06   32.40
   1   2  -9  367.36   29.00
   1   2  -9  368.06   29.80
  -1  -2   9  320.37   30.30
  -1  -2   9  339.47   28.70
  -1  -2   9  374.76   30.30
  -1  -2   9  330.57   29.90
  -1  -2   9  378.76   30.40
  -1  -2   9  330.67   29.90
  -1  -2   9  348.67   29.00
   0   2  -9    3.60    3.50
   0   2  -9    3.70    3.40
   0   2  -9    0.90    2.30
   0   2  -9   -0.20    3.00
   0   2  -9    2.00    3.50
   0   2  -9   -0.20    2.40
   0  -2   9    1.50    2.70
   0  -2   9    0.00    2.20
   0  -2   9    1.60    2.80
   0  -2   9   -0.60    2.80
   0  -2   9    0.20    2.70
   0  -2   9   -2.20    2.60
   0  -2   9   -0.30    2.40
  -1   2  -9    2.10    2.90
  -1   2  -9    6.90    3.70
  -1   2  -9    0.20    2.60
  -1   2  -9    4.70    3.70
  -1   2  -9    2.20    3.20
  -1   2  -9    5.10    3.90
   1  -2   9    2.80    3.50
   1  -2   9    1.10    4.20
   1  -2   9    1.10    3.00
   1  -2   9    0.90    2.90
   1  -2   9    3.90    3.90
   1  -2   9    3.70    2.60
   1  -2   9    5.70    2.90
  -2   2  -9  193.18   20.50
  -2   2  -9  174.18   18.30
  -2   2  -9  211.28   18.00
  -2   2  -9  218.08   19.90
  -2   2  -9  189.48   19.20
  -2   2  -9  190.58   19.80
   2  -2   9  175.58   19.00
   2  -2   9  176.38   17.50
   2  -2   9  194.58   18.30
   2  -2   9  166.98   19.20
   2  -2   9  211.18   19.80
   2  -2   9  232.78   20.40
  -3   2  -9   21.10    7.20
  -3   2  -9   24.80    7.40
  -3   2  -9   23.30    6.40
  -3   2  -9   27.80    7.20
  -3   2  -9   24.10    5.80
  -3   2  -9   23.10    7.00
   3  -2   9   16.30    6.20
   3  -2   9   29.90    8.20
   3  -2   9   27.20    6.70
   3  -2   9   35.40    7.60
   3  -2   9   22.50    6.70
   3  -2   9   21.90    4.50
  -4   2  -9    2.20    5.00
  -4   2  -9    7.70    5.40
  -4   2  -9   10.00    5.00
  -4   2  -9    9.60    5.50
  -4   2  -9    7.10    6.00
  -4   2  -9    1.50    6.20
   4  -2   9    3.20    6.70
   4  -2   9   10.80    7.10
   4  -2   9    4.90    6.60
   4  -2   9    7.70    5.60
   4  -2   9    8.30    5.20
  -5   2  -9   26.20    9.20
  -5   2  -9   25.60   11.70
  -5   2  -9   42.30    9.40
  -5   2  -9   65.09   11.90
  -5   2  -9   38.20   15.80
   5  -2   9   29.60    8.40
   5  -2   9   37.40   16.40
   6   1  -9   28.20   11.20
  -6  -1   9   41.30    9.60
  -6  -1   9   63.39   10.40
   5   1  -9   -3.20    6.10
  -5  -1   9   -2.00    2.70
  -5  -1   9   -1.50    2.60
  -5  -1   9   -0.70    4.00
  -5  -1   9    5.00    2.80
  -5  -1   9    1.50    2.90
   4   1  -9   19.20    3.60
   4   1  -9   32.60    5.30
   4   1  -9   18.30    3.60
   4   1  -9   25.50    4.10
   4   1  -9   17.70    8.30
   4   1  -9   25.20    3.90
  -4  -1   9   22.60    4.60
  -4  -1   9   20.30    4.60
  -4  -1   9   21.50    6.50
  -4  -1   9   22.30    7.80
  -4  -1   9   19.70    4.30
  -4  -1   9   15.90    4.50
  -4  -1   9   13.20    4.60
   3   1  -9   81.79    8.80
   3   1  -9   71.49    8.50
   3   1  -9   78.89    8.50
   3   1  -9   87.29    9.20
   3   1  -9   78.29    8.70
   3   1  -9   57.89   13.00
  -3  -1   9   74.09   16.50
  -3  -1   9  101.79   16.20
  -3  -1   9   71.59    9.00
  -3  -1   9   62.39    8.70
  -3  -1   9   87.39    9.10
  -3  -1   9   75.19    8.50
   2   1  -9  104.39   11.30
   2   1  -9   94.99   10.90
   2   1  -9  107.59   11.20
   2   1  -9  105.39   13.90
   2   1  -9  111.39   10.60
  -2  -1   9   99.09   10.50
  -2  -1   9   97.69   11.90
  -2  -1   9   92.09   11.00
  -2  -1   9  102.19   11.30
  -2  -1   9  110.19   10.50
  -2  -1   9   99.49   11.20
  -2  -1   9   91.99   11.00
   1   1  -9   86.89   10.60
   1   1  -9   84.89   10.40
   1   1  -9   78.59   12.50
   1   1  -9   75.59   10.00
   1   1  -9   91.19    9.40
   1   1  -9   87.09   11.00
  -1  -1   9   99.79   10.70
  -1  -1   9   99.99    9.70
  -1  -1   9   86.29   10.50
  -1  -1   9   80.59    9.50
  -1  -1   9   81.69   10.20
  -1  -1   9   94.39   10.90
  -1  -1   9   85.59   10.70
   0   1  -9   53.39    8.80
   0   1  -9   39.40    6.20
   0   1  -9   38.30    6.30
   0   1  -9   42.10    7.70
   0   1  -9   41.20    7.80
   0   1  -9   46.70    7.70
   0  -1   9   52.79    8.80
   0  -1   9   44.20    7.90
   0  -1   9   42.80    8.00
   0  -1   9   31.50    6.00
   0  -1   9   34.50    7.50
   0  -1   9   34.40    7.30
  -1   1  -9   57.69    9.50
  -1   1  -9   54.69    7.30
  -1   1  -9   48.00    9.20
  -1   1  -9   55.39    9.30
  -1   1  -9   36.00    7.20
  -1   1  -9   42.10    8.00
   1  -1   9   58.39    8.40
   1  -1   9   54.19    7.10
   1  -1   9   46.60    7.10
   1  -1   9   45.90    8.40
   1  -1   9   62.09   10.10
   1  -1   9   68.89   15.90
   1  -1   9   55.39    9.90
  -2   1  -9   27.00    6.60
  -2   1  -9   26.80    5.50
  -2   1  -9   25.90    6.80
  -2   1  -9   32.50    6.90
  -2   1  -9   40.00    8.60
   2  -1   9   24.80    5.20
   2  -1   9   30.00    7.30
   2  -1   9   30.50    5.90
   2  -1   9   52.49    9.40
   2  -1   9   35.40    7.80
   2  -1   9   31.50    7.00
   2  -1   9   17.00    5.60
  -3   1  -9   21.10    7.00
  -3   1  -9   12.00    4.50
  -3   1  -9    6.70    5.60
  -3   1  -9   17.50    6.60
  -3   1  -9   20.90    8.00
   3  -1   9    6.60    4.20
   3  -1   9    7.20    5.40
   3  -1   9    9.50    5.30
   3  -1   9   14.90    4.00
   3  -1   9   17.80    7.30
   3  -1   9   15.10    6.10
  -4   1  -9   19.30    6.60
  -4   1  -9   20.30    7.80
  -4   1  -9   30.70    8.80
  -4   1  -9   25.60    7.90
  -4   1  -9   31.30    8.10
  -4   1  -9   13.50    5.90
   4  -1   9   25.40    9.20
   4  -1   9   20.00    7.70
   4  -1   9   12.50    6.20
  -5   1  -9   -3.40    7.80
  -5   1  -9    2.80    7.30
  -5   1  -9    5.00    7.60
  -5   1  -9    1.20    8.80
  -5   1  -9    8.50    7.40
   5  -1   9    2.20    6.80
   6   0  -9   21.40   10.60
  -6   0   9   24.20    8.70
  -6   0   9   20.00    4.60
   5   0  -9   56.09   14.00
  -5   0   9   88.79    9.50
  -5   0   9   97.79    9.50
  -5   0   9   71.29    8.70
  -5   0   9   88.99    9.50
  -5   0   9   87.59   12.10
   4   0  -9   -1.20    2.90
   4   0  -9    9.70    3.30
   4   0  -9    2.60    3.00
   4   0  -9    3.30    3.10
   4   0  -9    5.00    3.10
   4   0  -9    0.30    6.10
  -4   0   9   10.20    3.90
  -4   0   9    2.30    3.20
  -4   0   9   13.90    4.90
  -4   0   9    2.90    3.30
  -4   0   9    2.00    3.10
  -4   0   9    0.10    2.70
  -4   0   9    5.20    2.90
   3   0  -9  384.96   28.30
   3   0  -9  323.37   28.50
   3   0  -9  327.67   28.50
   3   0  -9  351.96   28.60
   3   0  -9  311.07   28.30
   3   0  -9  369.36   33.60
  -3   0   9  352.66   29.10
  -3   0   9  339.67   31.00
  -3   0   9  359.36   28.40
  -3   0   9  348.57   29.50
  -3   0   9  330.07   28.90
  -3   0   9  320.47   29.00
  -3   0   9  346.07   29.20
   2   0  -9  556.94   46.80
   2   0  -9  570.74   46.80
   2   0  -9  575.84   46.80
   2   0  -9  579.24   50.39
   2   0  -9  615.14   46.00
  -2   0   9  603.94   46.10
  -2   0   9  543.15   47.10
  -2   0   9  590.64   47.40
  -2   0   9  577.54   47.20
  -2   0   9  580.44   47.30
  -2   0   9  583.14   48.40
   1   0  -9   59.49    9.20
   1   0  -9   42.90    8.00
   1   0  -9   44.80    8.10
   1   0  -9   42.00   10.60
   1   0  -9   54.99    7.00
   1   0  -9   51.89    8.50
  -1   0   9   40.70    8.20
  -1   0   9   41.70    7.60
  -1   0   9   43.80    8.50
  -1   0   9   64.19    9.60
  -1   0   9   52.49    7.60
  -1   0   9   58.89    9.60
  -1   0   9   64.09    9.90
   0   0  -9   16.00    5.30
   0   0  -9   21.50    5.70
   0   0  -9   13.40    5.10
   0   0  -9   13.80    4.30
   0   0  -9   16.20    4.20
   0   0   9   17.50    5.50
   0   0   9   17.70    4.30
   0   0   9   15.90    5.10
   0   0   9   23.60    5.90
   0   0   9   18.20    5.10
   0   0   9   14.30    4.90
   0   0   9   15.00    5.60
  -1   0  -9   35.70    7.90
  -1   0  -9   40.00    8.20
  -1   0  -9   42.20    7.30
  -1   0  -9   31.70    6.20
  -1   0  -9   25.20    6.60
  -1   0  -9   23.90    6.50
   1   0   9   48.70    9.60
   1   0   9   40.10    7.70
   1   0   9   18.60    6.00
   1   0   9   34.70    6.70
   1   0   9   28.50    6.80
   1   0   9   35.10    6.80
   1   0   9   25.80    6.70
  -2   0  -9   33.50    8.40
  -2   0  -9   33.70    8.40
  -2   0  -9   35.90    8.60
  -2   0  -9   22.30    7.00
  -2   0  -9   27.50    7.10
  -2   0  -9   40.90    6.90
   2   0   9   35.00    8.20
   2   0   9   33.60    7.00
   2   0   9   37.90    7.30
   2   0   9   31.60    7.80
   2   0   9   26.00    7.20
   2   0   9   34.30    8.60
  -3   0  -9    9.70    5.30
  -3   0  -9    2.70   11.20
  -3   0  -9    9.30    4.40
  -3   0  -9    0.60    4.90
  -3   0  -9    8.50    6.30
  -3   0  -9    8.50    4.70
   3   0   9    4.80    4.40
   3   0   9   -1.30    4.90
   3   0   9    3.90    6.30
   3   0   9    1.60    4.50
   3   0   9    6.10    3.30
  -4   0  -9   19.30    7.10
  -4   0  -9   10.40    7.30
  -4   0  -9   22.80    7.30
  -4   0  -9   21.00    7.30
  -4   0  -9   28.00    9.30
   4   0   9   26.30    5.00
   4   0   9   12.20    6.80
   4   0   9   16.90    7.20
  -5   0  -9   16.20    7.70
  -5   0  -9   20.80    9.30
  -5   0  -9   22.70    9.90
  -5   0  -9   -7.00    6.80
  -5   0  -9    7.00   11.80
   5   0   9   14.10    7.50
   6  -1  -9    4.60    9.90
  -6   1   9   12.10    6.20
  -6   1   9    8.90    3.90
  -6   1   9    4.60    3.50
  -6   1   9   15.70    4.10
  -6   1   9    0.10    3.70
   5  -1  -9   12.00    8.80
  -5   1   9   35.00    8.10
  -5   1   9    8.50    4.60
  -5   1   9   23.80    4.50
  -5   1   9   32.10    5.50
  -5   1   9   29.90    5.80
  -5   1   9   12.70    5.90
  -5   1   9   21.50    4.50
   4  -1  -9    0.90    3.90
   4  -1  -9   10.90    4.10
   4  -1  -9    3.40    3.50
   4  -1  -9    5.00    3.60
  -4   1   9    3.70    3.30
  -4   1   9   14.70    4.30
  -4   1   9    5.20    3.50
  -4   1   9   10.30    4.00
  -4   1   9   13.10    5.00
  -4   1   9    6.40    3.40
  -4   1   9    9.00    4.60
   3  -1  -9   31.60    6.40
   3  -1  -9   30.60    5.80
   3  -1  -9   26.80    9.20
   3  -1  -9   33.20    5.40
  -3   1   9   25.10    6.00
  -3   1   9   34.70    7.00
  -3   1   9   33.30    5.40
  -3   1   9   35.70    6.50
  -3   1   9   20.00    5.30
  -3   1   9   23.00    6.90
  -3   1   9   29.30    6.20
   2  -1  -9   29.70   10.30
   2  -1  -9   22.60    5.50
   2  -1  -9   22.60    5.60
   2  -1  -9   20.60    5.30
   2  -1  -9   12.50    4.00
   2  -1  -9   21.30    5.70
  -2   1   9   21.10    4.50
  -2   1   9   25.60    5.90
  -2   1   9   16.80    5.80
  -2   1   9   15.10    5.60
  -2   1   9   33.90    9.80
  -2   1   9   23.50    5.30
   1  -1  -9   29.30    7.20
   1  -1  -9   18.40    5.90
   1  -1  -9   31.70    9.70
   1  -1  -9   28.80    6.80
   1  -1  -9   40.70    6.50
  -1   1   9   33.50    6.80
  -1   1   9   27.40    7.10
  -1   1   9   27.30    6.80
  -1   1   9   37.90    8.00
  -1   1   9   31.30    7.70
  -1   1   9   38.70    6.20
  -1   1   9   25.00    5.90
   0  -1  -9   12.20    5.30
   0  -1  -9   18.50    5.50
   0  -1  -9    7.20    4.60
   0  -1  -9   11.20    3.70
   0  -1  -9   22.00    5.80
   0  -1  -9   23.30    6.90
   0   1   9    7.00    4.50
   0   1   9   15.10    5.50
   0   1   9   14.50    5.60
   0   1   9   25.40    6.80
   0   1   9   11.80    3.80
   0   1   9    9.30    4.80
   0   1   9   15.60    5.50
  -1  -1  -9  166.48   17.70
  -1  -1  -9  155.58   17.20
  -1  -1  -9  156.58   17.50
  -1  -1  -9  176.58   15.70
  -1  -1  -9  157.38   17.90
  -1  -1  -9  166.18   18.00
   1   1   9  161.68   17.50
   1   1   9  186.28   18.30
   1   1   9  167.68   17.70
   1   1   9  148.49   15.90
   1   1   9  155.18   16.70
  -2  -1  -9   40.50    9.00
  -2  -1  -9   23.50    7.60
  -2  -1  -9   17.50    5.60
  -2  -1  -9   21.90    7.00
  -2  -1  -9   24.40    8.30
   2   1   9   37.70    7.80
   2   1   9   32.00    6.00
   2   1   9   22.20    6.80
   2   1   9   33.30    8.90
   2   1   9   27.40    8.40
   2   1   9   22.30    7.20
  -3  -1  -9   -3.30    4.30
  -3  -1  -9   -6.90    5.90
  -3  -1  -9   -3.90    4.60
  -3  -1  -9   -3.10    4.70
  -3  -1  -9   -3.50    5.20
  -3  -1  -9    2.10    7.10
   3   1   9    1.80   10.40
   3   1   9    2.80    5.00
   3   1   9    3.40    4.30
   3   1   9    2.70    3.30
   3   1   9   -9.80    6.20
   3   1   9   -9.90    5.30
  -4  -1  -9   -0.40    5.20
  -4  -1  -9   -6.20    7.40
  -4  -1  -9   -7.40    5.80
  -4  -1  -9    6.50   14.80
  -4  -1  -9   -4.50    6.00
   4   1   9   -4.00    5.40
   4   1   9   -2.20    3.20
   4   1   9   -1.50    5.30
   6  -2  -9    9.20   10.40
  -6   2   9   16.50    7.20
  -6   2   9    7.20    3.60
  -6   2   9    6.00    4.60
  -6   2   9   18.10    5.10
  -6   2   9    5.80    5.10
   5  -2  -9   -6.40    4.10
   5  -2  -9    2.60    4.50
   5  -2  -9   -0.30    6.80
  -5   2   9    3.80    3.90
  -5   2   9    5.60    4.20
  -5   2   9    9.70    5.70
  -5   2   9   -0.90    3.90
  -5   2   9   -3.80   10.00
  -5   2   9    9.90    4.70
  -5   2   9    0.40    3.10
   4  -2  -9   39.10    8.40
   4  -2  -9   46.40    7.00
   4  -2  -9   34.50    6.50
   4  -2  -9   36.10   13.30
   4  -2  -9   39.60    5.90
   4  -2  -9   37.70    7.10
  -4   2   9   39.50    7.30
  -4   2   9   42.40    7.10
  -4   2   9   29.10    6.60
  -4   2   9   32.20    7.50
  -4   2   9   26.50    5.20
  -4   2   9   50.79    8.40
  -4   2   9   33.90    8.10
   3  -2  -9    4.70    3.10
   3  -2  -9    5.60    4.00
   3  -2  -9    8.70    4.90
   3  -2  -9   15.60    7.90
  -3   2   9    2.90    3.60
  -3   2   9    4.00    3.70
  -3   2   9    3.80    4.60
  -3   2   9    3.60    3.00
  -3   2   9    9.70    4.00
  -3   2   9   10.50    4.80
  -3   2   9    2.30    3.90
   2  -2  -9   18.00    5.70
   2  -2  -9   13.60    4.00
   2  -2  -9   19.40    5.50
   2  -2  -9   15.40    5.60
   2  -2  -9   11.90    5.00
   2  -2  -9   10.10    6.70
   2  -2  -9   13.90    4.70
  -2   2   9   15.10    4.80
  -2   2   9   14.50    5.40
  -2   2   9   11.70    5.20
  -2   2   9   13.60    5.10
  -2   2   9   12.40    5.20
  -2   2   9   15.30    3.90
  -2   2   9   17.90    6.60
   1  -2  -9   40.80    8.10
   1  -2  -9   43.80   10.70
   1  -2  -9   53.39    9.40
   1  -2  -9   53.79    8.00
   1  -2  -9   55.19    9.70
   1  -2  -9   76.89   11.20
   1  -2  -9   66.39    9.80
  -1   2   9   72.49    9.50
  -1   2   9   55.09   10.40
  -1   2   9   43.70    9.30
  -1   2   9   79.89   11.90
  -1   2   9   67.39    7.80
  -1   2   9   57.69   11.80
  -1   2   9   70.79   11.70
   0  -2  -9    3.90    4.90
   0  -2  -9    6.80    6.60
   0  -2  -9    6.80    5.40
   0  -2  -9    0.80    3.40
   0  -2  -9    4.10    4.30
   0  -2  -9    5.10    4.30
   0  -2  -9    6.00    6.30
   0  -2  -9    9.10    5.00
   0   2   9    8.00    4.90
   0   2   9    8.90    4.50
   0   2   9    4.30    4.80
   0   2   9    6.30    4.70
   0   2   9    4.50    4.40
   0   2   9   16.90    9.60
  -1  -2  -9   41.70    8.90
  -1  -2  -9   42.50    9.30
  -1  -2  -9   40.20    9.60
  -1  -2  -9   37.50    6.90
  -1  -2  -9   46.60    9.60
  -1  -2  -9   39.10    9.10
  -1  -2  -9   33.40    7.40
   1   2   9   39.50    9.20
   1   2   9   36.30    6.90
   1   2   9   39.60    8.70
   1   2   9   37.30    8.70
   1   2   9   43.10    9.20
   1   2   9   56.59   11.30
  -2  -2  -9   85.09   15.90
  -2  -2  -9   86.59   14.10
  -2  -2  -9   87.49   12.10
  -2  -2  -9   92.19   14.30
  -2  -2  -9   76.39   11.10
  -2  -2  -9   56.89   10.50
   2   2   9   61.49   11.00
   2   2   9   83.79   13.50
   2   2   9   98.09   16.10
   2   2   9   87.19   10.10
   2   2   9   86.19   14.80
   2   2   9   65.19   11.10
  -3  -2  -9   98.89   14.50
  -3  -2  -9  114.89   17.40
  -3  -2  -9   59.79   11.80
  -3  -2  -9   64.09   12.90
  -3  -2  -9   51.09   11.30
   3   2   9   57.69   11.20
   3   2   9   80.49   13.20
   3   2   9   55.19   12.70
   3   2   9   95.89   14.90
   3   2   9   77.19    9.40
  -4  -2  -9   36.30    9.40
  -4  -2  -9   20.70    8.40
  -4  -2  -9   35.70   12.90
  -4  -2  -9   39.30   10.30
  -4  -2  -9   35.70   11.30
   4   2   9   11.00    8.00
   4   2   9   32.40    6.00
   4   2   9   13.30    7.00
   5  -3  -9   -4.10    4.30
   5  -3  -9    1.80    8.20
  -5   3   9    1.20    5.20
  -5   3   9   -0.30    5.30
  -5   3   9   -0.10    5.00
  -5   3   9    1.30    5.10
  -5   3   9   -3.80    2.60
  -5   3   9   10.90    7.80
   4  -3  -9   -6.00    3.40
   4  -3  -9    6.10    4.30
   4  -3  -9   -1.00    6.30
   4  -3  -9    0.30    5.00
   4  -3  -9   -0.70    7.80
  -4   3   9   -4.00    4.10
  -4   3   9   -1.70    3.90
  -4   3   9    0.10    4.60
  -4   3   9    2.70    4.30
  -4   3   9   14.50    4.90
  -4   3   9   -4.10    6.20
  -4   3   9    0.20    2.70
   3  -3  -9  155.28   18.70
   3  -3  -9  202.38   17.10
   3  -3  -9  175.98   22.80
   3  -3  -9  177.28   20.10
   3  -3  -9  201.48   18.90
   3  -3  -9  212.78   19.30
  -3   3   9  199.88   18.90
  -3   3   9  177.88   19.50
  -3   3   9  185.58   19.20
  -3   3   9  177.38   18.60
  -3   3   9  199.18   19.00
  -3   3   9  189.38   16.90
  -3   3   9  187.18   20.00
   2  -3  -9   22.20    6.70
   2  -3  -9   42.80   12.50
   2  -3  -9    5.00    7.50
   2  -3  -9   38.10    6.10
   2  -3  -9   40.50    8.40
  -2   3   9   29.20    7.00
  -2   3   9   17.40    6.50
  -2   3   9   20.80    6.50
  -2   3   9   25.70    7.50
  -2   3   9   31.70    7.60
  -2   3   9   33.60    9.20
   1  -3  -9   -0.50    4.10
   1  -3  -9    3.70    4.60
   1  -3  -9   -1.60    3.30
   1  -3  -9    3.40    4.00
   1  -3  -9    9.40    6.10
   1  -3  -9   -1.90    5.40
  -1   3   9   -4.90    3.80
  -1   3   9   -6.90    3.80
  -1   3   9    0.10    4.30
  -1   3   9   -5.70    5.00
  -1   3   9   -3.50    4.40
  -1   3   9   -0.60    2.70
   0  -3  -9   24.90    7.20
   0  -3  -9   30.60    8.00
   0  -3  -9   30.50    6.10
   0  -3  -9   32.10    8.30
   0  -3  -9   28.00    7.30
   0  -3  -9   36.70    7.90
   0   3   9   43.30    9.60
   0   3   9   24.00    6.80
   0   3   9   30.40    6.70
   0   3   9   22.90    7.50
   0   3   9   25.50    7.40
   0   3   9   30.60    6.40
  -1  -3  -9   18.70    5.80
  -1  -3  -9   15.50    6.80
  -1  -3  -9   21.00    8.20
  -1  -3  -9   17.50    7.10
  -1  -3  -9    8.40    6.00
  -1  -3  -9   23.80    8.80
  -1  -3  -9   18.70    6.80
   1   3   9   12.80    5.70
   1   3   9   18.40    6.70
   1   3   9   11.40    8.40
   1   3   9   14.00    6.60
   1   3   9    9.90    3.70
  -2  -3  -9    4.70    4.80
  -2  -3  -9   -6.30    4.90
  -2  -3  -9   -3.10    5.90
  -2  -3  -9    1.30    5.10
  -2  -3  -9   -2.30    7.80
  -2  -3  -9   13.80    9.00
   2   3   9    0.70    3.70
   2   3   9   -0.90    6.90
   2   3   9    4.30    7.60
   2   3   9   -5.20    4.80
   2   3   9   11.10   11.90
   2   3   9    9.50    5.90
  -3  -3  -9   44.50   10.50
  -3  -3  -9   15.10    7.50
  -3  -3  -9   33.80   12.10
  -3  -3  -9   46.50   12.50
  -3  -3  -9   26.40    8.90
   3   3   9   43.40   10.00
   3   3   9   63.49   19.30
   3   3   9   20.10    8.90
   3   3   9   37.70    7.50
  -4  -3  -9    8.40    6.70
  -4  -3  -9   32.00   14.40
  -4  -3  -9   25.60   13.90
  -4  -3  -9   15.80   11.70
  -4  -3  -9   23.00    9.10
   4   3   9   21.90    9.50
   4   3   9   -4.40    8.70
   5  -4  -9   -4.40    7.90
   5  -4  -9   -0.80    8.90
   5  -4  -9    2.40    5.40
  -5   4   9   -3.90    5.70
  -5   4   9   -3.10    5.80
  -5   4   9    0.30    5.80
  -5   4   9   15.40    6.20
  -5   4   9    0.10    8.00
   4  -4  -9    5.80    7.80
   4  -4  -9    7.40    6.70
   4  -4  -9    9.70    5.30
  -4   4   9    4.60    5.70
  -4   4   9   17.70    6.10
  -4   4   9    6.40    7.50
  -4   4   9    8.30    5.70
  -4   4   9    7.90    7.60
  -4   4   9   -6.80    4.90
   3  -4  -9   61.59    9.60
   3  -4  -9   43.80   13.20
  -3   4   9   44.60    9.20
  -3   4   9   53.19    9.40
  -3   4   9   88.69   14.50
  -3   4   9   63.39   10.00
  -3   4   9   29.50    8.40
   2  -4  -9   25.00    8.30
   2  -4  -9   39.60    8.50
   2  -4  -9   19.70    7.10
   2  -4  -9   21.00    6.50
   2  -4  -9   14.40    8.60
   2  -4  -9   24.00    5.30
   2  -4  -9   24.90    7.30
  -2   4   9   27.90    6.90
  -2   4   9   12.10    7.40
  -2   4   9   23.90    7.00
  -2   4   9   35.50    8.90
  -2   4   9   22.50    7.00
  -2   4   9   22.70    7.30
   1  -4  -9    8.00    5.50
   1  -4  -9   11.90    8.70
   1  -4  -9   17.10    6.80
   1  -4  -9   15.40    4.60
   1  -4  -9    5.10    5.30
   1  -4  -9   14.00    5.40
  -1   4   9    8.80    5.40
  -1   4   9   10.40    5.60
  -1   4   9   -0.10    5.00
  -1   4   9   15.80    7.00
  -1   4   9   20.60    7.20
  -1   4   9   15.50    7.50
   0  -4  -9   -2.60    8.50
   0  -4  -9   12.10    8.10
   0  -4  -9   15.40    5.60
   0  -4  -9   12.20    6.40
   0  -4  -9   10.80    5.80
   0  -4  -9    3.40    6.70
   0  -4  -9    5.60    9.60
   0   4   9   13.30    6.20
   0   4   9   13.10    7.20
   0   4   9   11.10    4.90
   0   4   9   13.80    5.90
   0   4   9    7.80    7.80
   0   4   9   12.80    6.50
  -1  -4  -9    3.50    8.40
  -1  -4  -9   -6.70    4.50
  -1  -4  -9    2.20    4.60
  -1  -4  -9   -6.90    5.00
  -1  -4  -9    2.50    7.60
  -1  -4  -9    2.50    5.00
   1   4   9  -13.20    6.90
   1   4   9    5.80    4.00
   1   4   9    5.20    6.90
   1   4   9    0.70    5.70
   1   4   9   -0.90    5.10
   1   4   9   -0.70    6.80
  -2  -4  -9    8.90    6.20
  -2  -4  -9   42.70   18.40
  -2  -4  -9    8.20   10.60
  -2  -4  -9   10.90    7.80
  -2  -4  -9    6.80    5.70
  -2  -4  -9   19.50    7.80
   2   4   9   10.90    7.90
   2   4   9   15.10    7.40
   2   4   9    7.90   12.50
   2   4   9   19.70   11.60
   2   4   9   11.80    5.10
  -3  -4  -9    6.20    6.40
  -3  -4  -9   12.40   11.50
  -3  -4  -9   39.80   19.30
  -3  -4  -9   15.30    8.30
  -3  -4  -9   22.20    9.70
  -3  -4  -9   14.50    7.10
   3   4   9   24.80    7.30
   3   4   9   13.30    8.60
   4  -5  -9   11.30    9.50
   4  -5  -9   10.30    9.90
  -4   5   9    1.50    6.00
  -4   5   9   16.00    7.00
  -4   5   9   23.80    7.30
   3  -5  -9   -2.50    6.20
   3  -5  -9   -0.40    6.00
   3  -5  -9   -1.50    7.30
   3  -5  -9    3.50    4.10
  -3   5   9    5.70    5.60
  -3   5   9   12.20    7.00
  -3   5   9   -1.60    4.40
  -3   5   9   10.80    6.70
  -3   5   9   17.20    7.00
   2  -5  -9    7.00    4.50
   2  -5  -9    7.80    5.70
   2  -5  -9    5.70    7.30
   2  -5  -9    2.30    6.10
  -2   5   9  -19.90    7.90
  -2   5   9   -6.30    5.80
  -2   5   9   -1.20    5.70
  -2   5   9    0.90    3.10
  -2   5   9   -1.10    6.30
  -2   5   9   -8.40    9.80
   1  -5  -9    9.50    8.20
   1  -5  -9    5.10    6.00
   1  -5  -9    5.90    4.90
   1  -5  -9    9.40    8.80
   1  -5  -9    5.40    6.40
  -1   5   9   -0.30    4.20
  -1   5   9   17.40    7.60
  -1   5   9   23.90    8.50
  -1   5   9    7.50    8.40
  -1   5   9    9.90    6.10
  -1   5   9    5.80   11.20
   0  -5  -9    4.60    7.40
   0  -5  -9   16.40    5.50
   0  -5  -9   -1.50    8.90
   0  -5  -9    5.30   10.90
   0  -5  -9   -1.60    4.90
   0  -5  -9    7.90    6.70
   0  -5  -9    3.30    7.50
   0   5   9   11.80    6.90
   0   5   9    9.80    8.00
   0   5   9   10.30    8.40
   0   5   9   -2.90    5.90
   0   5   9   -1.60    4.80
  -1  -5  -9   27.60   10.30
  -1  -5  -9   22.50    7.40
  -1  -5  -9    3.90   11.40
  -1  -5  -9   17.50    9.10
  -1  -5  -9   17.00    7.00
  -1  -5  -9    5.80    5.80
  -1  -5  -9   21.70   12.10
   1   5   9    9.90    5.30
   1   5   9   14.80    9.80
   1   5   9   26.20    8.20
   1   5   9   20.60    9.40
   1   5   9   20.50   10.40
  -2  -5  -9   11.00    9.20
  -2  -5  -9   12.30    7.70
  -2  -5  -9    7.20    6.40
  -2  -5  -9   14.60   11.60
  -2  -5  -9   17.30   10.70
  -2  -5  -9   18.40   12.80
  -2  -5  -9    3.20    9.30
   2   5   9   14.40    8.00
   2   5   9    3.00    4.40
   2   5   9   13.10   12.00
   2   5   9   18.30   11.40
   4  -6  -9    8.80    8.50
   4  -6  -9   -6.40    7.50
  -4   6   9   -2.80    6.70
  -4   6   9   -7.00    6.50
  -4   6   9    1.30    8.10
   3  -6  -9   -9.40    8.30
   3  -6  -9   -7.80    4.80
   3  -6  -9    5.60    7.60
  -3   6   9    3.90    6.00
  -3   6   9    5.80   11.40
  -3   6   9   -3.20    7.60
  -3   6   9   27.80    8.50
   2  -6  -9   12.20    5.60
   2  -6  -9    2.40    7.40
   2  -6  -9    7.80    8.00
  -2   6   9    8.90    7.10
  -2   6   9   -7.80    6.60
  -2   6   9   -0.30    8.30
  -2   6   9   -5.10    7.90
  -2   6   9    7.40    6.60
   1  -6  -9    8.70    9.00
   1  -6  -9   10.10    7.90
   1  -6  -9   11.70   11.20
   1  -6  -9   13.80    7.40
  -1   6   9    8.00    9.30
  -1   6   9   -2.80    6.20
  -1   6   9   -1.30    9.40
  -1   6   9  -11.70    6.40
  -1   6   9   -1.20    4.20
   0  -6  -9    5.10    5.80
   0  -6  -9    6.30    8.10
   0  -6  -9   13.80    9.00
   0  -6  -9    3.10    8.40
   0  -6  -9   10.10   11.60
   0   6   9   -0.30    7.10
   0   6   9    7.20    8.00
   0   6   9   18.30    5.60
   0   6   9  -19.70    9.10
  -1  -6  -9   11.60   12.30
  -1  -6  -9   -7.00    7.60
  -1  -6  -9    1.00    7.60
  -1  -6  -9   16.00    9.70
   1   6   9   -5.20    7.40
   1   6   9   -1.00    8.40
   1   6   9    8.70   12.60
   1   6   9   -1.00    6.20
   2  -7  -9  -11.60    8.60
   2  -7  -9   -1.60    8.50
   2  -7  -9    1.40    9.30
   2  -7  -9   11.60    6.00
  -2   7   9    6.80    7.80
  -2   7   9   -4.00    4.60
  -2   7   9  -11.90   11.00
   1  -7  -9   27.80    7.40
   1  -7  -9   35.20   12.40
   1  -7  -9   34.40   12.70
   1  -7  -9   50.59   11.90
  -1   7   9   23.70    8.20
  -1   7   9   43.80   11.50
  -1   7   9   16.00   11.10
  -1   7   9   20.40   15.40
   0  -7  -9   35.30   11.60
   0  -7  -9   18.00   18.80
   0  -7  -9   11.00   10.10
   0   7   9    7.30    6.30
   0   7   9   13.70   10.10
   0   7   9   18.60   10.10
   0   7   9   19.10   20.50
   1  13 -10    2.60    9.40
   1  13 -10  -13.40    9.00
  -1 -13  10   11.60    6.60
  -1 -13  10    7.30    7.40
  -1 -13  10   -2.30   12.60
  -1 -13  10    4.60    6.70
  -1 -13  10   24.70   12.00
   0  13 -10   -3.90    8.10
   0  13 -10   -3.40    8.20
   0  13 -10   -9.70    4.00
   0  13 -10   -1.50    4.30
   0 -13  10   10.90    7.10
   0 -13  10   17.00   12.30
   0 -13  10   -4.70    5.20
   0 -13  10   -3.70   13.70
  -1  13 -10  -11.30    8.00
  -1  13 -10   -2.30    8.30
  -1  13 -10   -3.20    4.60
   1 -13  10   16.30   12.50
   1 -13  10    8.20    7.20
   1 -13  10    6.40    4.80
   1 -13  10    0.50    8.80
   1 -13  10   18.40   14.50
   2  12 -10    2.30   10.30
  -2 -12  10    3.60    5.30
  -2 -12  10    4.10    9.30
  -2 -12  10   -1.50    7.70
  -2 -12  10   -7.30    4.80
  -2 -12  10  -13.10    9.00
   1  12 -10   10.40    7.80
   1  12 -10    9.70   10.70
  -1 -12  10    3.20    9.70
  -1 -12  10   18.20   10.20
  -1 -12  10   11.50    5.80
  -1 -12  10   15.30    7.80
  -1 -12  10    7.50    5.10
   0  12 -10   -2.10    3.30
   0  12 -10   -3.30    3.40
   0  12 -10  -11.80    6.60
   0  12 -10  -13.60    6.00
   0 -12  10    1.00    5.30
   0 -12  10    6.00    9.70
   0 -12  10   -9.50    5.10
   0 -12  10  -11.10    9.30
   0 -12  10  -12.90    4.10
  -1  12 -10   10.70    7.50
  -1  12 -10   -6.70    3.60
  -1  12 -10   -6.50    7.10
   1 -12  10   10.60    6.80
   1 -12  10    7.20    6.10
   1 -12  10  -21.70   11.40
   1 -12  10    6.20    4.90
  -2  12 -10   17.90   11.60
  -2  12 -10   28.70    9.20
  -2  12 -10   10.80    5.60
  -2  12 -10   28.90    8.80
   2 -12  10   18.20    7.90
   2 -12  10   25.40    6.20
   2 -12  10   -0.80   18.90
   2 -12  10   17.40    8.50
   3  11 -10   -5.30    9.40
  -3 -11  10    2.60    5.10
  -3 -11  10    3.40    7.20
  -3 -11  10    2.10    5.40
  -3 -11  10    9.30    5.90
  -3 -11  10   -8.70    7.50
   2  11 -10    1.80    6.00
   2  11 -10  -12.50    6.00
  -2 -11  10    6.40    4.90
  -2 -11  10   -1.60    4.50
  -2 -11  10    0.40    4.00
  -2 -11  10  -10.90    7.40
  -2 -11  10    9.30    7.30
   1  11 -10   -2.20    5.50
   1  11 -10    1.90    5.60
  -1 -11  10   -6.80    3.50
  -1 -11  10    5.30    4.80
  -1 -11  10   -3.70   12.20
  -1 -11  10  -10.20    8.10
  -1 -11  10   -3.80    4.70
   0  11 -10   -2.60    7.20
   0  11 -10   -1.10    5.30
   0  11 -10   -2.00    2.80
   0  11 -10  -10.30    5.10
   0  11 -10    1.10    2.20
   0 -11  10   -2.80    3.70
   0 -11  10   -2.80    4.90
   0 -11  10   -0.50    7.40
   0 -11  10    5.20    4.90
   0 -11  10    5.00    9.20
  -1  11 -10   -5.00    9.50
  -1  11 -10    1.30    7.00
  -1  11 -10   -6.80    5.40
  -1  11 -10   -0.10    3.70
  -1  11 -10   10.10    8.10
   1 -11  10    5.10    3.90
   1 -11  10    7.60    5.10
   1 -11  10    2.80    5.40
   1 -11  10    3.30    8.40
   1 -11  10   18.00   10.30
  -2  11 -10    1.80    4.10
  -2  11 -10    3.60    6.30
  -2  11 -10    3.70    6.50
  -2  11 -10   -5.80    8.60
   2 -11  10   -4.60    5.60
   2 -11  10    2.70    6.20
   2 -11  10    3.40    4.20
   2 -11  10  -19.00    8.30
   2 -11  10    0.50    6.40
   2 -11  10  -12.90   10.10
  -3  11 -10    5.30    9.10
  -3  11 -10   22.70   10.20
  -3  11 -10   12.70   12.10
  -3  11 -10   17.80    8.10
  -3  11 -10   11.50    6.10
  -3  11 -10   17.30    7.60
   3 -11  10   31.30   15.10
   3 -11  10    2.20    4.80
   3 -11  10    4.20    7.90
   3 -11  10   10.10   12.30
   4  10 -10   12.90    6.50
   4  10 -10   -0.90    6.50
  -4 -10  10   -2.80    5.30
  -4 -10  10   11.30    5.30
  -4 -10  10  -11.30    6.40
  -4 -10  10    1.60    4.50
  -4 -10  10    2.20    7.70
   3  10 -10   -1.40    5.90
  -3 -10  10  -12.30    6.00
  -3 -10  10    2.70    4.10
  -3 -10  10    6.40    4.00
  -3 -10  10   -4.40    3.60
  -3 -10  10   -4.20    5.90
   2  10 -10    5.90    5.70
   2  10 -10    2.30    5.20
  -2 -10  10    0.10    3.70
  -2 -10  10   -4.50    3.30
  -2 -10  10   -0.30    4.00
  -2 -10  10    4.90    7.00
  -2 -10  10    0.40    6.20
   1  10 -10   14.50    5.70
   1  10 -10   25.80    7.10
   1  10 -10   17.40    6.40
   1  10 -10   10.60    5.90
  -1 -10  10   20.10    5.40
  -1 -10  10   11.30    6.80
  -1 -10  10   18.10    7.00
  -1 -10  10   13.40    5.10
  -1 -10  10   16.90    5.40
   0  10 -10   12.60    6.00
   0  10 -10   20.80    7.20
   0  10 -10   22.60    3.30
   0  10 -10   19.40    6.40
   0  10 -10   25.00    9.30
   0 -10  10   43.40    9.60
   0 -10  10   15.30    5.20
   0 -10  10   17.10    5.30
   0 -10  10   13.90    8.40
   0 -10  10   13.80    4.70
  -1  10 -10   -8.80    5.20
  -1  10 -10   -3.70    4.80
  -1  10 -10    0.20    6.80
  -1  10 -10    2.50    7.90
  -1  10 -10   -0.60    3.20
  -1  10 -10   -2.60    6.80
   1 -10  10   -9.20    7.30
   1 -10  10    2.90    4.80
   1 -10  10   -1.30    3.40
   1 -10  10  -13.50    7.60
   1 -10  10   -2.90    4.70
  -2  10 -10   -1.00    6.20
  -2  10 -10  -10.60    7.30
  -2  10 -10   -0.70    4.00
  -2  10 -10    3.60    7.80
  -2  10 -10   11.20    5.90
   2 -10  10    7.00    4.20
   2 -10  10  -19.10   13.00
   2 -10  10    2.60    6.10
   2 -10  10   -2.30    9.00
  -3  10 -10   18.70   12.50
  -3  10 -10   17.40   10.40
  -3  10 -10  -13.50    8.20
  -3  10 -10    1.90    7.00
  -3  10 -10    0.10    4.80
  -3  10 -10  -10.50    5.90
   3 -10  10    3.20    6.10
   3 -10  10    6.30    6.80
   3 -10  10   -3.80    3.80
   3 -10  10   -8.30   10.80
   3 -10  10   -4.70    6.20
   3 -10  10  -10.00    7.70
  -4  10 -10    5.40   10.30
  -4  10 -10  -10.40   10.10
  -4  10 -10   -4.20    6.70
  -4  10 -10   11.20    6.40
  -4  10 -10   -2.40    7.20
  -4  10 -10    7.60   11.70
   4 -10  10    0.20    4.80
   4 -10  10  -10.70    6.40
   4 -10  10   13.80    9.10
   4 -10  10   -0.80    8.00
   4   9 -10   -0.60    5.10
   4   9 -10  -10.10    5.60
  -4  -9  10    0.30    4.60
  -4  -9  10   -1.90    3.80
  -4  -9  10  -13.70    5.80
  -4  -9  10   -7.70    5.10
  -4  -9  10   -3.50    3.80
   3   9 -10   -3.50    5.90
   3   9 -10    6.00    6.10
   3   9 -10    4.10    4.50
  -3  -9  10   -1.40    5.20
  -3  -9  10  -14.40    9.40
  -3  -9  10   -4.50    3.50
  -3  -9  10   -1.00    3.40
  -3  -9  10   -5.00    3.30
   2   9 -10    1.40    4.80
   2   9 -10    3.20    4.70
   2   9 -10    4.00    4.60
   2   9 -10    5.10    7.20
  -2  -9  10   -3.30    5.10
  -2  -9  10    7.20    5.30
  -2  -9  10    2.70    3.50
  -2  -9  10    1.40    3.60
  -2  -9  10   11.40    4.60
   1   9 -10   28.20    6.70
   1   9 -10   30.20    6.20
   1   9 -10   25.60    7.70
  -1  -9  10    9.00    4.40
  -1  -9  10   23.00    6.90
  -1  -9  10   20.30    5.50
  -1  -9  10   32.60    7.70
  -1  -9  10   19.60    5.10
   0   9 -10   -4.00    4.00
   0   9 -10    0.80    4.40
   0   9 -10   -3.60    4.50
   0   9 -10    0.40    2.10
   0   9 -10    0.10    4.40
   0  -9  10   -4.30    3.50
   0  -9  10   -3.20    3.20
   0  -9  10    4.10    6.50
   0  -9  10   -3.80    2.90
  -1   9 -10    4.20    4.60
  -1   9 -10   -4.90    4.50
  -1   9 -10    6.40    5.90
  -1   9 -10   -6.70    5.50
  -1   9 -10   -4.90    4.00
  -1   9 -10   -3.80    2.80
   1  -9  10    1.10    3.20
   1  -9  10   12.00    6.40
   1  -9  10    4.60    6.90
   1  -9  10   -3.50    4.10
  -2   9 -10   26.40    5.90
  -2   9 -10   37.40    6.80
  -2   9 -10   55.89   10.70
  -2   9 -10   19.60    6.40
  -2   9 -10   48.90    9.90
   2  -9  10   30.00    5.80
   2  -9  10   48.60   11.30
   2  -9  10   25.40    7.00
   2  -9  10   38.40    9.30
   2  -9  10   27.80    7.40
  -3   9 -10   -2.30    5.90
  -3   9 -10   -3.50    4.00
  -3   9 -10   -2.70    5.20
  -3   9 -10   -8.70    7.30
  -3   9 -10    4.80    7.90
  -3   9 -10   -1.90    7.80
   3  -9  10   -7.60    5.10
   3  -9  10    3.00    4.30
   3  -9  10   -2.70    6.70
   3  -9  10  -12.80   11.90
   3  -9  10   -3.30    5.60
   3  -9  10  -15.90    8.00
  -4   9 -10    6.70    6.20
  -4   9 -10   18.10   10.50
  -4   9 -10   23.10   11.80
  -4   9 -10   16.20    7.70
  -4   9 -10   15.30    7.70
  -4   9 -10   14.30    6.90
   4  -9  10   14.00    8.10
   4  -9  10   29.80    7.10
   4  -9  10   25.20    6.00
  -5  -8  10  104.49   12.30
  -5  -8  10   79.39   15.70
  -5  -8  10   94.79   10.90
   4   8 -10   -5.70    4.70
   4   8 -10    1.40    4.90
   4   8 -10   -2.80   10.70
   4   8 -10    2.50    4.40
  -4  -8  10    2.70    3.50
  -4  -8  10    6.90    4.10
  -4  -8  10   -3.00    3.30
  -4  -8  10    6.60    5.10
  -4  -8  10   -0.10    6.50
   3   8 -10    7.80    4.30
   3   8 -10    1.90    4.30
   3   8 -10    7.90    4.60
   3   8 -10   14.60    4.70
   3   8 -10   11.50    7.20
  -3  -8  10    5.00    3.80
  -3  -8  10    3.40    5.10
  -3  -8  10   -0.90    4.90
  -3  -8  10    2.30    3.40
  -3  -8  10    4.00    3.50
   2   8 -10   53.29    9.20
   2   8 -10   80.49   14.90
   2   8 -10   93.29   12.60
  -2  -8  10   69.29    9.40
  -2  -8  10   60.99    8.70
  -2  -8  10   83.79   11.30
  -2  -8  10   69.79    9.60
  -2  -8  10   92.09   10.90
   1   8 -10    2.70    4.20
   1   8 -10    6.60    4.40
   1   8 -10    4.30    4.70
   1   8 -10    8.20    4.50
   1   8 -10    4.60    4.10
  -1  -8  10    6.50    5.70
  -1  -8  10    6.60    3.50
  -1  -8  10   -1.30    3.10
  -1  -8  10    6.10    5.50
  -1  -8  10    5.30    3.80
   0   8 -10   -0.10    2.00
   0   8 -10    5.60    5.10
   0   8 -10   -5.10    3.20
   0   8 -10   -1.90    3.60
   0   8 -10   -7.70    4.30
   0  -8  10   -2.50    3.50
   0  -8  10    1.30    5.00
   0  -8  10    2.00    3.10
   0  -8  10   -2.90    5.40
  -1   8 -10   26.30    5.50
  -1   8 -10   19.10    6.00
  -1   8 -10   22.90    4.90
  -1   8 -10   30.90    7.10
  -1   8 -10   31.90    7.90
  -1   8 -10   23.70    7.70
   1  -8  10   28.30    5.30
   1  -8  10   27.00    8.00
   1  -8  10   30.80   12.70
   1  -8  10   17.60    5.50
   1  -8  10   42.20   10.50
  -2   8 -10    9.30    6.20
  -2   8 -10    5.90    4.90
  -2   8 -10   15.50    5.90
  -2   8 -10    8.50    4.40
  -2   8 -10   15.60    7.80
  -2   8 -10   11.60    3.90
   2  -8  10   10.50    5.60
   2  -8  10   21.60    8.30
   2  -8  10    4.00    7.90
   2  -8  10   15.80    7.60
   2  -8  10   10.30    3.90
  -3   8 -10    8.10    4.60
  -3   8 -10    7.90    5.40
  -3   8 -10    5.40    6.00
  -3   8 -10    5.90    7.30
  -3   8 -10   11.00    6.80
  -3   8 -10    5.10    5.60
   3  -8  10    5.80    4.50
   3  -8  10    2.30    5.20
   3  -8  10   18.10    6.70
   3  -8  10    6.40    5.70
   3  -8  10    9.00    8.60
  -4   8 -10    0.80    8.00
  -4   8 -10    1.30    5.80
  -4   8 -10    4.10    6.30
  -4   8 -10   -5.60    5.60
  -4   8 -10    4.20    6.20
  -4   8 -10    0.90    8.30
   4  -8  10   -1.90    3.70
   4  -8  10    1.20    7.20
   4  -8  10    7.20    6.40
   4  -8  10   -3.20    6.30
  -5  -7  10    2.20    4.40
  -5  -7  10   -9.40    4.60
  -5  -7  10    8.00    5.00
  -5  -7  10   -5.10    3.10
  -5  -7  10    2.70    3.40
   4   7 -10    1.40    6.30
   4   7 -10    8.00    5.60
   4   7 -10    4.40    3.80
   4   7 -10    0.50    3.60
   4   7 -10  -13.70   13.20
  -4  -7  10    1.60    3.00
  -4  -7  10    3.50    3.20
  -4  -7  10   16.40    4.80
  -4  -7  10    4.60    4.20
   3   7 -10   39.30    6.70
   3   7 -10   39.80    8.20
   3   7 -10   56.39   10.20
   3   7 -10   61.69    8.00
  -3  -7  10   41.70    7.00
  -3  -7  10   50.69    8.00
  -3  -7  10   51.69    7.50
  -3  -7  10   42.10    7.10
   2   7 -10  246.08   21.50
   2   7 -10  271.67   21.90
   2   7 -10  251.27   22.60
   2   7 -10  239.48   23.30
   2   7 -10  257.97   21.90
  -2  -7  10  273.87   22.20
  -2  -7  10  200.38   21.60
  -2  -7  10  222.18   21.80
  -2  -7  10  272.87   22.60
  -2  -7  10  220.18   21.30
   1   7 -10   27.30    6.10
   1   7 -10   24.90    6.60
   1   7 -10   28.70    5.60
   1   7 -10   25.80    5.50
   1   7 -10   38.20    6.90
  -1  -7  10   19.90    6.00
  -1  -7  10   43.20    7.30
  -1  -7  10   20.80    5.20
  -1  -7  10   24.80    6.70
  -1  -7  10   40.40    7.60
   0   7 -10    1.10    4.70
   0   7 -10    1.60    3.60
   0   7 -10    4.40    4.20
   0   7 -10    5.60    2.40
   0   7 -10    4.90    4.80
   0   7 -10   -1.80    3.90
   0  -7  10    5.30    3.80
   0  -7  10    4.40    3.60
   0  -7  10    8.50    5.80
   0  -7  10    2.20    4.80
  -1   7 -10  177.58   15.80
  -1   7 -10  155.58   15.40
  -1   7 -10  144.89   17.50
  -1   7 -10  151.48   17.60
  -1   7 -10  188.28   17.90
  -1   7 -10  201.88   18.20
   1  -7  10  155.98   17.40
   1  -7  10  143.49   15.60
   1  -7  10  175.78   18.00
   1  -7  10  213.78   19.50
   1  -7  10  160.98   17.30
  -2   7 -10   44.00    8.70
  -2   7 -10   23.40    7.30
  -2   7 -10   18.90    6.10
  -2   7 -10   22.70    5.10
  -2   7 -10   29.20    7.50
  -2   7 -10   22.70    5.20
   2  -7  10   32.10    7.80
   2  -7  10   35.80    9.50
   2  -7  10   26.30    6.70
   2  -7  10   17.60    5.00
   2  -7  10   11.10    4.80
  -3   7 -10    2.40    6.20
  -3   7 -10   -0.80    4.40
  -3   7 -10   -3.20    4.80
  -3   7 -10   10.20    6.60
  -3   7 -10   -7.20    3.70
  -3   7 -10   -6.10    4.60
   3  -7  10    1.40    4.50
   3  -7  10  -11.70    9.40
   3  -7  10    9.10    7.40
   3  -7  10   -1.40    4.60
   3  -7  10   -7.00    3.40
  -4   7 -10   23.60    9.40
  -4   7 -10   14.10    7.70
  -4   7 -10   12.50    7.10
  -4   7 -10    5.00    6.30
  -4   7 -10   12.90    6.70
  -4   7 -10    6.80    6.10
   4  -7  10    8.60    6.70
   4  -7  10    9.00    6.50
   4  -7  10   10.70    4.40
   4  -7  10    5.60    5.30
   4  -7  10   16.40    4.60
  -5   7 -10    7.80   10.80
  -5   7 -10   -5.70    5.80
  -5   7 -10   -5.80    9.50
   5  -7  10    3.30    8.30
   5  -7  10   -7.90    8.60
   5   6 -10    8.90   10.10
  -5  -6  10    4.90    3.20
  -5  -6  10    4.90    4.30
  -5  -6  10    7.70    4.50
  -5  -6  10    8.10    3.10
  -5  -6  10    7.00    4.30
   4   6 -10   -4.20    8.50
   4   6 -10   12.60    3.70
   4   6 -10   14.00    3.70
  -4  -6  10    8.40    3.70
  -4  -6  10    5.60    4.40
  -4  -6  10    8.20    3.80
  -4  -6  10    5.50    3.30
   3   6 -10   11.80    3.90
   3   6 -10   14.20    4.10
   3   6 -10   14.70    4.60
   3   6 -10   14.40    7.60
  -3  -6  10    9.70    4.60
  -3  -6  10   14.80    4.30
  -3  -6  10   15.80    4.70
  -3  -6  10   15.70    4.30
  -3  -6  10    9.20    3.40
   2   6 -10   23.60    5.40
   2   6 -10   25.00    5.50
   2   6 -10   26.00    5.60
   2   6 -10   10.40    4.20
   2   6 -10   33.30    5.70
   2   6 -10   30.50    8.90
  -2  -6  10   30.90    6.20
  -2  -6  10   37.10    6.60
  -2  -6  10   16.30    4.80
  -2  -6  10   22.40    5.20
  -2  -6  10   15.40    4.30
   1   6 -10    7.30    4.10
   1   6 -10   14.00    4.80
   1   6 -10    9.30    4.70
   1   6 -10   14.60    4.60
   1   6 -10    8.40    3.70
  -1  -6  10   11.20    4.70
  -1  -6  10   11.50    7.50
  -1  -6  10    8.30    4.20
   0   6 -10   12.30    4.90
   0   6 -10   20.60    5.60
   0   6 -10   17.10    4.60
   0   6 -10    8.40    4.80
   0   6 -10   12.00    4.80
   0  -6  10   18.20    6.10
   0  -6  10   16.60    5.20
   0  -6  10    7.10    4.20
  -1   6 -10  649.64   49.70
  -1   6 -10  542.55   49.40
  -1   6 -10  609.24   49.99
  -1   6 -10  624.14   47.80
  -1   6 -10  717.63   50.09
  -1   6 -10  600.44   47.70
   1  -6  10  525.65   49.00
   1  -6  10  516.35   48.90
   1  -6  10  602.74   50.09
  -2   6 -10   21.30    6.20
  -2   6 -10   28.00    7.80
  -2   6 -10   30.50    7.70
  -2   6 -10   37.00    7.90
  -2   6 -10   15.60    5.30
  -2   6 -10   34.70    6.20
   2  -6  10   34.90    6.80
   2  -6  10   50.09    9.50
   2  -6  10   29.10    7.40
   2  -6  10   18.40    5.70
  -3   6 -10    8.30    6.40
  -3   6 -10   11.10    5.10
  -3   6 -10    8.90    6.40
  -3   6 -10    2.00    5.10
  -3   6 -10    4.40    4.60
   3  -6  10    6.70    3.80
   3  -6  10    8.80    4.40
   3  -6  10    5.50    5.00
   3  -6  10    0.80    4.80
  -4   6 -10    7.80    6.10
  -4   6 -10   -0.70    4.80
  -4   6 -10    5.40    7.00
  -4   6 -10   -2.40    4.90
  -4   6 -10   -1.30    5.50
  -4   6 -10    5.20    6.80
   4  -6  10   11.50    6.40
   4  -6  10    3.50    3.20
   4  -6  10    2.70    4.50
   4  -6  10   10.50    6.60
   4  -6  10   -1.30   11.80
  -5   6 -10    6.20   11.90
  -5   6 -10   12.00    9.10
  -5   6 -10    7.80    7.10
   5  -6  10   -1.80    8.60
   5  -6  10    5.80    7.40
   6   5 -10   70.49   15.70
  -6  -5  10   54.39    9.10
  -6  -5  10   67.79    7.70
  -6  -5  10   84.89    9.40
  -6  -5  10   40.70   10.10
   5   5 -10   -0.40    9.30
  -5  -5  10   -1.50    2.50
  -5  -5  10   -2.60    3.80
  -5  -5  10    8.40    3.60
  -5  -5  10    2.30    2.10
  -5  -5  10    3.40    5.00
  -5  -5  10   -7.00    3.30
  -5  -5  10   -3.30    2.60
   4   5 -10    0.40    7.30
   4   5 -10    0.10    2.60
   4   5 -10    3.50    2.90
   4   5 -10    2.90    2.80
  -4  -5  10    6.80    4.50
  -4  -5  10    2.10    3.30
  -4  -5  10   -1.10    3.80
  -4  -5  10    0.50    2.50
  -4  -5  10    2.10    2.60
  -4  -5  10   -0.50    5.50
   3   5 -10  168.28   14.80
   3   5 -10  158.38   15.00
   3   5 -10  177.88   18.80
   3   5 -10  164.98   14.90
   3   5 -10  176.38   15.70
  -3  -5  10  177.08   15.40
  -3  -5  10  148.89   15.30
  -3  -5  10  173.68   15.90
  -3  -5  10  130.69   15.00
  -3  -5  10  149.09   15.10
   2   5 -10   62.49    8.00
   2   5 -10   81.69   11.20
   2   5 -10   65.49    8.20
   2   5 -10   63.99    8.20
   2   5 -10   53.39    8.70
  -2  -5  10   49.30   10.80
  -2  -5  10   67.69    8.90
  -2  -5  10   59.09    8.30
   1   5 -10    4.40    3.60
   1   5 -10    4.70    3.60
   1   5 -10    7.50    4.40
   1   5 -10   10.40    4.50
   1   5 -10   10.00    3.50
  -1  -5  10   10.50    4.40
  -1  -5  10    8.30    3.70
  -1  -5  10    5.40    4.00
  -1  -5  10   17.20    2.70
   0   5 -10  292.17   24.60
   0   5 -10  234.18   24.20
   0   5 -10  269.57   22.40
   0   5 -10  268.77   22.90
   0   5 -10  259.37   24.50
   0  -5  10  230.88   24.00
   0  -5  10  273.37   23.70
   0  -5  10  304.87   25.40
   0  -5  10  295.87   22.40
   0  -5  10  242.58   24.20
  -1   5 -10  116.09   13.30
  -1   5 -10  119.39   13.20
  -1   5 -10  104.19   11.20
  -1   5 -10  103.09   12.70
  -1   5 -10   90.49   12.70
  -1   5 -10   93.79   11.20
   1  -5  10   93.19   12.20
   1  -5  10  112.79   13.00
   1  -5  10  104.29   11.10
   1  -5  10  121.39   13.70
  -2   5 -10  102.79   11.20
  -2   5 -10  104.49   13.40
  -2   5 -10   91.89   11.10
  -2   5 -10   92.49   12.30
  -2   5 -10  105.59   13.30
  -2   5 -10  102.59   12.70
   2  -5  10   90.29   10.80
   2  -5  10  121.89   14.40
   2  -5  10   87.99   12.00
   2  -5  10   81.39   10.50
   2  -5  10   75.09   11.80
  -3   5 -10    5.90    5.40
  -3   5 -10   -6.00    3.70
  -3   5 -10    3.30    5.70
  -3   5 -10    7.90    6.60
   3  -5  10    1.80    5.20
   3  -5  10    0.80    3.70
   3  -5  10   -1.50    4.00
   3  -5  10    2.50    3.40
  -4   5 -10   -4.40    5.20
  -4   5 -10    6.30    5.70
  -4   5 -10   -0.80    5.10
  -4   5 -10   -1.00    6.80
  -4   5 -10   13.10    5.90
  -4   5 -10   17.20    7.40
   4  -5  10    5.90    6.20
   4  -5  10    2.70    4.60
   4  -5  10   11.40    6.40
  -5   5 -10   43.30   10.80
  -5   5 -10   44.80   12.50
   5  -5  10   29.40    8.90
   5  -5  10   14.00    9.40
   6   4 -10  -13.00    9.90
  -6  -4  10    0.30    3.90
  -6  -4  10   -3.80    4.30
  -6  -4  10   -6.10    5.50
   5   4 -10   15.50    9.60
  -5  -4  10    0.20    3.20
  -5  -4  10    2.60    4.90
  -5  -4  10    5.60    3.60
  -5  -4  10    6.80    4.10
  -5  -4  10    4.60    3.10
  -5  -4  10    7.90    4.70
  -5  -4  10    5.80    3.10
  -5  -4  10    5.40    2.90
   4   4 -10   31.00    4.50
   4   4 -10   28.60    4.20
   4   4 -10   25.60    4.10
   4   4 -10   30.10   11.80
  -4  -4  10   24.90    5.50
  -4  -4  10   38.90    8.70
  -4  -4  10   22.40    5.10
  -4  -4  10   25.50    3.90
  -4  -4  10   32.40    5.50
  -4  -4  10   41.60    9.70
  -4  -4  10   32.00    4.10
  -4  -4  10   33.00    6.00
   3   4 -10  196.68   17.20
   3   4 -10  208.98   17.70
   3   4 -10  222.48   21.40
   3   4 -10  212.48   17.00
   3   4 -10  203.48   17.00
  -3  -4  10  155.68   18.90
  -3  -4  10  184.98   15.40
  -3  -4  10  183.98   18.10
  -3  -4  10  160.58   17.10
  -3  -4  10  174.28   17.30
   2   4 -10    5.70    4.00
   2   4 -10    4.80    3.20
   2   4 -10    3.90    2.80
   2   4 -10    2.40    3.10
   2   4 -10    9.30    6.20
   2   4 -10    8.20    4.00
  -2  -4  10    9.90    3.60
  -2  -4  10   16.10    4.90
  -2  -4  10    2.70    3.40
  -2  -4  10    6.40    3.70
  -2  -4  10    9.70    2.20
   1   4 -10    0.00    2.70
   1   4 -10    1.90    3.20
   1   4 -10    0.40    3.60
   1   4 -10    0.20    3.70
   1   4 -10    1.50    3.50
  -1  -4  10    6.60    4.00
  -1  -4  10    4.60    3.00
  -1  -4  10    0.90    3.20
  -1  -4  10    3.70    3.70
  -1  -4  10   -2.20    3.10
  -1  -4  10   -1.50    2.90
  -1  -4  10    3.80    2.20
   0   4 -10 1448.26  110.59
   0   4 -10 1488.75  110.39
   0   4 -10 1525.65  112.09
   0   4 -10 1524.85  111.99
   0   4 -10 1377.16  112.19
   0   4 -10 1398.66  112.19
   0  -4  10 1404.06  110.79
   0  -4  10 1490.25  110.19
   0  -4  10 1347.67  111.89
   0  -4  10 1671.83  113.09
   0  -4  10 1263.57  111.79
   0  -4  10 1226.88  111.49
   0  -4  10 1562.84  112.79
  -1   4 -10   82.49   12.70
  -1   4 -10   69.19   11.30
  -1   4 -10   81.99    9.60
  -1   4 -10   81.59    9.60
  -1   4 -10   88.99   11.30
  -1   4 -10   67.79   10.40
   1  -4  10   83.79   11.00
   1  -4  10   69.69   10.40
   1  -4  10   89.89   12.10
   1  -4  10   71.19    9.30
  -2   4 -10  172.38   17.20
  -2   4 -10  162.18   17.00
  -2   4 -10  130.29   15.80
  -2   4 -10  153.48   16.60
  -2   4 -10  155.88   14.80
  -2   4 -10  156.78   15.30
   2  -4  10  168.38   15.40
   2  -4  10  165.18   17.70
   2  -4  10  121.69   14.30
   2  -4  10  137.79   14.80
   2  -4  10  121.29   16.00
   2  -4  10  170.28   17.70
   2  -4  10  134.79   15.90
  -3   4 -10  124.89   15.50
  -3   4 -10  113.69   15.00
  -3   4 -10   98.59   13.00
  -3   4 -10   94.69   13.90
   3  -4  10  139.49   14.20
   3  -4  10   99.89   13.90
   3  -4  10  103.39   12.10
   3  -4  10  174.98   24.80
   3  -4  10   99.29   11.10
   3  -4  10   95.69   13.80
   3  -4  10  137.19   16.50
  -4   4 -10    3.10    5.60
  -4   4 -10   -3.10    9.70
  -4   4 -10    7.00    6.30
  -4   4 -10   11.40    7.40
  -4   4 -10   -0.10    4.90
  -4   4 -10   -1.70    5.40
   4  -4  10    7.00    5.90
   4  -4  10   -2.50    5.80
  -5   4 -10    3.00    6.30
  -5   4 -10   12.50    9.10
  -5   4 -10   18.40   16.10
  -5   4 -10    4.00    7.60
   5  -4  10   -1.80    7.00
   5  -4  10   14.00    8.80
   6   3 -10   58.59   16.10
  -6  -3  10   40.10    7.60
  -6  -3  10   65.49    8.30
  -6  -3  10   57.89   11.90
   5   3 -10   13.30    8.70
  -5  -3  10    6.60    3.00
  -5  -3  10   -0.70    3.40
  -5  -3  10    3.90    3.40
  -5  -3  10    4.40    5.10
  -5  -3  10   -3.80    3.70
  -5  -3  10    4.50    3.50
  -5  -3  10    2.10    2.90
  -5  -3  10   -4.30    3.30
   4   3 -10   80.69    7.40
   4   3 -10   68.09    7.10
   4   3 -10   91.39   17.10
   4   3 -10   80.29    7.80
  -4  -3  10   72.09    8.70
  -4  -3  10   69.49   12.50
  -4  -3  10   59.39    8.10
  -4  -3  10   48.70    7.50
  -4  -3  10   55.69    8.10
   3   3 -10  105.39   15.10
   3   3 -10   96.59   10.90
   3   3 -10  120.89   11.20
   3   3 -10  107.19   10.90
   3   3 -10  106.29   11.30
  -3  -3  10   88.19   12.60
  -3  -3  10   98.99   10.10
  -3  -3  10  120.79   11.80
  -3  -3  10   98.19   11.30
  -3  -3  10  106.99   12.20
  -3  -3  10  104.49   11.10
  -3  -3  10  106.79   11.50
   2   3 -10   -0.80    2.90
   2   3 -10    3.40    5.50
   2   3 -10   -0.30    2.60
   2   3 -10   -1.60    3.00
   2   3 -10   -5.50    2.40
   2   3 -10    0.80    3.00
  -2  -3  10    1.20    3.40
  -2  -3  10    1.50    2.80
  -2  -3  10   -2.60    2.10
  -2  -3  10   -1.60    2.40
  -2  -3  10   -3.20    3.00
   1   3 -10   12.80    3.60
   1   3 -10    7.10    3.90
   1   3 -10    8.90    4.00
   1   3 -10    6.50    4.40
   1   3 -10    5.90    4.00
  -1  -3  10    7.70    4.00
  -1  -3  10    3.20    3.00
  -1  -3  10    7.20    4.00
  -1  -3  10    6.20    4.10
  -1  -3  10    9.30    3.50
  -1  -3  10    9.30    4.60
  -1  -3  10    9.50    4.60
   0   3 -10   71.99   10.90
   0   3 -10   93.39    9.00
   0   3 -10   71.49    8.50
   0   3 -10   59.59   10.20
   0   3 -10   81.39   10.50
   0   3 -10   74.99    9.90
   0  -3  10   46.70    9.30
   0  -3  10   51.29    9.60
   0  -3  10   73.69    8.80
   0  -3  10   56.99    8.90
   0  -3  10   60.79    8.00
   0  -3  10   78.29   12.00
   0  -3  10   77.59   10.10
  -1   3 -10    0.60    3.10
  -1   3 -10    1.80    3.20
  -1   3 -10   -0.20    2.80
  -1   3 -10    0.90    4.10
  -1   3 -10    3.80    4.20
  -1   3 -10    0.50    3.90
   1  -3  10   -1.60    3.90
   1  -3  10   -1.50    2.80
   1  -3  10    2.00    3.90
   1  -3  10    2.90    4.00
   1  -3  10    1.60    2.90
   1  -3  10    2.90    3.50
   1  -3  10    1.30    2.50
  -2   3 -10   42.50    9.70
  -2   3 -10   47.70    7.70
  -2   3 -10   45.50    9.20
  -2   3 -10   38.70    7.10
  -2   3 -10   48.00    9.30
   2  -3  10   28.30    7.60
   2  -3  10   40.60    7.50
   2  -3  10   54.19   10.30
   2  -3  10   29.80    7.60
   2  -3  10   31.90    7.70
   2  -3  10   38.70    7.50
   2  -3  10   31.90    6.30
  -3   3 -10   35.10    7.60
  -3   3 -10   41.60    7.60
  -3   3 -10   43.60   10.10
  -3   3 -10   39.80    8.70
  -3   3 -10   24.20    6.90
   3  -3  10   47.50   11.10
   3  -3  10   28.70    8.40
   3  -3  10   30.40    6.10
   3  -3  10   40.80    8.60
   3  -3  10   26.60    7.10
   3  -3  10   28.30    6.00
  -4   3 -10   -0.20    4.80
  -4   3 -10    2.70    5.00
  -4   3 -10    0.30    5.60
  -4   3 -10  -17.60    6.90
  -4   3 -10    3.20    6.80
   4  -3  10   -4.60   11.00
   4  -3  10   -2.50    5.20
   4  -3  10    0.30    5.90
  -5   3 -10    0.80    9.20
  -5   3 -10    2.10    6.70
  -5   3 -10  -12.90   11.40
  -5   3 -10   11.30    7.40
   5  -3  10    1.70    7.60
   5  -3  10   14.00    8.50
   6   2 -10   31.20   13.40
  -6  -2  10   20.20    6.10
  -6  -2  10   16.40    7.20
  -6  -2  10   19.10    5.00
   5   2 -10   -1.90    7.90
  -5  -2  10   -3.20    2.70
  -5  -2  10    3.60    3.00
  -5  -2  10    1.00    3.50
  -5  -2  10   -2.60    4.40
  -5  -2  10   -1.30    4.40
   4   2 -10  175.48   15.20
   4   2 -10  155.08   13.70
   4   2 -10  164.68   14.10
   4   2 -10  136.39   19.30
   4   2 -10  152.58   13.70
   4   2 -10  161.08   13.70
  -4  -2  10  164.08   14.70
  -4  -2  10  137.79   14.50
  -4  -2  10  167.78   15.00
  -4  -2  10  132.99   16.70
  -4  -2  10  137.09   14.60
   3   2 -10  256.07   19.60
   3   2 -10  216.58   19.10
   3   2 -10  206.18   23.10
   3   2 -10  220.68   19.20
   3   2 -10  227.88   19.10
   3   2 -10  224.68   19.40
  -3  -2  10  165.98   20.60
  -3  -2  10  209.08   19.40
  -3  -2  10  221.78   19.70
  -3  -2  10  230.68   19.90
  -3  -2  10  209.08   19.20
  -3  -2  10  207.58   19.60
  -3  -2  10  198.68   18.70
   2   2 -10   69.39    8.50
   2   2 -10   67.19   13.90
   2   2 -10   60.49    8.40
   2   2 -10   59.69    7.80
   2   2 -10   43.70    8.10
  -2  -2  10   39.50    9.40
  -2  -2  10   65.59   10.10
  -2  -2  10   61.69    7.80
  -2  -2  10   57.89    7.70
  -2  -2  10   52.19   10.20
  -2  -2  10   52.29   10.50
  -2  -2  10   54.59    8.00
   1   2 -10  718.73   55.09
   1   2 -10  685.93   57.79
   1   2 -10  687.03   55.09
   1   2 -10  706.23   53.99
   1   2 -10  679.63   55.39
   1   2 -10  675.23   55.19
  -1  -2  10  607.64   55.39
  -1  -2  10  650.53   53.79
  -1  -2  10  701.63   54.19
  -1  -2  10  710.93   55.69
  -1  -2  10  674.03   55.79
  -1  -2  10  670.53   55.49
  -1  -2  10  699.73   55.49
   0   2 -10    2.30    3.90
   0   2 -10    7.90    3.40
   0   2 -10   10.10    5.10
   0   2 -10    8.40    4.90
   0   2 -10    9.60    3.50
   0   2 -10    4.90    4.40
   0  -2  10    6.10    3.60
   0  -2  10    1.30    3.90
   0  -2  10    9.40    4.70
   0  -2  10    9.40    5.70
   0  -2  10    1.20    3.20
   0  -2  10    5.90    4.00
   0  -2  10    6.90    4.30
  -1   2 -10    2.60    4.00
  -1   2 -10   -1.30    4.30
  -1   2 -10    7.00    4.60
  -1   2 -10    2.30    3.50
  -1   2 -10    4.20    4.20
  -1   2 -10    4.00    3.50
   1  -2  10    2.50    4.80
   1  -2  10    1.00    2.40
   1  -2  10    7.30    4.70
   1  -2  10   -4.80    2.60
   1  -2  10    3.80    4.00
   1  -2  10    1.50    3.40
   1  -2  10   -1.40    3.30
  -2   2 -10   18.60    5.30
  -2   2 -10   29.70    7.80
  -2   2 -10   12.50    5.30
  -2   2 -10   10.50    5.80
  -2   2 -10   22.00    6.90
   2  -2  10   13.00    5.90
   2  -2  10   18.70    7.30
   2  -2  10   17.30    4.70
   2  -2  10   17.70    5.30
   2  -2  10   16.40    4.60
   2  -2  10   21.50    7.60
   2  -2  10   20.20    6.50
  -3   2 -10    0.50    4.80
  -3   2 -10    3.20    5.90
  -3   2 -10    1.90    6.80
  -3   2 -10   -2.60    4.30
  -3   2 -10   -1.80    4.60
  -3   2 -10    0.10    5.00
   3  -2  10    1.60    5.40
   3  -2  10   -4.50    4.00
   3  -2  10   -5.60    4.50
   3  -2  10    0.30    3.00
   3  -2  10   -3.00    5.40
  -4   2 -10   13.80    7.40
  -4   2 -10   20.80    9.90
  -4   2 -10   16.30    7.40
  -4   2 -10   13.60    8.40
  -4   2 -10   21.70    7.10
   4  -2  10    0.60    5.90
   4  -2  10    9.70    6.70
  -5   2 -10   17.20   11.40
  -5   2 -10    8.80    7.90
  -5   2 -10   10.90    7.20
  -5   2 -10   11.60    9.50
   5  -2  10   12.50    9.10
   5  -2  10    3.40    7.90
   6   1 -10    6.80    9.70
  -6  -1  10   -1.10    3.80
  -6  -1  10   -8.70    5.00
   5   1 -10   -0.80    9.10
  -5  -1  10    9.30    5.60
  -5  -1  10    1.30    3.40
  -5  -1  10    0.30    4.30
  -5  -1  10   -2.80    2.90
  -5  -1  10    3.50    6.80
  -5  -1  10    4.40    3.80
   4   1 -10    4.60    3.60
   4   1 -10    2.10    7.10
   4   1 -10    7.10    4.30
   4   1 -10    4.20    3.40
   4   1 -10   11.00    3.70
   4   1 -10    7.40    3.60
  -4  -1  10    3.10    3.40
  -4  -1  10   11.20    4.10
  -4  -1  10    7.90    4.60
  -4  -1  10   12.20    4.00
  -4  -1  10   11.30    4.50
  -4  -1  10    5.10    3.80
  -4  -1  10   12.10    3.90
   3   1 -10   51.29    7.80
   3   1 -10   66.79    8.40
   3   1 -10   44.40   12.30
   3   1 -10   49.90    7.60
   3   1 -10   44.70    6.90
   3   1 -10   46.70    7.50
  -3  -1  10   59.99    7.40
  -3  -1  10   53.89    8.60
  -3  -1  10   53.69    8.40
  -3  -1  10   50.99    7.30
  -3  -1  10   37.70    9.10
  -3  -1  10   34.10    8.30
   2   1 -10  127.49   12.30
   2   1 -10  127.69   13.40
   2   1 -10  116.09   16.00
   2   1 -10  133.99   13.40
   2   1 -10  132.59   13.40
  -2  -1  10  115.19   13.20
  -2  -1  10  134.99   13.70
  -2  -1  10  119.29   12.30
  -2  -1  10  108.39   13.60
  -2  -1  10  125.19   14.00
  -2  -1  10  103.99   12.90
  -2  -1  10  115.79   13.20
   1   1 -10 1006.10   78.49
   1   1 -10 1019.20   76.99
   1   1 -10 1002.50   78.29
   1   1 -10 1017.10   81.59
   1   1 -10 1052.79   78.39
   1   1 -10  980.80   78.19
  -1  -1  10  885.91   78.59
  -1  -1  10 1006.80   78.59
  -1  -1  10  929.01   78.49
  -1  -1  10 1026.10   78.79
  -1  -1  10  913.91   77.39
  -1  -1  10 1026.10   77.09
   0   1 -10    3.00    4.80
   0   1 -10   -4.00    3.40
   0   1 -10   -0.40    3.00
   0   1 -10    0.00    3.80
   0   1 -10    1.90    4.30
   0   1 -10    3.40    3.30
   0  -1  10    4.90    3.30
   0  -1  10    0.80    4.40
   0  -1  10   -1.20    3.60
   0  -1  10    0.50    3.40
   0  -1  10   -0.40    2.90
   0  -1  10   -2.70    2.50
  -1   1 -10   12.40    5.80
  -1   1 -10   29.90    8.00
  -1   1 -10   10.70    4.60
  -1   1 -10   16.40    6.10
  -1   1 -10   20.40    6.50
  -1   1 -10   14.20    4.40
   1  -1  10   17.00    5.00
   1  -1  10   11.80    5.50
   1  -1  10    7.10    5.80
   1  -1  10   14.70    5.70
   1  -1  10   14.90    7.10
   1  -1  10   11.90    4.10
   1  -1  10   11.60    4.70
  -2   1 -10  207.08   21.60
  -2   1 -10  211.58   22.20
  -2   1 -10  183.38   23.00
  -2   1 -10  216.38   22.30
  -2   1 -10  185.28   21.20
  -2   1 -10  219.08   20.90
   2  -1  10  241.18   22.70
   2  -1  10  206.88   20.40
   2  -1  10  231.98   22.40
   2  -1  10  205.68   21.60
   2  -1  10  197.28   19.10
   2  -1  10  207.68   21.60
  -3   1 -10   -4.40    6.20
  -3   1 -10   -5.60    6.30
  -3   1 -10    1.40    4.10
  -3   1 -10   10.30    5.80
  -3   1 -10   -1.40    4.70
  -3   1 -10    1.50    5.20
   3  -1  10   -6.50    4.80
   3  -1  10    8.60    8.30
   3  -1  10   -2.60    4.30
   3  -1  10   -1.20    9.70
   3  -1  10   -3.00    5.50
   3  -1  10    4.40    3.60
  -4   1 -10    9.30    6.80
  -4   1 -10   12.00    6.80
  -4   1 -10    1.50    7.60
  -4   1 -10    6.70    6.30
  -4   1 -10  -14.40    8.30
   4  -1  10    7.30    6.60
   4  -1  10    9.40    6.20
   4  -1  10    5.60    3.90
   6   0 -10    3.50    9.40
  -6   0  10   -5.50   14.70
  -6   0  10   -0.10    3.60
  -6   0  10   -1.60    3.80
  -6   0  10   -2.40    8.70
   5   0 -10   10.80   10.40
  -5   0  10    2.40    3.50
  -5   0  10    8.60    4.30
  -5   0  10   -2.90    6.00
  -5   0  10   13.20    3.90
  -5   0  10    7.10    5.00
  -5   0  10   17.20    4.50
  -5   0  10   12.80    4.70
   4   0 -10   32.90   10.50
   4   0 -10   28.60    5.90
   4   0 -10   33.80    6.10
   4   0 -10   40.40    6.20
   4   0 -10   46.60    6.70
  -4   0  10   27.10    6.20
  -4   0  10   29.80    6.90
  -4   0  10   25.50    6.00
  -4   0  10   36.00    6.30
  -4   0  10   39.50    6.20
  -4   0  10   34.90    6.90
  -4   0  10   21.50    6.20
   3   0 -10   46.50    8.10
   3   0 -10   39.80    9.60
   3   0 -10   33.90    6.00
   3   0 -10   46.70   12.20
  -3   0  10   36.40    7.20
  -3   0  10   58.99   11.10
  -3   0  10   38.50    7.10
  -3   0  10   39.20    7.60
  -3   0  10   42.90    7.30
  -3   0  10   36.50    7.00
  -3   0  10   38.70    6.70
   2   0 -10    2.90    3.60
   2   0 -10    0.60    4.00
   2   0 -10   -2.10    3.60
   2   0 -10    1.40    3.30
   2   0 -10    3.30    3.80
   2   0 -10    0.70    5.30
  -2   0  10    0.60    3.50
  -2   0  10    1.00    3.00
  -2   0  10   -1.20    2.60
  -2   0  10   -1.40    3.70
  -2   0  10   -3.80    2.70
  -2   0  10    1.80    3.40
  -2   0  10   -4.20    2.80
   1   0 -10    9.10    4.70
   1   0 -10    8.10    7.70
   1   0 -10    9.30    4.90
   1   0 -10    4.60    4.50
   1   0 -10    6.60    3.30
  -1   0  10   11.90    4.90
  -1   0  10   13.20    4.70
  -1   0  10    2.80    3.90
  -1   0  10    9.50    3.70
  -1   0  10   12.10    5.20
  -1   0  10    7.90    4.50
   0   0 -10   14.50    4.40
   0   0 -10   14.60    5.80
   0   0 -10   19.50    5.70
   0   0 -10   11.60    5.50
   0   0 -10   17.50    5.90
   0   0 -10    9.60    4.50
   0   0  10   22.80    6.80
   0   0  10   11.50    3.80
   0   0  10   12.90    5.50
   0   0  10    8.60    4.30
   0   0  10    9.80    4.00
   0   0  10    6.40    4.00
  -1   0 -10   38.50    8.90
  -1   0 -10   25.30    5.70
  -1   0 -10   15.00    6.30
  -1   0 -10   15.20    7.00
  -1   0 -10   17.00    5.80
   1   0  10   29.30    6.40
   1   0  10   16.50    6.00
   1   0  10   16.80    5.90
   1   0  10   19.40    6.20
   1   0  10   24.70    7.70
   1   0  10   28.50    5.80
   1   0  10   22.70    7.50
  -2   0 -10   -7.10    5.90
  -2   0 -10   12.00    5.40
  -2   0 -10   16.00    6.00
  -2   0 -10   12.20    5.40
  -2   0 -10   20.20    8.00
   2   0  10   12.80    5.80
   2   0  10   16.30    7.50
   2   0  10    4.20    4.90
   2   0  10   11.70    4.50
   2   0  10    8.50    6.70
   2   0  10   10.10    6.90
  -3   0 -10    2.10    7.90
  -3   0 -10   -1.00    6.70
  -3   0 -10   -0.40    4.40
  -3   0 -10    3.10    6.10
  -3   0 -10    0.30    5.30
   3   0  10   -1.60    9.00
   3   0  10    0.50    4.60
   3   0  10   11.20    8.40
   3   0  10    0.40    5.20
   3   0  10   -1.50    3.20
  -4   0 -10   14.20   10.50
  -4   0 -10   46.80   12.20
  -4   0 -10   13.00    7.20
  -4   0 -10   18.10    9.70
  -4   0 -10    1.80    6.90
   4   0  10   16.20    4.70
   4   0  10   28.80    9.30
   4   0  10   16.20    7.90
   5  -1 -10   19.70   10.10
   5  -1 -10   40.90    5.20
  -5   1  10   52.69   12.10
  -5   1  10   29.70    5.40
  -5   1  10   30.20    6.60
  -5   1  10   15.50    7.50
  -5   1  10   31.10    6.30
  -5   1  10   33.50    6.70
  -5   1  10   40.20    7.30
   4  -1 -10    2.20    4.60
   4  -1 -10    2.60    7.40
   4  -1 -10   -0.20    3.70
   4  -1 -10    8.40    4.50
   4  -1 -10   -5.50    3.90
   4  -1 -10    9.90    4.50
  -4   1  10    1.10    4.10
  -4   1  10    0.70    3.70
  -4   1  10    4.10    4.50
  -4   1  10    1.20    4.40
  -4   1  10   -0.50    3.80
  -4   1  10    1.50    3.30
  -4   1  10   11.60    5.60
   3  -1 -10   43.40    8.00
   3  -1 -10   44.30    9.10
   3  -1 -10   52.89    7.30
   3  -1 -10   40.60   12.80
   3  -1 -10   44.20    8.00
  -3   1  10   51.69    8.90
  -3   1  10   40.50    8.00
  -3   1  10   45.80    8.00
  -3   1  10   35.90    7.80
  -3   1  10   45.10    7.20
  -3   1  10   57.69    9.60
  -3   1  10   63.99   11.80
   2  -1 -10  425.96   35.50
   2  -1 -10  402.16   35.10
   2  -1 -10  358.36   42.30
   2  -1 -10  366.36   38.60
   2  -1 -10  434.46   34.10
  -2   1  10  421.76   35.30
  -2   1  10  377.16   34.90
  -2   1  10  442.76   34.10
  -2   1  10  414.76   36.60
  -2   1  10  420.66   35.80
  -2   1  10  427.86   35.80
  -2   1  10  413.96   35.60
   1  -1 -10    2.20    5.70
   1  -1 -10   -2.40    3.90
   1  -1 -10   -1.50    3.10
   1  -1 -10   -3.50    4.60
   1  -1 -10    0.10    5.00
   1  -1 -10    2.90    4.50
  -1   1  10   -2.50    3.30
  -1   1  10    1.30    4.10
  -1   1  10   -0.20    3.10
  -1   1  10   -2.60    4.60
  -1   1  10   -0.90    3.60
  -1   1  10    4.30    3.90
   0  -1 -10   43.10    7.70
   0  -1 -10   50.89   10.50
   0  -1 -10   34.30   14.60
   0  -1 -10   42.10    8.90
   0  -1 -10   55.69   10.30
   0  -1 -10   45.00    9.30
   0   1  10   38.80    6.70
   0   1  10   43.60    9.10
   0   1  10   67.79   10.60
   0   1  10   42.30    9.20
   0   1  10   33.40    8.80
   0   1  10   65.39   11.30
   0   1  10   54.99   10.60
  -1  -1 -10   53.69   10.70
  -1  -1 -10   27.60    7.60
  -1  -1 -10   55.59   10.60
  -1  -1 -10   40.30    9.50
  -1  -1 -10   25.20    7.70
   1   1  10   55.19   10.90
   1   1  10   50.49    8.90
   1   1  10   38.80    7.70
   1   1  10   63.89   11.70
   1   1  10   27.40    7.30
  -2  -1 -10    1.10    7.60
  -2  -1 -10    4.90    4.70
  -2  -1 -10    0.90    5.60
  -2  -1 -10    0.20    5.20
  -2  -1 -10   -1.80    6.80
  -2  -1 -10   -2.90    4.40
   2   1  10   -2.00    4.50
   2   1  10   -2.30    5.80
   2   1  10    1.30    3.40
   2   1  10   -9.00    4.40
   2   1  10   -5.60    7.30
   2   1  10  -10.50    6.30
  -3  -1 -10  -11.00    5.70
  -3  -1 -10   -7.90    5.50
  -3  -1 -10  -12.00    8.00
  -3  -1 -10   -0.10    5.20
  -3  -1 -10  -13.80    7.70
   3   1  10    4.40    6.20
   3   1  10    1.00    3.50
   3   1  10   -2.50    5.00
   3   1  10   -3.60    8.40
  -4  -1 -10  -11.20    9.50
  -4  -1 -10    4.20    7.30
  -4  -1 -10  -10.00    6.10
  -4  -1 -10  -10.00   11.40
   4   1  10   -2.40    3.70
   4   1  10    6.10    7.70
   4   1  10    0.20    6.10
   5  -2 -10    5.50    8.70
   5  -2 -10    2.70    5.40
  -5   2  10    3.80    7.50
  -5   2  10   10.80    6.10
  -5   2  10   13.80    5.80
  -5   2  10   24.60    6.20
  -5   2  10    1.10    5.50
  -5   2  10    5.90    3.80
   4  -2 -10    3.30    4.30
   4  -2 -10   -1.40    4.00
   4  -2 -10   -9.10    7.70
   4  -2 -10   -1.70    9.00
  -4   2  10    3.60    5.60
  -4   2  10   -6.20    4.20
  -4   2  10    2.30    4.50
  -4   2  10   14.30    5.10
  -4   2  10   -1.30    4.50
  -4   2  10   -3.30    3.20
  -4   2  10   -2.20    7.40
   3  -2 -10   -2.40    4.90
   3  -2 -10    5.60    4.70
   3  -2 -10   -0.20    3.90
   3  -2 -10    8.10    4.80
   3  -2 -10   13.40    8.90
   3  -2 -10   10.30    5.70
  -3   2  10    5.10    4.80
  -3   2  10    5.50    4.50
  -3   2  10   12.70    5.40
  -3   2  10    6.50    4.80
  -3   2  10    4.10    3.50
  -3   2  10   -0.40    4.40
  -3   2  10    3.00    4.30
   2  -2 -10   98.69   14.40
   2  -2 -10  126.99   12.60
   2  -2 -10  123.99   14.00
   2  -2 -10  120.19   21.50
   2  -2 -10  121.19   14.10
   2  -2 -10   94.99   14.50
  -2   2  10  105.29   14.20
  -2   2  10  136.19   12.30
  -2   2  10  122.19   14.50
  -2   2  10  107.69   13.50
  -2   2  10   98.39   13.10
  -2   2  10  103.39   14.10
  -2   2  10  102.89   13.30
   1  -2 -10   11.40    5.70
   1  -2 -10    1.00    6.40
   1  -2 -10   12.70    8.20
   1  -2 -10    9.90    4.20
   1  -2 -10    3.80    4.60
  -1   2  10    8.10    6.30
  -1   2  10    6.70    5.10
  -1   2  10    1.40    4.00
  -1   2  10   11.70    5.60
  -1   2  10    0.50    5.10
  -1   2  10    3.50    4.60
  -1   2  10    8.30    3.90
   0  -2 -10   47.20   11.20
   0  -2 -10   71.39   10.80
   0  -2 -10   49.50    7.90
   0  -2 -10   63.59   11.20
   0  -2 -10   28.80   10.80
   0  -2 -10   32.90    7.50
   0  -2 -10   34.10    8.20
   0   2  10   61.29   10.50
   0   2  10   59.19   12.00
   0   2  10   57.29   10.50
   0   2  10   57.49   11.30
   0   2  10   45.70   10.40
   0   2  10   55.49   10.10
  -1  -2 -10   99.49   13.40
  -1  -2 -10  137.39   18.60
  -1  -2 -10  118.59   14.60
  -1  -2 -10   71.29   14.30
  -1  -2 -10  103.09   12.70
  -1  -2 -10  114.89   15.40
   1   2  10  119.49   14.90
   1   2  10  112.49   14.20
   1   2  10  103.59   15.40
   1   2  10  115.89   14.70
   1   2  10  119.59   18.40
   1   2  10  100.29   12.60
  -2  -2 -10   -0.30    8.80
  -2  -2 -10    6.40    5.90
  -2  -2 -10   10.80    7.20
  -2  -2 -10    7.40    9.90
  -2  -2 -10    1.70    6.30
   2   2  10    7.00    8.30
   2   2  10   -0.10    8.90
   2   2  10    2.20    5.90
   2   2  10    3.10    4.90
  -3  -2 -10   -8.60    9.60
  -3  -2 -10    3.70    6.40
  -3  -2 -10   -0.80   12.70
  -3  -2 -10    0.80    6.70
  -3  -2 -10   -4.60    5.60
   3   2  10    8.10    6.10
   3   2  10   -4.80    3.80
   5  -3 -10    6.10   11.60
   5  -3 -10  -11.90    5.30
  -5   3  10    6.90    6.60
  -5   3  10    7.70    5.50
  -5   3  10    8.10    3.80
  -5   3  10    4.70    5.70
  -5   3  10   -5.10    5.20
   4  -3 -10   54.39    9.10
   4  -3 -10   32.70    5.90
   4  -3 -10   48.10    9.80
   4  -3 -10   36.40   12.80
  -4   3  10   34.10    9.70
  -4   3  10   25.20    8.30
  -4   3  10   36.40    5.80
  -4   3  10   32.70    7.30
  -4   3  10   35.90    8.40
  -4   3  10   40.70    8.50
   3  -3 -10    6.00    7.10
   3  -3 -10   -0.40    5.80
   3  -3 -10    4.80    4.60
  -3   3  10   -4.20    4.70
  -3   3  10    8.20    6.00
  -3   3  10    1.80    5.00
  -3   3  10    4.10    5.20
  -3   3  10    0.30    4.60
  -3   3  10    6.00    5.20
   2  -3 -10    4.70    4.20
   2  -3 -10   -7.60    5.50
   2  -3 -10   -1.60    6.20
   2  -3 -10    5.40    9.90
   2  -3 -10   -6.10    5.00
   2  -3 -10   -0.70    6.40
  -2   3  10   -3.90    4.60
  -2   3  10   -1.30    7.40
  -2   3  10   -0.30    3.90
  -2   3  10   -1.20    5.40
  -2   3  10   -0.70    4.30
  -2   3  10   -1.10    4.70
   1  -3 -10   -1.10    6.30
   1  -3 -10   -5.90    4.20
   1  -3 -10    3.20    6.00
   1  -3 -10    3.40    5.20
   1  -3 -10    4.20    4.50
   1  -3 -10    5.70    6.70
   1  -3 -10    1.10    6.10
  -1   3  10    5.50    6.40
  -1   3  10   -5.30    4.20
  -1   3  10   -6.50    5.00
  -1   3  10   -3.60    4.10
  -1   3  10   -2.70    5.90
  -1   3  10   -0.70    4.10
   0  -3 -10  -11.90    4.80
   0  -3 -10   -1.50    6.40
   0  -3 -10   -5.50    4.80
   0  -3 -10   -3.50    4.30
   0  -3 -10    0.50    6.20
   0  -3 -10    1.20    6.00
   0   3  10   -0.20    6.40
   0   3  10    0.90    5.00
   0   3  10    1.40    5.90
   0   3  10    8.00    4.90
   0   3  10    4.10    7.10
   0   3  10    4.00    4.90
  -1  -3 -10   11.90    9.60
  -1  -3 -10    6.40    5.90
  -1  -3 -10   -5.30    4.90
  -1  -3 -10    2.90    6.70
  -1  -3 -10    1.10    6.10
  -1  -3 -10    9.40    9.40
  -1  -3 -10   -6.60   10.40
   1   3  10   -4.60    5.50
   1   3  10   12.40   11.50
   1   3  10   15.20    8.50
   1   3  10    0.10    3.90
   1   3  10    4.50    8.30
   1   3  10   -6.30    4.30
  -2  -3 -10   -2.20    6.30
  -2  -3 -10   -3.30   10.10
  -2  -3 -10   -6.40    6.10
  -2  -3 -10   -0.50    7.50
  -2  -3 -10   -5.60    6.10
  -2  -3 -10   -7.70   11.10
   2   3  10    4.80    4.00
   2   3  10  -15.30   10.80
   2   3  10  -16.50   13.30
   2   3  10    0.60    6.10
   2   3  10  -13.50    5.00
  -3  -3 -10  -22.40   12.00
  -3  -3 -10   -8.40    5.90
  -3  -3 -10    4.40   12.50
  -3  -3 -10   11.60    8.40
  -3  -3 -10   -1.40    8.70
   3   3  10   -2.20    4.20
   3   3  10   -6.50    7.20
   3   3  10    3.50    7.50
   4  -4 -10   36.60    8.40
   4  -4 -10   37.90    6.60
   4  -4 -10   28.50   11.20
  -4   4  10   27.70    8.70
  -4   4  10   36.30   10.50
  -4   4  10   45.40    9.80
  -4   4  10   50.19    9.50
  -4   4  10   37.70    8.80
   3  -4 -10   25.20    8.60
   3  -4 -10   11.90    9.10
   3  -4 -10   30.60    6.30
  -3   4  10   11.80    7.40
  -3   4  10   10.40    5.40
  -3   4  10   16.90    7.30
  -3   4  10   31.50    7.80
  -3   4  10   17.40    6.40
   2  -4 -10    0.20    5.90
   2  -4 -10   -1.40    6.70
   2  -4 -10    2.30    5.70
   2  -4 -10   -5.80    4.30
  -2   4  10   -2.30    5.20
  -2   4  10   -1.50    7.20
  -2   4  10   -6.20    7.40
  -2   4  10   -7.80    4.50
  -2   4  10    0.70    5.30
  -2   4  10   -2.40    5.10
   1  -4 -10    9.30    8.00
   1  -4 -10   -1.80    6.10
   1  -4 -10    9.50   10.60
   1  -4 -10   11.00    7.60
  -1   4  10   11.50    6.90
  -1   4  10   18.50    8.10
  -1   4  10    5.00    4.60
  -1   4  10    9.60   10.10
  -1   4  10    6.20    6.20
  -1   4  10   17.90    9.20
   0  -4 -10   13.50    6.00
   0  -4 -10    6.50    6.50
   0  -4 -10   22.70    9.50
   0  -4 -10   40.30    9.90
   0  -4 -10   21.70   10.00
   0  -4 -10   27.50    8.20
   0   4  10   17.00    8.50
   0   4  10   23.80    8.40
   0   4  10   22.70    9.20
   0   4  10   26.50    7.30
   0   4  10   20.90    5.90
  -1  -4 -10   -8.30    5.30
  -1  -4 -10   -3.10    6.30
  -1  -4 -10    0.70    6.80
  -1  -4 -10   10.00   13.20
  -1  -4 -10   -9.40   13.20
  -1  -4 -10    8.70    7.40
  -1  -4 -10    0.40    5.40
   1   4  10    7.20    5.20
   1   4  10   19.80    9.40
   1   4  10   11.60    7.20
   1   4  10   -1.00    6.10
   1   4  10   -2.40   10.80
  -2  -4 -10    0.50    8.30
  -2  -4 -10   -6.80    5.30
  -2  -4 -10   -8.00    7.10
  -2  -4 -10    6.30    7.20
  -2  -4 -10   13.80   18.10
  -2  -4 -10   -4.60    8.80
   2   4  10   -2.60    4.60
   2   4  10    3.10    7.40
   2   4  10   -9.90   11.50
   2   4  10  -17.10    7.30
   3  -5 -10   -0.70    8.20
   3  -5 -10    2.30    8.20
   3  -5 -10   -2.80    5.70
   3  -5 -10   -7.80    7.00
  -3   5  10    3.90    6.90
  -3   5  10   11.50    8.80
  -3   5  10  -10.10    6.80
  -3   5  10    3.90    7.00
  -3   5  10    1.50    8.00
   2  -5 -10    5.90    7.80
   2  -5 -10   -0.90    6.40
   2  -5 -10    6.20    5.50
   2  -5 -10    9.10    7.90
  -2   5  10   -3.00    7.00
  -2   5  10   -8.60    5.80
  -2   5  10  -14.10    7.00
  -2   5  10   14.80    8.20
  -2   5  10   -1.90    8.90
   1  -5 -10    0.50    5.70
   1  -5 -10    3.60    6.90
   1  -5 -10   -2.70    6.70
   1  -5 -10    3.00    7.50
  -1   5  10   -1.90    4.60
  -1   5  10   -3.50    6.00
  -1   5  10    2.70    9.60
  -1   5  10    8.10    7.90
  -1   5  10   -3.10    6.30
   0  -5 -10    4.50   11.80
   0  -5 -10   15.10    8.70
   0  -5 -10   21.00    9.00
   0   5  10   15.30    8.80
   0   5  10   36.90   11.60
   0   5  10   16.40    7.60
   0   5  10   29.50    9.40
  -1  -5 -10   11.10    9.10
  -1  -5 -10   -6.70   15.00
  -1  -5 -10    9.90    8.70
  -1  -5 -10   12.30    8.90
   1   5  10   -5.30    8.80
   1   5  10   16.10    6.70
   1   5  10   11.00   15.70
   1   5  10   -0.90    7.80
   2  -6 -10    4.80    8.00
   2  -6 -10    0.40    9.10
   2  -6 -10    0.40    9.50
   2  -6 -10    1.10    6.60
  -2   6  10    1.50    6.70
  -2   6  10   -3.40    8.00
  -2   6  10    6.30    9.30
  -2   6  10   29.30   11.30
  -2   6  10   20.10   10.80
   1  -6 -10   12.50    9.90
   1  -6 -10   10.60    9.70
   1  -6 -10   -8.60    8.20
  -1   6  10   -7.20   13.20
  -1   6  10    2.10    5.10
  -1   6  10   21.00   11.00
  -1   6  10  -16.60    7.70
  -1   6  10    7.10   11.20
   0  -6 -10   -2.60    9.30
   0  -6 -10    5.00    9.30
   0  -6 -10    5.20    9.60
   0   6  10  -15.00    8.90
   0   6  10  -14.10   13.30
   0   6  10   11.70    6.50
   0   6  10   21.10   15.90
   0   6  10    6.60   12.30
   2  12 -11   -1.20    8.10
   2  12 -11   -2.60    9.60
  -2 -12  11    4.20    5.70
  -2 -12  11    0.30    6.00
  -2 -12  11    1.40    5.20
  -2 -12  11    0.90   10.40
  -2 -12  11   -8.50   10.30
   1  12 -11    3.20    8.30
   1  12 -11    9.10   12.20
  -1 -12  11    4.70    6.50
  -1 -12  11  -20.50   10.30
  -1 -12  11   24.50   11.90
   0  12 -11   21.10    8.80
   0  12 -11    7.70    7.50
   0 -12  11    1.30    6.10
   0 -12  11    0.40    8.90
   0 -12  11   -3.10   11.40
   0 -12  11   -3.20   11.90
   0 -12  11    6.90    4.80
  -1  12 -11   -1.10    8.00
  -1  12 -11   -6.10    6.70
  -1  12 -11    2.20    4.60
   1 -12  11  -19.50   12.90
   1 -12  11    4.30    5.00
   1 -12  11   12.50    7.00
   1 -12  11    7.90   11.60
   1 -12  11   -0.70    6.50
  -2  12 -11    5.30    6.20
  -2  12 -11    7.40    8.60
  -2  12 -11   -7.70    9.00
   2 -12  11    2.20    7.80
   2 -12  11   11.70    5.60
   2 -12  11  -32.40   13.80
   2 -12  11    8.80    8.60
   3  11 -11   18.60    8.40
  -3 -11  11   11.10    5.80
  -3 -11  11    8.60    5.90
  -3 -11  11    6.50    9.00
  -3 -11  11   11.10    5.80
  -3 -11  11   31.10    8.70
   2  11 -11    8.40    7.20
   2  11 -11   10.60    7.00
  -2 -11  11   19.20    8.80
  -2 -11  11   12.10    9.60
   1  11 -11   10.90    7.30
   1  11 -11   15.60    7.10
  -1 -11  11   11.10    9.50
  -1 -11  11   -3.40    4.50
  -1 -11  11    1.80    5.30
  -1 -11  11    2.00    5.70
  -1 -11  11   25.10   12.40
   0  11 -11   -0.80    7.00
   0  11 -11    3.10    6.50
   0 -11  11    3.10    8.70
   0 -11  11   -1.40    5.10
   0 -11  11   -0.80    3.80
   0 -11  11   -5.20    4.60
  -1  11 -11   -4.10   12.90
  -1  11 -11   -7.30    3.80
  -1  11 -11   -5.90   11.20
  -1  11 -11    5.50    6.30
   1 -11  11    4.40    6.50
   1 -11  11    1.30    9.40
   1 -11  11  -16.90   10.50
   1 -11  11   -3.70    4.40
   1 -11  11   -5.60    5.70
  -2  11 -11   40.40   10.90
  -2  11 -11   33.30    6.60
  -2  11 -11   26.20    9.50
  -2  11 -11   27.40    9.10
   2 -11  11   11.00    7.50
   2 -11  11   38.50   28.10
   2 -11  11   37.10   10.00
   2 -11  11   21.40    9.40
   2 -11  11   26.30    6.40
   2 -11  11   46.50   16.60
   4  10 -11    7.70    7.70
  -4 -10  11   22.80    8.10
  -4 -10  11    4.30    5.20
  -4 -10  11    6.90    5.10
   3  10 -11   -2.10    5.80
  -3 -10  11  -13.20    6.60
  -3 -10  11    8.10    7.20
   2  10 -11    2.30    8.10
   2  10 -11   11.10    6.00
   2  10 -11    8.10    9.10
  -2 -10  11   12.30    7.70
  -2 -10  11    4.20    4.70
  -2 -10  11    2.50    4.20
  -2 -10  11    4.50    7.40
  -2 -10  11   -0.90    4.20
   1  10 -11   34.70    8.00
   1  10 -11   36.50    8.10
  -1 -10  11   61.29   10.90
  -1 -10  11   19.30    6.40
  -1 -10  11   23.00    6.80
  -1 -10  11   18.20    5.70
  -1 -10  11   40.80    9.80
   0  10 -11    0.10    6.00
   0  10 -11   -4.70    5.60
   0  10 -11    3.00    7.20
   0  10 -11    0.40    2.00
   0  10 -11   -0.80    5.70
   0 -10  11   16.50    8.10
   0 -10  11    3.50    4.60
   0 -10  11   -4.50    8.40
   0 -10  11    5.50    3.90
   0 -10  11    2.20    4.80
  -1  10 -11   -1.40    7.40
  -1  10 -11   -1.70    5.60
  -1  10 -11    6.90    6.30
  -1  10 -11   -0.20    6.10
  -1  10 -11    3.00    3.80
  -1  10 -11    1.50    8.80
   1 -10  11    5.30    4.60
   1 -10  11    4.10    5.50
   1 -10  11    1.70    5.20
   1 -10  11    7.50    9.80
   1 -10  11   -8.00    7.70
  -2  10 -11   27.60    9.80
  -2  10 -11   27.20    6.30
  -2  10 -11   11.70    7.30
  -2  10 -11   22.10    8.20
  -2  10 -11   47.30    8.40
   2 -10  11   24.70    5.90
   2 -10  11   46.10   11.80
   2 -10  11    6.20   10.50
   2 -10  11   25.70    7.70
   2 -10  11   44.80    9.30
  -3  10 -11  -11.60    8.40
  -3  10 -11   11.50   14.40
  -3  10 -11   18.00    8.20
  -3  10 -11   -0.60    6.70
  -3  10 -11   12.50    5.80
  -3  10 -11   -2.20   14.00
   3 -10  11   10.80    7.00
   3 -10  11   -7.80   17.80
   3 -10  11    2.00    8.30
   3 -10  11   -4.50    4.70
   3 -10  11   -2.90    6.90
   4   9 -11   17.80    7.70
  -4  -9  11   20.40    7.20
  -4  -9  11    2.70    5.60
  -4  -9  11   14.80    6.50
  -4  -9  11   17.40    9.30
   3   9 -11   34.00    8.60
   3   9 -11   53.59   11.10
   3   9 -11   55.09    8.80
  -3  -9  11   35.30    7.40
  -3  -9  11   49.20    8.00
  -3  -9  11   45.20    8.80
   2   9 -11  109.29   13.90
  -2  -9  11  162.68   19.20
  -2  -9  11   89.49   12.20
  -2  -9  11  113.19   14.10
  -2  -9  11   92.69   12.60
  -2  -9  11   99.39   12.00
   1   9 -11   21.30    6.40
   1   9 -11   11.60    5.40
   1   9 -11    7.50    6.00
   1   9 -11    7.80    4.90
   1   9 -11    8.50    5.40
  -1  -9  11   17.00    7.90
  -1  -9  11   -1.00    4.20
  -1  -9  11   10.60    6.70
  -1  -9  11    3.20    3.80
  -1  -9  11   14.10    4.80
   0   9 -11    1.90    6.10
   0   9 -11   -3.80    4.40
   0   9 -11    5.30    5.50
   0   9 -11   -6.00    4.70
   0   9 -11    2.60    5.40
   0   9 -11    0.50    2.10
   0  -9  11    1.10    7.60
   0  -9  11    3.90    6.70
   0  -9  11   -0.60    3.70
   0  -9  11   -2.20    4.70
   0  -9  11    4.90    4.70
  -1   9 -11   19.00    6.80
  -1   9 -11   38.80    7.10
  -1   9 -11   26.10    7.40
  -1   9 -11   26.00    5.10
  -1   9 -11   40.00    9.70
   1  -9  11    8.50    5.40
   1  -9  11   26.90    9.90
   1  -9  11   30.50    9.00
   1  -9  11   31.00    6.10
   1  -9  11   16.70    6.40
  -2   9 -11  191.38   21.20
  -2   9 -11  223.48   22.50
  -2   9 -11  238.08   19.00
  -2   9 -11  179.78   20.70
  -2   9 -11  192.48   18.20
   2  -9  11  182.88   18.00
   2  -9  11  144.09   19.90
   2  -9  11  161.08   29.00
   2  -9  11  171.28   20.20
  -3   9 -11   14.00    9.20
  -3   9 -11    9.30    5.60
  -3   9 -11    3.30    6.50
  -3   9 -11    3.30    6.20
  -3   9 -11   -1.30    9.00
  -3   9 -11    7.00    6.70
   3  -9  11    7.00    7.20
   3  -9  11    3.80   10.60
   3  -9  11    5.80    7.20
   3  -9  11    6.50    5.30
   4   8 -11   21.10   12.00
   4   8 -11   43.90   10.10
   4   8 -11   37.00    7.20
  -4  -8  11   18.90    5.30
  -4  -8  11   26.90    6.10
  -4  -8  11   23.70    7.30
  -4  -8  11   31.20    6.60
   3   8 -11   10.80   14.10
   3   8 -11    9.50    4.80
   3   8 -11   -1.00    4.90
   3   8 -11    8.40    4.50
  -3  -8  11   -2.10    3.80
  -3  -8  11   13.30    6.10
  -3  -8  11   11.30    4.40
  -3  -8  11    7.80    4.40
  -3  -8  11   10.70    6.20
   2   8 -11   15.30    5.60
   2   8 -11   28.90   10.20
   2   8 -11   25.00    6.20
   2   8 -11   28.10    6.90
  -2  -8  11   14.50    4.80
  -2  -8  11   15.00    5.00
  -2  -8  11   28.70    7.20
  -2  -8  11   25.30    7.60
  -2  -8  11   15.60    5.60
   1   8 -11    4.60    4.30
   1   8 -11    0.00    4.30
   1   8 -11   -2.40    5.20
   1   8 -11    6.10    4.70
  -1  -8  11    3.60    3.80
  -1  -8  11   -0.70    3.70
  -1  -8  11    4.10    4.00
  -1  -8  11    6.40    5.80
  -1  -8  11    7.20    5.50
   0   8 -11    7.50    2.60
   0   8 -11    2.10    4.70
   0   8 -11   -3.30    4.80
   0   8 -11    1.40    4.40
   0   8 -11    9.50    6.50
   0   8 -11    2.30    4.20
   0  -8  11   -9.80    5.80
   0  -8  11   -0.50    4.10
   0  -8  11    3.00    3.60
   0  -8  11    1.20    4.00
  -1   8 -11  266.17   24.20
  -1   8 -11  337.27   26.30
  -1   8 -11  274.17   27.10
  -1   8 -11  275.17   26.90
   1  -8  11  291.67   25.00
   1  -8  11  369.66   29.20
   1  -8  11  263.47   26.70
   1  -8  11  241.78   26.80
  -2   8 -11   80.19   10.80
  -2   8 -11   56.49   11.20
  -2   8 -11   79.29   10.70
  -2   8 -11  115.79   15.10
   2  -8  11  124.59   16.00
   2  -8  11   77.79   10.80
   2  -8  11  113.59   16.20
   2  -8  11   84.59   13.50
  -3   8 -11   -4.60    5.40
  -3   8 -11   -1.80    4.70
  -3   8 -11   -4.20    7.90
  -3   8 -11   -3.30    5.80
  -3   8 -11    9.70    6.30
   3  -8  11    6.50    5.00
   3  -8  11    8.70   10.50
   3  -8  11    2.70    5.90
   3  -8  11    0.90   13.90
   3  -8  11    1.90    6.40
  -4   8 -11  -16.90   15.20
  -4   8 -11   -2.80    6.80
  -4   8 -11   -1.30    7.00
  -4   8 -11    2.40    9.50
  -4   8 -11    5.20    7.10
   4  -8  11    3.60    5.20
   4  -8  11   -7.40    6.80
   4  -8  11    8.60    7.70
   4  -8  11    0.50    4.50
   4  -8  11    0.30    7.40
   5   7 -11    2.20   12.10
  -5  -7  11    6.80    5.80
  -5  -7  11    1.20    3.60
  -5  -7  11   -7.80    5.30
   4   7 -11    7.90    4.60
   4   7 -11   -3.50    9.80
   4   7 -11   14.70    4.80
  -4  -7  11   12.60    4.80
  -4  -7  11    5.40    5.20
  -4  -7  11   12.60    4.20
  -4  -7  11    4.70    4.00
   3   7 -11   -0.50    4.10
   3   7 -11    0.60    3.80
   3   7 -11    0.90    4.00
   3   7 -11    1.90    4.30
   3   7 -11    3.00    8.20
  -3  -7  11   -1.70    3.00
  -3  -7  11   -1.50    3.70
  -3  -7  11    5.10    5.00
  -3  -7  11    2.40    3.80
  -3  -7  11    2.50    4.70
   2   7 -11   -9.70    6.70
   2   7 -11   -7.00    4.10
   2   7 -11   -3.40    3.80
   2   7 -11   -3.20    4.00
   2   7 -11    5.30    4.20
  -2  -7  11    7.30    3.50
  -2  -7  11   -6.60    4.40
  -2  -7  11   -2.90    5.00
  -2  -7  11   -0.70    3.10
  -2  -7  11    3.80    3.60
   1   7 -11   14.40    5.30
   1   7 -11    7.70    5.40
  -1  -7  11   10.40    3.70
  -1  -7  11    9.60    4.10
  -1  -7  11   18.30    5.90
  -1  -7  11   10.90    5.40
  -1  -7  11   11.60    6.40
   0   7 -11  126.29   14.30
   0   7 -11  105.79   14.80
   0   7 -11  110.39   14.20
   0  -7  11  117.79   13.80
   0  -7  11  149.99   15.70
   0  -7  11  112.19   12.50
   0  -7  11  104.19   13.60
   0  -7  11  132.59   15.60
  -1   7 -11  437.26   32.70
  -1   7 -11  329.67   31.70
  -1   7 -11  343.57   29.40
  -1   7 -11  350.56   32.00
   1  -7  11  382.96   32.10
   1  -7  11  339.27   29.90
   1  -7  11  358.36   38.30
   1  -7  11  294.97   30.90
  -2   7 -11  174.18   17.70
  -2   7 -11  154.28   27.80
  -2   7 -11  249.78   22.00
  -2   7 -11  194.18   18.00
  -2   7 -11  192.18   20.30
   2  -7  11  161.08   19.50
   2  -7  11  185.28   17.90
   2  -7  11  162.58   19.50
   2  -7  11  223.78   21.10
  -3   7 -11   10.30    6.10
  -3   7 -11    1.00    4.90
  -3   7 -11   18.40    8.80
  -3   7 -11    1.30    5.60
  -3   7 -11    3.50    6.20
  -3   7 -11   11.50    7.30
   3  -7  11    4.70    5.40
   3  -7  11    5.50    4.10
   3  -7  11    5.20    7.90
   3  -7  11    5.10    4.10
   3  -7  11    8.60    7.60
  -4   7 -11   17.40   10.90
  -4   7 -11   -1.90    8.10
  -4   7 -11   -1.20    6.70
  -4   7 -11   -0.50    6.80
  -4   7 -11    2.20    6.40
   4  -7  11   -3.60    6.90
   4  -7  11   -6.00    5.00
   4  -7  11   -5.50    3.80
   5   6 -11    5.00   10.90
  -5  -6  11    7.40    5.10
  -5  -6  11   18.70    5.30
  -5  -6  11    5.80    3.70
  -5  -6  11    5.50    5.70
  -5  -6  11   11.80    4.20
  -5  -6  11    3.20    4.70
   4   6 -11   25.00   10.90
   4   6 -11   16.50    4.20
   4   6 -11   13.80    4.50
  -4  -6  11   17.30    5.60
  -4  -6  11   15.10    4.80
  -4  -6  11   21.60    4.90
  -4  -6  11    6.10    4.90
   3   6 -11   68.09   11.50
   3   6 -11   87.49   14.50
   3   6 -11   76.59    9.20
   3   6 -11   75.29    9.30
   3   6 -11   62.79    9.20
  -3  -6  11   61.49    8.80
  -3  -6  11   50.39    8.90
  -3  -6  11   76.09   10.40
  -3  -6  11   92.79   10.30
  -3  -6  11   57.29    8.80
   2   6 -11    0.70    5.80
   2   6 -11    2.50    4.40
   2   6 -11   10.60    7.80
   2   6 -11    4.90    7.10
  -2  -6  11    6.60    3.80
  -2  -6  11    8.30    3.70
  -2  -6  11    7.50    3.70
  -2  -6  11   -1.70    5.70
  -2  -6  11    7.60    4.70
   1   6 -11   -4.70    4.30
   1   6 -11   -1.70    3.40
   1   6 -11    0.80    3.90
   1   6 -11    3.90    4.30
   1   6 -11    2.40    3.60
  -1  -6  11   -0.80    3.30
  -1  -6  11   -1.30    3.30
  -1  -6  11    1.80    3.60
   0   6 -11  121.39   11.40
   0   6 -11  117.69   14.20
   0   6 -11  131.89   14.20
   0   6 -11  121.39   12.40
   0   6 -11  149.69   14.60
   0  -6  11  113.29   12.40
   0  -6  11   94.69   13.10
   0  -6  11   96.39   15.00
  -1   6 -11  321.17   30.90
  -1   6 -11  321.27   31.10
  -1   6 -11  349.87   29.00
  -1   6 -11  356.76   29.80
  -1   6 -11  403.26   31.50
  -1   6 -11  390.56   31.40
   1  -6  11  331.77   29.30
   1  -6  11  301.67   30.30
   1  -6  11  314.17   30.80
  -2   6 -11   42.20    9.80
  -2   6 -11   54.59    8.70
  -2   6 -11   33.50    8.50
  -2   6 -11   40.90    9.00
  -2   6 -11   36.20    8.10
  -2   6 -11   46.80    7.90
   2  -6  11   41.20   12.50
   2  -6  11   34.80    6.80
   2  -6  11   35.20    8.70
   2  -6  11   41.70    7.90
  -3   6 -11   -3.40    6.60
  -3   6 -11    3.00    5.50
  -3   6 -11    4.10    7.20
  -3   6 -11    3.50    5.80
  -3   6 -11   -5.50    4.50
  -3   6 -11    9.00    6.30
   3  -6  11  -10.00    5.00
   3  -6  11    3.20    3.80
   3  -6  11   -3.20    3.80
   3  -6  11    6.90    7.70
  -4   6 -11   29.00   11.70
  -4   6 -11   15.80    7.80
  -4   6 -11   21.80    7.80
  -4   6 -11   16.60    8.80
  -4   6 -11   11.70    7.30
   4  -6  11   16.00    4.70
   4  -6  11   26.70    8.60
   4  -6  11   17.40    7.80
   5   5 -11   19.70   11.20
  -5  -5  11    0.60    4.40
  -5  -5  11    0.90    4.30
  -5  -5  11   -1.20    4.60
  -5  -5  11   10.40    6.10
  -5  -5  11    4.90    3.30
  -5  -5  11   11.90    3.90
   4   5 -11   -0.30    3.90
   4   5 -11   -4.30    4.70
   4   5 -11   -2.00    3.30
   4   5 -11    2.00    8.80
   4   5 -11   -0.30    3.30
  -4  -5  11   -1.30    3.90
  -4  -5  11   -0.10    3.00
  -4  -5  11   -2.80    4.60
  -4  -5  11    1.40    3.20
  -4  -5  11    3.80    3.90
   3   5 -11   24.20    9.20
   3   5 -11   17.60   10.00
   3   5 -11   25.90    5.50
   3   5 -11   21.50    5.10
   3   5 -11   20.60    7.20
  -3  -5  11   17.90    5.00
  -3  -5  11   16.70    5.00
  -3  -5  11   22.00    5.30
  -3  -5  11   17.10    5.40
  -3  -5  11   12.90    4.50
   2   5 -11    9.40    4.70
   2   5 -11    4.60    4.10
   2   5 -11    3.00    4.30
   2   5 -11    3.50    4.60
   2   5 -11    7.90    6.20
  -2  -5  11    8.50    5.20
  -2  -5  11   11.50    4.20
  -2  -5  11    2.60    3.40
  -2  -5  11    8.80    4.10
   1   5 -11    2.40    4.80
   1   5 -11    5.80    4.60
   1   5 -11    5.00    4.00
   1   5 -11    3.50    3.60
   1   5 -11    4.20    4.00
  -1  -5  11   12.30    4.40
  -1  -5  11    7.30    4.00
  -1  -5  11   13.00    4.30
  -1  -5  11    5.00    2.30
  -1  -5  11    3.80    4.40
  -1  -5  11    5.40    4.30
   0   5 -11    7.80    4.10
   0   5 -11   11.40    5.50
   0   5 -11    6.60    5.00
   0   5 -11   10.00    4.60
   0   5 -11    7.80    3.40
   0  -5  11   14.00    5.80
   0  -5  11    9.00    3.50
   0  -5  11   11.00    4.50
   0  -5  11    6.90    4.70
   0  -5  11   13.80    3.60
  -1   5 -11   50.19   10.30
  -1   5 -11   53.39    8.60
  -1   5 -11   48.30    8.30
  -1   5 -11   67.19   11.30
  -1   5 -11   60.49   10.50
   1  -5  11   65.89   17.70
   1  -5  11   69.49    8.90
   1  -5  11   53.89    9.80
   1  -5  11   65.49    8.50
   1  -5  11   63.89   13.50
  -2   5 -11   30.80    8.40
  -2   5 -11   45.90    9.60
  -2   5 -11   54.49    8.60
  -2   5 -11   42.10    8.70
  -2   5 -11   51.09   10.00
  -2   5 -11   41.70    8.20
   2  -5  11   45.50   12.70
   2  -5  11   44.70    7.70
   2  -5  11   45.90    7.80
   2  -5  11   29.60    7.80
   2  -5  11   37.60    7.90
   2  -5  11   45.80   10.30
  -3   5 -11    6.50    5.30
  -3   5 -11    6.60    7.10
  -3   5 -11   -1.20    4.70
  -3   5 -11   12.70    6.30
  -3   5 -11   -1.60    5.00
  -3   5 -11    7.10    7.20
   3  -5  11    3.20    3.60
   3  -5  11    6.60    6.00
   3  -5  11    1.20    4.00
   3  -5  11   -4.90    5.20
  -4   5 -11   87.99   14.20
  -4   5 -11  129.79   17.50
  -4   5 -11  114.49   15.20
  -4   5 -11   95.89   15.50
  -4   5 -11   74.69   12.70
   4  -5  11   80.89    9.50
   4  -5  11  127.89   15.90
   4  -5  11   60.29   12.00
   5   4 -11   27.30   11.10
  -5  -4  11   14.30    3.70
  -5  -4  11   12.40    5.10
  -5  -4  11   17.70    4.70
  -5  -4  11   10.50    5.10
  -5  -4  11    6.50    6.00
  -5  -4  11   15.00    4.90
  -5  -4  11   11.60    3.80
   4   4 -11   27.30    4.90
   4   4 -11   27.20    4.60
   4   4 -11   26.30    5.00
   4   4 -11   38.40   11.10
   4   4 -11   18.40    6.00
  -4  -4  11   19.60    5.10
  -4  -4  11   18.60    4.90
  -4  -4  11   18.40    7.50
  -4  -4  11   17.30    4.60
   3   4 -11   15.10    4.50
   3   4 -11   12.40    8.20
   3   4 -11   18.50    5.30
   3   4 -11   15.00    7.00
   3   4 -11   13.70    4.90
  -3  -4  11   15.70    4.50
  -3  -4  11   18.30    3.30
  -3  -4  11   19.30    7.10
  -3  -4  11   14.60    4.80
  -3  -4  11   19.70    4.80
   2   4 -11   78.29    9.60
   2   4 -11   84.79   16.00
   2   4 -11   78.19   10.40
   2   4 -11   77.39   10.80
   2   4 -11   70.59   10.20
  -2  -4  11   81.19   10.80
  -2  -4  11   90.89   10.60
  -2  -4  11   76.59    7.90
  -2  -4  11   76.09   10.00
  -2  -4  11   78.99    9.30
   1   4 -11   39.70    6.70
   1   4 -11   37.90    7.20
   1   4 -11   31.90    6.90
   1   4 -11   34.80    6.70
   1   4 -11   29.40    7.00
  -1  -4  11   25.00    6.50
  -1  -4  11   28.00    7.10
  -1  -4  11   25.30    6.40
  -1  -4  11   33.10    7.10
  -1  -4  11   44.10    6.90
  -1  -4  11   37.70    5.50
  -1  -4  11   37.40    7.10
   0   4 -11   93.99   12.10
   0   4 -11   75.69    9.80
   0   4 -11   93.29   11.80
   0   4 -11   80.39   10.00
   0   4 -11  104.29   12.30
   0  -4  11   84.99   17.10
   0  -4  11   80.89   10.50
   0  -4  11   89.69    9.90
   0  -4  11   76.99   10.10
   0  -4  11   92.89   13.60
   0  -4  11   81.59   11.70
   0  -4  11  100.29   12.30
  -1   4 -11   13.40    5.40
  -1   4 -11   25.00    7.60
  -1   4 -11   18.10    6.00
  -1   4 -11   18.70    6.50
  -1   4 -11   18.00    5.30
  -1   4 -11   21.40    5.60
   1  -4  11   21.60    5.60
   1  -4  11   24.40   11.70
   1  -4  11   13.90    5.40
   1  -4  11   26.00    5.50
   1  -4  11   22.70    7.40
   1  -4  11    8.90    4.70
  -2   4 -11    4.20    5.90
  -2   4 -11    3.30    5.80
  -2   4 -11    2.50    4.70
  -2   4 -11   -2.50    5.30
  -2   4 -11   -0.80    4.30
  -2   4 -11   -4.60    3.90
   2  -4  11   -2.80    3.00
   2  -4  11   -5.00    3.40
   2  -4  11   -0.60    4.00
   2  -4  11    1.60    5.90
   2  -4  11    0.80    6.60
   2  -4  11   -9.90    5.50
   2  -4  11  -10.10    4.40
  -3   4 -11    4.80    5.40
  -3   4 -11   10.40    8.30
  -3   4 -11   13.80    6.80
  -3   4 -11   17.00    6.30
  -3   4 -11   12.40    6.00
  -3   4 -11   13.80    7.40
   3  -4  11    9.30    5.80
   3  -4  11    7.90    4.50
   3  -4  11    9.30    4.60
   3  -4  11    9.00    6.00
   3  -4  11   26.50   14.40
   3  -4  11   23.60    9.10
   3  -4  11   14.70    6.60
  -4   4 -11   37.70    9.80
  -4   4 -11   36.90    9.00
  -4   4 -11   36.10    9.40
  -4   4 -11   47.80   12.10
  -4   4 -11   86.79   13.70
   4  -4  11   48.10   10.30
   4  -4  11   25.60    8.40
   4  -4  11   54.09    7.40
   5   3 -11   24.30   23.30
  -5  -3  11   17.40    4.60
  -5  -3  11   24.10    6.00
  -5  -3  11   16.70    6.20
  -5  -3  11   22.20    4.90
  -5  -3  11   19.70    5.30
   4   3 -11   40.00    8.10
   4   3 -11   45.10    9.80
   4   3 -11   34.80    6.50
   4   3 -11   42.20    6.20
   4   3 -11   55.29   14.00
   4   3 -11   31.50    5.40
  -4  -3  11   36.10    5.80
  -4  -3  11   35.50    6.20
  -4  -3  11   16.90    6.40
  -4  -3  11   35.90    6.40
  -4  -3  11   42.80    6.50
   3   3 -11   -6.30    3.60
   3   3 -11    0.70    3.60
   3   3 -11    1.30    3.80
   3   3 -11    2.20    3.80
   3   3 -11   10.10    8.10
  -3  -3  11   -0.20    2.90
  -3  -3  11    2.20    3.10
  -3  -3  11    2.40    3.40
  -3  -3  11   -3.00    3.40
  -3  -3  11    3.30    3.00
  -3  -3  11   -2.60    3.10
  -3  -3  11    2.80    3.30
   2   3 -11   13.90    5.10
   2   3 -11   11.90    4.80
   2   3 -11   15.80    5.50
   2   3 -11   11.30    6.30
   2   3 -11   13.60    4.50
  -2  -3  11   10.80    4.60
  -2  -3  11   21.40    6.10
  -2  -3  11   18.60    5.90
  -2  -3  11   25.00    5.30
  -2  -3  11    7.20    4.00
  -2  -3  11   19.20    4.00
  -2  -3  11   23.00    5.50
   1   3 -11  104.09   15.50
   1   3 -11  149.09   14.40
   1   3 -11  118.19   13.80
   1   3 -11  129.19   12.90
   1   3 -11  139.69   14.10
   1   3 -11  125.89   14.00
  -1  -3  11  117.19   12.80
  -1  -3  11  111.79   13.60
  -1  -3  11  115.39   12.10
  -1  -3  11  110.69   13.30
  -1  -3  11  126.59   14.50
  -1  -3  11   96.79   13.40
  -1  -3  11  125.99   13.60
   0   3 -11  159.38   17.50
   0   3 -11  153.58   15.80
   0   3 -11  166.98   17.50
   0   3 -11  170.68   17.80
   0   3 -11  181.88   16.30
   0   3 -11  159.08   18.40
   0  -3  11  162.98   16.00
   0  -3  11  138.49   16.40
   0  -3  11  181.08   18.00
   0  -3  11  207.08   19.20
   0  -3  11  143.19   17.30
   0  -3  11  161.28   15.70
   0  -3  11  206.88   22.80
  -1   3 -11   -3.80    3.00
  -1   3 -11   -2.50    4.20
  -1   3 -11   -0.70    5.10
  -1   3 -11   -1.20    3.70
  -1   3 -11   -6.80    4.80
   1  -3  11   -1.30    3.60
   1  -3  11    2.10    3.50
   1  -3  11    5.70    6.20
   1  -3  11    1.60    3.40
   1  -3  11   -4.50    3.60
  -2   3 -11    3.20    4.60
  -2   3 -11   -1.30    3.90
  -2   3 -11   -1.30    6.60
  -2   3 -11   10.40    6.30
  -2   3 -11    3.60    5.00
  -2   3 -11    4.10    5.70
   2  -3  11   -0.30    3.30
   2  -3  11   -0.70    5.10
   2  -3  11    0.40    4.50
   2  -3  11    3.30    4.80
   2  -3  11    2.90    3.70
   2  -3  11    3.20    6.70
  -3   3 -11   57.39   11.10
  -3   3 -11   58.29   11.40
  -3   3 -11   61.09    9.60
  -3   3 -11   64.39   12.30
  -3   3 -11   55.39   11.70
   3  -3  11   72.79   11.80
   3  -3  11   33.50    9.40
   3  -3  11   56.49    8.70
   3  -3  11   70.99   12.70
   3  -3  11   33.40    8.40
  -4   3 -11  -13.10    9.00
  -4   3 -11  -17.50    7.70
  -4   3 -11   -2.40    6.10
  -4   3 -11   -1.70    6.00
  -4   3 -11    1.60    6.50
   4  -3  11    3.40    6.70
   4  -3  11   -1.30    6.30
   5   2 -11   10.30    9.50
  -5  -2  11   -4.70    3.70
  -5  -2  11    2.40    3.70
  -5  -2  11   -2.70    5.10
  -5  -2  11    1.30    3.70
  -5  -2  11    6.60    5.60
   4   2 -11  127.49   12.40
   4   2 -11   98.49   12.20
   4   2 -11  151.68   13.60
   4   2 -11  132.89   12.40
  -4  -2  11   93.79   14.60
  -4  -2  11  125.29   13.50
  -4  -2  11  130.59   13.00
  -4  -2  11  131.79   13.40
  -4  -2  11  125.19   13.00
  -4  -2  11  118.19   12.90
   3   2 -11   24.30    5.30
   3   2 -11   17.40    4.50
   3   2 -11   17.30    5.00
   3   2 -11   21.60   10.00
   3   2 -11   16.30    4.90
  -3  -2  11   17.70    4.70
  -3  -2  11   16.20    4.80
  -3  -2  11   15.00    4.10
  -3  -2  11   21.90    5.10
  -3  -2  11   20.80    4.70
  -3  -2  11   10.30    5.50
  -3  -2  11   18.20    5.30
   2   2 -11  -11.00    5.30
   2   2 -11    3.40    3.80
   2   2 -11    3.50    4.40
  -2  -2  11   -1.80    3.80
  -2  -2  11    0.00    3.20
  -2  -2  11   11.70    4.40
  -2  -2  11   -6.70    3.00
  -2  -2  11    4.20    4.20
  -2  -2  11   11.90    4.20
  -2  -2  11    1.90    3.40
   1   2 -11    4.00    4.20
   1   2 -11   -3.60    4.40
   1   2 -11    4.50    3.60
   1   2 -11    6.80    6.70
   1   2 -11    1.00    5.00
   1   2 -11   -2.50    4.00
  -1  -2  11    3.80    4.60
  -1  -2  11    7.40    4.20
  -1  -2  11   -0.20    3.20
  -1  -2  11    3.70    3.60
  -1  -2  11    8.20    3.70
  -1  -2  11    0.80    3.70
  -1  -2  11    1.30    3.50
   0   2 -11  161.78   17.20
   0   2 -11  153.18   16.90
   0   2 -11  154.28   17.20
   0   2 -11  142.89   15.30
   0   2 -11  151.58   17.10
   0   2 -11  181.28   16.10
   0  -2  11  143.79   15.60
   0  -2  11  154.88   16.90
   0  -2  11  167.88   17.50
   0  -2  11  177.18   19.10
   0  -2  11  114.79   18.50
   0  -2  11  176.18   15.80
  -1   2 -11   12.10    6.00
  -1   2 -11    4.90    5.50
  -1   2 -11    2.20    5.60
  -1   2 -11    9.50    5.20
  -1   2 -11   17.60    5.00
  -1   2 -11   12.60    5.30
   1  -2  11   14.10    6.90
   1  -2  11   10.40    5.00
   1  -2  11   11.10    4.40
   1  -2  11    3.40    3.40
   1  -2  11   15.20    6.10
   1  -2  11   10.50    5.60
   1  -2  11    7.90    4.50
  -2   2 -11   -6.50    6.30
  -2   2 -11    1.90    4.40
  -2   2 -11    8.40    6.40
  -2   2 -11   -4.10    4.10
  -2   2 -11    6.30    4.90
   2  -2  11    0.10    3.20
   2  -2  11    9.40    5.30
   2  -2  11    7.30    5.20
   2  -2  11    6.10    6.90
   2  -2  11   -0.70    3.40
   2  -2  11   -8.20    5.80
  -3   2 -11   14.20    8.20
  -3   2 -11   10.50    8.00
  -3   2 -11   10.00    5.30
  -3   2 -11    7.90    5.90
  -3   2 -11    8.90    6.70
   3  -2  11    2.40    9.40
   3  -2  11    1.00    3.40
   3  -2  11   -5.90    6.20
   3  -2  11    5.70    9.10
   3  -2  11    4.60    7.50
   3  -2  11   -2.20    5.50
  -4   2 -11   17.60   10.40
  -4   2 -11    2.90    9.50
  -4   2 -11   11.70    7.10
  -4   2 -11    8.00    6.70
  -4   2 -11   35.40   12.30
   4  -2  11   10.50    8.40
   4  -2  11   11.40    4.30
   4  -2  11   -3.30    6.60
   5   1 -11    1.70    8.80
  -5  -1  11    2.00    3.90
  -5  -1  11    4.70    5.20
  -5  -1  11    1.80    3.90
  -5  -1  11   -1.40    4.00
  -5  -1  11    4.90    5.60
  -5  -1  11    0.30    3.80
   4   1 -11   25.20    5.60
   4   1 -11   25.20    6.60
   4   1 -11   21.10    5.60
   4   1 -11   30.70    5.60
   4   1 -11   24.00    9.50
   4   1 -11   22.60    5.70
  -4  -1  11   28.20    5.90
  -4  -1  11   21.20    6.20
  -4  -1  11   20.60    5.70
  -4  -1  11   33.00    5.90
  -4  -1  11   28.80    6.00
  -4  -1  11   36.50    6.20
  -4  -1  11   16.40    7.70
   3   1 -11   18.50    5.80
   3   1 -11   22.80    6.00
   3   1 -11   24.90    6.40
   3   1 -11    5.10    6.50
   3   1 -11   22.90    5.60
  -3  -1  11   28.10    5.50
  -3  -1  11   20.90    6.20
  -3  -1  11   26.40    7.10
  -3  -1  11   23.40    6.20
  -3  -1  11   24.70    6.10
  -3  -1  11   31.70    6.60
  -3  -1  11   13.80    5.60
   2   1 -11   -3.30    3.60
   2   1 -11   -3.50    5.10
   2   1 -11   -1.90    5.90
   2   1 -11   -2.80    5.10
   2   1 -11   -2.80    4.00
   2   1 -11    2.40    6.80
  -2  -1  11   -5.00    3.00
  -2  -1  11    2.50    4.30
  -2  -1  11   -2.20    4.00
  -2  -1  11    0.20    3.00
  -2  -1  11   -1.00    3.10
  -2  -1  11   -1.30    3.60
  -2  -1  11   -3.00    3.40
   1   1 -11   -0.70    6.10
   1   1 -11    9.60    5.10
   1   1 -11    4.60    4.00
   1   1 -11    4.90    3.90
   1   1 -11    8.50    5.60
  -1  -1  11   -0.20    3.20
  -1  -1  11    3.90    3.30
  -1  -1  11    5.60    4.70
  -1  -1  11   -1.70    3.40
  -1  -1  11   -0.60    3.30
  -1  -1  11   10.90    5.40
  -1  -1  11   -3.20    3.70
   0   1 -11   27.30    6.40
   0   1 -11   19.20    5.60
   0   1 -11   42.30    8.80
   0   1 -11   34.00    7.50
   0   1 -11   24.80    7.90
   0   1 -11   45.50    8.70
   0  -1  11   43.10   14.70
   0  -1  11   47.00    9.10
   0  -1  11   28.70    8.10
   0  -1  11   37.80    7.20
   0  -1  11   25.30    6.10
   0  -1  11   33.40   10.90
   0  -1  11   23.80    7.40
  -1   1 -11    7.20    4.60
  -1   1 -11    6.30    5.60
  -1   1 -11    4.80    4.20
  -1   1 -11   18.50    7.40
  -1   1 -11    8.70    6.30
  -1   1 -11    7.80    4.60
   1  -1  11    3.30    4.70
   1  -1  11   -6.60    3.90
   1  -1  11   -1.40    3.30
   1  -1  11    0.40    3.40
   1  -1  11   -3.90    4.70
   1  -1  11    1.20    6.10
   1  -1  11   -5.00    5.20
  -2   1 -11   19.10    7.90
  -2   1 -11    2.10    5.90
  -2   1 -11    0.80    4.20
  -2   1 -11    0.90    8.10
  -2   1 -11    5.30    7.50
  -2   1 -11   -3.10    5.10
   2  -1  11   -0.30    2.90
   2  -1  11   -2.10    4.80
   2  -1  11   -4.20    4.50
   2  -1  11    4.10    5.30
   2  -1  11   10.70    7.20
   2  -1  11    3.40    7.00
  -3   1 -11    2.50    9.60
  -3   1 -11    1.10    6.50
  -3   1 -11   -2.80    5.10
  -3   1 -11    3.50    6.20
  -3   1 -11   -5.10    8.10
   3  -1  11   -7.50    8.70
   3  -1  11    0.60    6.40
   3  -1  11    3.20    3.70
  -4   1 -11   26.60   10.90
  -4   1 -11    8.10    7.70
  -4   1 -11    9.90    7.70
   4  -1  11    6.60    4.70
   4  -1  11    9.50    7.20
   5   0 -11   -3.30    4.30
   5   0 -11   -1.00    8.30
  -5   0  11   13.80    7.20
  -5   0  11    3.00    4.60
  -5   0  11    0.40    4.30
  -5   0  11    8.40    4.20
  -5   0  11   -0.80    4.00
  -5   0  11    4.40    7.20
   4   0 -11   13.40    5.50
   4   0 -11   26.90    5.90
   4   0 -11   28.60    6.20
   4   0 -11   25.20    5.70
   4   0 -11   11.50   12.30
  -4   0  11   20.20    7.00
  -4   0  11   18.50    5.60
  -4   0  11    5.10    4.80
  -4   0  11   15.10    5.60
  -4   0  11   15.90    5.70
  -4   0  11   23.80    5.50
  -4   0  11   19.10    5.30
   3   0 -11    0.10    4.80
   3   0 -11    0.90    4.60
   3   0 -11   -3.80    4.10
   3   0 -11    1.60    7.10
  -3   0  11    5.80    4.90
  -3   0  11   -1.20    3.80
  -3   0  11   -2.10    3.10
  -3   0  11   -5.30    3.90
  -3   0  11    2.90    3.90
  -3   0  11   -1.20    3.70
  -3   0  11   -5.60    3.70
   2   0 -11   15.90    5.20
   2   0 -11    9.60    5.10
   2   0 -11   11.20    5.40
   2   0 -11   14.70    5.90
   2   0 -11    4.40    7.00
   2   0 -11    1.40    5.40
  -2   0  11   18.20    6.00
  -2   0  11    9.10    3.80
  -2   0  11    2.00    3.90
  -2   0  11    6.80    5.10
  -2   0  11    8.00    5.00
  -2   0  11    6.70    5.10
  -2   0  11    8.10    4.50
   1   0 -11   -0.20    5.20
   1   0 -11    3.00    4.20
   1   0 -11    1.20    5.50
   1   0 -11   -0.40    3.40
   1   0 -11    0.40    4.90
  -1   0  11    6.10    5.20
  -1   0  11    4.70    5.00
  -1   0  11   -0.30    4.00
  -1   0  11    5.00    4.30
  -1   0  11    2.90    3.60
  -1   0  11   -1.60    3.50
  -1   0  11    3.00    4.00
   0   0 -11   27.20    6.40
   0   0 -11   21.50    7.30
   0   0 -11   21.60    7.10
   0   0 -11   18.70    7.40
   0   0 -11   27.60    7.20
   0   0  11   11.00    6.40
   0   0  11   22.90    7.10
   0   0  11   27.00    7.80
   0   0  11   13.60    4.40
   0   0  11   23.30    7.40
   0   0  11   14.10    4.10
   0   0  11   23.00    7.20
  -1   0 -11   -5.60    4.10
  -1   0 -11    3.20    4.90
  -1   0 -11   -4.90    3.90
  -1   0 -11    4.50    5.50
  -1   0 -11    0.80    6.50
   1   0  11    1.00    3.40
   1   0  11  -13.40    4.90
   1   0  11   -4.90    5.90
   1   0  11    1.70    4.90
   1   0  11   -8.40    6.30
   1   0  11   -5.70    3.00
  -2   0 -11   11.80    9.00
  -2   0 -11   34.60    8.60
  -2   0 -11   23.00    9.40
  -2   0 -11   17.10    6.20
   2   0  11   26.20   10.40
   2   0  11   15.10    6.60
   2   0  11   19.50   14.60
   2   0  11   16.20    5.30
   2   0  11   18.00    6.90
   2   0  11   14.00    7.40
  -3   0 -11   -3.10    5.80
  -3   0 -11   30.20   11.30
  -3   0 -11    5.60    7.80
  -3   0 -11    3.10    6.20
   3   0  11   11.00    7.70
   3   0  11    9.60    4.70
   3   0  11   18.80   12.50
   3   0  11    5.40    6.70
   5  -1 -11   18.90   10.70
   5  -1 -11   22.60    5.70
  -5   1  11   27.50    7.00
  -5   1  11   34.30    8.30
  -5   1  11   24.30    8.00
  -5   1  11   11.80    6.40
  -5   1  11   34.70    6.90
  -5   1  11   33.50    8.00
   4  -1 -11    2.80    5.60
   4  -1 -11    1.10    7.80
   4  -1 -11   -2.90    4.80
   4  -1 -11   -4.70    5.20
  -4   1  11   -1.70    4.70
  -4   1  11    6.00    5.00
  -4   1  11   -1.40    5.30
  -4   1  11   -0.40    3.70
  -4   1  11    2.00    5.10
  -4   1  11    1.80    4.40
  -4   1  11   -9.60    5.80
   3  -1 -11   -3.30    5.00
   3  -1 -11    0.20    5.00
   3  -1 -11    4.20    7.60
   3  -1 -11   -5.70    4.30
  -3   1  11    6.10    4.40
  -3   1  11    2.00    3.60
  -3   1  11    1.60    4.90
  -3   1  11   -0.50    4.40
  -3   1  11    1.10    4.50
  -3   1  11   -5.00    5.00
  -3   1  11    4.30    4.50
   2  -1 -11   23.10   10.70
   2  -1 -11   15.60    6.30
   2  -1 -11   24.40    7.80
   2  -1 -11   19.90    6.20
   2  -1 -11   21.20    7.10
   2  -1 -11   15.00    5.50
  -2   1  11   23.80    6.70
  -2   1  11   27.20    7.70
  -2   1  11   17.20    5.20
  -2   1  11   22.00    6.10
  -2   1  11   14.10    4.70
  -2   1  11    8.90    4.80
  -2   1  11   18.70    6.10
   1  -1 -11    4.10    6.00
   1  -1 -11   -1.00    6.20
   1  -1 -11   10.90    5.80
   1  -1 -11   -1.90    4.80
   1  -1 -11   -3.40    5.70
   1  -1 -11    1.30    6.50
  -1   1  11    6.40    3.30
  -1   1  11    5.80    5.20
  -1   1  11    7.50    5.90
  -1   1  11    2.00    5.40
  -1   1  11    1.70    3.80
  -1   1  11    4.70    4.10
  -1   1  11    0.20    3.80
   0  -1 -11    7.80    4.40
   0  -1 -11    2.60    7.50
   0  -1 -11    1.60    5.10
   0  -1 -11    2.90    5.20
   0  -1 -11   10.50    7.80
   0  -1 -11    7.40    6.20
   0   1  11   10.70    5.60
   0   1  11    8.80    6.50
   0   1  11   -0.30    4.80
   0   1  11   -0.40    3.80
   0   1  11    3.30    3.40
   0   1  11   -0.80    5.80
   0   1  11   16.00    6.70
  -1  -1 -11    7.80    5.50
  -1  -1 -11   16.20    8.90
  -1  -1 -11   10.90    6.10
  -1  -1 -11    2.20    7.50
  -1  -1 -11    6.40    5.90
   1   1  11    2.70    5.30
   1   1  11    9.50    6.30
   1   1  11   10.00    7.60
   1   1  11    3.70    4.30
   1   1  11   -5.10    7.30
   1   1  11    7.60    5.30
  -2  -1 -11    7.00    6.90
  -2  -1 -11   -5.50    8.60
  -2  -1 -11    2.90    5.30
  -2  -1 -11    8.30    9.80
  -2  -1 -11    8.90    7.30
   2   1  11   -5.40   13.30
   2   1  11   -4.10    9.00
   2   1  11    3.80    5.50
   2   1  11    2.30    3.90
  -3  -1 -11   -8.90   11.40
  -3  -1 -11   30.80   13.60
  -3  -1 -11   17.90   11.70
  -3  -1 -11   11.00    8.70
  -3  -1 -11   19.00    9.00
   3   1  11   29.40    8.30
   3   1  11    5.50    7.30
   3   1  11   13.00    5.20
   4  -2 -11   32.00    7.80
   4  -2 -11   33.70   12.80
   4  -2 -11   37.70    7.50
  -4   2  11   26.70    8.60
  -4   2  11   53.29   10.70
  -4   2  11   22.30    9.70
  -4   2  11   27.30    7.60
  -4   2  11   29.90    7.10
   3  -2 -11    2.80    5.80
   3  -2 -11   -3.70    5.80
   3  -2 -11   -5.90    4.40
   3  -2 -11   -4.60    5.30
  -3   2  11   -3.90    4.70
  -3   2  11    7.10    6.20
  -3   2  11    8.40    6.20
  -3   2  11   -5.10    4.50
  -3   2  11    2.60    6.80
  -3   2  11    0.40    3.80
  -3   2  11   -5.20    4.40
   2  -2 -11    3.90    6.30
   2  -2 -11    3.50    5.50
   2  -2 -11    0.10    7.50
   2  -2 -11    5.00    4.70
  -2   2  11    2.50    4.50
  -2   2  11    0.60    3.80
  -2   2  11    3.20    4.40
  -2   2  11    0.70    4.80
  -2   2  11   -2.70    6.20
  -2   2  11   -0.90    4.80
   1  -2 -11   22.10    8.60
   1  -2 -11   18.40    7.30
   1  -2 -11   29.10    7.10
   1  -2 -11   16.10    8.30
   1  -2 -11   15.70    9.00
  -1   2  11   21.70    6.40
  -1   2  11   12.80    8.00
  -1   2  11   15.00    6.10
  -1   2  11   14.30    7.00
  -1   2  11   16.20    7.40
  -1   2  11   17.80    7.00
   0  -2 -11   -2.50    8.10
   0  -2 -11   -7.00    4.80
   0  -2 -11    0.60    6.50
   0  -2 -11   -6.10    6.00
   0  -2 -11   -2.50    5.40
   0  -2 -11   13.20    8.60
   0   2  11   15.40    6.90
   0   2  11    2.20    7.20
   0   2  11    6.70    5.10
   0   2  11    7.00    4.40
   0   2  11   13.80    7.30
   0   2  11    0.40    5.10
  -1  -2 -11    2.00    5.50
  -1  -2 -11   -4.40   10.00
  -1  -2 -11   -1.30    7.50
  -1  -2 -11    3.70    6.80
  -1  -2 -11   10.50    6.00
   1   2  11    5.50    4.80
   1   2  11   -3.00    4.90
   1   2  11   -3.10    8.20
   1   2  11   -1.30   14.40
   1   2  11    3.30    5.20
  -2  -2 -11   21.10   18.20
  -2  -2 -11   18.00    8.50
  -2  -2 -11    7.10    6.40
  -2  -2 -11    3.10    7.00
  -2  -2 -11   -1.90   12.20
   2   2  11    5.90    4.60
   2   2  11   -7.80    5.40
   2   2  11   13.10    7.80
   2   2  11   12.70   10.60
   4  -3 -11   18.10    7.60
   4  -3 -11   -3.40    5.70
   4  -3 -11    7.70    7.90
   4  -3 -11    6.70   10.70
  -4   3  11   12.00    6.30
  -4   3  11    4.40    7.10
  -4   3  11   -5.80    6.90
  -4   3  11    3.80    6.30
  -4   3  11   -1.00    6.40
   3  -3 -11    2.30    5.20
   3  -3 -11    7.00    7.70
   3  -3 -11   -0.90    6.70
  -3   3  11   -5.20    6.60
  -3   3  11    0.70    6.20
  -3   3  11  -10.70    7.50
   2  -3 -11    0.70    7.70
   2  -3 -11   -8.10    5.70
   2  -3 -11    2.90    6.70
  -2   3  11    2.00    5.60
  -2   3  11    4.20    7.50
  -2   3  11   -2.90    5.30
  -2   3  11    3.60    6.00
  -2   3  11    6.50    7.70
  -2   3  11   -1.90    4.70
   1  -3 -11    2.00    7.30
   1  -3 -11    0.90    5.90
   1  -3 -11    6.00    5.30
   1  -3 -11    7.20    7.40
  -1   3  11    8.70    5.80
  -1   3  11    0.90    7.30
  -1   3  11    6.30    6.00
  -1   3  11   -0.40    7.60
  -1   3  11    4.10    4.70
   0  -3 -11    9.10   14.00
   0  -3 -11   -0.30    7.40
   0  -3 -11    1.80    7.00
   0  -3 -11    0.90    6.60
   0   3  11  -11.40    7.20
   0   3  11   -4.60    4.40
   0   3  11    5.60    6.10
   0   3  11   17.70   10.20
   0   3  11   10.60    6.20
  -1  -3 -11   -9.60    6.30
  -1  -3 -11   -0.30    8.10
  -1  -3 -11  -12.30   11.10
  -1  -3 -11    2.50    7.70
  -1  -3 -11   -1.80    7.40
  -1  -3 -11   -4.40    6.30
   1   3  11    9.30    6.60
   1   3  11    5.70    5.50
   1   3  11   -3.00    8.90
   1   3  11    4.50    7.60
   1   3  11   -2.70   10.60
  -2  -3 -11   -6.50    6.60
  -2  -3 -11   -1.10   13.80
  -2  -3 -11   -1.30    8.50
  -2  -3 -11    0.70    9.10
   2   3  11    0.30    7.80
   2   3  11   -4.60    7.20
   2   3  11   -3.20    5.10
   3  -4 -11   -0.40   11.00
   3  -4 -11   -1.70    7.90
   3  -4 -11    1.60    6.20
   3  -4 -11   -1.60    8.00
  -3   4  11  -16.10    5.90
  -3   4  11    0.20    6.50
  -3   4  11    6.60    8.70
  -3   4  11   -6.00    5.60
  -3   4  11    5.90    6.60
   2  -4 -11   23.60   10.30
   2  -4 -11   26.00    9.80
   2  -4 -11    5.20    9.00
   2  -4 -11   32.60    7.50
  -2   4  11   51.69   12.50
  -2   4  11   34.40    9.40
  -2   4  11   23.90   10.40
  -2   4  11   16.80    8.10
   1  -4 -11    6.70    7.10
   1  -4 -11   11.70    8.00
   1  -4 -11   -5.40    7.40
   1  -4 -11    7.00    7.40
  -1   4  11   13.60   10.70
  -1   4  11   16.90    9.00
  -1   4  11    4.50    7.00
  -1   4  11   14.10    7.60
  -1   4  11   -2.80    7.00
   0  -4 -11   16.00    7.90
   0  -4 -11    1.80    6.70
   0  -4 -11    4.00   10.80
   0   4  11    4.50    7.70
   0   4  11   -5.00    4.60
   0   4  11    7.60    7.80
   0   4  11   19.50   10.20
  -1  -4 -11   27.40   11.20
  -1  -4 -11   13.70    8.40
  -1  -4 -11    8.30    8.80
   1   4  11   29.10    9.40
   1   4  11   18.90    7.20
   1   4  11   15.40   15.60
   1   4  11   32.10   11.20
   1  -5 -11   27.30   11.60
   1  -5 -11   36.90   12.10
   1  -5 -11   13.50   10.70
  -1   5  11   15.00    6.50
  -1   5  11   14.90   13.70
  -1   5  11   40.90   11.80
   0  12 -12    8.20    9.00
   0  12 -12    7.50    8.60
   0 -12  12    9.10    6.90
   0 -12  12   32.60   13.90
   0 -12  12   -1.90   12.40
   0 -12  12    6.10    5.50
   2  11 -12   16.60    9.00
   2  11 -12    2.00    7.80
  -2 -11  12   16.20    6.00
  -2 -11  12   28.20   10.50
  -2 -11  12    6.30    5.60
  -2 -11  12   10.30    5.90
  -2 -11  12   10.40   10.00
   1  11 -12   72.49   13.70
   1  11 -12  113.79   16.40
  -1 -11  12  114.09   16.50
  -1 -11  12   88.69   15.40
   0  11 -12    2.50    7.50
   0  11 -12    1.40    7.30
   0 -11  12   -4.70    5.90
   0 -11  12   -3.40    5.60
   0 -11  12  -10.10   11.10
   0 -11  12    8.10    4.60
   0 -11  12  -10.90   10.30
  -1  11 -12   -5.80    8.00
  -1  11 -12    7.90    7.80
  -1  11 -12    4.10    4.50
   1 -11  12   -3.30   12.10
   1 -11  12   -6.30    4.80
   1 -11  12   -4.20    6.20
   1 -11  12   -0.30    6.30
  -2  11 -12   25.80    7.40
  -2  11 -12   24.40   10.20
  -2  11 -12   45.80   11.00
   2 -11  12   25.40    7.90
   2 -11  12   59.69   17.50
   2 -11  12   45.90   10.10
   2 -11  12   34.20   10.80
   3  10 -12   21.90    7.70
  -3 -10  12   25.10    6.90
  -3 -10  12    4.70    5.10
  -3 -10  12   12.30    5.30
  -3 -10  12    6.40    8.00
  -3 -10  12   14.70    8.30
   2  10 -12   10.50    6.80
   2  10 -12    1.90   12.70
  -2 -10  12   12.80    9.30
  -2 -10  12    1.20    8.10
   1  10 -12   53.09   10.70
   1  10 -12   68.39   11.40
  -1 -10  12   86.19   17.80
  -1 -10  12   88.99   10.40
  -1 -10  12   81.49   14.00
  -1 -10  12   44.50    9.10
  -1 -10  12   45.40    9.60
   0  10 -12   -2.60    7.00
   0  10 -12    8.20    6.50
   0 -10  12    5.10    4.70
   0 -10  12   -2.30    4.90
   0 -10  12  -12.10    8.10
   0 -10  12    2.00   10.60
   0 -10  12   -4.80    5.70
  -1  10 -12   85.89    9.40
  -1  10 -12   47.10   11.30
  -1  10 -12   64.59   11.30
   1 -10  12   47.80   11.00
   1 -10  12   53.99    8.90
   1 -10  12   80.39   14.40
   1 -10  12   70.49   12.50
  -2  10 -12  442.06   38.30
  -2  10 -12  375.56   33.70
   2 -10  12  402.06   34.50
   2 -10  12  502.35   48.90
   2 -10  12  349.96   36.40
   4   9 -12    8.20    7.30
  -4  -9  12    5.70    4.80
  -4  -9  12   -0.80    7.40
  -4  -9  12   -5.00    4.90
  -4  -9  12    7.10    5.10
   3   9 -12   13.90    6.80
   3   9 -12   11.30    6.90
   3   9 -12    8.30   17.10
  -3  -9  12    7.70    7.50
  -3  -9  12    7.30    7.50
   2   9 -12    8.30    6.40
   2   9 -12    0.50    8.90
  -2  -9  12   -9.00    4.00
  -2  -9  12   24.10    6.80
  -2  -9  12   -3.00    3.80
  -2  -9  12    1.00    4.10
  -2  -9  12   -3.90   10.50
   1   9 -12    3.80    5.70
   1   9 -12   -7.80    4.90
  -1  -9  12    1.10    4.80
  -1  -9  12   -2.60    3.70
  -1  -9  12   -6.70    4.70
  -1  -9  12   -7.50    7.00
  -1  -9  12   -7.40    6.70
   0   9 -12    4.50    2.50
   0   9 -12    7.40    9.10
   0   9 -12   11.80    6.30
   0   9 -12    0.80    5.90
   0  -9  12    5.40    5.70
   0  -9  12    9.20    7.90
   0  -9  12    0.50    4.20
   0  -9  12    9.60    5.30
   0  -9  12   -4.30    7.90
  -1   9 -12   -0.60    4.10
  -1   9 -12    9.50    6.80
  -1   9 -12    7.50    7.80
  -1   9 -12    5.90    6.10
   1  -9  12    4.90    4.40
   1  -9  12   22.70    8.60
   1  -9  12   -2.80    8.60
   1  -9  12   10.30    5.70
   1  -9  12    2.60    5.50
  -2   9 -12   12.20   12.90
  -2   9 -12   -5.40    5.90
  -2   9 -12    1.20    4.40
  -2   9 -12    5.60    9.10
   2  -9  12    2.00    4.80
   2  -9  12    3.70    6.90
   2  -9  12    7.90    9.20
   2  -9  12    8.40    7.20
   2  -9  12    8.50   10.70
  -3   9 -12    2.20    7.30
  -3   9 -12   -6.70    6.60
  -3   9 -12   12.80   12.20
  -3   9 -12   -2.50    6.20
   3  -9  12    0.40    7.40
   3  -9  12   -5.30    7.00
   3  -9  12    2.70    5.60
   4   8 -12   -6.10   12.00
   4   8 -12  -14.60   10.60
  -4  -8  12    3.10    6.30
  -4  -8  12  -10.90    4.40
  -4  -8  12   -2.50    4.40
   3   8 -12   -4.30    9.30
   3   8 -12    0.90    5.40
   3   8 -12    6.10    5.40
  -3  -8  12    3.40    3.90
  -3  -8  12    0.00    6.40
  -3  -8  12   -4.30    3.80
  -3  -8  12   -8.10    3.90
   2   8 -12  115.09   14.70
   2   8 -12  132.99   16.90
  -2  -8  12  116.99   13.80
  -2  -8  12   99.69   13.50
  -2  -8  12  107.79   17.50
  -2  -8  12  129.69   14.90
  -2  -8  12  109.69   12.60
   1   8 -12    1.10    4.70
   1   8 -12    4.20    7.60
   1   8 -12    4.30    5.40
  -1  -8  12    6.20    4.20
  -1  -8  12    0.20    6.40
  -1  -8  12    8.50    6.70
  -1  -8  12   12.40    4.90
  -1  -8  12    4.60    4.20
   0   8 -12  124.79   15.60
   0   8 -12   91.49   15.70
   0   8 -12  108.09   13.10
   0   8 -12  125.49   16.20
   0   8 -12  106.69   14.70
   0   8 -12  157.88   16.00
   0  -8  12  138.29   17.00
   0  -8  12  130.49   13.30
   0  -8  12  113.79   14.30
   0  -8  12  140.09   16.30
   0  -8  12   97.09   14.10
  -1   8 -12  573.74   42.00
  -1   8 -12  447.86   37.80
  -1   8 -12  526.55   43.20
  -1   8 -12  403.86   40.40
  -1   8 -12  559.94   43.60
  -1   8 -12  429.96   40.70
   1  -8  12  388.86   39.80
   1  -8  12  531.05   41.50
   1  -8  12  391.36   38.20
  -2   8 -12    7.90    9.00
  -2   8 -12   -1.60    5.80
  -2   8 -12    0.90    4.50
  -2   8 -12   -9.80    5.30
   2  -8  12    4.80    5.90
   2  -8  12    8.60    9.70
   2  -8  12    3.20   12.70
   2  -8  12   -1.40    4.70
   2  -8  12    0.00    5.70
  -3   8 -12   -2.70   11.10
  -3   8 -12   -1.40    5.90
  -3   8 -12   -1.50    6.20
  -3   8 -12  -26.00   11.90
  -3   8 -12    0.50    6.40
   3  -8  12   -2.40    5.30
   3  -8  12    2.90   11.60
   3  -8  12   -0.30    7.00
   3  -8  12    6.80    7.80
   3  -8  12    1.60    4.80
   4   7 -12    8.30   10.20
   4   7 -12   11.40    5.90
  -4  -7  12    1.70    4.70
  -4  -7  12    3.40    6.40
  -4  -7  12    4.20    4.10
   3   7 -12   10.20    5.50
   3   7 -12   10.90    5.40
   3   7 -12   17.10    9.60
  -3  -7  12    5.90    4.80
  -3  -7  12   11.80    6.30
  -3  -7  12    3.80    4.20
  -3  -7  12   14.50    6.60
  -3  -7  12   16.70    5.50
   2   7 -12   16.80    6.20
   2   7 -12   25.50    8.70
   2   7 -12   45.80   12.10
  -2  -7  12   21.70    6.20
  -2  -7  12   13.50    5.60
  -2  -7  12   29.20    7.20
  -2  -7  12   31.80    6.30
  -2  -7  12   16.70    7.30
   1   7 -12   -5.90    4.40
   1   7 -12   -0.50    4.90
   1   7 -12    4.30    4.60
   1   7 -12   -8.30    4.90
  -1  -7  12  -15.40    5.70
  -1  -7  12  -10.60    6.20
  -1  -7  12    1.50    4.00
  -1  -7  12    2.60    4.20
  -1  -7  12   -1.10    3.80
   0   7 -12   33.10    5.30
   0   7 -12   41.30    8.00
   0   7 -12   29.90    7.60
   0   7 -12   33.60    7.00
   0   7 -12   32.40    8.10
   0   7 -12   54.09   10.40
   0  -7  12   55.49   10.70
   0  -7  12   34.60    6.80
   0  -7  12   25.70    7.10
   0  -7  12   22.60    7.20
   0  -7  12   70.49   12.20
  -1   7 -12  183.38   20.70
  -1   7 -12  252.47   22.40
  -1   7 -12  186.08   18.20
  -1   7 -12  198.38   18.80
  -1   7 -12  193.28   21.10
   1  -7  12  178.98   18.70
   1  -7  12  200.18   20.50
   1  -7  12  234.08   22.10
   1  -7  12  159.98   19.90
  -2   7 -12    2.60    5.60
  -2   7 -12   23.10    5.70
  -2   7 -12    4.10    5.70
  -2   7 -12   12.40    7.30
  -2   7 -12   16.80    8.80
   2  -7  12    9.60    5.20
   2  -7  12    0.30    9.40
   2  -7  12    1.20    5.40
   2  -7  12   12.10    7.30
   2  -7  12    9.30    6.00
  -3   7 -12    0.20    5.90
  -3   7 -12    0.30    8.40
  -3   7 -12   -4.50    6.40
  -3   7 -12   -3.90    9.00
  -3   7 -12    5.60    5.60
   3  -7  12   -7.90   10.30
   3  -7  12    0.20    4.60
   3  -7  12   -2.10    6.30
   3  -7  12   -0.40    4.20
   5   6 -12   26.00   11.90
  -5  -6  12    9.50    4.40
  -5  -6  12   10.00    5.00
  -5  -6  12   13.00    7.20
  -5  -6  12    7.80    6.20
  -5  -6  12   22.20    6.60
   4   6 -12   54.89    7.30
   4   6 -12   53.19   14.10
   4   6 -12   47.70    7.60
  -4  -6  12   66.29    8.80
  -4  -6  12   48.60   10.90
  -4  -6  12   68.59    9.20
  -4  -6  12   40.10    7.50
  -4  -6  12   32.90    7.10
   3   6 -12    1.40    5.50
   3   6 -12   12.10    4.50
   3   6 -12    4.70    8.50
   3   6 -12   -2.10    4.60
  -3  -6  12    3.00    4.00
  -3  -6  12    4.10    5.50
  -3  -6  12   15.80    6.00
  -3  -6  12    3.50    3.90
  -3  -6  12   -2.50    5.70
  -3  -6  12   18.50    4.70
   2   6 -12    1.50    4.80
   2   6 -12   -2.90    4.40
   2   6 -12    4.60    5.20
   2   6 -12    4.90    8.20
   2   6 -12    2.60    5.00
  -2  -6  12    0.10    3.90
  -2  -6  12   -0.30    5.10
  -2  -6  12    4.50    3.90
  -2  -6  12    3.10    3.90
  -2  -6  12    2.00    3.80
   1   6 -12   10.70    5.20
   1   6 -12   10.70    5.10
   1   6 -12   15.40    5.00
   1   6 -12   10.10    5.90
  -1  -6  12    9.30    4.40
  -1  -6  12    5.80    4.20
  -1  -6  12    7.20    3.90
  -1  -6  12    8.90    4.50
   0   6 -12    3.10    3.70
   0   6 -12   -2.10    4.40
   0   6 -12    8.40    6.00
   0   6 -12    4.60    4.50
   0  -6  12    9.10    4.80
   0  -6  12    8.30    4.10
   0  -6  12    1.70    3.90
   0  -6  12    7.90    4.60
  -1   6 -12   66.99   11.60
  -1   6 -12   69.89   11.70
  -1   6 -12   61.29    9.40
  -1   6 -12   84.29   10.50
  -1   6 -12   59.99   10.50
  -1   6 -12   74.69   12.10
   1  -6  12   52.29    9.10
   1  -6  12   61.99    9.10
   1  -6  12   52.49   10.30
   1  -6  12   47.50    9.00
  -2   6 -12   -5.90    6.00
  -2   6 -12  -10.60    6.80
  -2   6 -12    4.80    8.20
  -2   6 -12    0.60    8.50
  -2   6 -12    1.90    5.20
   2  -6  12    1.50    4.10
   2  -6  12   -5.90    8.70
   2  -6  12    4.40    5.50
   2  -6  12   -6.50    3.90
  -3   6 -12    8.00    7.10
  -3   6 -12   -3.60   10.00
  -3   6 -12    4.30    5.30
  -3   6 -12   -1.80    7.60
  -3   6 -12  -11.20    5.50
   3  -6  12    4.00    6.90
   3  -6  12   10.00    4.90
   3  -6  12   -1.40    4.20
   3  -6  12   -1.60    5.80
   5   5 -12   37.70   13.20
  -5  -5  12   24.50    5.40
  -5  -5  12    7.60    6.40
  -5  -5  12   21.90    6.50
  -5  -5  12   13.00    6.00
  -5  -5  12   16.20    5.60
   4   5 -12  133.99   18.30
   4   5 -12  140.79   13.70
   4   5 -12  149.69   13.30
  -4  -5  12  123.09   13.80
  -4  -5  12  102.69   13.30
  -4  -5  12   98.89   15.70
  -4  -5  12  149.88   14.70
  -4  -5  12  132.69   13.80
   3   5 -12   17.80    6.20
   3   5 -12   10.90    5.30
   3   5 -12   10.40    5.90
   3   5 -12   14.50    9.80
   3   5 -12   11.90    5.20
  -3  -5  12    7.90    3.70
  -3  -5  12    8.00    4.80
  -3  -5  12   23.40    5.10
  -3  -5  12    8.00    6.00
   2   5 -12   -0.90    4.30
   2   5 -12   -3.90    6.90
   2   5 -12   -8.20    4.10
   2   5 -12    3.60    4.20
   2   5 -12    0.50    4.90
  -2  -5  12   -2.70    3.40
  -2  -5  12    2.10    3.60
  -2  -5  12   -3.40    2.00
  -2  -5  12   -4.50    3.30
  -2  -5  12   -0.50    3.80
   1   5 -12    8.40    5.60
   1   5 -12    3.90    4.80
   1   5 -12    7.20    4.60
   1   5 -12    2.60    4.20
  -1  -5  12    1.70    4.00
  -1  -5  12    7.50    2.90
  -1  -5  12   -2.90    3.90
  -1  -5  12   12.20    5.10
  -1  -5  12    1.10    3.70
  -1  -5  12    4.00    4.10
   0   5 -12  426.76   35.40
   0   5 -12  430.86   34.70
   0   5 -12  393.96   36.80
   0   5 -12  415.56   37.30
   0  -5  12  417.06   35.50
   0  -5  12  477.35   34.70
   0  -5  12  371.86   36.50
   0  -5  12  361.76   36.50
   0  -5  12  506.65   38.60
  -1   5 -12    5.20    6.60
  -1   5 -12   -0.40    4.90
  -1   5 -12   -5.30    6.00
  -1   5 -12    4.20    5.50
  -1   5 -12    7.90    4.60
  -1   5 -12    0.80    4.10
   1  -5  12    1.10    4.60
   1  -5  12    0.40    6.40
   1  -5  12    2.20    3.70
   1  -5  12   -3.00    3.90
   1  -5  12    7.30    6.80
   1  -5  12    2.20    4.20
   1  -5  12   -9.70    4.40
  -2   5 -12   -8.40    7.60
  -2   5 -12    1.30    7.00
  -2   5 -12   -0.40    4.90
  -2   5 -12   -7.60    4.10
  -2   5 -12    2.30    5.40
   2  -5  12   -3.40    7.30
   2  -5  12    6.10    5.40
   2  -5  12   -0.80    4.10
   2  -5  12   -0.40    5.20
   2  -5  12   -4.00    3.60
  -3   5 -12   11.70    9.90
  -3   5 -12   37.80   11.00
  -3   5 -12   26.70    9.10
  -3   5 -12   11.20    6.10
  -3   5 -12   16.50    7.20
   3  -5  12   14.00    7.10
   3  -5  12   24.90    6.50
   3  -5  12   11.80    7.20
   3  -5  12   15.90    5.30
   5   4 -12    8.20   11.10
  -5  -4  12    1.30    5.70
  -5  -4  12    3.50    4.20
  -5  -4  12    2.30    4.80
  -5  -4  12    8.10    6.40
  -5  -4  12    9.00    4.70
  -5  -4  12    9.30    3.80
  -5  -4  12    9.40    5.90
   4   4 -12   63.69    8.70
   4   4 -12   76.49    9.50
   4   4 -12   50.19   13.70
  -4  -4  12   48.60    8.50
  -4  -4  12   25.70    8.40
  -4  -4  12   58.49    6.60
  -4  -4  12   51.59    8.40
  -4  -4  12   50.39    8.20
   3   4 -12   69.19   10.00
   3   4 -12   72.29    9.90
   3   4 -12   66.09    9.80
   3   4 -12   83.49   10.60
   3   4 -12   87.09   16.30
  -3  -4  12   51.09    9.40
  -3  -4  12   66.59    9.90
  -3  -4  12   48.60   10.60
  -3  -4  12   97.69   10.70
  -3  -4  12   74.29    9.50
  -3  -4  12   78.49    7.70
   2   4 -12   -4.40    4.10
   2   4 -12   -6.60    4.10
   2   4 -12   -1.60    4.20
   2   4 -12   -9.30    6.10
   2   4 -12   -3.90    4.30
  -2  -4  12    1.50    3.70
  -2  -4  12    0.10    4.40
  -2  -4  12   -5.90    2.70
  -2  -4  12    5.80    4.30
  -2  -4  12    4.50    3.60
  -2  -4  12   -0.90    3.40
  -2  -4  12   -1.10    3.40
   1   4 -12   76.09   10.70
   1   4 -12   76.69    9.80
   1   4 -12   47.50    8.90
   1   4 -12   81.79   14.80
   1   4 -12   58.09    9.90
  -1  -4  12   62.29   10.50
  -1  -4  12   57.29    8.80
  -1  -4  12   60.79   10.40
  -1  -4  12   62.89   11.20
  -1  -4  12   64.19    8.20
  -1  -4  12   53.69    9.40
  -1  -4  12   44.90    8.90
   0   4 -12   41.60   11.50
   0   4 -12   55.19    7.50
   0   4 -12   48.00    9.50
   0   4 -12   45.40    8.90
   0   4 -12   39.20    7.10
   0   4 -12   53.39    9.70
   0  -4  12   30.60    7.30
   0  -4  12   57.09   11.00
   0  -4  12   34.50    8.60
   0  -4  12   49.99   10.20
   0  -4  12   62.99    8.10
   0  -4  12   57.29    8.20
   0  -4  12   47.70   11.40
  -1   4 -12   -2.50    4.70
  -1   4 -12   -1.10    5.10
  -1   4 -12  -10.50    7.00
  -1   4 -12    2.00    4.40
  -1   4 -12   -2.50    3.70
  -1   4 -12    6.20    6.60
   1  -4  12   -1.70    4.00
   1  -4  12   -5.10    4.10
   1  -4  12    4.40    4.00
   1  -4  12   10.10    4.90
   1  -4  12   -7.00    6.10
   1  -4  12    2.60    6.40
   1  -4  12   -2.20    4.20
  -2   4 -12   14.80    7.90
  -2   4 -12    9.90    7.10
  -2   4 -12    7.00    5.10
  -2   4 -12   10.80    9.30
  -2   4 -12   14.10    6.30
   2  -4  12   13.10    4.90
   2  -4  12    6.90    6.40
   2  -4  12   18.40    7.00
   2  -4  12   17.80    9.00
   2  -4  12    8.30   12.40
   2  -4  12    0.90    3.80
  -3   4 -12   76.99   13.70
  -3   4 -12   32.20    9.20
  -3   4 -12   65.59   11.60
  -3   4 -12   62.29   13.50
  -3   4 -12   56.29   11.50
   3  -4  12   36.80    8.80
   3  -4  12   55.49   12.10
   3  -4  12   39.90    7.30
   3  -4  12   38.50    7.80
   3  -4  12   53.39   13.70
   3  -4  12   58.59   11.60
   5   3 -12   10.30   11.10
  -5  -3  12   -0.40    5.90
  -5  -3  12    7.10    4.80
  -5  -3  12   12.20    5.90
  -5  -3  12    4.90    4.40
   4   3 -12   25.80    8.90
   4   3 -12   28.90    6.10
   4   3 -12   31.40    6.50
   4   3 -12   29.60    6.20
   4   3 -12   23.30   10.40
  -4  -3  12   32.10    5.80
  -4  -3  12   14.00    7.50
  -4  -3  12   22.80    6.00
  -4  -3  12   23.30    5.90
  -4  -3  12   26.70    7.70
  -4  -3  12   37.40    6.60
   3   3 -12   40.70    8.10
   3   3 -12   51.39    8.30
   3   3 -12   40.70   17.60
   3   3 -12   42.50    7.60
   3   3 -12   61.89    8.70
  -3  -3  12   43.00   10.00
  -3  -3  12   40.10    8.30
  -3  -3  12   49.30    8.10
  -3  -3  12   43.60    8.20
  -3  -3  12   55.19    8.90
  -3  -3  12   50.89    8.70
  -3  -3  12   54.29    7.40
   2   3 -12   33.30   11.20
   2   3 -12   32.00    6.80
   2   3 -12   24.20    6.50
   2   3 -12   33.70    7.10
   2   3 -12   32.70    6.80
  -2  -3  12   31.60    7.80
  -2  -3  12   17.10    6.10
  -2  -3  12   36.70    8.20
  -2  -3  12   33.50    5.90
  -2  -3  12   33.00    6.50
  -2  -3  12   27.60    7.50
  -2  -3  12   21.00    7.10
   1   3 -12   15.40    5.30
   1   3 -12    6.40    9.00
   1   3 -12    5.50    5.00
   1   3 -12   15.50    6.30
   1   3 -12   21.30    8.90
   1   3 -12   10.50    6.50
  -1  -3  12    6.20    4.60
  -1  -3  12   13.30    4.80
  -1  -3  12   14.20    5.50
  -1  -3  12    9.80    5.10
  -1  -3  12   12.90    6.30
  -1  -3  12    6.50    4.60
  -1  -3  12    7.20    4.40
   0   3 -12   36.20    8.30
   0   3 -12   43.00    9.10
   0   3 -12   39.20    7.40
   0   3 -12   46.00    7.90
   0   3 -12   62.69   10.80
   0  -3  12   65.69   11.20
   0  -3  12   40.70    8.60
   0  -3  12   49.70    9.70
   0  -3  12   51.29    9.50
   0  -3  12   65.89    9.20
   0  -3  12   37.10    7.60
   0  -3  12   56.19    9.60
  -1   3 -12   12.10    7.00
  -1   3 -12   17.80    6.30
  -1   3 -12   10.50    5.50
  -1   3 -12    9.30    7.50
  -1   3 -12   16.50    7.20
  -1   3 -12    7.80    6.90
   1  -3  12    5.30    5.10
   1  -3  12   13.10    7.00
   1  -3  12   18.10    5.70
   1  -3  12    6.50    4.60
   1  -3  12   15.30    8.30
   1  -3  12    8.80    4.60
   1  -3  12   15.80    6.10
  -2   3 -12    1.30    5.70
  -2   3 -12    9.80    9.10
  -2   3 -12   -7.20    4.70
  -2   3 -12    4.40    5.70
  -2   3 -12   -4.80    7.70
   2  -3  12    7.80    7.90
   2  -3  12   -0.70    4.20
   2  -3  12   -4.20    4.90
   2  -3  12    2.10    4.30
  -3   3 -12   18.30    9.90
  -3   3 -12    6.00    6.50
  -3   3 -12   19.70   12.40
  -3   3 -12    9.90    6.70
  -3   3 -12   14.20    8.70
   3  -3  12   34.30   11.40
   3  -3  12    6.90    6.70
   3  -3  12   11.20    6.90
   3  -3  12   10.40    4.60
   5   2 -12   -6.90    8.80
  -5  -2  12   -1.70    4.80
  -5  -2  12    4.10    4.40
  -5  -2  12    7.20    6.20
  -5  -2  12    3.80    5.10
  -5  -2  12    2.00    6.00
   4   2 -12   -1.40    4.90
   4   2 -12    9.30    5.40
   4   2 -12    9.10    6.00
   4   2 -12    3.30    8.90
  -4  -2  12    6.70    4.60
  -4  -2  12    6.60    5.10
  -4  -2  12    7.40    4.80
  -4  -2  12    7.60    4.30
  -4  -2  12    1.10    4.70
  -4  -2  12   11.70    5.10
  -4  -2  12    9.20    5.50
   3   2 -12   12.80    4.50
   3   2 -12    0.10    4.90
   3   2 -12    1.70    6.90
   3   2 -12    6.50    8.30
  -3  -2  12   -3.60    3.90
  -3  -2  12   -1.00    4.40
  -3  -2  12   -2.30    3.60
  -3  -2  12    2.00    4.00
  -3  -2  12    0.20    3.60
  -3  -2  12    4.40    4.50
   2   2 -12   16.60    6.40
   2   2 -12   12.70    7.00
   2   2 -12   10.60    6.00
   2   2 -12   24.40    6.90
   2   2 -12   16.70    7.90
   2   2 -12   14.70    5.80
  -2  -2  12    8.90    5.10
  -2  -2  12   12.50    5.00
  -2  -2  12   13.90    5.10
  -2  -2  12   14.00    6.20
  -2  -2  12   20.10    6.90
  -2  -2  12   15.00    5.50
   1   2 -12   18.50    7.20
   1   2 -12   22.60    5.90
   1   2 -12   11.10    5.40
   1   2 -12   21.50    6.30
   1   2 -12   14.50    6.30
   1   2 -12   28.80    9.80
  -1  -2  12    8.00    4.50
  -1  -2  12   16.70    6.50
  -1  -2  12   12.60    6.30
  -1  -2  12   12.30    5.50
  -1  -2  12    9.30    5.20
  -1  -2  12   13.10    5.70
  -1  -2  12   14.00    5.90
   0   2 -12   13.70    7.50
   0   2 -12   10.00    5.60
   0   2 -12   13.70    5.20
   0   2 -12    7.00    5.10
   0   2 -12    9.30    4.50
   0  -2  12    6.30    3.80
   0  -2  12    3.80    4.80
   0  -2  12    7.40    5.30
   0  -2  12   -2.40    5.10
   0  -2  12    0.60    4.30
   0  -2  12    9.20    6.90
   0  -2  12    7.90    4.50
  -1   2 -12   16.90    8.50
  -1   2 -12    9.20    5.30
  -1   2 -12   11.40    6.30
  -1   2 -12   -5.10    8.10
  -1   2 -12    8.20    5.40
   1  -2  12   20.10    7.90
   1  -2  12   -2.00    4.80
   1  -2  12    7.00    5.30
   1  -2  12   10.40    4.30
   1  -2  12    0.40    4.30
   1  -2  12   12.40    6.10
   1  -2  12    9.30    8.00
  -2   2 -12   13.10    6.60
  -2   2 -12   24.40    9.80
  -2   2 -12   20.90    9.30
  -2   2 -12   29.20    8.40
   2  -2  12   13.70    4.90
   2  -2  12   28.30    8.40
   2  -2  12   10.10   10.10
   2  -2  12   30.10    9.90
   2  -2  12   12.00    4.90
   2  -2  12   34.10    9.80
   2  -2  12   36.20   13.10
  -3   2 -12  -15.50    9.10
  -3   2 -12    0.00    6.40
  -3   2 -12   -6.70    6.50
  -3   2 -12   -4.50    6.00
  -3   2 -12    1.40   10.90
   3  -2  12   -4.70    4.10
   3  -2  12   -4.80    7.30
   3  -2  12  -11.50    5.90
   5   1 -12   -1.90    0.90
   5   1 -12   -0.80    8.90
  -5  -1  12    8.60    7.30
  -5  -1  12    9.00    5.00
  -5  -1  12    1.20    5.10
  -5  -1  12    0.30    4.40
  -5  -1  12    3.20    5.80
  -5  -1  12    1.20    5.80
   4   1 -12   11.50   10.80
   4   1 -12    2.70    5.30
   4   1 -12   -4.30    5.60
   4   1 -12    4.00    5.50
  -4  -1  12   -2.80    5.10
  -4  -1  12   -5.60    4.00
  -4  -1  12    2.30    4.40
  -4  -1  12  -10.70    4.50
  -4  -1  12    1.40    5.90
  -4  -1  12    3.20    4.40
  -4  -1  12   -0.40    5.80
   3   1 -12    3.30    9.50
   3   1 -12   -5.90    5.70
   3   1 -12    2.50    5.40
  -3  -1  12    5.40    5.00
  -3  -1  12   -0.80    4.00
  -3  -1  12    0.60    4.20
  -3  -1  12    0.10    4.80
  -3  -1  12    2.10    4.20
  -3  -1  12   -5.60    3.30
  -3  -1  12   -4.00    4.50
   2   1 -12    0.10    6.70
   2   1 -12    0.10    4.60
   2   1 -12    0.60    4.80
   2   1 -12   -0.10    4.60
  -2  -1  12    0.30    4.20
  -2  -1  12    4.40    5.20
  -2  -1  12    0.50    4.10
  -2  -1  12   -6.20    3.70
  -2  -1  12    2.90    4.30
  -2  -1  12    0.00    5.10
  -2  -1  12    0.30    4.20
   1   1 -12   11.40    9.10
   1   1 -12    5.80    5.80
   1   1 -12   14.60    5.20
   1   1 -12   14.10    7.00
   1   1 -12   15.10    6.50
   1   1 -12   16.70    7.30
  -1  -1  12    4.30    5.20
  -1  -1  12   13.60    6.60
  -1  -1  12    9.10    4.80
  -1  -1  12   10.90    5.70
  -1  -1  12   10.50    5.60
  -1  -1  12    6.30    4.70
  -1  -1  12   11.50    5.40
   0   1 -12    1.00    6.70
   0   1 -12   -2.50    5.10
   0   1 -12    6.10    6.50
   0   1 -12    6.30    5.10
   0   1 -12   -5.00    5.50
   0   1 -12    0.60    5.00
   0  -1  12    5.20    6.80
   0  -1  12   -2.50    2.90
   0  -1  12    1.50    5.30
   0  -1  12    1.40    4.30
   0  -1  12    4.10    3.70
   0  -1  12    1.30    5.10
   0  -1  12   -4.50    5.60
  -1   1 -12   10.90    6.20
  -1   1 -12   15.10    7.80
  -1   1 -12    6.20    6.10
  -1   1 -12   -0.80    4.70
   1  -1  12   15.20    8.00
   1  -1  12    8.50    5.60
   1  -1  12    3.00    4.60
   1  -1  12   -2.00    3.90
   1  -1  12   -7.10    6.30
   1  -1  12    5.10    5.50
  -2   1 -12   27.20    8.20
  -2   1 -12   37.90   12.80
  -2   1 -12   31.90    8.80
  -2   1 -12   42.30   12.50
  -2   1 -12   37.00   11.20
   2  -1  12   30.70    7.90
   2  -1  12   81.29   14.40
   2  -1  12   25.20   10.30
   2  -1  12   27.80    9.60
   2  -1  12   20.60    8.10
  -3   1 -12   11.30   13.20
  -3   1 -12   15.20    8.40
  -3   1 -12   22.50   15.10
  -3   1 -12    0.80    8.90
  -3   1 -12   33.70   11.40
   3  -1  12   21.70    7.90
   3  -1  12   23.60    5.80
   4   0 -12   36.60   12.70
   4   0 -12   83.09   10.90
   4   0 -12   89.19   11.90
   4   0 -12   84.79   12.00
  -4   0  12   52.99   11.00
  -4   0  12   52.39    8.50
  -4   0  12   69.49   11.20
  -4   0  12   68.09   10.60
   3   0 -12   -3.70    6.50
   3   0 -12    7.20    9.20
   3   0 -12   14.20   10.10
  -3   0  12   20.70    6.60
  -3   0  12   -2.60    4.30
  -3   0  12    5.80    4.70
  -3   0  12    1.40    4.50
  -3   0  12   11.50    6.20
  -3   0  12   16.20    6.60
  -3   0  12    9.30    5.50
   2   0 -12    5.40    7.20
   2   0 -12   -0.60    5.50
   2   0 -12    7.40    5.10
   2   0 -12    2.80    5.10
  -2   0  12   -1.00    4.20
  -2   0  12   -0.40    4.00
  -2   0  12   -0.20    5.80
  -2   0  12    9.80    4.60
  -2   0  12   -3.80    5.50
  -2   0  12    0.50    4.70
  -2   0  12   -2.70    5.10
   1   0 -12    2.40    5.20
   1   0 -12    4.20    7.00
   1   0 -12    6.20    5.50
   1   0 -12   -3.20    5.90
   1   0 -12    2.50    8.90
  -1   0  12    6.80    5.70
  -1   0  12   -0.30    4.80
  -1   0  12   10.20    6.50
  -1   0  12    7.00    4.60
  -1   0  12   -5.90    4.40
  -1   0  12    1.30    4.00
   0   0 -12    9.50    6.20
   0   0 -12    9.50    8.50
   0   0 -12    4.10    6.70
   0   0 -12    3.20    5.20
   0   0 -12   10.60    7.10
   0   0  12    9.00    4.70
   0   0  12   10.30    6.90
   0   0  12   -2.30    5.10
   0   0  12    8.60    5.60
   0   0  12   15.00    5.00
  -1   0 -12    8.80    6.90
  -1   0 -12   -5.10   10.00
  -1   0 -12  -15.60   12.80
  -1   0 -12   -3.90    4.90
   1   0  12   -1.50    4.00
   1   0  12   -4.90    7.90
   1   0  12  -11.50    6.50
   1   0  12   -2.40    5.20
   1   0  12    3.90    5.80
   1   0  12    3.80    8.50
  -2   0 -12    9.60   14.10
  -2   0 -12   -9.70   13.70
  -2   0 -12    5.20    6.40
  -2   0 -12   -2.20    5.30
  -2   0 -12  -10.20    6.80
   2   0  12    4.60   17.00
   2   0  12    1.70    4.70
   2   0  12   -2.80    6.40
   2   0  12    2.40    6.10
   2   0  12    3.40   13.80
   4  -1 -12   -5.70    7.20
   4  -1 -12   -2.60    7.50
   4  -1 -12    2.10    9.70
   4  -1 -12  -10.70    6.50
  -4   1  12   -5.20    5.40
  -4   1  12    9.40    6.10
  -4   1  12    3.40    5.30
  -4   1  12    0.60    7.90
  -4   1  12    1.80    6.10
  -4   1  12  -12.90    5.40
  -4   1  12   -6.80    4.20
   3  -1 -12    8.30    6.40
   3  -1 -12   16.30    7.20
   3  -1 -12   10.60    9.10
   3  -1 -12   17.60    6.30
  -3   1  12   11.00    7.70
  -3   1  12   11.50    5.10
  -3   1  12   21.30    6.40
  -3   1  12    3.60    6.60
  -3   1  12   20.60    7.20
  -3   1  12   -2.40    8.80
  -3   1  12   13.70    8.50
   2  -1 -12    0.20    5.80
   2  -1 -12   24.20    8.90
   2  -1 -12   20.00    9.30
   2  -1 -12   13.30    6.80
  -2   1  12    9.80    5.50
  -2   1  12   19.70    6.70
  -2   1  12   25.60    5.80
  -2   1  12   20.90    6.50
  -2   1  12   26.90    7.40
  -2   1  12   12.40    6.60
   1  -1 -12   10.60    6.00
   1  -1 -12   12.10    7.90
   1  -1 -12    4.90    6.00
  -1   1  12   11.40    5.80
  -1   1  12   21.90    8.40
  -1   1  12   22.30    5.70
  -1   1  12   21.70    7.40
  -1   1  12   14.90    6.00
  -1   1  12    8.30    5.60
  -1   1  12   10.70    7.60
   0  -1 -12   12.30    7.80
   0  -1 -12   22.00    7.50
   0  -1 -12   13.20    9.50
   0  -1 -12   16.40   13.70
   0   1  12   17.50    9.20
   0   1  12    8.60    7.00
   0   1  12   17.60    6.90
   0   1  12    2.80    5.50
   0   1  12   17.30    9.40
   0   1  12    9.30    5.30
  -1  -1 -12   25.10    8.70
  -1  -1 -12   14.20    6.40
  -1  -1 -12   22.40   11.50
  -1  -1 -12    4.20    6.60
   1   1  12   12.00    5.50
   1   1  12    2.60    5.70
   1   1  12   12.30    9.50
   1   1  12    6.50    5.70
   1   1  12  -14.00   14.70
  -2  -1 -12    1.60    7.10
  -2  -1 -12   -0.40    8.30
  -2  -1 -12   -7.20   12.90
   2   1  12   -5.60    6.70
   2   1  12   -0.20    4.50
   2   1  12    4.40   11.60
   2   1  12   11.50    7.80
   3  -2 -12    5.80    7.00
   3  -2 -12    2.40    7.70
   3  -2 -12   -0.30    6.20
   3  -2 -12   -7.20    8.50
  -3   2  12   -2.10   12.40
  -3   2  12    7.10    7.30
  -3   2  12   -5.60    4.20
  -3   2  12   -5.60    5.80
  -3   2  12    0.20    5.40
  -3   2  12   -0.20    5.40
   2  -2 -12   32.00    9.50
   2  -2 -12   14.20    8.20
   2  -2 -12    6.40    6.60
   2  -2 -12    8.00    8.30
  -2   2  12   19.70    7.60
  -2   2  12   12.20    7.10
  -2   2  12   16.00    5.40
  -2   2  12   26.90    8.60
  -2   2  12   19.90    7.90
  -2   2  12  -10.30    7.00
   1  -2 -12   -7.60    6.10
   1  -2 -12    2.70    7.20
   1  -2 -12  -12.00    6.50
  -1   2  12  -10.50    5.50
  -1   2  12   -3.00    5.00
  -1   2  12   -4.70    4.70
  -1   2  12    7.60    7.20
  -1   2  12   15.40    9.30
   0  -2 -12   -5.40    6.50
   0  -2 -12   -2.20    6.60
   0  -2 -12  -12.80    6.90
   0   2  12   -8.40    4.80
   0   2  12   -4.70   10.00
   0   2  12    8.40    7.30
   0   2  12    2.90    8.60
   0   2  12   -1.20    5.90
  -1  -2 -12    0.20    8.60
  -1  -2 -12   22.60    9.70
  -1  -2 -12   -4.80    7.50
  -1  -2 -12    1.60    8.70
   1   2  12  -11.80   10.70
   1   2  12   -3.30    7.10
   1   2  12   11.20    7.50
   1   2  12    0.00    5.30
   1   2  12   -2.50   11.30
   2  -3 -12   51.79   14.20
   2  -3 -12   71.59   12.90
   2  -3 -12  103.39   15.30
  -2   3  12   66.09   13.80
  -2   3  12   81.39   14.90
  -2   3  12   93.69   17.00
  -2   3  12   66.29   15.40
  -2   3  12   73.59   12.00
   1  -3 -12   29.30    9.60
   1  -3 -12   37.70   11.30
   1  -3 -12   25.10   12.30
  -1   3  12   54.89   12.70
  -1   3  12   53.99   15.90
  -1   3  12   13.40    9.90
  -1   3  12   39.60   10.90
  -1   3  12    9.40   11.20
   0  -3 -12    1.20    9.00
   0  -3 -12   23.20   13.90
   0  -3 -12    5.30    8.50
   0   3  12    0.50   10.40
   0   3  12    2.00    7.60
   0   3  12    3.90   10.10
   0   3  12  -10.60    5.60
   1  11 -13   16.80   10.30
   1  11 -13    2.10    8.50
  -1 -11  13   18.70    7.10
  -1 -11  13    0.20    6.30
  -1 -11  13   23.00    6.90
  -1 -11  13  -10.10   12.30
  -1 -11  13   19.10   12.30
   0  11 -13   22.10   10.60
   0  11 -13   52.39   11.60
   0 -11  13   35.00    8.80
   0 -11  13   11.40   13.80
   0 -11  13   58.89   15.10
   0 -11  13   35.90    7.20
   2  10 -13   -1.20   11.90
   2  10 -13    2.40    8.20
  -2 -10  13    3.80    5.30
  -2 -10  13    0.40    5.30
  -2 -10  13   -6.10    4.40
  -2 -10  13   11.90    9.40
  -2 -10  13  -10.60    9.70
   1  10 -13    0.70    7.20
   1  10 -13    2.30    8.20
  -1 -10  13   13.10    7.60
  -1 -10  13   17.30    6.30
  -1 -10  13   18.60   11.50
  -1 -10  13   31.30   11.00
   0  10 -13  143.19   17.80
   0  10 -13   93.69   16.60
   0 -10  13  106.49   15.60
   0 -10  13  164.48   22.80
   0 -10  13  119.89   19.10
  -1  10 -13   -2.10    8.30
  -1  10 -13   -1.00    4.80
  -1  10 -13   12.50    8.50
   1 -10  13    1.60    7.00
   1 -10  13  -15.50   15.90
   1 -10  13    0.90   12.40
   1 -10  13   10.90    7.40
   3   9 -13    8.70    7.20
   3   9 -13   -7.70   12.60
   3   9 -13    3.90    7.60
  -3  -9  13   28.20    8.60
  -3  -9  13   -2.00    4.40
  -3  -9  13    9.50    8.10
  -3  -9  13   -0.40    5.00
  -3  -9  13    1.40    5.30
   2   9 -13    2.80    9.90
   2   9 -13    3.60    6.80
  -2  -9  13  -12.60    8.90
  -2  -9  13   -3.20    6.30
  -2  -9  13    1.60    4.80
   1   9 -13   -1.60    6.40
   1   9 -13   -8.00    6.60
  -1  -9  13    5.90    5.40
  -1  -9  13   -2.70    5.40
  -1  -9  13    6.60    6.20
  -1  -9  13   -7.90    7.80
  -1  -9  13  -27.40   16.10
   0   9 -13   16.10    7.80
   0   9 -13   21.80    7.90
   0  -9  13   24.70    6.00
   0  -9  13   15.60    6.20
   0  -9  13   13.00   13.00
   0  -9  13   30.10   10.50
   0  -9  13   15.80    6.90
  -1   9 -13   16.00   12.80
  -1   9 -13   37.40    9.90
  -1   9 -13   44.50    7.30
   1  -9  13   18.60    6.20
   1  -9  13   62.29   13.30
   1  -9  13   19.60    8.20
   1  -9  13   20.00    8.40
  -2   9 -13   99.99   16.10
   2  -9  13   77.89   14.40
   3   8 -13   12.80   10.90
   3   8 -13   10.50    6.80
   3   8 -13   12.00    6.80
  -3  -8  13   -0.30    8.10
  -3  -8  13   -0.10    7.60
  -3  -8  13    0.70    4.70
  -3  -8  13    2.20    6.00
  -3  -8  13    5.60    5.00
   2   8 -13    4.40    8.90
   2   8 -13    0.20    6.50
  -2  -8  13   11.00    4.50
  -2  -8  13    1.70    4.70
  -2  -8  13   -7.90    6.80
  -2  -8  13    0.50    5.10
  -2  -8  13    1.20    9.10
   1   8 -13    6.40    6.00
   1   8 -13   -8.80    5.60
  -1  -8  13    2.20    4.40
  -1  -8  13   -5.40    7.10
  -1  -8  13    5.80    8.30
  -1  -8  13   -0.40    4.50
  -1  -8  13    8.80    5.80
   0   8 -13   -4.00    6.50
   0   8 -13    1.50    5.70
   0   8 -13    2.30    5.30
   0  -8  13    0.10    5.40
   0  -8  13   -2.60    7.50
   0  -8  13   -2.70    4.30
   0  -8  13    0.50    5.00
   0  -8  13    0.10    9.00
  -1   8 -13   14.00    7.00
  -1   8 -13   15.40    5.40
  -1   8 -13   17.80    7.30
   1  -8  13   11.10    7.20
   1  -8  13   -1.30    5.10
   1  -8  13   12.90    9.80
   1  -8  13    6.20    6.20
   1  -8  13   -3.70    9.60
  -2   8 -13   10.10    8.20
  -2   8 -13    1.20    6.20
  -2   8 -13  -28.70   13.40
   2  -8  13    2.10   16.20
   2  -8  13    0.40    4.80
   2  -8  13   -3.10   10.60
   2  -8  13    7.70    6.10
   2  -8  13    3.50    6.60
   2  -8  13   -0.90    6.50
   4   7 -13  117.29   19.60
   4   7 -13   99.79   16.30
   4   7 -13  138.89   14.70
  -4  -7  13  110.69   14.70
  -4  -7  13  100.79   13.00
  -4  -7  13  103.89   12.80
  -4  -7  13  103.49   12.80
   3   7 -13    3.30   10.20
   3   7 -13    7.20    6.00
   3   7 -13   -0.50    6.00
  -3  -7  13  -24.00    9.80
  -3  -7  13    1.60    5.80
  -3  -7  13   11.80    5.20
  -3  -7  13    1.30    7.20
   2   7 -13   -1.00    6.30
   2   7 -13   -7.20    8.60
  -2  -7  13    8.70    4.80
  -2  -7  13    1.00    6.10
  -2  -7  13   -0.80    4.40
  -2  -7  13    1.00    4.10
   1   7 -13   -1.90    5.60
   1   7 -13    3.70    5.40
  -1  -7  13    1.60    7.10
  -1  -7  13   -1.30    7.40
  -1  -7  13    5.50    5.00
  -1  -7  13   -1.60    4.30
  -1  -7  13   -4.90    4.60
   0   7 -13    5.60    6.80
   0   7 -13   -1.30    3.70
   0   7 -13    1.00    5.50
   0  -7  13    0.30    4.30
   0  -7  13    3.90    7.90
   0  -7  13   -7.40    4.40
   0  -7  13    3.70    4.90
   0  -7  13    2.20    4.30
  -1   7 -13   54.59   10.90
  -1   7 -13   86.59   14.40
  -1   7 -13   71.69    9.50
  -1   7 -13   70.59   11.80
   1  -7  13   46.60    9.70
   1  -7  13   75.39   12.40
   1  -7  13   52.89   10.60
   1  -7  13   43.40   10.00
   1  -7  13   45.00    8.80
  -2   7 -13   11.40    9.30
  -2   7 -13    4.60    5.70
  -2   7 -13    1.80    7.40
   2  -7  13    6.90    6.70
   2  -7  13   -0.80   10.40
   2  -7  13   -6.30    6.20
   2  -7  13   -3.60    4.50
   2  -7  13   -6.40    4.70
  -3   7 -13    7.40   10.60
  -3   7 -13    0.80    7.90
  -3   7 -13   -4.80    7.90
  -3   7 -13    7.80    7.20
   3  -7  13    3.40    5.90
   3  -7  13   -2.70    9.90
   3  -7  13   -6.60    7.30
   3  -7  13   -1.70    7.00
   4   6 -13   -1.50   10.00
   4   6 -13   -1.10   10.90
   4   6 -13   30.90   10.70
  -4  -6  13    9.40    6.50
  -4  -6  13    8.80    5.20
  -4  -6  13    6.10    5.30
  -4  -6  13   16.90    6.60
   3   6 -13   14.20   10.40
   3   6 -13    6.40    6.00
   3   6 -13   23.30    6.40
  -3  -6  13    4.60    5.20
  -3  -6  13   12.50    5.40
  -3  -6  13    4.80    6.90
  -3  -6  13    4.80    5.60
  -3  -6  13   12.40    5.10
   2   6 -13   11.20    8.30
   2   6 -13   16.10    6.80
  -2  -6  13   10.70    5.00
  -2  -6  13    6.10    4.70
  -2  -6  13   18.40    5.60
  -2  -6  13    7.60    4.70
   1   6 -13   11.20    6.40
   1   6 -13   10.60    5.40
  -1  -6  13   10.60    6.00
  -1  -6  13    4.70    4.90
  -1  -6  13   13.10    5.20
  -1  -6  13    7.30    4.50
   0   6 -13    7.20    7.70
   0   6 -13    6.50    6.10
   0   6 -13    3.80    5.50
   0   6 -13    6.60    4.60
   0  -6  13   10.40    6.00
   0  -6  13    7.40    4.60
   0  -6  13   14.10    6.60
   0  -6  13    3.20    4.10
  -1   6 -13    7.40    6.00
  -1   6 -13   11.80    4.70
  -1   6 -13   19.70    7.80
  -1   6 -13   -1.80    7.40
   1  -6  13    4.10    4.90
   1  -6  13    0.20    5.20
   1  -6  13   13.90    5.90
   1  -6  13    3.40    5.90
  -2   6 -13   12.00   10.10
  -2   6 -13    7.10    7.20
  -2   6 -13    8.20    6.10
   2  -6  13    1.60    4.90
   2  -6  13    0.50    4.10
   2  -6  13    2.80    6.80
   2  -6  13    8.50    6.30
  -3   6 -13    6.80    7.80
  -3   6 -13   10.10   11.50
  -3   6 -13   -5.40    7.60
  -3   6 -13   14.50    7.90
   3  -6  13   14.40    6.00
   3  -6  13   -0.20    7.70
   3  -6  13    8.20    5.40
   3  -6  13    4.00    7.30
   4   5 -13   23.90   12.80
   4   5 -13    3.20   17.80
  -4  -5  13    6.60    5.10
  -4  -5  13    8.00    6.20
  -4  -5  13   18.10    5.60
  -4  -5  13   24.40    7.20
   3   5 -13    9.30   10.50
   3   5 -13   12.10    6.00
   3   5 -13    6.10    6.00
  -3  -5  13    3.20    4.60
  -3  -5  13    5.90    5.10
  -3  -5  13    7.60    4.40
  -3  -5  13    5.10    6.40
   2   5 -13   -0.10    9.40
   2   5 -13    0.80    5.20
  -2  -5  13   -1.90    2.50
  -2  -5  13    4.20    4.20
  -2  -5  13    0.00    4.80
  -2  -5  13    3.60    4.40
  -2  -5  13   -6.60    3.60
   1   5 -13    6.30    6.10
   1   5 -13   16.50   12.50
   1   5 -13   12.30    6.00
  -1  -5  13   20.00    6.30
  -1  -5  13    9.90    5.50
  -1  -5  13    7.00    4.90
  -1  -5  13    7.70    5.90
  -1  -5  13    9.20    4.00
  -1  -5  13    7.90    4.70
   0   5 -13   14.40    7.60
   0   5 -13    9.10    7.70
   0   5 -13    6.00    5.90
   0   5 -13   15.10    4.80
   0  -5  13    9.70    7.30
   0  -5  13    8.60    5.00
   0  -5  13    2.50    8.10
   0  -5  13    5.20    4.60
   0  -5  13    6.40    5.30
   0  -5  13   16.30    5.60
   0  -5  13    8.60    4.40
  -1   5 -13   -1.20    4.80
  -1   5 -13    2.40    6.20
  -1   5 -13    3.20    7.80
  -1   5 -13    2.80    6.00
   1  -5  13   -5.60    4.60
   1  -5  13   -2.40    5.20
   1  -5  13    0.80    4.50
   1  -5  13   -4.60    4.10
   1  -5  13   10.60    8.70
   1  -5  13    1.00    5.00
   1  -5  13    6.90    7.70
  -2   5 -13   -1.10    6.60
  -2   5 -13   -7.40    5.20
  -2   5 -13   11.40    9.30
   2  -5  13    6.20    9.40
   2  -5  13    5.40    7.00
   2  -5  13   -7.40    5.00
   2  -5  13    0.30    4.50
   2  -5  13    0.40    4.40
  -3   5 -13    1.20    7.10
  -3   5 -13    1.00    7.00
  -3   5 -13   14.10   11.80
  -3   5 -13    1.20    6.80
   3  -5  13   16.30    8.10
   3  -5  13    7.80    5.70
   3  -5  13   -3.60    6.60
   3  -5  13   -0.90    5.20
   4   4 -13   -5.30    9.10
   4   4 -13   -2.90    7.40
  -4  -4  13   -1.00    3.50
  -4  -4  13    5.80    4.90
  -4  -4  13    2.70    4.70
  -4  -4  13    8.40    6.80
   3   4 -13    6.20    8.50
   3   4 -13   -4.00    5.40
   3   4 -13   -3.30    5.30
  -3  -4  13   -2.40    4.20
  -3  -4  13    1.60    4.40
  -3  -4  13    0.20    4.10
  -3  -4  13    1.60    4.30
  -3  -4  13    9.90    5.00
  -3  -4  13    1.60    3.50
   2   4 -13   36.70    8.30
   2   4 -13   43.50   11.90
  -2  -4  13   41.80    8.20
  -2  -4  13   50.19    9.60
  -2  -4  13   26.00    8.00
  -2  -4  13   39.00    7.30
  -2  -4  13   38.10    7.90
  -2  -4  13   52.29    6.70
   1   4 -13   13.30    6.10
   1   4 -13   13.20    9.40
   1   4 -13   12.50    5.90
  -1  -4  13   11.40    5.70
  -1  -4  13    4.50    4.70
  -1  -4  13   10.10    5.80
  -1  -4  13   12.10    5.40
  -1  -4  13   31.30    8.20
  -1  -4  13   17.60    6.60
   0   4 -13    5.30    4.90
   0   4 -13    0.50    5.90
   0   4 -13    1.90    7.40
   0   4 -13   -0.90    5.90
   0  -4  13   -1.80    4.60
   0  -4  13   11.30    5.60
   0  -4  13    6.10    7.60
   0  -4  13    5.00    4.60
   0  -4  13   -4.50    4.20
   0  -4  13   -0.80    4.30
   0  -4  13    5.20    6.70
  -1   4 -13   18.60    5.90
  -1   4 -13   26.50    8.60
  -1   4 -13   21.70    9.10
  -1   4 -13    2.30    6.20
   1  -4  13   10.50    7.70
   1  -4  13    8.40    5.80
   1  -4  13   18.10    9.40
   1  -4  13    9.50    5.50
   1  -4  13    2.50    5.00
   1  -4  13    9.50    5.20
   1  -4  13   10.10    6.10
  -2   4 -13    8.30    7.10
  -2   4 -13   -2.20    5.50
  -2   4 -13   23.10   10.40
   2  -4  13   14.00    6.90
   2  -4  13    7.80    8.90
   2  -4  13    8.90    7.50
   2  -4  13   37.60   13.00
   2  -4  13    1.90    4.60
   2  -4  13   11.80   10.50
   2  -4  13    7.30    6.30
  -3   4 -13   11.10    8.10
  -3   4 -13    1.50    6.80
  -3   4 -13   -4.60    7.50
  -3   4 -13   15.20   12.10
   3  -4  13  -14.10    6.60
   3  -4  13   -4.60    4.90
   3  -4  13   10.30    7.60
   4   3 -13    2.50    7.70
   4   3 -13    2.90    6.70
   4   3 -13   10.10    9.40
  -4  -3  13   -1.40    6.00
  -4  -3  13    2.00    5.30
  -4  -3  13    2.00    4.80
  -4  -3  13   11.20    5.20
  -4  -3  13    5.50    6.20
   3   3 -13   37.40   11.70
   3   3 -13   20.20    6.90
  -3  -3  13   29.40    8.60
  -3  -3  13   16.80    7.00
  -3  -3  13   32.40    7.10
  -3  -3  13   36.00    7.60
  -3  -3  13   27.30    8.80
  -3  -3  13   12.60    5.80
  -3  -3  13   23.50    6.30
   2   3 -13   -8.70    7.50
   2   3 -13   10.70    6.00
  -2  -3  13    1.10    6.10
  -2  -3  13   -2.80    4.70
  -2  -3  13    0.60    4.70
  -2  -3  13   -6.00    4.00
  -2  -3  13    3.00    5.30
  -2  -3  13   -3.60    3.80
  -2  -3  13    8.20    4.40
   1   3 -13   14.50    7.10
   1   3 -13    3.00    5.40
   1   3 -13   -5.30    6.90
  -1  -3  13   -0.50    4.80
  -1  -3  13   -0.70    5.40
  -1  -3  13    1.50    4.60
  -1  -3  13    1.50    4.80
  -1  -3  13    1.90    4.50
  -1  -3  13    2.00    4.50
  -1  -3  13   11.10    7.10
   0   3 -13    2.80    6.00
   0   3 -13   -4.90    5.20
   0   3 -13   -2.00    7.70
   0   3 -13    2.50    5.20
   0  -3  13   13.90    7.70
   0  -3  13   -2.40    6.30
   0  -3  13    1.10    4.90
   0  -3  13   -2.30    4.20
   0  -3  13   -6.10    5.00
   0  -3  13    7.20    5.00
   0  -3  13   10.80    8.10
  -1   3 -13    0.50    6.00
  -1   3 -13    3.90    6.40
  -1   3 -13   -2.60    4.60
  -1   3 -13    0.40    8.70
   1  -3  13    4.80    5.10
   1  -3  13    8.40    6.30
   1  -3  13   10.70    7.60
   1  -3  13    4.00    6.00
   1  -3  13    0.00    8.10
   1  -3  13   -0.60    5.30
   1  -3  13    8.70    4.80
  -2   3 -13    3.00   10.00
  -2   3 -13    9.50    6.20
  -2   3 -13   -1.40    7.10
  -2   3 -13   -0.20    7.20
   2  -3  13  -13.50    5.60
   2  -3  13    5.70    5.10
   2  -3  13    7.60    6.30
   2  -3  13   12.80   10.70
   2  -3  13   26.50   16.70
   2  -3  13    1.50    6.70
   4   2 -13   -1.60    6.00
   4   2 -13    1.00    8.80
   4   2 -13   -0.70    6.80
  -4  -2  13   -0.50    5.20
  -4  -2  13   -0.50    5.00
  -4  -2  13    4.70    5.20
  -4  -2  13   -0.50    5.40
  -4  -2  13    2.40    6.40
  -4  -2  13   -0.40    5.70
  -4  -2  13   -3.80    4.50
   3   2 -13   83.89   17.70
   3   2 -13   95.89   12.30
  -3  -2  13   66.49   11.00
  -3  -2  13   70.29   10.50
  -3  -2  13   77.69   11.20
  -3  -2  13   96.59   18.40
  -3  -2  13   78.19   15.00
  -3  -2  13   80.19   11.90
  -3  -2  13   58.49   12.00
   2   2 -13    7.20    6.10
   2   2 -13    1.90    9.10
   2   2 -13    1.10    5.90
  -2  -2  13   10.10    5.50
  -2  -2  13    2.70    5.00
  -2  -2  13   14.70    5.60
  -2  -2  13    3.10    4.80
  -2  -2  13   21.30    6.00
  -2  -2  13    6.90    4.80
  -2  -2  13    4.80    6.80
   1   2 -13    1.60    6.90
   1   2 -13    1.40    5.60
   1   2 -13    9.10    6.20
  -1  -2  13    0.30    4.00
  -1  -2  13    1.90    4.80
  -1  -2  13    4.10    6.10
  -1  -2  13   -0.70    5.20
  -1  -2  13    2.90    5.00
  -1  -2  13   -2.30    3.70
   0   2 -13   65.49   12.10
   0   2 -13   52.69    9.40
   0   2 -13   57.49   11.90
   0  -2  13   59.39   11.00
   0  -2  13   54.99   11.70
   0  -2  13   60.29    9.60
   0  -2  13   59.89   10.70
   0  -2  13   46.50   10.00
   0  -2  13   60.19   11.50
  -1   2 -13    1.60    5.60
  -1   2 -13   16.60   10.90
  -1   2 -13   16.70    7.20
   1  -2  13   25.70   10.70
   1  -2  13   13.50    5.60
   1  -2  13   10.40    8.50
   1  -2  13   -7.30    5.70
   1  -2  13   10.90    6.70
   1  -2  13    6.70    4.90
   1  -2  13    7.00    7.30
  -2   2 -13    9.80    7.40
  -2   2 -13  -15.50   10.50
  -2   2 -13    0.20    7.50
  -2   2 -13    2.70    7.60
   2  -2  13   -7.40   15.20
   2  -2  13   -1.30    4.60
   2  -2  13   -0.90    7.70
   2  -2  13    1.20    6.00
   4   1 -13   -2.40    8.10
   4   1 -13   -3.00    6.50
   4   1 -13   -6.10    7.00
  -4  -1  13   14.20    5.90
  -4  -1  13    2.30    5.30
  -4  -1  13   15.20    7.40
  -4  -1  13   11.20    7.10
  -4  -1  13   -7.00    4.90
  -4  -1  13   -2.50    4.60
  -4  -1  13   -4.70    6.00
   3   1 -13   -1.50    9.20
   3   1 -13    9.30   12.10
  -3  -1  13    2.90    4.70
  -3  -1  13   -3.70    5.40
  -3  -1  13    1.10    6.90
  -3  -1  13   -0.30    5.10
  -3  -1  13    5.20    6.00
   2   1 -13    1.30    8.20
   2   1 -13    0.30    6.10
   2   1 -13   -1.30    5.50
  -2  -1  13    0.60    5.30
  -2  -1  13   -7.70    4.30
  -2  -1  13    4.30    5.20
  -2  -1  13   -1.90    6.10
  -2  -1  13   -5.70    4.00
  -2  -1  13    4.60    5.50
  -2  -1  13   -9.80    6.30
   1   1 -13    2.60    8.30
   1   1 -13    5.50    6.70
   1   1 -13    9.60    6.60
  -1  -1  13    3.10    5.00
  -1  -1  13   -3.20    6.00
  -1  -1  13    2.70    8.70
  -1  -1  13    2.40    4.80
  -1  -1  13    3.60    5.50
  -1  -1  13    0.20    7.00
   0   1 -13   54.29   10.50
   0   1 -13   57.29   11.60
   0   1 -13   45.10   13.60
   0  -1  13   53.59   13.00
   0  -1  13   60.89   12.20
   0  -1  13   55.79   11.50
   0  -1  13   35.60    7.50
   0  -1  13   40.00   10.30
   0  -1  13   55.19   12.00
   0  -1  13   34.80    8.10
  -1   1 -13   -7.70    6.20
  -1   1 -13    0.10    6.60
  -1   1 -13   -2.40    7.20
   1  -1  13    7.00    7.80
   1  -1  13    2.20    4.60
   1  -1  13   -0.50    5.70
   1  -1  13   -5.50    5.80
   1  -1  13   -6.10    9.50
  -2   1 -13    5.10    6.70
  -2   1 -13   -9.90    6.90
  -2   1 -13   -0.40    8.80
  -2   1 -13    9.90   19.70
   2  -1  13    6.50    7.30
   2  -1  13    5.10    5.50
   2  -1  13    2.60    6.90
   2  -1  13  -12.40   11.30
   3   0 -13    3.50    9.80
   3   0 -13   -7.50    7.10
   3   0 -13  -10.30   10.00
  -3   0  13    3.80    5.40
  -3   0  13   24.10    7.60
  -3   0  13    0.90    5.90
  -3   0  13   13.40    6.10
  -3   0  13   -1.90    4.40
  -3   0  13    9.40    4.90
   2   0 -13   28.00   11.10
   2   0 -13    4.20    8.90
   2   0 -13   20.60    7.90
  -2   0  13    6.60    7.60
  -2   0  13   17.30    6.80
  -2   0  13   15.40   10.20
  -2   0  13   16.00    7.70
  -2   0  13   21.20    5.90
   1   0 -13    2.30    7.40
   1   0 -13    0.10    6.90
  -1   0  13    2.30    4.70
  -1   0  13   -4.70    4.70
  -1   0  13   -6.80    8.20
  -1   0  13   -4.10    4.90
  -1   0  13   -4.00    6.60
  -1   0  13   -9.70    7.50
  -1   0  13   -0.50    5.60
   0   0 -13   27.70    8.60
   0   0 -13   23.90    9.10
   0   0 -13   11.10    8.30
   0   0  13   22.70    7.50
   0   0  13   11.60    6.90
   0   0  13   24.00    9.60
   0   0  13   26.00    8.80
   0   0  13   11.90    5.20
   0   0  13   10.50    9.70
   0   0  13   14.10    8.40
  -1   0 -13    9.30    8.80
  -1   0 -13   -2.10    6.50
  -1   0 -13    4.60    7.50
   1   0  13    0.00    7.00
   1   0  13   -9.10   10.80
   1   0  13   -7.90    6.70
   1   0  13    6.60    5.60
   1   0  13   16.60   12.00
   3  -1 -13    1.70    7.80
   3  -1 -13   -0.20    8.00
   3  -1 -13    7.00    8.20
  -3   1  13    7.90    6.20
  -3   1  13    6.50    7.90
  -3   1  13   -1.00    8.90
  -3   1  13    5.30    4.90
  -3   1  13   -3.50    5.80
  -3   1  13    9.70    7.10
  -3   1  13    0.00    8.20
   2  -1 -13   -0.40    6.80
   2  -1 -13    4.10    7.40
   2  -1 -13   -4.20    7.70
  -2   1  13   -0.10    5.60
  -2   1  13    0.90    5.00
  -2   1  13  -14.90    7.60
  -2   1  13    1.40   11.80
  -2   1  13    2.40    9.20
  -2   1  13    1.60    7.10
  -2   1  13    5.70    5.90
   1  -1 -13  201.18   25.40
   1  -1 -13  209.38   24.20
   1  -1 -13  175.28   25.10
  -1   1  13  238.98   25.40
  -1   1  13  220.98   27.40
  -1   1  13  244.68   21.70
  -1   1  13  272.77   27.20
  -1   1  13  235.58   27.10
   0  -1 -13    1.10    8.00
   0  -1 -13   -8.80    8.20
   0  -1 -13    0.00    7.70
   0   1  13   -2.80    6.40
   0   1  13    1.60    5.20
   0   1  13   -9.90   11.40
   0   1  13   -1.10    9.60
   1   9 -14   14.60    7.80
   1   9 -14   -0.80    8.20
  -1  -9  14    4.00    6.00
  -1  -9  14    7.50    6.20
  -1  -9  14    0.40   10.00
  -1  -9  14  -26.90   10.40
  -1  -9  14   -3.00    4.80
   0   9 -14   10.40    8.70
   0   9 -14    1.20    7.90
   0  -9  14  -11.80   10.80
   0  -9  14   -4.30    6.60
   0  -9  14   -2.30    4.80
   2   8 -14    4.00    9.80
   2   8 -14   -6.30    7.50
  -2  -8  14   -1.40    5.00
  -2  -8  14   20.80    9.60
  -2  -8  14   -4.80    5.10
  -2  -8  14    3.80    5.40
  -2  -8  14    2.50    5.30
  -2  -8  14   -4.50    8.50
   1   8 -14    3.10    7.20
   1   8 -14  -16.10    7.00
  -1  -8  14  -13.60   10.10
  -1  -8  14   -1.10    5.40
  -1  -8  14    3.00    4.60
  -1  -8  14   -0.40   10.40
   0   8 -14   -1.20    7.50
   0   8 -14   -0.60    7.70
   0  -8  14   -5.10   10.10
   0  -8  14  -22.60   12.40
   0  -8  14   -4.00    5.80
   0  -8  14   -6.50    4.90
   0  -8  14    4.00    5.90
  -1   8 -14   12.60    9.00
  -1   8 -14   30.30    6.90
  -1   8 -14   33.30   10.30
   1  -8  14   11.60   17.90
   1  -8  14   -0.70    7.00
   1  -8  14   13.90    7.00
   1  -8  14   21.80   14.70
   1  -8  14   32.00   14.50
   1  -8  14   14.90    6.50
   3   7 -14  -13.90   11.30
   3   7 -14    5.80    7.30
   3   7 -14   -2.00    7.80
  -3  -7  14   -7.60    5.60
  -3  -7  14    8.40    8.30
  -3  -7  14    6.80    5.10
  -3  -7  14   -2.70    5.40
  -3  -7  14   -8.00    7.90
  -3  -7  14   -0.30    5.00
   2   7 -14   27.60   14.90
   2   7 -14   36.50    8.90
  -2  -7  14   28.80    7.60
  -2  -7  14   22.10    9.70
  -2  -7  14    6.00    5.90
  -2  -7  14   10.80    7.00
  -2  -7  14   18.10   10.00
  -2  -7  14   20.40    6.10
   1   7 -14   -7.00    9.00
   1   7 -14   -8.70    6.80
   1   7 -14   -5.80    6.60
  -1  -7  14   -0.50    5.60
  -1  -7  14   -6.60   14.20
  -1  -7  14   -7.00    4.20
   0   7 -14  -12.10    6.40
   0   7 -14    9.20    7.00
   0   7 -14   -2.40    4.60
   0  -7  14    3.30    7.20
   0  -7  14   -4.30    4.90
   0  -7  14   -4.70    5.10
   0  -7  14   18.20   10.10
   0  -7  14  -12.80    7.00
  -1   7 -14    4.30    7.40
  -1   7 -14    4.20    5.70
   1  -7  14   -1.00    5.30
   1  -7  14    3.30    5.30
   1  -7  14   -6.10    6.30
   1  -7  14   -0.90    6.80
   3   6 -14    4.80   10.70
   3   6 -14  -14.40    6.80
   3   6 -14   10.70    7.30
  -3  -6  14   -3.40    4.90
  -3  -6  14   -4.10    4.80
  -3  -6  14    1.60    8.30
  -3  -6  14   -2.20    7.00
  -3  -6  14    1.70    4.90
  -3  -6  14    1.50    4.90
   2   6 -14   51.89   10.20
   2   6 -14   33.00   11.40
  -2  -6  14   54.09   12.80
   1   6 -14    9.30    7.20
   1   6 -14   19.80   11.00
   1   6 -14   13.50    7.80
  -1  -6  14   14.40   11.90
  -1  -6  14   -3.50    4.50
  -1  -6  14   13.40    6.30
   0   6 -14   -0.80    6.40
   0   6 -14   -7.90    6.40
   0   6 -14    5.70    4.70
   0  -6  14    8.10    6.00
   0  -6  14   -0.10    5.10
   0  -6  14    9.60    6.70
  -1   6 -14   12.50    7.90
  -1   6 -14    5.20    7.20
   1  -6  14   10.20    6.30
   1  -6  14   -3.80    5.00
   1  -6  14   -6.00    5.20
   1  -6  14   -1.50    6.30
  -2   6 -14    5.10    7.40
  -2   6 -14   15.00   10.10
  -2   6 -14   -2.10    7.60
   2  -6  14   -5.20    7.50
   2  -6  14   13.20    6.20
   2  -6  14    7.30    7.40
   2  -6  14    4.50    6.00
   3   5 -14    0.50    9.90
   3   5 -14   -1.70    6.20
   3   5 -14    1.30    8.20
  -3  -5  14   -2.10    4.90
  -3  -5  14   -1.50    4.80
  -3  -5  14   -5.20    4.60
  -3  -5  14   -3.50    7.40
   2   5 -14    0.30    9.20
   2   5 -14    5.80    6.80
  -2  -5  14    6.80    7.80
  -2  -5  14    7.70    7.30
  -2  -5  14    4.90    3.70
   1   5 -14   40.90   13.70
   1   5 -14   33.80    8.70
   1   5 -14   14.50    7.90
  -1  -5  14   11.50    6.30
  -1  -5  14   34.00    8.30
  -1  -5  14   27.60    8.00
  -1  -5  14   20.20    8.60
  -1  -5  14   27.80    7.60
  -1  -5  14   37.20   10.20
   0   5 -14    2.10    5.20
   0   5 -14   18.00    7.80
   0   5 -14    9.80    7.50
   0  -5  14    2.70    5.40
   0  -5  14    0.00    5.30
   0  -5  14    3.30    5.60
   0  -5  14  -11.20    9.20
   0  -5  14   -1.80    5.00
  -1   5 -14    9.40   13.10
  -1   5 -14    5.70    6.90
  -1   5 -14    4.90    6.00
   1  -5  14   10.40    7.10
   1  -5  14    3.60    9.70
   1  -5  14   -1.10    4.80
   1  -5  14   -2.20    6.60
   1  -5  14   13.40    5.90
   1  -5  14    1.40    6.50
  -2   5 -14    0.30    8.40
  -2   5 -14    3.30    7.10
  -2   5 -14   -3.40    8.90
   2  -5  14    3.80    8.20
   2  -5  14   -4.50   12.40
   2  -5  14    6.30    5.80
   2  -5  14   -2.80    5.60
   2  -5  14    5.80    7.70
   2  -5  14   12.60    8.50
   3   4 -14   11.30   10.00
   3   4 -14   12.60    7.50
  -3  -4  14   21.90    6.90
  -3  -4  14    8.40    4.90
  -3  -4  14    8.70    5.90
  -3  -4  14    6.60    6.90
  -3  -4  14    9.30    5.60
   2   4 -14   10.00   10.10
   2   4 -14   11.50    7.50
  -2  -4  14    9.20    8.30
  -2  -4  14   -0.80    4.90
  -2  -4  14   16.70    6.50
  -2  -4  14   18.50    8.20
  -2  -4  14    7.10    7.50
   1   4 -14    3.90    9.00
   1   4 -14    1.90    6.30
   1   4 -14   -2.60    6.80
  -1  -4  14    2.80    5.60
  -1  -4  14    0.20    6.70
  -1  -4  14    2.00    5.20
  -1  -4  14   -4.20    4.60
  -1  -4  14    0.40    4.80
  -1  -4  14   -6.80    7.70
  -1  -4  14   -0.20    4.80
   0   4 -14    5.30    6.50
   0   4 -14   -1.00    5.90
   0   4 -14    9.50    7.80
   0  -4  14   -1.00    6.00
   0  -4  14    8.20    6.40
   0  -4  14    3.50    9.10
   0  -4  14    4.60    6.20
   0  -4  14    9.50    9.10
   0  -4  14    5.70    5.80
  -1   4 -14   23.90    8.60
  -1   4 -14    7.10    6.60
  -1   4 -14    9.50    8.60
   1  -4  14    5.70    6.80
   1  -4  14    7.10    6.30
   1  -4  14   12.30    5.80
   1  -4  14   25.50   10.80
   1  -4  14    8.50    6.30
   3   3 -14   19.00    7.70
   3   3 -14   16.10   10.60
  -3  -3  14   17.70    6.80
  -3  -3  14   11.80    8.00
  -3  -3  14   15.60    6.10
  -3  -3  14    6.40    6.30
  -3  -3  14   26.10    7.20
  -3  -3  14   22.70    7.50
  -3  -3  14   17.90    6.50
   2   3 -14    6.70    9.80
   2   3 -14   10.40    7.90
   2   3 -14   18.00    7.60
  -2  -3  14   10.30    7.90
  -2  -3  14   -2.50    6.40
  -2  -3  14    3.50    7.00
  -2  -3  14   18.10    6.10
  -2  -3  14   -0.20    5.30
  -2  -3  14    6.30    5.90
   1   3 -14   10.10    7.10
   1   3 -14   10.70    8.50
   1   3 -14    2.00    7.50
  -1  -3  14   17.80    9.90
  -1  -3  14    7.90    6.60
  -1  -3  14    6.90    8.40
  -1  -3  14    5.90    5.20
  -1  -3  14   26.20    8.20
  -1  -3  14   13.00    6.70
  -1  -3  14    7.90    6.10
   0   3 -14   12.30    7.10
   0   3 -14    6.10    7.30
   0   3 -14   14.70    8.00
   0  -3  14   13.10   10.50
   0  -3  14    2.60    6.00
   0  -3  14   14.10    8.60
   0  -3  14    7.40    6.70
   0  -3  14    7.70    6.20
   0  -3  14    8.20    6.90
  -1   3 -14   29.60   10.50
  -1   3 -14   29.10    9.00
  -1   3 -14   38.30    9.60
   1  -3  14   29.70    9.00
   1  -3  14   29.50    8.80
   1  -3  14   47.50   12.50
   1  -3  14   25.20    8.80
   1  -3  14   35.60    7.90
   1  -3  14   21.60    8.60
   1  -3  14   66.29   15.50
   3   2 -14   -1.80    7.70
   3   2 -14   17.90    7.80
  -3  -2  14    0.70    6.00
  -3  -2  14    3.20    5.40
  -3  -2  14   -4.90    5.80
  -3  -2  14   -1.20    7.00
  -3  -2  14   -3.00    5.40
  -3  -2  14    0.40    7.50
  -3  -2  14   -2.70    6.00
   2   2 -14   29.70    9.20
   2   2 -14   20.20    8.80
   2   2 -14   18.40    8.90
  -2  -2  14   28.80    9.90
  -2  -2  14   30.50    8.50
  -2  -2  14   26.90    8.10
  -2  -2  14   30.50    8.70
  -2  -2  14   13.50    6.00
  -2  -2  14   20.70    9.10
  -2  -2  14   18.20    7.10
   1   2 -14   24.60   10.70
   1   2 -14   44.90   11.00
   1   2 -14   18.70    9.30
  -1  -2  14   34.50    9.90
  -1  -2  14   28.60    9.70
  -1  -2  14   45.20   12.90
  -1  -2  14   37.20   10.10
  -1  -2  14   30.80    9.20
   0   2 -14   23.60    9.10
   0   2 -14   12.00    9.80
   0   2 -14   22.10    9.00
   0  -2  14   32.30    7.00
   0  -2  14   43.80   13.70
   0  -2  14   26.20   11.30
   0  -2  14   26.30    8.20
   0  -2  14    5.40    6.00
   0  -2  14   23.00   11.10
   0  -2  14   23.00    9.00
  -1   2 -14    0.40    7.00
  -1   2 -14    0.70    8.20
  -1   2 -14    5.20    8.60
   1  -2  14    6.20    7.30
   1  -2  14    5.30    9.20
   1  -2  14    6.50    5.90
   1  -2  14   15.20   13.90
   1  -2  14  -25.70    9.90
   1  -2  14   13.00    7.50
   2   1 -14    6.40    8.20
   2   1 -14   -6.80   12.40
   2   1 -14    7.00    8.50
  -2  -1  14    0.90    5.50
  -2  -1  14    0.70    6.20
  -2  -1  14   -9.50    8.80
  -2  -1  14   10.10    7.10
  -2  -1  14   -4.80    6.40
  -2  -1  14    9.60    9.90
   1   1 -14    2.60    8.60
   1   1 -14    1.60   12.00
   1   1 -14   -4.50    8.30
  -1  -1  14   -0.60    8.10
  -1  -1  14   -9.10    8.10
  -1  -1  14   -5.80    6.70
  -1  -1  14   -6.40    5.80
  -1  -1  14    1.10    9.90
   0   1 -14   18.70    9.90
   0   1 -14    4.90    8.70
   0   1 -14   23.30   10.50
   0  -1  14   44.40   13.60
   0  -1  14   30.30   13.70
   0  -1  14   -8.80    9.70
   0  -1  14   17.60    6.00
   0  -1  14   23.90    9.00
   0  -1  14   31.00    8.00
   1   6 -15    3.00    8.90
   1   6 -15    3.20    9.60
  -1  -6  15    1.70    6.10
   1   5 -15    5.20    8.60
   1   5 -15    0.70    9.90
   1   5 -15    2.50    9.00
  -1  -5  15    1.00    6.00
  -1  -5  15   -0.90    9.40
  -1  -5  15   -1.20    5.40
  -1  -5  15    0.80    6.20
  -1  -5  15   -2.50    5.90
  -1  -5  15   -5.10    5.70
   0   0   0    0.00    0.00

_computing_structure_solution     'SHELXT 2014/5 (Sheldrick, 2014)'
;
_shelx_hkl_checksum              16613
loop_
_space_group_symop_operation_xyz
'x, y, z'
'-x, -y, -z'
loop_
_atom_site_label
_atom_site_type_symbol
_atom_site_fract_x
_atom_site_fract_y
_atom_site_fract_z
_atom_site_U_iso_or_equiv
_atom_site_adp_type
_atom_site_occupancy
_atom_site_site_symmetry_order
_atom_site_calc_flag
_atom_site_refinement_flags_posn
_atom_site_refinement_flags_adp
_atom_site_refinement_flags_occupancy
_atom_site_disorder_assembly
_atom_site_disorder_group
F1 F 0.24202(19) -0.00849(12) 0.03561(10) 0.0338(3) Uani 1 1 d . . . . .
N1 N 0.6515(2) 0.33303(14) 0.58471(14) 0.0205(3) Uani 1 1 d . . . . .
N2 N 0.6131(2) 0.39279(15) 0.79974(14) 0.0212(3) Uani 1 1 d . . . . .
C1 C 0.7186(3) 0.39978(17) 0.70932(16) 0.0188(4) Uani 1 1 d . . . . .
C2 C 0.4604(3) 0.25589(17) 0.55022(16) 0.0192(4) Uani 1 1 d . . . . .
C3 C 0.3298(3) 0.24084(17) 0.63929(16) 0.0200(4) Uani 1 1 d . . . . .
C4 C 0.1265(3) 0.15848(18) 0.60935(18) 0.0228(4) Uani 1 1 d . . . . .
H4 H 0.066413 0.110357 0.524827 0.027 Uiso 1 1 calc R U . . .
C5 C 0.0163(3) 0.14787(18) 0.70148(18) 0.0237(4) Uani 1 1 d . . . . .
H5 H -0.120363 0.092392 0.680571 0.028 Uiso 1 1 calc R U . . .
C6 C 0.1032(3) 0.21837(18) 0.82719(18) 0.0247(4) Uani 1 1 d . . . . .
H6 H 0.025475 0.209306 0.890327 0.030 Uiso 1 1 calc R U . . .
C7 C 0.2988(3) 0.29995(18) 0.85932(17) 0.0228(4) Uani 1 1 d . . . . .
H7 H 0.354994 0.348225 0.944395 0.027 Uiso 1 1 calc R U . . .
C8 C 0.4167(3) 0.31220(17) 0.76603(17) 0.0205(4) Uani 1 1 d . . . . .
C9 C 0.9300(3) 0.48854(17) 0.74369(16) 0.0192(4) Uani 1 1 d . . . . .
C10 C 1.0507(3) 0.49797(18) 0.65184(17) 0.0220(4) Uani 1 1 d . . . . .
H10 H 0.996047 0.448080 0.566853 0.026 Uiso 1 1 calc R U . . .
C11 C 1.2498(3) 0.57941(18) 0.68332(18) 0.0246(4) Uani 1 1 d . . . . .
H11 H 1.330215 0.585984 0.620159 0.030 Uiso 1 1 calc R U . . .
C12 C 1.3309(3) 0.65114(18) 0.80720(18) 0.0244(4) Uani 1 1 d . . . . .
H12 H 1.468279 0.706092 0.829140 0.029 Uiso 1 1 calc R U . . .
C13 C 1.2118(3) 0.64287(18) 0.89925(18) 0.0253(4) Uani 1 1 d . . . . .
H13 H 1.267216 0.693006 0.984099 0.030 Uiso 1 1 calc R U . . .
C14 C 1.0125(3) 0.56186(18) 0.86818(17) 0.0222(4) Uani 1 1 d . . . . .
H14 H 0.932038 0.556258 0.931668 0.027 Uiso 1 1 calc R U . . .
C15 C 0.3955(3) 0.18432(17) 0.41396(16) 0.0199(4) Uani 1 1 d . . . . .
C16 C 0.1955(3) 0.19952(18) 0.35278(17) 0.0233(4) Uani 1 1 d . . . . .
H16 H 0.093844 0.254273 0.399134 0.028 Uiso 1 1 calc R U . . .
C17 C 0.1426(3) 0.13568(18) 0.22479(17) 0.0245(4) Uani 1 1 d . . . . .
H17 H 0.007799 0.147582 0.182584 0.029 Uiso 1 1 calc R U . . .
C18 C 0.2913(3) 0.05472(18) 0.16096(16) 0.0241(4) Uani 1 1 d . . . . .
C19 C 0.4893(3) 0.03618(18) 0.21761(17) 0.0249(4) Uani 1 1 d . . . . .
H19 H 0.587822 -0.020891 0.170825 0.030 Uiso 1 1 calc R U . . .
C20 C 0.5418(3) 0.10286(18) 0.34485(17) 0.0230(4) Uani 1 1 d . . . . .
H20 H 0.679751 0.092858 0.385606 0.028 Uiso 1 1 calc R U . . .
loop_
_atom_site_aniso_label
_atom_site_aniso_U_11
_atom_site_aniso_U_22
_atom_site_aniso_U_33
_atom_site_aniso_U_23
_atom_site_aniso_U_13
_atom_site_aniso_U_12
F1 0.0320(6) 0.0407(7) 0.0182(6) 0.0015(5) -0.0012(5) -0.0016(5)
N1 0.0187(7) 0.0196(8) 0.0209(8) 0.0061(6) 0.0000(6) 0.0005(6)
N2 0.0184(7) 0.0222(8) 0.0209(8) 0.0066(6) 0.0008(6) 0.0013(6)
C1 0.0187(8) 0.0180(9) 0.0187(9) 0.0063(7) 0.0001(7) 0.0028(7)
C2 0.0185(8) 0.0154(8) 0.0227(9) 0.0065(7) 0.0001(7) 0.0045(7)
C3 0.0193(8) 0.0173(9) 0.0225(9) 0.0070(7) 0.0014(7) 0.0020(7)
C4 0.0219(9) 0.0192(9) 0.0238(9) 0.0056(7) -0.0005(7) 0.0013(7)
C5 0.0197(9) 0.0190(9) 0.0304(10) 0.0078(8) 0.0027(7) 0.0003(7)
C6 0.0232(9) 0.0242(10) 0.0278(10) 0.0102(8) 0.0072(8) 0.0035(7)
C7 0.0216(9) 0.0239(10) 0.0211(9) 0.0064(8) 0.0030(7) 0.0036(7)
C8 0.0171(8) 0.0187(9) 0.0245(9) 0.0071(7) 0.0016(7) 0.0034(7)
C9 0.0176(8) 0.0184(9) 0.0209(9) 0.0074(7) 0.0004(7) 0.0020(7)
C10 0.0223(9) 0.0224(9) 0.0196(9) 0.0066(7) 0.0013(7) 0.0020(7)
C11 0.0222(9) 0.0238(10) 0.0295(10) 0.0120(8) 0.0052(8) 0.0010(7)
C12 0.0183(8) 0.0202(9) 0.0325(11) 0.0087(8) 0.0006(7) -0.0014(7)
C13 0.0225(9) 0.0229(9) 0.0243(10) 0.0039(8) -0.0026(7) 0.0004(7)
C14 0.0206(9) 0.0226(9) 0.0218(9) 0.0068(8) 0.0021(7) 0.0023(7)
C15 0.0198(8) 0.0165(9) 0.0220(9) 0.0070(7) 0.0009(7) -0.0016(7)
C16 0.0219(9) 0.0213(9) 0.0239(10) 0.0064(8) 0.0010(7) 0.0007(7)
C17 0.0214(9) 0.0252(10) 0.0243(10) 0.0083(8) -0.0021(7) -0.0014(7)
C18 0.0267(9) 0.0238(10) 0.0155(9) 0.0024(7) -0.0007(7) -0.0057(7)
C19 0.0235(9) 0.0234(10) 0.0237(9) 0.0043(8) 0.0047(7) 0.0012(7)
C20 0.0193(9) 0.0237(9) 0.0235(9) 0.0073(8) 0.0003(7) 0.0000(7)
loop_
_atom_type_symbol
_atom_type_description
_atom_type_scat_dispersion_real
_atom_type_scat_dispersion_imag
_atom_type_scat_source
C C 0.0033 0.0016 'International Tables Vol C Tables 4.2.6.8 and 6.1.1.4'
H H 0.0000 0.0000 'International Tables Vol C Tables 4.2.6.8 and 6.1.1.4'
F F 0.0171 0.0103 'International Tables Vol C Tables 4.2.6.8 and 6.1.1.4'
N N 0.0061 0.0033 'International Tables Vol C Tables 4.2.6.8 and 6.1.1.4'
loop_
_geom_angle_atom_site_label_1
_geom_angle_atom_site_label_2
_geom_angle_atom_site_label_3
_geom_angle
_geom_angle_site_symmetry_1
_geom_angle_site_symmetry_3
_geom_angle_publ_flag
C2 N1 C1 117.71(15) . . ?
C1 N2 C8 116.98(15) . . ?
N2 C1 N1 126.20(16) . . ?
N2 C1 C9 117.91(15) . . ?
N1 C1 C9 115.89(15) . . ?
N1 C2 C3 121.42(16) . . ?
N1 C2 C15 115.78(15) . . ?
C3 C2 C15 122.78(15) . . ?
C4 C3 C8 119.09(16) . . ?
C4 C3 C2 124.52(16) . . ?
C8 C3 C2 116.38(15) . . ?
C5 C4 C3 120.22(17) . . ?
C5 C4 H4 119.9 . . ?
C3 C4 H4 119.9 . . ?
C4 C5 C6 120.62(17) . . ?
C4 C5 H5 119.7 . . ?
C6 C5 H5 119.7 . . ?
C7 C6 C5 120.60(17) . . ?
C7 C6 H6 119.7 . . ?
C5 C6 H6 119.7 . . ?
C6 C7 C8 119.96(17) . . ?
C6 C7 H7 120.0 . . ?
C8 C7 H7 120.0 . . ?
N2 C8 C7 119.19(16) . . ?
N2 C8 C3 121.29(16) . . ?
C7 C8 C3 119.51(16) . . ?
C10 C9 C14 119.13(16) . . ?
C10 C9 C1 120.35(16) . . ?
C14 C9 C1 120.52(16) . . ?
C11 C10 C9 120.67(17) . . ?
C11 C10 H10 119.7 . . ?
C9 C10 H10 119.7 . . ?
C12 C11 C10 119.72(17) . . ?
C12 C11 H11 120.1 . . ?
C10 C11 H11 120.1 . . ?
C11 C12 C13 120.09(17) . . ?
C11 C12 H12 120.0 . . ?
C13 C12 H12 120.0 . . ?
C14 C13 C12 120.36(17) . . ?
C14 C13 H13 119.8 . . ?
C12 C13 H13 119.8 . . ?
C13 C14 C9 120.02(17) . . ?
C13 C14 H14 120.0 . . ?
C9 C14 H14 120.0 . . ?
C16 C15 C20 118.86(17) . . ?
C16 C15 C2 121.91(16) . . ?
C20 C15 C2 119.20(16) . . ?
C17 C16 C15 120.86(17) . . ?
C17 C16 H16 119.6 . . ?
C15 C16 H16 119.6 . . ?
C18 C17 C16 118.02(17) . . ?
C18 C17 H17 121.0 . . ?
C16 C17 H17 121.0 . . ?
F1 C18 C19 118.20(16) . . ?
F1 C18 C17 118.76(16) . . ?
C19 C18 C17 123.03(17) . . ?
C18 C19 C20 118.21(17) . . ?
C18 C19 H19 120.9 . . ?
C20 C19 H19 120.9 . . ?
C19 C20 C15 121.00(17) . . ?
C19 C20 H20 119.5 . . ?
C15 C20 H20 119.5 . . ?
loop_
_geom_bond_atom_site_label_1
_geom_bond_atom_site_label_2
_geom_bond_distance
_geom_bond_site_symmetry_2
_geom_bond_publ_flag
F1 C18 1.360(2) . ?
N1 C2 1.323(2) . ?
N1 C1 1.369(2) . ?
N2 C1 1.317(2) . ?
N2 C8 1.367(2) . ?
C1 C9 1.484(2) . ?
C2 C3 1.425(2) . ?
C2 C15 1.488(2) . ?
C3 C4 1.414(2) . ?
C3 C8 1.419(2) . ?
C4 C5 1.365(3) . ?
C4 H4 0.9500 . ?
C5 C6 1.408(3) . ?
C5 H5 0.9500 . ?
C6 C7 1.370(3) . ?
C6 H6 0.9500 . ?
C7 C8 1.410(3) . ?
C7 H7 0.9500 . ?
C9 C10 1.395(2) . ?
C9 C14 1.395(2) . ?
C10 C11 1.387(3) . ?
C10 H10 0.9500 . ?
C11 C12 1.385(3) . ?
C11 H11 0.9500 . ?
C12 C13 1.386(3) . ?
C12 H12 0.9500 . ?
C13 C14 1.386(3) . ?
C13 H13 0.9500 . ?
C14 H14 0.9500 . ?
C15 C16 1.391(2) . ?
C15 C20 1.392(2) . ?
C16 C17 1.389(3) . ?
C16 H16 0.9500 . ?
C17 C18 1.376(3) . ?
C17 H17 0.9500 . ?
C18 C19 1.370(3) . ?
C19 C20 1.384(3) . ?
C19 H19 0.9500 . ?
C20 H20 0.9500 . ?
