#------------------------------------------------------------------------------
#$Date: 2021-02-05 01:31:17 +0200 (Fri, 05 Feb 2021) $
#$Revision: 261764 $
#$URL: file:///home/coder/svn-repositories/cod/cif/7/15/78/7157809.cif $
#------------------------------------------------------------------------------
#
# This file is available in the Crystallography Open Database (COD),
# http://www.crystallography.net/
#
# All data on this site have been placed in the public domain by the
# contributors.
#
data_7157809
loop_
_publ_author_name
'Ichikawa, Yuki'
'Hiramatsu, Michiaki'
'Mita, Yusuke'
'Makishima, Makoto'
'Matsumoto, Yotaro'
'Masumoto, Yui'
'Muranaka, Atsuya'
'Uchiyama, Masanobu'
'Hashimoto, Yuichi'
'Ishikawa, Minoru'
_publ_section_title
;
 <i>meta</i>-Non-flat substituents: a novel molecular design to improve
 aqueous solubility in small molecule drug discovery.
;
_journal_issue                   2
_journal_name_full               'Organic &amp; biomolecular chemistry'
_journal_page_first              446
_journal_page_last               456
_journal_paper_doi               10.1039/d0ob02083d
_journal_volume                  19
_journal_year                    2021
_chemical_formula_moiety         'C7 H9 N O2 S'
_chemical_formula_sum            'C7 H9 N O2 S'
_chemical_formula_weight         171.21
_chemical_melting_point          412
_chemical_name_systematic        4-Toluenesulfonamide
_space_group_crystal_system      monoclinic
_space_group_IT_number           14
_space_group_name_Hall           '-P 2yn'
_space_group_name_H-M_alt        'P 1 21/n 1'
_atom_sites_solution_hydrogens   difmap
_atom_sites_solution_primary     direct
_atom_sites_solution_secondary   difmap
_audit_creation_method           SHELXL-2014
_audit_update_record
;
2018-03-08 deposited with the CCDC.	2020-11-27 downloaded from the CCDC.
;
_cell_angle_alpha                90
_cell_angle_beta                 91.6792(11)
_cell_angle_gamma                90
_cell_formula_units_Z            4
_cell_length_a                   6.6299(2)
_cell_length_b                   16.2473(4)
_cell_length_c                   7.5792(2)
_cell_measurement_reflns_used    21683
_cell_measurement_temperature    90
_cell_measurement_theta_max      30.902
_cell_measurement_theta_min      2.967
_cell_volume                     816.07(4)
_computing_cell_refinement       HKL2000
_computing_data_collection       CrystalClear
_computing_data_reduction        HKL2000
_computing_molecular_graphics    SV
_computing_publication_material  'SHELXL-2014 (Sheldrick, 2014)'
_computing_structure_refinement  'SHELXL-2014 (Sheldrick, 2014)'
_computing_structure_solution    SIR2004
_diffrn_ambient_temperature      90
_diffrn_detector_area_resol_mean 7.31
_diffrn_measured_fraction_theta_full 0.997
_diffrn_measured_fraction_theta_max 0.997
_diffrn_measurement_device_type  'Rigaku AFC-8 with Saturn70 CCD'
_diffrn_measurement_method       \w-scan
_diffrn_radiation_type           MoK\a
_diffrn_radiation_wavelength     0.71073
_diffrn_reflns_av_R_equivalents  0.0317
_diffrn_reflns_av_unetI/netI     0.0200
_diffrn_reflns_Laue_measured_fraction_full 0.997
_diffrn_reflns_Laue_measured_fraction_max 0.997
_diffrn_reflns_limit_h_max       9
_diffrn_reflns_limit_h_min       -9
_diffrn_reflns_limit_k_max       23
_diffrn_reflns_limit_k_min       -23
_diffrn_reflns_limit_l_max       10
_diffrn_reflns_limit_l_min       -10
_diffrn_reflns_number            21683
_diffrn_reflns_point_group_measured_fraction_full 0.997
_diffrn_reflns_point_group_measured_fraction_max 0.997
_diffrn_reflns_theta_full        25.242
_diffrn_reflns_theta_max         30.902
_diffrn_reflns_theta_min         2.967
_diffrn_source                   'Fine-focus rotating anode'
_exptl_absorpt_coefficient_mu    0.344
_exptl_absorpt_correction_T_max  0.95879
_exptl_absorpt_correction_T_min  0.94854
_exptl_absorpt_correction_type   multi-scan
_exptl_absorpt_process_details
;
 MULABS - Empirical Correction for Absorption Anisotropy.
 R.H. Blessing, Acta Cryst. (1995), A51, 33-38.
;
_exptl_crystal_colour            colourless
_exptl_crystal_density_diffrn    1.394
_exptl_crystal_description       plate
_exptl_crystal_F_000             360
_exptl_crystal_recrystallization_method 'Re-crystallisation from solvent'
_exptl_crystal_size_max          0.11
_exptl_crystal_size_mid          0.10
_exptl_crystal_size_min          0.07
_refine_diff_density_max         0.322
_refine_diff_density_min         -0.440
_refine_diff_density_rms         0.056
_refine_ls_extinction_method     none
_refine_ls_goodness_of_fit_ref   1.043
_refine_ls_hydrogen_treatment    mixed
_refine_ls_matrix_type           full
_refine_ls_number_parameters     109
_refine_ls_number_reflns         2571
_refine_ls_number_restraints     0
_refine_ls_restrained_S_all      1.043
_refine_ls_R_factor_all          0.0346
_refine_ls_R_factor_gt           0.0311
_refine_ls_shift/su_max          0.001
_refine_ls_shift/su_mean         0.000
_refine_ls_structure_factor_coef Fsqd
_refine_ls_weighting_details
'w=1/[\s^2^(Fo^2^)+(0.0445P)^2^+0.3841P] where P=(Fo^2^+2Fc^2^)/3'
_refine_ls_weighting_scheme      calc
_refine_ls_wR_factor_gt          0.0869
_refine_ls_wR_factor_ref         0.0893
_reflns_Friedel_coverage         0.000
_reflns_number_gt                2322
_reflns_number_total             2571
_reflns_threshold_expression     'I > 2\s(I)'
_cod_data_source_file            d0ob02083d2.cif
_cod_data_source_block           YM672
_cod_depositor_comments
'Adding full bibliography for 7157808--7157819.cif.'
_cod_original_sg_symbol_H-M      'P 21/n'
_cod_database_code               7157809
_shelx_space_group_comment
;
The symmetry employed for this shelxl refinement is uniquely defined
by the following loop, which should always be used as a source of
symmetry information in preference to the above space-group names.
They are only intended as comments.
;
_shelx_estimated_absorpt_t_min   0.963
_shelx_estimated_absorpt_t_max   0.976
_shelxl_version_number           2014-3
_shelx_res_file
;
TITL 140822_YM672
CELL 0.71073 6.6299 16.2473 7.5792 90 91.6792 90
ZERR 4 0.0002 0.0004 0.0002 0 0.0011 0
LATT 1
SYMM 1/2-x, 1/2+y, 1/2-z
SFAC C H N O S
UNIT 28 36 4 8 4
L.S. 10
FMAP 2
PLAN 10
TEMP -183
SIZE 0.11 0.10 0.07
REM colourless, plate
BOND $H
CONF
ACTA
EQIV $1 x-1/2, -y+3/2, z-1/2
EQIV $2 x+1/2, -y+3/2, z-1/2
HTAB N1 O2_$1
HTAB N1 O1_$2
WGHT    0.044500    0.384100
FVAR       3.62621
S1    5    0.722976    0.724015    0.360423    11.00000    0.01580    0.01873 =
         0.01563   -0.00093   -0.00053   -0.00090
O1    4    0.589878    0.775928    0.458056    11.00000    0.02401    0.02340 =
         0.02434   -0.00661    0.00561   -0.00161
O2    4    0.918339    0.703722    0.436397    11.00000    0.01994    0.02861 =
         0.02343    0.00104   -0.00663   -0.00117
N1    3    0.761461    0.770678    0.177560    11.00000    0.01731    0.02212 =
         0.01910    0.00216   -0.00012   -0.00136
H1A   2    0.653453    0.779476    0.113202    11.00000    0.03659
H1B   2    0.852506    0.750836    0.120163    11.00000    0.04330
C1    1    0.594391    0.631169    0.314720    11.00000    0.01803    0.01792 =
         0.01593    0.00048    0.00033   -0.00091
C2    1    0.392499    0.634581    0.259184    11.00000    0.01910    0.02014 =
         0.02195    0.00082   -0.00118   -0.00026
AFIX  43
H2    2    0.323150    0.685726    0.253758    11.00000   -1.20000
AFIX   0
C3    1    0.294074    0.562079    0.211852    11.00000    0.02192    0.02520 =
         0.02275    0.00022   -0.00158   -0.00471
AFIX  43
H3    2    0.156738    0.564010    0.172640    11.00000   -1.20000
AFIX   0
C4    1    0.393599    0.486374    0.220929    11.00000    0.03207    0.02083 =
         0.01729   -0.00017    0.00232   -0.00617
C5    1    0.595173    0.484533    0.278373    11.00000    0.03175    0.01782 =
         0.02477    0.00053    0.00228    0.00200
AFIX  43
H5    2    0.664080    0.433325    0.285683    11.00000   -1.20000
AFIX   0
C6    1    0.697117    0.556531    0.325199    11.00000    0.02173    0.02080 =
         0.02235    0.00128    0.00029    0.00277
AFIX  43
H6    2    0.834700    0.554763    0.363721    11.00000   -1.20000
AFIX   0
C7    1    0.284577    0.408178    0.169593    11.00000    0.04604    0.02368 =
         0.02737   -0.00187    0.00011   -0.01173
AFIX 137
H7A   2    0.212657    0.387030    0.271234    11.00000   -1.50000
H7B   2    0.382455    0.367086    0.131665    11.00000   -1.50000
H7C   2    0.187729    0.419572    0.072499    11.00000   -1.50000
AFIX   0
HKLF 4

REM  140822_YM672
REM R1 =  0.0311 for    2322 Fo > 4sig(Fo)  and  0.0346 for all    2571 data
REM    109 parameters refined using      0 restraints

END

WGHT      0.0445      0.3841

REM Highest difference peak  0.322,  deepest hole -0.440,  1-sigma level  0.056
Q1    1   0.4969  0.4900  0.2454  11.00000  0.05    0.32
Q2    1   0.6455  0.5223  0.3032  11.00000  0.05    0.31
Q3    1   0.6530  0.6697  0.3256  11.00000  0.05    0.31
Q4    1   0.3439  0.5964  0.2395  11.00000  0.05    0.30
Q5    1   0.1582  0.4154  0.1816  11.00000  0.05    0.30
Q6    1   0.3384  0.5226  0.2178  11.00000  0.05    0.30
Q7    1   0.4908  0.6359  0.2901  11.00000  0.05    0.29
Q8    1   0.6415  0.5950  0.3254  11.00000  0.05    0.29
Q9    1   0.3197  0.3616  0.2593  11.00000  0.05    0.27
Q10   1   0.3446  0.4491  0.1989  11.00000  0.05    0.25
;
_shelx_res_checksum              56245
_shelx_hkl_file
;
   9   0  -1 1995.37  152.96
  -9   0   1 1925.30  173.10
   9   0  -1 1907.96  162.68
  -9   0   1 2078.09  194.05
   9   0  -2   15.87   30.74
  -9   0   2  -22.93   30.73
  -9   0   2  -38.99   30.81
   9   0  -2   24.08   30.76
  -9   0   3  669.25   92.97
   9   0  -3  650.54   82.43
  -9   0   3  632.61   99.16
   9   1  -1  188.50   49.53
   9  -1  -1  215.25   55.10
   9  -1  -1  294.08   56.48
  -9  -1   1  268.04   56.43
  -9   1   1  233.47   47.52
  -9  -1   1  225.78   53.23
  -9   1   1  252.38   54.53
   9   1  -1  247.83   56.95
   9  -1  -2  105.46   37.61
  -9  -1   2  155.59   44.28
  -9  -1   2   84.23   42.37
   9   1  -2   82.65   37.60
   9   1  -2   73.25   30.55
  -9   1   2  244.69   59.95
  -9   1   2   94.16   45.24
   9   1  -3  532.58   84.15
  -9   1   3  398.50   69.52
  -9  -1   3  463.20   71.36
   9  -1  -3  508.89   88.15
  -9  -1   3  467.10   80.97
  -9   1   3  377.49   58.53
   9   2  -1  775.12   71.51
  -9   2   1  930.73   98.83
  -9   2   1  942.74   88.23
   9   2  -1  869.11   91.23
   9  -2  -1  754.43   88.50
  -9  -2   1  869.38   91.52
   9  -2  -1  768.12   96.42
  -9  -2   1  885.31   84.90
  -9   2   2  537.70   76.49
   9   2  -2  533.64   71.56
   9  -2  -2  613.92   86.94
  -9  -2   2  648.32   85.88
  -9   2   2  486.01   71.33
   9   2  -2  467.18   81.83
  -9  -2   2  511.44   79.58
  -9  -2   3  628.90   90.04
  -9  -2   3  857.20  110.53
  -9   2   3  721.48   88.04
  -9   2   3  844.73  102.10
   9   2  -3  855.97  101.40
   9  -2  -3  738.92  113.88
   9   3  -1   12.76   27.75
  -9  -3   1   12.96   23.04
  -9  -3   1   36.08   33.83
   9  -3  -1   14.47   29.54
  -9   3   1    3.81   29.90
   9  -3  -1  -16.52   26.51
   9   3  -1   25.30   24.42
  -9   3   1  -19.78   26.76
   9   3  -2   34.76   28.40
  -9   3   2  126.85   43.17
  -9  -3   2  118.92   40.07
  -9  -3   2   49.86   37.29
   9   3  -2   40.12   25.56
  -9   3   2   50.13   30.13
   9  -3  -2   48.20   36.84
   9   3  -3  220.96   49.58
  -9   3   3  296.62   62.19
  -9  -3   3  176.57   60.46
   9   3  -3  138.54   39.97
  -9  -3   3  172.24   54.62
  -9   3   3  192.24   63.45
   9  -3  -3  211.70   43.65
   9   4  -1  309.41   51.78
  -9   4   1  390.44   57.15
  -9   4   1  403.31   55.14
  -9  -4   1  399.92   66.79
  -9  -4   1  450.40   74.15
   9  -4  -1  408.33   62.42
   9   4  -1  380.60   62.65
  -9   4   1  426.01   68.25
  -9  -4   2  587.64   81.99
  -9   4   2  510.00   74.29
   9   4  -2  583.34   73.19
  -9   4   2  734.01   94.54
   9   4  -2  718.03   72.32
   9  -4  -2  679.90   93.40
  -9  -4   2  785.20   86.47
  -9   4   3  261.58   48.53
  -9  -4   3  335.37   65.60
   9   4  -3  337.70   46.42
   9  -4  -3  402.59   66.14
   9   4  -3  303.01   59.15
  -9  -5   1   52.95   35.10
   9   5  -1  -20.86   24.50
  -9   5   1   72.88   46.07
  -9   5   1   55.98   34.46
  -9  -5   1   71.18   40.55
   9   5  -1   27.52   20.33
   9  -5  -1   43.91   28.89
  -9   5   1   64.32   31.52
  -9   5   2  186.02   50.48
   9   5  -2  234.40   55.99
  -9   5   2  186.05   39.86
  -9  -5   2  240.21   52.90
  -9  -5   2  215.21   47.80
   9  -5  -2  186.03   49.99
   9   5  -2  239.67   48.39
  -9   5   3  934.65  109.30
  -9  -5   3  880.20  101.87
   9  -5  -3  883.49  102.06
   9   5  -3  784.35   90.54
   9   5  -3  836.54   95.58
   9   6  -1   23.37   32.16
   9   6  -1   31.47   32.63
   9  -6  -1   38.55   33.96
  -9   6   1    3.74   33.19
  -9  -6   1   47.75   38.15
  -9   6   1   31.12   25.24
  -9   6   1   70.51   34.09
  -9  -6   1   -9.97   35.99
   9   6  -2  354.82   65.66
   9   6  -2  381.75   63.47
   9  -6  -2  352.32   60.90
  -9   6   2  433.19   55.72
  -9  -6   2  476.85   67.85
  -9   6   2  360.53   46.02
   9   7  -1  331.34   56.19
  -9  -7   1  280.30   52.08
  -9   7   1  301.28   50.01
   9  -7  -1  372.93   52.37
  -9   7   1  216.39   42.62
   9   7  -2   -3.24   25.78
  -9  -7   2   12.26   31.77
   9  -7  -2   47.41   34.70
   9   7  -2   -9.64   32.91
  -9   7   2   15.94   27.48
   8   0  -1  -19.47   25.43
   8   0  -1   -3.92   27.39
  -8   0   1   25.89   30.13
  -8   0   1   44.58   31.23
  -8   0   1   -5.76   19.47
  -8   0   2 4494.64  341.04
  -8   0   2 4806.60  275.87
   8   0  -2 4382.17  297.82
   8   0  -2 4538.76  261.32
   8   0  -3   -4.60   23.00
  -8   0   3    2.72   23.00
  -8   0   3  -12.46   23.03
   8   0  -3  -17.50   22.98
  -8   0   4 3633.03  290.54
  -8   0   4 3609.95  269.71
   8   0  -4 3328.76  295.62
  -8   0   5    4.80   27.24
  -8   0   5   -2.92   27.25
   8   0  -5   -5.11   27.21
  -8   1   1  -36.44   26.37
  -8  -1   1  -29.16   26.40
   8  -1  -1  -34.35   26.39
   8   1  -1   19.99   26.39
  -8  -1   1  -23.04   26.44
   8   1  -1   12.88   26.39
   8  -1  -1    0.60   26.39
  -8   1   1   -8.92   26.39
  -8   1   1   -4.85   26.45
   8  -1  -2   43.77   34.77
  -8  -1   2   45.77   27.29
  -8  -1   2   62.83   31.17
   8   1  -2   14.92   30.12
   8   1  -2   75.13   26.87
  -8   1   2   55.29   40.22
  -8   1   2   83.35   32.26
   8  -1  -2   47.93   25.78
  -8   1   2   29.90   21.63
   8  -1  -3  124.81   30.96
  -8   1   3   34.67   33.03
  -8  -1   3   34.01   29.97
  -8   1   3   84.86   39.53
   8   1  -3   74.56   25.47
   8  -1  -3   55.22   26.89
   8   1  -3   70.44   39.44
  -8  -1   3   12.42   28.37
  -8   1   4 2040.97  191.28
   8  -1  -4 1865.05  174.39
  -8   1   4 2009.13  185.64
  -8  -1   4 2179.31  183.25
  -8  -1   4 1874.63  184.77
   8   1  -4 2070.31  175.39
  -8   1   5  512.18   74.51
  -8   1   5  463.43   66.64
   8   1  -5  459.07   67.10
   8  -1  -5  492.99   76.49
  -8  -1   5  406.74   77.97
  -8  -1   5  472.07   77.77
  -8   2   1   37.54   25.83
   8  -2  -1   90.21   35.43
  -8   2   1   71.17   40.81
  -8  -2   1   65.92   30.78
   8   2  -1   81.89   32.83
   8  -2  -1   41.36   23.48
  -8  -2   1   34.93   27.56
   8   2  -1   35.46   23.91
  -8   2   1   68.30   33.91
  -8   2   2  658.52   67.01
  -8  -2   2  596.38   75.32
   8  -2  -2  594.22   76.51
  -8  -2   2  565.30   64.74
   8   2  -2  602.60   64.37
   8  -2  -2  606.95   64.02
   8   2  -2  500.17   61.88
  -8   2   2  536.03   69.30
  -8   2   2  578.70   63.45
  -8  -2   3  624.56   90.57
  -8   2   3  640.71   75.77
  -8   2   3  542.99   57.94
   8  -2  -3  624.09   82.86
  -8   2   3  816.25   83.36
  -8  -2   3  741.61   87.65
   8   2  -3  714.35   84.93
   8   2  -3  575.96   73.77
  -8  -2   4  299.70   67.41
  -8  -2   4  279.25   50.78
  -8   2   4  337.45   56.66
  -8   2   4  435.92   75.64
   8   2  -4  314.70   48.63
   8  -2  -4  377.35   65.78
   8   2  -4  254.58   47.21
   8  -2  -5    7.31   36.89
  -8  -2   5  -22.41   28.05
  -8   2   5    5.64   37.58
  -8   2   5  -24.56   32.39
   8   2  -5   15.35   34.78
  -8  -2   5   32.20   30.80
   8   3  -1  512.39   72.24
   8   3  -1  521.48   73.17
  -8   3   1  491.04   65.07
   8  -3  -1  443.11   59.10
  -8  -3   1  454.56   61.35
   8  -3  -1  497.09   59.14
  -8   3   1  423.87   49.37
  -8  -3   1  463.97   61.81
  -8   3   1  510.67   67.02
   8  -3  -2  -18.48   21.48
  -8  -3   2   -8.50   21.52
   8   3  -2  -12.16   21.48
  -8  -3   2   28.04   21.51
   8  -3  -2   43.41   21.48
  -8   3   2    1.32   21.52
  -8   3   2   -3.04   21.45
  -8   3   2   22.71   21.47
   8   3  -2  -20.08   21.48
  -8   3   3  243.83   42.66
   8  -3  -3  235.77   51.17
   8   3  -3  148.86   41.96
  -8   3   3  240.87   42.41
  -8  -3   3  204.94   34.79
  -8  -3   3  208.37   53.20
  -8   3   3  201.33   51.45
   8   3  -3  187.61   39.10
   8   3  -4  226.13   45.08
  -8   3   4  281.59   54.40
  -8   3   4  281.47   46.50
  -8  -3   4  334.49   52.48
   8  -3  -4  248.99   55.23
  -8  -3   4  237.10   46.77
   8   3  -4  250.39   50.56
  -8   3   4  289.33   58.60
  -8  -3   5  970.98   99.54
  -8   3   5  882.79   97.64
  -8  -3   5  798.88  103.27
  -8   3   5  873.58   97.94
   8   3  -5  817.97  103.73
   8  -3  -5  843.27  105.09
  -8   4   1  262.98   42.61
   8  -4  -1  230.46   44.88
  -8   4   1  260.65   46.32
   8  -4  -1  233.95   40.78
  -8  -4   1  250.18   53.88
  -8   4   1  187.03   37.81
  -8  -4   1  263.03   47.22
   8   4  -1  191.27   45.93
   8   4  -1  240.12   39.69
  -8   4   2 1200.59  119.64
  -8   4   2 1047.77   86.68
  -8  -4   2 1211.84  114.82
  -8  -4   2 1339.59  118.10
  -8   4   2 1294.55  113.30
   8   4  -2 1143.22  115.85
   8  -4  -2 1174.42  127.75
   8   4  -2 1187.66   96.29
  -8  -4   3  335.04   57.41
   8   4  -3  453.35   57.90
  -8   4   3  462.32   63.85
  -8   4   3  492.58   71.18
  -8   4   3  441.40   60.57
   8   4  -3  416.33   52.28
   8  -4  -3  464.14   73.10
  -8  -4   3  412.35   68.52
  -8   4   4  501.88   63.64
   8   4  -4  513.72   77.83
   8   4  -4  458.04   64.49
  -8  -4   4  665.22  100.22
  -8   4   4  553.75   74.61
  -8  -4   4  615.48   70.64
  -8   4   4  451.90   56.78
   8  -4  -4  626.54   73.72
  -8   4   5   41.16   43.24
  -8  -4   5    2.08   41.17
  -8  -4   5   33.54   39.03
   8  -4  -5    5.44   35.90
   8   4  -5  -18.64   35.76
  -8   4   5   42.86   35.71
  -8  -5   1 1291.22  120.63
   8   5  -1 1221.90  118.17
   8   5  -1 1295.50  103.35
  -8   5   1 1370.39  112.96
  -8   5   1 1159.68  107.74
  -8   5   1 1165.79  102.87
   8  -5  -1 1150.95  115.77
  -8  -5   1 1168.92  107.89
   8  -5  -1 1161.74  112.22
   8  -5  -2  217.94   41.36
  -8  -5   2  184.70   45.86
  -8   5   2   75.52   34.66
   8   5  -2  196.87   46.41
  -8  -5   2  171.93   38.68
   8   5  -2   87.14   31.79
  -8   5   2  209.69   39.01
  -8   5   2  200.58   51.97
   8   5  -3  306.25   50.00
  -8   5   3  166.72   40.70
  -8   5   3  203.28   57.22
  -8  -5   3  274.35   65.76
  -8  -5   3  209.42   53.84
  -8   5   3  156.11   41.66
   8  -5  -3  236.28   62.85
   8   5  -3  235.35   48.87
   8  -5  -4  860.07   96.17
   8   5  -4 1048.47  128.99
  -8   5   4  838.54  105.41
  -8  -5   4  852.48   95.92
  -8   5   4  795.00  110.98
  -8   5   4  842.79   83.08
  -8  -5   4  913.30  102.16
   8   5  -4  712.66   95.04
  -8   5   5 1449.10  129.97
  -8  -5   5 1898.89  173.11
  -8   5   5 1508.45  138.47
   8  -5  -5 1600.37  175.80
  -8   5   5 1841.86  180.65
   8   5  -5 1648.88  133.95
  -8  -5   5 1715.88  159.98
   8   5  -5 1430.34  130.73
  -8   6   1 1010.36  111.22
  -8  -6   1  924.90  105.23
   8   6  -1  866.76   90.34
  -8   6   1  839.52   88.85
   8  -6  -1  847.76  100.76
   8   6  -1  790.51   86.41
  -8   6   1  929.34   81.14
   8  -6  -1  853.04   87.66
  -8  -6   1  826.59   90.23
  -8   6   2 2397.10  157.99
  -8   6   2 2440.69  183.13
  -8  -6   2 2459.07  167.04
   8   6  -2 2488.07  183.32
   8  -6  -2 2312.52  188.79
  -8  -6   2 2425.67  206.12
  -8   6   2 2245.66  181.77
   8   6  -2 2391.21  183.58
   8   6  -3 2569.61  189.60
  -8   6   3 2736.77  239.62
  -8   6   3 2550.26  197.58
  -8  -6   3 2716.17  224.96
  -8   6   3 2638.74  177.46
   8  -6  -3 2742.57  220.67
  -8  -6   3 2591.76  219.46
   8   6  -3 2691.29  194.36
   8   6  -4  410.67   66.65
  -8   6   4  316.05   53.00
  -8  -6   4  527.57   77.56
   8   6  -4  491.45   60.94
   8  -6  -4  403.05   59.65
  -8   6   4  339.44   58.30
  -8   6   4  370.11   56.45
  -8  -6   4  318.34   53.28
  -8  -6   5  138.86   41.19
  -8   6   5  132.91   45.05
  -8  -6   5  106.16   40.37
  -8   6   5   64.56   30.46
   8  -6  -5   98.78   42.67
   8   6  -5  104.58   33.64
  -8   6   5   83.04   36.77
   8   6  -5  113.96   47.45
   8  -7  -1  620.57   75.60
  -8   7   1  669.67   81.74
   8   7  -1  674.22   79.51
   8   7  -1  795.14  100.55
  -8  -7   1 1014.98  101.34
  -8   7   1  821.26   83.82
  -8   7   1  784.50   82.42
  -8  -7   1  855.04   77.45
   8   7  -2  -11.59   29.54
  -8  -7   2  -12.15   26.14
  -8   7   2    5.39   34.79
  -8  -7   2   -2.93   21.25
   8  -7  -2  -13.19   27.31
  -8   7   2   11.34   29.00
  -8   7   2    9.31   28.30
   8   7  -2   50.19   33.46
  -8  -7   3   63.89   31.21
  -8   7   3   30.32   37.08
  -8   7   3   32.49   33.77
  -8  -7   3   18.76   35.51
   8  -7  -3   86.03   42.96
   8   7  -3   70.82   36.49
   8   7  -3   66.73   31.68
  -8   7   3  108.93   38.28
  -8  -7   4  376.85   69.85
  -8   7   4  426.93   68.27
  -8   7   4  353.98   63.90
  -8   7   4  341.13   54.63
   8   7  -4  339.68   51.36
   8   7  -4  386.38   69.52
  -8  -7   4  378.09   73.49
   8  -7  -4  303.16   66.96
   8   7  -5 1450.20  134.07
  -8   7   5 1658.17  133.00
  -8   7   5 1703.56  169.53
  -8  -7   5 1640.34  156.61
   8   7  -5 1658.10  181.19
  -8   7   5 1617.76  139.67
   8   8  -1   55.29   40.56
  -8  -8   1   25.85   31.58
  -8  -8   1   44.32   31.79
   8   8  -1   -5.12   26.03
  -8   8   1   13.87   27.71
   8  -8  -1   12.82   24.21
  -8   8   1   34.02   32.70
  -8   8   1    2.56   25.50
  -8  -8   2   -2.05   28.67
  -8  -8   2   16.80   27.46
  -8   8   2   -6.06   25.89
   8   8  -2  -15.57   25.46
  -8   8   2    7.97   24.43
   8   8  -2   11.39   34.72
   8  -8  -2  -12.59   26.74
  -8   8   2   19.18   27.22
   8   8  -3 1862.36  154.63
  -8   8   3 1828.35  158.88
   8   8  -3 2027.21  173.60
  -8   8   3 1889.28  145.29
   8  -8  -3 2040.11  172.42
  -8  -8   3 2009.15  169.27
  -8   8   3 1764.95  177.84
  -8  -8   3 1890.08  161.50
  -8   8   4    7.24   26.77
   8  -8  -4  -32.44   41.32
   8   8  -4   15.98   30.96
  -8   8   4   -5.39   26.77
  -8  -8   4   45.11   35.33
   8   8  -4  -18.16   39.00
  -8  -8   4   22.58   38.25
  -8   8   4   13.94   28.49
  -8   8   5   31.25   38.04
  -8   8   5  -11.90   28.65
  -8   8   5   23.26   30.93
  -8   9   1 2920.03  230.70
  -8   9   1 3153.67  208.78
   8   9  -1 2979.53  200.44
  -8  -9   1 2753.52  188.15
   8   9  -1 2745.69  210.74
   8  -9  -1 2854.77  240.94
  -8  -9   1 3051.53  216.18
   8   9  -2   -4.49   29.80
   8  -9  -2   25.21   37.52
  -8   9   2   17.55   39.42
  -8   9   2   14.15   24.14
  -8   9   2   38.63   31.87
  -8  -9   2   67.30   35.75
  -8  -9   2    4.89   29.00
   8   9  -2  -19.65   37.23
  -8   9   3  370.82   69.15
  -8   9   3  319.30   50.94
   8   9  -3  212.19   45.59
  -8  -9   3  295.22   51.40
   8  -9  -3  343.42   55.77
  -8  -9   3  302.19   66.42
  -8   9   3  276.44   48.19
   8   9  -3  231.31   55.76
   8  -9  -4  110.82   37.15
  -8   9   4  110.61   43.82
  -8  -9   4   75.25   44.15
  -8  -9   4   97.61   49.61
  -8   9   4  102.78   43.06
   8   9  -4  121.47   41.76
   8   9  -4  125.36   46.00
  -8   9   4   63.05   43.45
   8 -10  -1   27.84   39.58
   8  10  -1    0.60   30.57
  -8 -10   1   48.23   42.83
  -8 -10   1   41.30   29.40
  -8  10   1   -6.42   28.71
  -8  10   1   68.54   33.29
   8  10  -1   86.47   30.60
   8  10  -2  260.21   57.35
  -8  10   2  245.58   58.34
  -8  10   2  252.06   57.33
  -8 -10   2  327.68   61.80
   8  10  -2  366.48   59.29
   8 -10  -2  266.07   60.57
  -8 -10   2  379.66   51.70
  -8 -10   3 1532.82  146.99
  -8 -10   3 1674.42  160.22
   8 -10  -3 1504.50  170.17
  -8  10   3 1499.76  143.23
   8  10  -3 1311.59  134.08
  -8  10   3 1349.51  122.29
   8  10  -3 1578.66  146.04
  -8  10   3 1605.76  153.12
  -8 -10   4    2.93   38.59
  -8  10   4   37.52   34.36
  -8  10   4  -43.85   31.43
  -8  10   4  534.04  122.33
   8  10  -4  -21.30   25.19
   8  10  -4   20.10   38.83
   8 -11  -1 2215.09  225.66
  -8 -11   1 2627.51  215.05
   8  11  -1 2310.74  197.58
  -8  11   1 2542.61  218.77
  -8  11   1 2705.95  203.98
  -8 -11   1 2370.81  145.98
   8  11  -1 2600.05  207.62
  -8  11   2   72.61   42.01
   8  11  -2   70.29   35.42
  -8 -11   2   83.81   29.07
  -8 -11   2   87.52   42.24
  -8  11   2  144.54   51.30
   8  11  -2  175.84   40.98
   8 -11  -2  111.16   32.75
  -8 -11   3   57.74   39.58
   8  11  -3    8.90   29.16
   8  11  -3    6.52   34.14
  -8 -11   3   15.88   29.80
  -8  11   3   21.73   30.07
  -8  11   3   55.39   41.21
  -8 -12   1  828.34   98.85
  -8  12   1  744.37   91.57
   8  12  -1  799.87  100.93
   8 -12  -1  663.51  115.73
  -8  12   1  806.27   96.82
  -8 -12   2   81.55   33.64
  -8  12   2   62.40   30.36
  -8  12   2  120.94   44.73
   8  12  -2   79.72   38.16
  -8 -12   2  124.60   39.34
   8  12  -2   93.66   41.34
  -7   0   1  129.11   26.92
   7   0  -1  107.80   35.15
  -7   0   1  119.22   31.38
   7   0  -1  104.70   38.67
  -7   0   1  116.24   32.90
  -7   0   2  -28.65   33.62
  -7   0   2  -41.87   33.58
  -7   0   2  -14.44   33.56
   7   0  -2  -10.92   33.55
   7   0  -2   -2.12   33.56
  -7   0   3 9001.20  454.19
   7   0  -3 9215.75  422.38
  -7   0   3 9023.74  465.83
  -7   0   3 8598.34  391.16
   7   0  -3 8830.06  397.35
  -7   0   4    5.20   35.82
  -7   0   4   27.32   29.52
   7   0  -4   15.63   17.83
  -7   0   4  -12.84   17.48
   7   0  -4    2.24   27.85
  -7   0   5  513.74   71.96
  -7   0   5  380.09   52.26
   7   0  -5  358.09   57.80
  -7   0   6   -6.32   34.61
  -7   0   6    6.55   34.56
   7   0  -6   -7.87   34.54
  -7   0   7  395.57   81.42
  -7   0   7  376.95   58.38
   7   0  -7  326.59   64.14
  -7  -1   1 5981.90  267.92
  -7  -1   1 6375.73  335.56
   7   1  -1 6188.97  323.09
  -7   1   1 6209.79  282.34
   7   1  -1 6493.48  307.25
  -7  -1   1 6492.70  402.97
  -7   1   1 6258.21  356.92
   7  -1  -1 6346.54  357.85
  -7   1   1 6586.88  338.90
   7  -1  -1 6255.64  297.69
  -7   1   2 2131.86  118.90
  -7  -1   2 1942.06  114.39
  -7   1   2 1868.84  155.74
   7  -1  -2 1998.33  141.49
  -7   1   2 1863.70  133.65
   7   1  -2 1954.02  125.19
   7  -1  -2 2052.09  156.75
  -7  -1   2 2005.14  157.47
   7   1  -2 2133.01  133.48
  -7  -1   2 1795.85  150.30
  -7   1   3  651.94   69.06
  -7   1   3  569.87   62.74
   7   1  -3  655.02   61.38
  -7  -1   3  572.24   73.86
   7  -1  -3  667.77   70.47
  -7   1   3  664.94   68.84
  -7  -1   3  533.25   52.54
   7   1  -3  552.27   61.22
   7  -1  -3  719.25   63.28
  -7  -1   3  661.17   64.57
  -7   1   4   27.67   30.39
   7   1  -4   26.49   28.45
  -7  -1   4   53.58   32.65
  -7   1   4   50.78   38.79
   7  -1  -4   24.50   32.57
   7   1  -4   26.89   32.25
   7  -1  -4   32.92   23.81
  -7  -1   4   22.83   32.86
  -7   1   4   59.16   29.36
  -7   1   5 3622.84  252.37
  -7  -1   5 3492.03  246.42
  -7   1   5 3176.60  192.69
   7   1  -5 3491.66  249.00
  -7   1   5 3181.42  215.58
  -7  -1   5 3470.93  230.86
   7  -1  -5 3341.23  234.40
  -7   1   6  142.03   41.38
   7   1  -6   61.34   40.61
  -7  -1   6   70.68   41.76
  -7  -1   6  137.24   45.75
   7  -1  -6   40.86   44.21
  -7   1   6  147.03   39.01
  -7  -1   7  190.08   53.14
   7  -1  -7   98.18   40.38
  -7  -1   7  143.49   38.27
  -7   1   7  104.52   47.43
  -7   1   7  127.24   42.01
   7   1  -7  154.18   47.76
  -7  -2   1    7.16   15.20
   7  -2  -1    6.52   23.16
   7   2  -1  -16.24   20.63
   7  -2  -1   28.16   27.60
  -7   2   1    8.76   22.31
  -7  -2   1   17.95   27.40
  -7   2   1   32.38   23.33
   7   2  -1   30.71   21.35
  -7   2   1    7.56   27.42
  -7  -2   1   15.14   26.96
  -7  -2   2  816.09   65.68
   7  -2  -2  704.48   61.79
  -7  -2   2  718.02   74.35
   7   2  -2  734.52   67.92
  -7  -2   2  799.82   72.47
  -7   2   2  861.89   72.05
   7   2  -2  707.23   76.82
  -7   2   2  809.97   67.67
  -7   2   2  697.49   75.87
   7  -2  -2  676.50   66.02
   7   2  -3 5839.26  334.01
  -7   2   3 6167.27  354.00
  -7  -2   3 6057.61  320.85
  -7   2   3 5569.38  295.54
  -7  -2   3 5667.02  317.73
   7   2  -3 5988.26  312.12
   7  -2  -3 6171.26  389.68
   7  -2  -3 5822.61  267.82
  -7   2   3 6212.63  307.49
   7  -2  -4 2089.52  151.79
  -7  -2   4 1871.68  169.33
  -7   2   4 2015.76  142.62
  -7   2   4 2169.54  155.97
  -7   2   4 2051.46  134.55
   7   2  -4 1946.86  145.33
  -7  -2   4 2131.74  169.23
   7   2  -4 1986.43  149.17
  -7  -2   5  201.28   41.07
  -7   2   5  242.27   46.17
   7   2  -5  202.67   35.50
   7  -2  -5  221.49   45.99
  -7   2   5  227.51   45.37
  -7  -2   5  237.06   52.88
  -7   2   5  228.20   42.63
   7   2  -5  243.01   41.36
   7   2  -6  100.42   39.07
  -7   2   6  111.93   38.06
  -7   2   6   54.46   29.45
  -7   2   6   49.60   38.55
  -7  -2   6   24.44   37.04
   7  -2  -6   54.13   35.68
  -7  -2   6   50.14   33.68
  -7  -2   7  331.83   65.06
  -7  -2   7  327.50   57.05
  -7   2   7  303.51   55.22
   7   2  -7  313.95   58.75
  -7   2   7  218.86   54.07
   7  -2  -7  296.48   61.30
   7  -3  -1 2367.89  146.89
  -7  -3   1 2392.44  134.74
   7   3  -1 2305.43  144.56
  -7   3   1 2220.64  147.34
   7  -3  -1 2298.86  136.63
  -7   3   1 2602.17  162.30
  -7  -3   1 2517.22  151.60
  -7  -3   1 2371.44  149.62
   7   3  -1 2363.78  132.56
  -7   3   1 2502.27  175.19
   7   3  -2 1060.89   75.38
  -7  -3   2 1325.23  109.90
  -7   3   2 1204.92   89.06
  -7   3   2 1255.95  119.87
   7   3  -2 1223.22   90.56
   7  -3  -2 1090.94   81.12
   7  -3  -2 1193.11   97.15
  -7  -3   2 1193.33  107.20
  -7   3   2 1065.25   77.57
  -7   3   3  916.81   83.30
   7  -3  -3  972.86   97.50
  -7   3   3 1075.73  103.68
  -7  -3   3  913.15   97.60
   7   3  -3 1023.31   85.49
  -7  -3   3 1001.58   97.75
   7   3  -3 1013.90   78.61
   7  -3  -3  936.33   76.90
  -7   3   3  915.02   99.48
  -7   3   4  565.71   72.12
  -7   3   4  669.92   71.86
  -7  -3   4  543.14   58.49
   7   3  -4  492.82   64.22
  -7   3   4  560.70   57.55
   7   3  -4  601.01   60.39
   7  -3  -4  552.21   58.23
  -7  -3   4  510.01   53.78
  -7  -3   5 1831.86  169.45
  -7   3   5 1785.73  139.66
   7   3  -5 1730.82  149.96
   7   3  -5 1851.32  128.35
  -7   3   5 1784.01  152.51
   7  -3  -5 1786.72  150.65
  -7  -3   5 1520.41  149.20
  -7   3   5 1842.83  167.03
   7  -3  -6 1506.81  141.95
  -7   3   6 1677.99  149.33
  -7   3   6 1484.37  134.21
   7   3  -6 1485.69  149.75
  -7  -3   6 1489.05  133.94
  -7  -3   6 1538.26  150.59
  -7   3   6 1646.13  130.89
   7   3  -7   76.54   38.67
  -7   3   7   24.05   38.20
  -7  -3   7   27.98   47.36
   7  -3  -7  -22.75   35.98
  -7   3   7   27.96   36.68
  -7  -3   7    9.78   39.69
   7   4  -1  108.10   29.55
  -7  -4   1   95.72   27.35
  -7   4   1  109.11   32.27
   7  -4  -1  131.55   32.87
  -7  -4   1   99.05   38.45
   7  -4  -1   96.85   25.95
  -7   4   1   64.93   29.15
  -7   4   1  162.92   37.97
   7   4  -1   67.44   20.99
   7  -4  -2  155.30   29.49
  -7   4   2  143.14   32.64
  -7   4   2  191.43   30.88
  -7  -4   2  208.98   50.03
   7   4  -2  231.34   40.25
   7   4  -2  171.58   37.53
  -7   4   2  160.31   35.93
  -7  -4   2  194.34   36.72
   7  -4  -2  211.18   45.41
   7  -4  -3 3066.16  186.44
  -7   4   3 2777.34  201.76
  -7   4   3 2874.32  189.46
   7  -4  -3 2644.02  167.27
   7   4  -3 2781.84  191.52
  -7   4   3 2742.40  211.49
  -7  -4   3 2873.12  203.14
  -7  -4   3 2882.83  199.46
   7   4  -3 2823.63  202.11
   7  -4  -4 2177.84  160.45
  -7  -4   4 2454.48  170.77
  -7   4   4 2295.05  148.57
   7   4  -4 2329.35  145.37
  -7   4   4 2201.34  169.50
   7   4  -4 2262.32  168.51
  -7   4   4 2242.84  160.97
  -7  -4   4 2281.51  152.78
   7  -4  -5   23.47   38.59
   7   4  -5   39.07   30.04
  -7  -4   5   18.00   30.72
  -7   4   5   90.29   40.56
   7   4  -5   65.91   27.59
  -7   4   5   77.00   28.95
  -7  -4   5   66.83   35.53
  -7   4   5  105.20   35.41
  -7   4   6  440.00   70.10
  -7   4   6  394.97   52.29
  -7  -4   6  916.85  172.09
   7   4  -6  381.52   68.57
   7  -4  -6  431.47   60.51
  -7   4   6  353.71   61.43
  -7  -4   6  322.75   68.55
  -7  -4   7 1092.07  117.26
   7   4  -7 1340.98  131.41
  -7   4   7 1099.30  137.32
   7  -4  -7 1338.45  138.33
  -7   4   7 1125.36  105.41
  -7   4   7 1225.66  110.70
  -7  -4   7 1193.52  147.53
   7   5  -1 1900.25  134.75
  -7  -5   1 1929.28  156.38
   7  -5  -1 1729.62  115.65
  -7   5   1 1689.58  139.71
   7   5  -1 1704.57  123.31
   7  -5  -1 1936.81  142.12
  -7   5   1 1745.00  134.02
  -7   5   1 1709.27  116.19
  -7  -5   1 1595.03  125.65
   7   5  -2 2519.59  163.75
  -7   5   2 2762.64  174.31
  -7  -5   2 2408.02  165.43
   7  -5  -2 2573.09  172.10
  -7   5   2 2585.93  164.22
  -7   5   2 2623.32  165.86
   7   5  -2 2644.69  172.98
  -7  -5   2 2469.80  173.40
   7  -5  -2 2403.34  178.89
   7  -5  -3 2311.14  156.17
  -7   5   3 2333.08  193.49
  -7  -5   3 2221.17  152.19
   7   5  -3 2283.24  148.06
  -7   5   3 2128.27  159.09
  -7  -5   3 2464.55  188.80
  -7   5   3 2347.99  178.53
   7   5  -3 2542.56  173.32
  -7   5   4  161.35   45.47
  -7  -5   4  132.16   44.56
  -7  -5   4  182.79   43.27
  -7   5   4  168.50   35.58
   7   5  -4  149.28   47.56
   7   5  -4  139.36   34.93
  -7   5   4  170.32   42.00
   7  -5  -4  217.41   41.53
  -7   5   5 2689.02  224.82
  -7   5   5 2582.40  208.25
   7  -5  -5 2657.60  225.68
  -7  -5   5 2777.79  214.23
  -7  -5   5 2749.94  213.52
  -7   5   5 2709.42  179.52
   7   5  -5 2717.86  195.46
   7   5  -5 2901.05  231.69
  -7  -5   6  317.25   64.14
   7   5  -6  343.30   56.44
   7  -5  -6  365.22   58.93
  -7   5   6  384.93   61.65
   7   5  -6  283.60   48.80
  -7   5   6  343.52   55.12
  -7  -5   6  320.38   68.88
  -7   5   6  265.11   47.43
  -7   5   7  203.58   46.77
   7   5  -7  156.31   55.97
  -7   5   7  178.92   50.93
  -7   5   7   99.07   44.95
  -7  -5   7  167.78   58.97
   7  -5  -7  146.42   48.50
  -7  -5   7  152.30   47.95
  -7   6   1   80.71   40.20
   7  -6  -1   -3.73   19.01
  -7   6   1   67.67   28.10
   7   6  -1   31.76   23.57
  -7   6   1   20.87   29.19
   7   6  -1   40.77   26.45
  -7  -6   1   67.04   26.52
  -7  -6   1   32.84   24.39
   7  -6  -1   59.67   32.69
  -7   6   2  337.83   45.89
   7   6  -2  370.17   49.10
   7  -6  -2  278.81   53.31
   7  -6  -2  306.41   40.69
  -7  -6   2  276.72   48.46
  -7   6   2  323.32   49.72
  -7  -6   2  373.33   56.22
  -7   6   2  230.68   54.41
   7   6  -2  352.71   48.97
  -7   6   3  252.96   50.91
  -7   6   3  321.72   57.04
   7   6  -3  275.45   52.92
   7   6  -3  401.72   48.81
  -7  -6   3  398.06   61.69
  -7   6   3  358.93   55.34
  -7  -6   3  338.52   43.06
   7  -6  -3  301.38   38.21
  -7   6   4  545.78   60.67
  -7  -6   4  737.29   82.79
  -7  -6   4  600.61   87.12
  -7   6   4  687.26   85.76
   7  -6  -4  648.06   69.32
  -7   6   4  588.07   64.73
   7   6  -4  568.15   78.08
   7   6  -4  478.51   62.03
  -7  -6   5   99.08   40.47
  -7   6   5  195.12   49.08
   7   6  -5  223.89   50.14
  -7   6   5  166.04   41.32
   7  -6  -5  224.11   43.58
   7   6  -5   84.88   33.10
  -7  -6   5  183.84   43.22
  -7   6   5  146.62   49.85
   7   6  -6 5925.18  378.74
  -7   6   6 5570.51  358.13
  -7   6   6 5103.59  353.29
  -7   6   6 5632.45  399.86
   7   6  -6 5531.50  306.19
  -7  -6   6 5794.35  409.58
  -7  -6   6 5978.23  411.35
   7  -6  -6 5877.93  385.74
  -7  -6   7  601.75   84.56
  -7   6   7  506.95   79.69
  -7   6   7  544.68   80.92
  -7   6   7  481.63   70.30
  -7  -7   1  578.32   57.71
  -7  -7   1  531.70   62.56
  -7   7   1  483.08   54.64
   7  -7  -1  557.13   62.98
   7   7  -1  546.45   61.68
  -7   7   1  556.89   66.38
   7   7  -1  593.58   63.22
   7  -7  -1  489.29   68.13
  -7   7   1  536.45   65.83
  -7   7   2 2597.54  197.65
  -7  -7   2 2552.80  177.97
  -7   7   2 2382.46  167.40
   7   7  -2 2307.94  170.35
  -7  -7   2 2504.79  155.08
   7  -7  -2 2280.89  161.28
   7   7  -2 2248.42  185.63
  -7   7   2 2300.92  168.60
  -7  -7   3   17.89   22.51
  -7   7   3   30.16   26.52
   7   7  -3    0.64   29.15
  -7   7   3  -33.94   28.55
   7  -7  -3  -21.44   24.04
   7   7  -3   45.66   27.10
  -7  -7   3    2.88   26.96
  -7   7   3   -9.31   28.94
   7   7  -4 2839.83  200.73
  -7  -7   4 2827.76  212.22
  -7   7   4 2593.63  180.09
  -7   7   4 2829.18  205.11
  -7   7   4 2625.13  185.24
   7   7  -4 3006.25  193.96
  -7  -7   4 2727.36  212.25
   7  -7  -4 2692.87  204.74
   7  -7  -5   69.57   36.31
  -7   7   5   91.09   35.72
   7   7  -5  123.15   34.65
  -7  -7   5  151.40   40.41
  -7   7   5  101.03   43.60
  -7   7   5  116.00   38.44
   7   7  -5  112.31   38.79
  -7  -7   5  121.37   48.67
   7   7  -6 4147.13  319.61
  -7  -7   6 4283.25  293.24
   7   7  -6 3852.48  271.58
  -7   7   6 4162.53  283.91
  -7   7   6 4385.19  331.85
   7  -7  -6 4542.55  306.53
  -7  -7   6 4121.60  298.30
  -7   7   6 3936.40  268.72
  -7   8   1  188.95   38.12
   7   8  -1  167.73   29.71
  -7  -8   1  286.66   51.29
  -7  -8   1  150.57   38.40
  -7   8   1  248.92   41.51
   7  -8  -1  211.49   40.39
  -7   8   1  230.74   36.19
   7   8  -1  202.04   47.39
   7  -8  -1  209.74   32.93
   7   8  -2  959.39  102.16
   7   8  -2  997.68   90.33
  -7   8   2 1170.49  102.89
  -7   8   2  980.58   92.11
  -7  -8   2  968.56   90.82
  -7  -8   2  891.30   74.84
  -7   8   2  910.34   82.27
   7  -8  -2  901.32   85.70
   7   8  -3  784.07   86.04
  -7   8   3  734.91   76.23
   7   8  -3  677.55   73.24
   7  -8  -3  753.46   73.56
  -7  -8   3  715.16   78.23
  -7   8   3  779.83   74.36
  -7   8   3  787.28   74.63
  -7  -8   3  739.96   68.87
   7  -8  -4 2096.58  188.99
  -7   8   4 2304.14  206.03
  -7   8   4 2244.94  170.16
   7   8  -4 2387.12  178.17
  -7  -8   4 2180.26  184.34
  -7   8   4 2521.93  184.12
   7   8  -4 2437.78  171.02
  -7  -8   4 2119.01  168.35
  -7  -8   5 1387.93  147.99
  -7  -8   5 1410.52  128.70
   7   8  -5 1315.50  134.82
  -7   8   5 1314.89  118.18
  -7   8   5 1353.20  118.69
   7   8  -5 1150.17  130.79
  -7   8   5 1242.09  126.35
   7  -8  -5 1399.72  130.93
   7   8  -6 2342.40  242.46
  -7   8   6 2279.09  193.53
  -7   8   6 2552.86  224.64
  -7  -8   6 2602.66  231.97
   7   8  -6 2500.90  192.38
  -7   8   6 2616.80  188.82
  -7  -8   6 2443.39  177.71
   7  -8  -6 2558.33  192.34
   7   9  -1   33.69   34.05
  -7   9   1   41.63   28.90
  -7  -9   1   19.30   33.83
  -7   9   1   58.26   22.48
   7   9  -1   12.86   27.32
  -7  -9   1   23.11   28.84
   7  -9  -1   15.16   21.65
   7  -9  -1   42.82   37.31
  -7   9   1   19.72   30.04
  -7   9   2 3826.27  207.59
   7   9  -2 3623.59  231.63
  -7  -9   2 3897.55  254.31
   7  -9  -2 3818.24  313.68
  -7   9   2 4008.82  208.05
  -7  -9   2 3672.33  228.12
   7   9  -2 3575.14  254.02
  -7   9   2 3997.76  274.27
  -7  -9   3  342.41   54.55
  -7   9   3  344.41   55.30
   7  -9  -3  354.16   57.70
   7   9  -3  387.30   52.00
   7   9  -3  251.72   49.08
  -7  -9   3  402.93   56.78
  -7   9   3  240.28   46.64
  -7   9   3  311.57   55.18
   7   9  -4   61.11   32.14
   7  -9  -4  136.20   54.22
  -7  -9   4  114.80   37.03
  -7   9   4  107.14   43.65
  -7   9   4  101.31   41.77
  -7  -9   4   92.98   41.48
   7   9  -4   75.64   31.80
  -7   9   4   62.73   28.19
  -7   9   5   64.80   31.16
  -7   9   5   20.13   38.17
  -7  -9   5  131.74   43.99
   7  -9  -5  114.34   43.76
  -7  -9   5   90.70   45.05
  -7   9   5   60.46   34.34
   7   9  -5   78.00   31.99
   7   9  -5   32.36   33.37
  -7   9   6  673.42   82.53
  -7   9   6  617.72   76.21
   7   9  -6  648.26  102.50
  -7  -9   6  712.11   73.54
   7   9  -6  682.35   80.98
  -7  -9   6  734.10   84.41
   7  -9  -6  759.86   87.22
  -7   9   6  777.85  101.05
   7 -10  -1  497.35   68.45
  -7 -10   1  436.88   56.24
   7  10  -1  419.68   56.20
   7  10  -1  454.62   62.64
  -7 -10   1  416.09   58.44
  -7  10   1  549.23   71.20
  -7  10   1  412.33   53.48
  -7  10   1  538.26   73.25
   7  10  -2 1490.97  137.58
  -7  10   2 1404.48  118.93
   7  10  -2 1406.42  110.61
  -7  10   2 1460.69  121.68
  -7 -10   2 1502.29  120.98
  -7  10   2 1528.36  139.18
  -7 -10   2 1467.97  129.68
   7 -10  -2 1580.31  139.99
  -7 -10   3  -12.39   24.01
  -7 -10   3    0.56   36.35
  -7  10   3   15.18   27.36
  -7  10   3   14.78   33.12
   7 -10  -3   17.55   37.57
   7  10  -3   25.45   35.96
  -7  10   3  -12.07   26.19
   7  10  -3   -1.20   30.51
  -7 -10   4 2717.08  223.60
  -7  10   4 2546.78  204.31
   7 -10  -4 2890.03  232.60
   7  10  -4 2734.09  182.71
  -7 -10   4 3031.85  202.49
  -7  10   4 2915.19  193.32
  -7  10   4 2589.65  189.87
   7  10  -4 3062.39  273.70
  -7 -10   5   34.90   35.74
   7  10  -5   48.57   31.09
  -7 -10   5   16.53   25.97
   7  10  -5   53.04   32.87
  -7  10   5   43.10   29.32
  -7  10   5   25.11   31.94
   7 -10  -5   34.71   30.47
  -7  10   5  100.50   37.44
  -7  10   6  560.90   76.73
  -7 -10   6  543.83   70.05
  -7  10   6  493.63   65.69
  -7 -10   6  507.84   76.23
   7  10  -6  456.80   63.90
  -7  10   6  534.57   71.68
  -7  11   1   -1.32   28.66
  -7  11   1  -16.44   23.35
  -7 -11   1   -9.70   22.97
   7  11  -1   -4.11   27.02
  -7 -11   1   45.30   29.81
   7  11  -1   20.76   26.98
   7 -11  -1   28.87   37.97
  -7 -11   2 2084.65  146.76
  -7  11   2 1810.14  143.14
  -7  11   2 2237.87  208.59
   7  11  -2 1955.63  169.40
  -7 -11   2 2025.18  167.95
   7 -11  -2 1885.40  158.22
  -7  11   2 2126.41  162.58
   7  11  -2 1944.36  154.48
  -7 -11   3    1.08   31.41
   7  11  -3    1.73   38.42
   7  11  -3   23.37   35.20
  -7 -11   3    4.77   27.31
   7 -11  -3   29.89   28.05
  -7  11   3    1.44   26.76
  -7  11   3   -8.19   27.54
  -7  11   3    1.00   30.55
  -7 -11   4  664.66   81.93
   7  11  -4  675.06   77.08
   7 -11  -4  630.71   88.20
  -7 -11   4  722.39   79.22
  -7  11   4  665.45   73.58
  -7  11   4  549.62   74.67
   7  11  -4  629.87   88.67
  -7  11   4  559.68   72.33
  -7 -11   5  385.03   63.24
  -7  11   5  353.84   64.29
   7  11  -5  354.89   60.00
   7 -11  -5  361.41   61.21
   7  11  -5  501.27   67.92
  -7  11   5  422.71   68.63
  -7 -11   5  387.51   63.21
  -7  11   5  261.30   54.31
   7  12  -1    8.06   29.99
  -7 -12   1   -4.09   18.76
   7  12  -1   24.71   37.41
   7 -12  -1   14.77   28.55
  -7  12   1    1.64   24.07
  -7 -12   1   20.57   34.25
  -7  12   1   14.63   29.47
  -7  12   2 1367.38  117.08
   7  12  -2 1311.22  121.18
   7 -12  -2 1440.96  142.37
  -7 -12   2 1209.59  110.89
  -7 -12   2 1286.04  129.70
  -7  12   2 1515.10  156.97
   7  12  -2 1335.97  118.32
  -7  12   3 1637.37  144.47
   7  12  -3 1365.74  112.53
  -7 -12   3 1318.20  103.53
   7  12  -3 1266.99  143.94
  -7 -12   3 1401.01  147.75
  -7  12   3 1517.31  146.30
   7 -12  -3 1445.49  145.17
  -7  12   4  944.48  109.43
  -7 -12   4 1064.88  113.65
  -7 -12   4 1020.85  109.57
  -7  12   4 1001.01   98.94
   7 -12  -4 1026.28  115.95
  -7  12   4 1051.40  100.88
   7  12  -4  955.48  113.24
   7  12  -4 1037.32  109.07
  -7  12   5   98.26   42.20
  -7 -12   5  115.21   33.15
  -7 -12   5   44.65   37.03
   7  12  -5  132.45   37.07
  -7  12   5   74.20   36.00
  -7  12   5   89.33   46.59
   7  13  -1 3971.00  262.14
   7 -13  -1 3823.57  310.52
  -7  13   1 4209.47  249.59
  -7  13   1 3585.19  264.42
   7  13  -1 3526.17  248.24
  -7 -13   1 3931.04  269.09
  -7 -13   2 1101.98  113.92
  -7 -13   2 1101.56  120.49
   7  13  -2 1171.72  115.55
   7 -13  -2 1138.29  111.41
  -7  13   2 1069.96  111.99
   7  13  -2 1254.23  122.95
  -7  13   2 1237.53  129.83
   7 -13  -3  202.22   42.75
  -7 -13   3  186.57   38.05
  -7 -13   3  141.07   36.22
   7  13  -3  106.70   42.40
  -7  13   3  158.41   45.45
  -7  13   3  173.50   46.78
   7  13  -3  190.99   48.46
   7 -13  -4  139.71   50.66
   7  13  -4   86.35   37.16
  -7  13   4  107.25   39.54
  -7  13   4   98.76   38.47
   7  13  -4  128.46   43.26
  -7 -13   4   87.23   31.25
  -7 -13   4   55.54   38.14
   7  14  -1  194.01   38.87
   7 -14  -1  177.74   46.83
  -7 -14   1   91.48   40.32
  -7  14   1  140.19   41.37
  -7  14   1  159.75   52.02
   7  14  -1  133.04   44.13
   7  14  -2  332.85   65.36
   7 -14  -2  337.98   68.43
  -7  14   2  276.93   50.73
  -7  14   2  344.75   57.50
  -7 -14   2  355.01   57.52
   7  14  -2  360.84   60.66
   7  14  -3 1797.08  165.78
  -7  14   3 1531.40  147.76
   7 -14  -3 1361.07  144.66
  -7  14   3 1696.28  158.99
   7  14  -3 1468.69  135.63
  -7 -14   3 1543.65  154.09
   7 -15  -1  281.58   64.72
   7  15  -1  257.73   65.56
  -7 -15   1  294.14   59.92
  -7  15   1  329.77   59.22
   7  15  -1  322.87   57.48
  -7  15   1  337.86   56.88
   7  15  -2   27.01   28.14
  -7  15   2   -0.32   40.47
  -7 -15   2   13.73   34.32
  -7  15   2   12.69   27.06
  -6   0   1    9.65   26.84
  -6   0   1    8.96   16.88
   6   0  -1    7.44   21.55
   6   0  -1   27.75   23.27
  -6   0   1   -5.01   25.55
  -6   0   2 5346.88  293.50
   6   0  -2 5434.10  221.95
  -6   0   2 5097.23  246.41
  -6   0   2 4887.21  227.80
   6   0  -2 5065.60  260.30
  -6   0   3    1.24   31.45
  -6   0   3   28.18   20.53
   6   0  -3   21.13   21.93
   6   0  -3  -13.07   26.42
  -6   0   3    5.76   30.18
  -6   0   4 3642.06  204.06
  -6   0   4 3597.46  203.55
   6   0  -4 3423.18  212.55
  -6   0   4 3408.94  219.77
   6   0  -4 3432.39  169.61
   6   0  -5  -18.21   24.72
  -6   0   5   22.74   24.73
  -6   0   5    6.87   24.72
  -6   0   5  -31.88   24.76
   6   0  -5    6.97   24.78
  -6   0   6 1030.20  122.93
   6   0  -6  990.68   96.48
  -6   0   6  997.54   94.82
  -6   0   6  929.94   84.60
  -6   0   7    7.97   25.41
   6   0  -7   24.41   25.45
  -6   0   7   35.49   34.81
  -6   0   8  655.92   93.48
   6   0  -8  525.64   67.22
   6   0  -8  677.03   77.83
  -6  -1   1  360.58   37.30
  -6  -1   1  276.70   33.02
   6   1  -1  380.98   35.44
   6  -1  -1  282.10   41.75
  -6   1   1  323.00   43.55
   6  -1  -1  285.24   36.71
  -6  -1   1  300.03   31.09
   6   1  -1  294.57   39.55
  -6   1   1  334.24   33.08
  -6   1   1  395.88   43.51
  -6  -1   2 7318.10  324.01
  -6   1   2 6878.22  324.36
   6  -1  -2 7068.20  405.02
   6   1  -2 7291.96  344.63
   6  -1  -2 7200.93  306.07
  -6  -1   2 7064.29  308.00
  -6   1   2 7107.08  342.74
  -6   1   2 7011.64  365.61
  -6  -1   2 7286.80  329.59
   6   1  -2 7206.73  317.56
  -6   1   3   85.24   25.37
   6  -1  -3  104.93   23.79
   6   1  -3   90.65   25.35
  -6   1   3   89.61   33.76
  -6  -1   3   88.02   33.34
  -6  -1   3   86.95   35.58
   6  -1  -3   96.52   34.50
  -6  -1   3   83.26   18.65
  -6   1   3   58.49   34.10
   6   1  -3  106.45   27.26
   6   1  -4 6599.02  321.14
   6  -1  -4 6655.46  285.62
   6  -1  -4 6715.03  353.04
   6   1  -4 7059.45  337.15
  -6   1   4 6763.29  352.65
  -6   1   4 6408.27  309.87
  -6  -1   4 6732.16  308.15
  -6   1   4 6730.85  338.32
  -6  -1   4 6767.24  297.44
  -6  -1   4 6560.20  345.04
  -6   1   5   11.15   25.45
   6   1  -5   27.01   21.88
  -6   1   5   15.76   20.64
   6   1  -5   40.22   31.72
  -6  -1   5   -8.55   25.95
   6  -1  -5  -38.95   25.33
  -6  -1   5    1.16   14.80
  -6   1   5   12.55   27.25
  -6  -1   5   13.07   27.17
   6  -1  -5  -10.76   14.24
  -6   1   6  301.44   50.02
  -6   1   6  354.73   48.91
  -6  -1   6  364.81   57.47
   6  -1  -6  339.92   56.50
   6   1  -6  443.26   59.04
  -6  -1   6  312.45   49.09
  -6   1   6  414.40   70.14
  -6  -1   6  320.47   38.20
   6  -1  -7   70.97   39.24
  -6   1   7  135.29   49.55
   6   1  -7  113.76   41.34
  -6   1   7  142.76   32.70
   6   1  -7  222.35   47.58
  -6   1   7   78.68   39.58
  -6  -1   7  151.41   36.95
   6  -1  -8  397.31   56.66
   6   1  -8  288.75   61.28
  -6   1   8  509.81   76.45
   6   1  -8  415.32   62.28
  -6  -1   8  378.95   59.14
   6   2  -1   64.43   22.20
  -6  -2   1   61.57   16.92
  -6   2   1   35.67   18.84
  -6  -2   1   50.07   28.10
   6  -2  -1   75.67   24.88
  -6   2   1   67.06   31.17
   6   2  -1   71.43   21.76
  -6  -2   1   35.33   26.68
   6  -2  -1   57.59   19.12
  -6   2   1   57.97   24.84
  -6  -2   2 6737.80  372.14
  -6   2   2 6739.77  335.70
  -6  -2   2 6809.04  320.28
   6   2  -2 6580.59  312.09
  -6  -2   2 7063.04  285.48
   6  -2  -2 6706.14  343.01
   6  -2  -2 6925.64  329.48
  -6   2   2 6887.17  283.75
  -6   2   2 6809.58  329.01
   6   2  -2 6622.60  283.12
  -6   2   3  534.29   40.26
  -6   2   3  455.68   48.32
   6   2  -3  429.20   53.74
  -6  -2   3  494.18   42.93
  -6  -2   3  541.28   66.33
   6  -2  -3  598.04   55.31
   6   2  -3  543.61   48.79
  -6   2   3  465.55   53.19
   6  -2  -3  527.02   56.68
  -6  -2   3  570.59   43.74
  -6   2   4 4126.12  242.76
  -6   2   4 4098.64  215.77
  -6   2   4 3858.08  235.02
  -6  -2   4 4250.73  204.80
   6  -2  -4 4128.41  210.30
   6  -2  -4 4422.21  210.25
  -6  -2   4 3893.36  235.26
  -6  -2   4 3946.02  225.67
   6   2  -4 4226.33  242.40
   6   2  -4 4055.35  253.31
  -6   2   5   55.66   22.87
   6  -2  -5   17.67   26.50
   6   2  -5   34.24   29.97
  -6  -2   5    4.11   28.91
  -6   2   5   22.50   21.62
   6   2  -5   51.34   26.21
  -6  -2   5   -8.43   34.13
  -6  -2   5   50.33   22.65
  -6   2   5   33.57   33.97
   6   2  -6  112.17   27.42
  -6   2   6  140.29   36.58
  -6   2   6   87.16   32.93
  -6   2   6  102.72   41.80
  -6  -2   6   80.62   44.32
   6  -2  -6   86.38   39.93
   6   2  -6   72.03   30.60
   6  -2  -7    6.04   24.99
  -6   2   7   25.20   32.36
  -6   2   7   47.93   28.47
  -6  -2   7   63.60   41.92
  -6   2   7   51.12   28.00
   6   2  -7   90.56   38.75
   6   2  -7   53.53   32.69
  -6  -2   8   20.93   30.55
  -6   2   8   69.08   42.47
  -6   2   8    0.56   24.02
   6   2  -8   28.60   42.06
   6  -2  -8   46.88   34.00
  -6   2   8   58.62   34.22
   6   2  -8   25.79   36.72
  -6  -3   1 3367.10  213.09
   6  -3  -1 3345.39  180.57
   6   3  -1 3171.83  188.63
  -6   3   1 3281.12  182.62
   6   3  -1 3392.68  169.03
  -6  -3   1 3193.77  171.14
  -6   3   1 3376.99  179.28
  -6  -3   1 3389.72  172.61
  -6   3   1 3106.21  152.18
   6  -3  -1 3239.64  176.48
  -6  -3   1 2889.42  205.83
  -6  -3   2 2098.02  105.03
  -6   3   2 2141.84  118.73
  -6   3   2 2202.35  127.05
  -6   3   2 2078.58  119.79
   6   3  -2 2146.55  114.23
   6   3  -2 2201.44  123.14
   6  -3  -2 2152.03  132.40
  -6  -3   2 2132.65  147.61
   6  -3  -2 2192.12  144.45
  -6  -3   2 2173.76  135.01
  -6   3   3 1116.02   81.27
   6   3  -3 1168.21   74.29
   6   3  -3  878.32   80.45
  -6   3   3 1041.35   91.20
   6  -3  -3  985.16   86.30
  -6  -3   3 1011.21   81.62
   6  -3  -3 1051.69   71.50
  -6  -3   3 1066.87   58.32
  -6  -3   3 1067.73   85.89
  -6   3   3 1184.86   82.92
   6   3  -4 6726.05  320.54
  -6  -3   4 6481.41  354.09
   6  -3  -4 6155.40  335.63
  -6  -3   4 6147.65  260.43
  -6   3   4 6605.38  358.65
  -6   3   4 6433.72  298.20
   6   3  -4 6476.38  393.88
  -6   3   4 6934.64  316.28
  -6  -3   4 6045.89  326.65
   6  -3  -4 6592.13  303.78
  -6   3   5   30.54   36.37
  -6   3   5   53.37   25.99
  -6   3   5   49.91   34.35
  -6  -3   5   35.53   32.82
   6   3  -5    1.40   25.37
  -6  -3   5   19.94   27.98
   6  -3  -5   38.71   33.91
   6   3  -5   23.94   36.50
  -6   3   6  457.36   57.96
   6  -3  -6  448.82   67.32
  -6   3   6  524.32   69.59
   6   3  -6  494.87   79.29
   6   3  -6  486.27   65.54
   6   3  -6  455.92   50.52
  -6   3   6  523.66   53.70
  -6  -3   6  464.35   62.49
   6  -3  -7   70.18   32.41
  -6   3   7   53.84   33.93
  -6   3   7   94.28   37.65
  -6  -3   7   21.55   31.09
  -6   3   7   58.35   41.46
   6   3  -7   97.33   44.93
   6   3  -7   49.14   35.68
  -6  -3   8  139.02   41.11
  -6   3   8  134.41   39.86
  -6   3   8  131.46   38.80
   6   3  -8   96.50   41.10
   6  -3  -8   88.82   36.63
   6   3  -8  105.81   39.27
  -6   3   8  173.28   54.66
   6  -4  -1  482.94   45.95
  -6   4   1  469.01   43.73
   6   4  -1  548.54   55.47
  -6   4   1  533.34   46.53
  -6  -4   1  510.76   60.62
  -6  -4   1  526.56   47.75
  -6   4   1  559.93   59.62
   6  -4  -1  507.78   51.01
   6   4  -1  582.78   57.13
  -6  -4   1  492.25   34.87
  -6  -4   2 3477.40  207.75
  -6  -4   2 3259.82  200.11
   6  -4  -2 3500.39  183.92
   6   4  -2 3399.40  180.55
  -6   4   2 3425.11  177.14
  -6  -4   2 3308.67  142.10
  -6   4   2 3495.39  183.22
   6  -4  -2 3247.42  163.29
   6   4  -2 3371.83  194.52
  -6   4   2 3312.72  197.21
   6  -4  -3  326.59   36.69
  -6   4   3  367.31   42.53
  -6   4   3  352.07   46.02
  -6   4   3  336.04   43.37
   6   4  -3  309.81   41.83
  -6  -4   3  299.33   24.85
  -6  -4   3  392.47   59.76
   6   4  -3  287.03   38.02
  -6  -4   3  342.75   54.42
   6  -4  -3  293.04   46.14
  -6  -4   4 1094.82   81.69
  -6   4   4 1144.94   75.69
  -6   4   4 1047.25   84.70
   6  -4  -4  992.56   89.04
  -6  -4   4 1050.69   88.85
   6   4  -4 1078.28   79.88
   6   4  -4 1176.10   95.93
  -6   4   4 1166.98  105.27
   6  -4  -4 1058.33   73.05
  -6   4   5  353.87   49.86
   6  -4  -5  331.95   52.02
  -6  -4   5  329.58   51.13
  -6   4   5  394.57   44.37
   6   4  -5  324.90   62.04
  -6   4   5  382.40   52.30
  -6  -4   5  272.37   46.95
   6   4  -5  225.06   39.65
  -6   4   6 1282.15  111.26
   6   4  -6 1255.01  103.74
   6  -4  -6 1276.02  119.77
   6   4  -6 1245.29  106.34
  -6   4   6 1272.25  125.73
   6   4  -6 1249.06  123.10
  -6  -4   6 1272.27  113.77
  -6   4   6 1332.92  119.61
   6   4  -7 2151.39  206.01
  -6   4   7 2304.24  184.53
   6  -4  -7 2189.42  163.97
   6   4  -7 2161.05  176.65
  -6  -4   7 2131.13  170.88
  -6   4   7 2055.30  145.99
  -6   4   7 2305.58  180.75
   6   4  -8 1292.52  137.31
  -6   4   8 1255.87  118.36
  -6  -4   8 1334.13  122.06
  -6   4   8 1162.72   95.01
   6  -4  -8 1329.14  128.33
   6   4  -8 1135.59  130.67
  -6   4   8 1275.79  135.28
  -6   5   1 7108.45  428.41
   6  -5  -1 7449.18  325.44
   6   5  -1 6899.81  319.94
   6  -5  -1 7064.42  393.15
  -6  -5   1 7118.26  335.52
  -6  -5   1 6637.37  310.44
  -6   5   1 6902.69  317.92
  -6  -5   1 7018.82  279.40
  -6   5   1 6854.94  289.96
   6   5  -1 7337.51  364.06
  -6   5   2   70.51   31.93
   6  -5  -2   67.89   20.18
   6  -5  -2   59.23   25.68
  -6  -5   2   18.12   28.14
  -6  -5   2   40.78    8.30
   6   5  -2   35.10   24.46
  -6   5   2   52.19   25.44
   6   5  -2  119.47   30.88
  -6   5   2   49.95   23.05
  -6  -5   2   36.96   26.94
   6   5  -3  286.65   47.02
   6  -5  -3  227.84   39.42
  -6   5   3  263.89   37.54
   6   5  -3  239.73   33.03
  -6  -5   3  218.67   42.43
  -6   5   3  210.26   36.20
  -6  -5   3  227.77   45.55
   6  -5  -3  251.52   30.03
  -6   5   3  256.08   34.89
  -6  -5   4 8978.60  515.86
  -6   5   4 8875.19  478.50
   6  -5  -4 8892.91  413.73
  -6  -5   4 8531.89  393.80
  -6   5   4 9320.61  430.40
   6   5  -4 9295.55  427.96
  -6   5   4 9332.02  450.63
   6   5  -4 8955.76  418.39
  -6  -5   5 3474.53  211.96
   6   5  -5 3198.74  192.59
  -6   5   5 3326.68  207.18
  -6  -5   5 3527.47  225.40
  -6   5   5 3453.81  201.02
   6   5  -5 3460.26  213.82
   6  -5  -5 3212.14  229.06
  -6   5   5 3419.80  194.86
   6   5  -6 3207.63  242.65
  -6   5   6 3118.80  203.46
   6   5  -6 2938.69  203.52
  -6   5   6 3281.00  220.29
  -6   5   6 3201.02  214.86
   6   5  -6 2969.28  188.81
  -6  -5   6 3007.23  206.72
   6  -5  -6 2973.87  220.28
   6  -5  -7  665.21   80.90
  -6   5   7  561.00   76.39
  -6  -5   7  634.18   69.62
  -6   5   7  604.70   78.56
   6   5  -7  487.30   76.74
   6   5  -7  625.05  102.78
  -6   5   7  534.20   62.44
   6   5  -7  630.89   79.41
  -6   5   8   10.94   29.06
   6  -5  -8   50.70   29.06
   6   5  -8  -25.58   29.02
  -6   5   8  -34.80   29.07
  -6   5   8   33.36   29.07
  -6  -5   8   -9.97   28.92
   6   5  -8  -15.38   28.97
  -6  -6   1 5848.50  260.20
  -6  -6   1 5695.39  285.28
   6   6  -1 5600.32  255.24
  -6   6   1 5908.43  273.84
  -6   6   1 5274.20  256.23
   6  -6  -1 5771.17  289.40
  -6   6   1 5616.05  302.39
   6   6  -1 5876.03  343.68
   6  -6  -1 5672.23  279.93
  -6   6   2 6809.88  308.11
   6  -6  -2 7178.26  317.91
  -6  -6   2 6529.31  360.31
   6   6  -2 7221.43  384.78
  -6   6   2 7155.32  326.69
  -6  -6   2 6729.03  330.05
   6   6  -2 6532.11  330.03
   6  -6  -2 6715.90  348.18
  -6   6   2 7134.68  371.96
   6  -6  -313651.39  602.05
  -6  -6   313791.78  629.02
  -6   6   313506.40  654.11
  -6   6   313105.54  595.95
   6   6  -313505.34  619.38
  -6  -6   313492.51  569.51
   6   6  -313868.78  582.38
   6  -6  -313426.17  582.70
  -6   6   312973.41  588.54
  -6   6   4 5947.53  309.37
  -6   6   4 6303.65  344.88
  -6   6   4 6000.76  294.29
   6  -6  -4 6319.14  308.48
  -6  -6   4 6048.11  322.60
   6   6  -4 6542.99  359.66
   6   6  -4 6047.45  317.19
  -6  -6   4 6016.10  312.64
  -6  -6   5 1048.35   98.92
   6   6  -5 1266.43  104.52
   6   6  -5 1227.42   96.49
  -6   6   5 1009.41  102.80
   6  -6  -5 1311.36  120.86
  -6   6   5 1005.70   89.43
  -6  -6   5 1053.96  100.34
  -6   6   5  946.94   89.11
  -6  -6   6  366.93   59.99
  -6   6   6  404.57   62.96
   6   6  -6  458.25   59.76
  -6   6   6  395.41   53.98
   6   6  -6  503.87   68.15
   6  -6  -6  417.23   55.06
  -6   6   6  505.91   74.63
   6   6  -6  417.44   59.06
  -6  -6   7 2717.78  205.48
  -6   6   7 2377.89  193.86
   6  -6  -7 2702.93  195.86
  -6   6   7 2571.94  185.11
   6   6  -7 2482.92  206.94
   6   6  -7 2162.51  164.94
  -6   6   7 2377.60  175.90
   6   6  -7 2515.02  208.12
  -6   6   8   99.90   38.70
   6   6  -8   69.61   37.45
  -6  -6   8  118.75   48.45
   6  -6  -8   96.17   43.71
   6   6  -8  134.94   47.83
  -6   6   8   46.54   39.28
  -6   6   8   46.23   33.64
   6  -7  -1 2424.47  152.19
  -6   7   1 2407.49  148.23
   6   7  -1 2632.48  174.24
  -6   7   1 2375.36  140.73
  -6   7   1 2399.31  141.89
   6  -7  -1 2244.36  153.48
  -6  -7   1 2364.87  138.13
   6   7  -1 2481.53  144.87
  -6  -7   1 2348.34  126.04
  -6  -7   2  732.96   59.48
   6   7  -2  627.56   58.16
  -6   7   2  634.23   66.99
  -6   7   2  619.17   54.33
  -6  -7   2  568.41   51.66
  -6   7   2  659.43   58.95
   6  -7  -2  690.55   72.56
   6   7  -2  615.11   65.66
   6  -7  -2  697.86   62.63
  -6  -7   3  483.38   57.38
  -6   7   3  470.81   50.27
   6   7  -3  496.30   58.73
   6  -7  -3  402.45   63.41
  -6   7   3  469.55   63.17
   6   7  -3  411.65   48.73
  -6  -7   3  506.59   58.02
  -6   7   3  465.34   51.50
   6   7  -4    1.12   29.93
   6   7  -4   12.11   34.24
  -6   7   4   16.70   28.13
  -6  -7   4    2.24   30.24
  -6  -7   4   24.09   35.88
  -6   7   4    9.81   29.64
   6  -7  -4   29.55   29.39
  -6   7   4   43.50   34.35
  -6   7   5 8203.79  427.98
  -6   7   5 8237.74  443.98
  -6  -7   5 8038.75  453.81
   6   7  -5 8139.93  492.20
   6  -7  -5 8442.13  514.97
   6   7  -5 8251.06  470.74
  -6  -7   5 8035.83  422.55
  -6   7   5 8482.92  463.64
   6  -7  -6   16.96   26.17
   6   7  -6   29.10   31.42
   6   7  -6   13.49   26.95
  -6  -7   6   46.55   41.55
  -6   7   6    6.04   36.50
  -6   7   6   18.64   29.31
  -6   7   6   19.34   33.39
   6   7  -6   60.00   37.10
   6   7  -7 1420.74  131.25
  -6   7   7 1374.78  122.41
   6   7  -7 1425.59  137.30
  -6   7   7 1391.04  124.67
  -6  -7   7 1332.47  131.05
  -6   7   7 1459.75  127.40
   6  -7  -7 1402.33  127.32
  -6   7   8   76.57   34.24
   6  -7  -8   17.77   33.18
  -6  -7   8   59.85   35.21
  -6   7   8   83.63   34.90
  -6   8   1   52.27   27.93
   6  -8  -1   49.00   21.87
  -6   8   1   59.74   32.05
   6   8  -1   46.10   29.26
   6   8  -1   26.87   28.83
  -6   8   1   13.49   22.97
  -6  -8   1  121.04   29.79
  -6  -8   1   71.59   24.42
   6  -8  -1   34.27   30.28
   6  -8  -2 2880.13  163.64
   6   8  -2 2744.59  174.91
  -6   8   2 3057.32  206.38
  -6   8   2 2968.97  182.72
  -6  -8   2 2731.33  170.92
   6   8  -2 2761.24  170.46
  -6  -8   2 2878.46  205.74
   6  -8  -2 2644.87  182.43
  -6   8   2 2824.24  166.54
   6  -8  -3 1067.04   87.33
  -6   8   3 1024.82  103.92
  -6   8   3 1058.92   86.10
  -6  -8   3 1044.39   98.25
  -6  -8   3 1019.62   99.66
   6   8  -3 1086.38   95.77
   6   8  -3 1267.58  103.23
  -6   8   3 1086.19   87.62
  -6  -8   4 1158.34   98.36
   6  -8  -4 1200.27  111.71
   6   8  -4  983.14   86.19
  -6   8   4 1110.76  113.65
  -6  -8   4 1202.77  100.83
  -6   8   4 1269.31  114.10
   6   8  -4 1191.32   94.98
  -6   8   4 1075.03  103.08
   6  -8  -5  113.59   42.31
  -6   8   5    8.52   22.12
   6   8  -5  124.04   38.09
  -6   8   5  100.13   33.00
  -6  -8   5   97.22   39.08
  -6  -8   5   78.75   32.04
  -6   8   5  122.80   39.33
   6   8  -5   41.42   36.83
   6  -8  -6  192.45   43.22
  -6   8   6  147.14   37.46
  -6   8   6  176.42   33.13
   6   8  -6  254.08   46.14
  -6   8   6  212.85   47.06
  -6  -8   6  150.64   47.24
   6   8  -6  213.70   48.07
  -6   8   7 4154.79  243.36
  -6  -8   7 4489.87  288.81
   6   8  -7 4316.74  318.83
  -6  -8   7 4088.38  285.56
  -6   8   7 3879.02  265.08
   6   8  -7 4084.64  310.91
  -6   8   7 4274.23  299.97
   6  -8  -7 4470.94  292.63
  -6   9   1 5978.01  319.96
   6   9  -1 6002.27  306.07
  -6   9   1 6226.26  326.35
   6  -9  -1 6271.77  332.99
   6   9  -1 6463.76  391.38
  -6  -9   1 5939.04  293.87
  -6  -9   1 6016.43  353.81
   6  -9  -1 6262.15  310.68
  -6   9   1 6336.13  352.39
   6  -9  -2   18.30   30.39
  -6   9   2    3.08   30.36
   6   9  -2  -58.91   30.29
  -6  -9   2    2.81   30.43
  -6   9   2    7.80   30.35
  -6  -9   2  -28.40   30.45
   6  -9  -2   20.13   30.32
  -6   9   2  -34.02   30.34
   6   9  -2   21.04   30.47
   6   9  -3 2291.30  147.07
  -6   9   3 2203.49  161.89
  -6   9   3 2144.21  160.38
  -6   9   3 2109.45  147.92
  -6  -9   3 2131.14  170.16
   6  -9  -3 2302.88  157.01
  -6  -9   3 2312.39  178.72
   6   9  -3 2248.43  186.16
  -6   9   4  762.23   75.11
  -6  -9   4  693.62   74.75
  -6   9   4  811.90   81.57
  -6   9   4  677.42   64.84
   6  -9  -4  816.20   93.11
   6   9  -4  778.92   77.66
  -6  -9   4  757.75   84.26
   6   9  -4  783.91   86.89
  -6  -9   5  518.88   58.42
   6  -9  -5  487.81   64.83
  -6  -9   5  446.11   65.38
  -6   9   5  537.54   60.45
   6   9  -5  436.12   79.96
  -6   9   5  567.17   69.00
   6   9  -5  498.66   61.41
  -6   9   5  587.87   67.31
  -6  -9   6  355.08   57.30
   6   9  -6  290.74   56.49
  -6   9   6  349.65   52.57
  -6   9   6  291.78   49.88
  -6  -9   6  336.72   54.67
  -6   9   6  266.88   53.19
   6   9  -6  288.34   53.26
   6  -9  -6  291.06   55.62
  -6  -9   7   82.56   33.78
  -6   9   7   43.42   29.45
  -6   9   7  141.47   40.55
   6   9  -7   92.90   42.31
   6  -9  -7  114.75   40.16
  -6  -9   7    8.80   31.10
   6   9  -7  107.24   39.86
  -6   9   7   21.25   40.01
   6  10  -1  279.38   45.58
  -6 -10   1  267.06   37.17
   6 -10  -1  291.28   38.41
  -6  10   1  181.80   39.50
  -6  10   1  222.20   32.96
  -6 -10   1  274.36   53.87
   6 -10  -1  315.93   57.34
  -6  10   1  245.53   48.40
   6  10  -1  297.98   37.25
  -6  10   2    3.36   21.91
  -6 -10   2   24.03   27.28
   6  10  -2   -9.16   24.82
   6 -10  -2   16.81   26.00
  -6  10   2   -3.36   28.06
   6  10  -2  -15.48   32.17
  -6  10   2    2.36   24.27
  -6 -10   2    2.45   23.21
   6  10  -3 2095.41  155.28
  -6  10   3 1904.85  159.73
   6 -10  -3 2015.01  172.57
  -6 -10   3 1935.22  144.44
  -6  10   3 1808.56  141.07
  -6 -10   3 1833.23  152.42
   6  10  -3 1830.62  126.93
  -6  10   3 1885.92  145.72
  -6  10   4  227.38   40.01
   6  10  -4  221.69   43.14
  -6  10   4  230.58   46.10
  -6 -10   4  257.38   46.62
  -6  10   4  244.78   48.16
  -6 -10   4  132.12   36.27
   6  10  -4  224.12   48.05
   6 -10  -4  236.95   51.74
  -6 -10   5  329.60   59.55
  -6  10   5  403.52   56.60
  -6  10   5  372.23   60.90
   6  10  -5  433.47   52.26
  -6  10   5  392.84   63.08
   6  10  -5  519.75   63.33
   6 -10  -5  435.90   65.38
  -6 -10   5  447.00   60.72
   6  10  -6  716.15   89.07
  -6  10   6  630.38   72.53
  -6 -10   6  857.15   84.43
   6 -10  -6  779.27   86.14
  -6  10   6  677.66   78.26
  -6  10   6  823.05   94.65
   6  10  -6  669.16   88.63
  -6 -10   6  772.20   88.34
  -6  10   7 1818.53  157.27
  -6  10   7 1573.07  156.37
  -6 -10   7 1814.18  149.73
  -6 -10   7 1789.85  158.62
   6 -10  -7 1671.84  136.97
   6  10  -7 1611.57  155.42
   6  10  -7 1744.61  187.10
  -6  10   7 1673.46  150.44
  -6 -11   1 5680.42  298.20
  -6  11   1 5748.38  297.28
   6 -11  -1 6043.70  338.06
   6  11  -1 5862.00  409.01
  -6  11   1 6092.67  323.82
  -6 -11   1 5920.92  347.93
   6 -11  -1 5926.34  315.32
   6  11  -1 5657.68  321.00
  -6  11   1 6361.25  350.76
  -6  11   2 1036.87   95.32
  -6  11   2 1083.20   85.67
  -6  11   2 1171.61  112.39
   6  11  -2 1222.46   92.07
  -6 -11   2 1139.65  104.09
   6 -11  -2 1174.66  104.06
   6  11  -2 1114.79   94.44
  -6 -11   2 1032.87  109.41
   6  11  -3 1564.57  139.78
  -6  11   3 1387.42  118.33
   6  11  -3 1449.53  126.22
   6 -11  -3 1601.78  112.55
  -6 -11   3 1494.74  122.94
  -6  11   3 1463.73  108.83
  -6 -11   3 1755.42  145.43
  -6  11   3 1555.75  135.03
  -6  11   4  163.14   49.33
  -6  11   4  146.56   35.01
   6 -11  -4  119.60   49.28
  -6  11   4  169.12   31.09
   6  11  -4  138.64   42.18
  -6 -11   4  129.09   39.61
  -6 -11   4  150.84   33.87
   6  11  -4   92.15   38.47
  -6 -11   5 1251.75  111.23
  -6  11   5 1196.22  107.34
   6  11  -5 1284.02  121.23
   6 -11  -5 1167.22  106.91
  -6 -11   5 1088.41   91.83
  -6  11   5 1206.70  135.34
  -6  11   5 1289.55  110.97
  -6 -11   6   27.02   29.26
  -6  11   6   23.48   24.60
  -6 -11   6   12.24   30.64
   6 -11  -6    7.94   31.35
  -6  11   6  -12.21   31.87
  -6  11   6   45.76   36.93
   6  11  -6   50.04   37.50
   6  11  -6    4.20   33.55
   6  11  -7  469.33   87.04
  -6  11   7  504.05   77.30
  -6  11   7  345.61   56.79
   6 -11  -7  353.91   77.75
  -6 -11   7  436.47   63.35
  -6  11   7  256.46   61.01
  -6 -12   1  168.22   39.93
   6 -12  -1  137.41   36.53
   6  12  -1  126.68   34.24
  -6 -12   1  135.86   33.74
  -6  12   1  134.70   38.44
  -6  12   1  177.23   38.84
   6  12  -1  147.08   43.04
  -6  12   2  461.11   57.78
  -6  12   2  552.18   66.21
   6 -12  -2  588.22   67.67
  -6 -12   2  481.30   71.58
  -6 -12   2  501.73   55.02
   6  12  -2  517.50   61.76
  -6  12   2  625.18   58.11
   6  12  -2  503.77   64.75
   6  12  -3  834.94   87.12
  -6  12   3  736.95   71.07
   6  12  -3  793.80   94.43
  -6 -12   3  883.17   90.61
  -6 -12   3  763.21   82.65
   6 -12  -3  813.59   87.09
  -6  12   3  668.05   78.34
  -6  12   3  857.58   73.90
  -6 -12   4  150.72   40.80
  -6 -12   4  286.26   44.79
   6 -12  -4  132.61   47.39
  -6  12   4  160.37   33.77
   6  12  -4  245.69   53.65
   6  12  -4  148.28   37.43
  -6  12   4  171.26   43.05
  -6  12   4  181.24   40.84
  -6  12   5  115.09   32.75
  -6  12   5  121.55   44.99
   6 -12  -5  181.50   54.65
  -6 -12   5   71.72   26.55
   6  12  -5  145.60   52.03
  -6  12   5   45.92   32.73
  -6 -12   5  136.16   31.48
  -6 -12   6   82.97   33.92
  -6  12   6   71.14   39.48
  -6 -12   6   49.97   33.57
  -6  12   6  101.74   37.43
  -6  12   6   46.00   36.69
   6  12  -6   96.09   42.06
   6  12  -6   75.11   32.68
   6 -12  -6   49.98   32.47
  -6 -13   1 1176.59  112.89
  -6  13   1 1390.71  112.33
   6  13  -1 1449.01  123.90
  -6  13   1 1253.62  114.81
   6  13  -1 1277.15  104.86
   6 -13  -1 1262.39  114.47
  -6 -13   1 1598.48  114.79
  -6  13   2 1630.59  146.52
   6  13  -2 1511.20  140.05
  -6 -13   2 1579.69  126.67
  -6  13   2 1627.22  136.92
   6 -13  -2 1521.50  142.91
   6  13  -2 1557.17  137.40
  -6 -13   2 1432.08  112.57
   6  13  -3  231.52   49.16
  -6 -13   3  268.77   44.28
  -6 -13   3  299.21   49.93
   6 -13  -3  255.24   56.39
   6  13  -3  390.23   48.52
  -6  13   3  238.04   49.39
  -6  13   3  377.80   51.29
  -6  13   4  294.09   50.91
  -6  13   4  256.04   41.78
   6  13  -4  301.27   63.81
  -6  13   4  234.61   46.77
   6  13  -4  335.86   59.90
   6 -13  -4  232.21   60.57
  -6 -13   4  256.83   43.45
  -6 -13   4  303.74   46.99
  -6 -13   5  926.55   94.42
  -6  13   5  840.63   93.23
  -6  13   5  870.76   98.53
   6  13  -5 1007.89  110.18
  -6  13   5  911.90   92.72
   6 -13  -5  971.09  106.62
  -6 -13   5  783.12   82.79
   6  13  -6   20.28   33.47
   6 -13  -6   62.91   39.31
  -6  13   6   59.11   51.20
  -6 -13   6   -6.24   29.89
  -6  13   6   56.40   37.19
  -6 -13   6   -5.41   29.16
  -6  14   1 1915.10  176.52
   6 -14  -1 2080.90  150.28
   6  14  -1 1937.56  150.70
   6  14  -1 1662.54  142.94
  -6  14   1 1796.84  148.86
  -6 -14   1 2019.16  140.90
  -6 -14   2  465.01   59.00
  -6 -14   2  477.14   58.31
  -6  14   2  432.25   69.25
   6  14  -2  470.73   69.01
   6 -14  -2  461.99   74.95
   6  14  -2  449.87   68.63
  -6  14   2  480.50   67.80
  -6  14   3  733.50   86.08
  -6 -14   3  547.17   66.73
   6  14  -3  653.58   80.68
   6  14  -3  597.57   80.84
   6 -14  -3  457.34   62.54
  -6  14   3  487.83   67.58
  -6 -14   3  581.34   66.63
  -6 -14   4  370.37   52.67
   6  14  -4  423.71   57.59
  -6  14   4  472.45   75.29
   6 -14  -4  410.26   72.88
  -6 -14   4  375.14   49.03
   6  14  -4  315.90   61.42
  -6  14   4  328.21   56.97
  -6  14   5  214.46   58.29
   6  14  -5  265.35   51.04
  -6 -14   5  230.83   45.83
  -6 -14   5  221.79   41.51
   6 -14  -5  220.81   63.76
  -6  15   1  162.22   43.65
   6  15  -1  161.54   48.79
   6  15  -1  110.19   38.84
  -6 -15   1  112.19   39.90
   6 -15  -1  123.62   36.52
  -6  15   1  125.89   40.31
   6  15  -2 1071.95  100.40
  -6 -15   2 1141.40  101.77
   6 -15  -2 1108.65  115.99
  -6  15   2 1203.97  114.29
  -6  15   2 1113.46  105.44
   6  15  -2 1157.74  112.97
  -6  15   3   38.14   36.23
   6  15  -3   26.76   39.99
   6  15  -3   67.25   38.58
  -6 -15   3   57.48   31.27
   6 -15  -3   24.32   30.59
   6  15  -4 1030.87  102.08
   6 -15  -4  868.81  103.94
  -6 -15   4  891.07   90.70
   6  15  -4 1063.45  122.75
  -6 -15   4  801.26   98.33
  -6  15   4 1073.69  127.20
  -6 -15   5  583.38   63.99
  -6 -15   5  581.88   74.48
   6  16  -1  265.55   42.49
   6  16  -1  271.81   52.52
  -6  16   1  303.58   63.50
  -6  16   1  233.00   44.20
  -6 -16   1  337.59   49.90
   6 -16  -1  330.02   63.87
   6  16  -2 1416.27  107.84
  -6  16   2 1582.32  136.18
   6  16  -2 1426.37  135.90
   6 -16  -2 1456.97  139.30
  -6 -16   2 1452.67  121.42
   6  16  -3  -21.94   29.57
  -6 -16   3   -5.61   24.73
   6  16  -3   21.01   28.06
   6 -16  -3   -7.67   35.98
  -6  16   3   60.36   46.31
   6  16  -4  570.63   86.73
  -6 -16   4  566.55   74.08
  -6 -17   1  226.86   43.02
   6 -17  -1  135.22   40.91
  -6  17   1  189.64   52.37
   6  17  -1  133.26   38.99
   6  17  -1  237.66   58.89
  -6  17   2  279.16   63.40
  -6 -17   2  279.19   46.88
   6  17  -2  420.15   68.30
   6  17  -2  242.73   47.08
   6 -17  -2  345.41   61.50
   6  17  -3   22.36   30.34
  -6 -17   3   82.94   33.90
  -6 -18   1  252.00   47.43
   6  18  -1  198.50   46.45
   5   0  -1 3024.01  161.09
  -5   0   1 2910.26  136.66
  -5   0   1 2976.94  178.23
  -5   0   1 2823.19  170.04
   5   0  -1 3071.61  164.42
  -5   0   1 2838.66  158.28
  -5   0   2   20.25   25.53
  -5   0   2   22.14   15.61
  -5   0   2    2.32   23.36
   5   0  -2   24.74   19.09
   5   0  -2   -6.60   17.88
   5   0  -3 6728.23  323.75
  -5   0   3 6504.24  318.93
   5   0  -3 7037.14  306.68
  -5   0   3 6779.62  315.40
  -5   0   3 7032.91  350.15
   5   0  -4  -30.21   18.94
  -5   0   4    1.40   18.95
   5   0  -4    9.37   18.99
  -5   0   4   -5.39   18.91
  -5   0   4   15.88   18.96
   5   0  -5  622.40   61.78
   5   0  -5  555.95   49.96
  -5   0   5  598.69   54.56
   5   0  -5  628.77   60.75
  -5   0   5  547.90   52.20
   5   0  -6    4.69   13.66
   5   0  -6   43.19   31.93
  -5   0   6    3.08   19.25
   5   0  -6  -19.54   32.33
  -5   0   6   14.63   31.13
  -5   0   7 2110.75  153.02
   5   0  -7 2049.52  147.31
   5   0  -7 1970.96  138.93
   5   0  -7 2181.47  181.42
   5   0  -8   15.60   33.24
  -5   0   8    1.72   25.09
   5   0  -8   -8.18   23.09
   5   0  -8   20.62   35.23
   5   0  -9  858.20  112.86
   5   0  -9 1050.47  123.28
  -5   0   9 1090.99   97.18
  -5  -1   1 7169.18  287.53
   5   1  -1 7894.19  400.18
  -5   1   1 7858.57  376.21
   5   1  -1 7589.37  298.76
  -5  -1   1 7297.38  277.16
  -5   1   1 7579.07  324.83
   5  -1  -1 7471.14  361.84
  -5  -1   1 7502.31  333.20
  -5   1   1 7738.40  444.95
  -5  -1   1 7521.54  340.05
   5  -1  -2  265.18   28.81
  -5   1   2  229.57   33.16
  -5   1   2  219.66   30.01
   5   1  -2  225.52   26.39
   5   1  -2  229.08   34.24
  -5   1   2  233.41   32.19
  -5  -1   2  246.83   42.31
  -5  -1   2  222.75   24.83
   5  -1  -2  174.20   26.60
  -5  -1   2  182.78   23.78
  -5  -1   2  296.61   41.08
  -5  -1   3  772.64   57.71
   5   1  -3  867.95   71.02
  -5  -1   3  815.19   68.15
  -5   1   3  940.36   79.65
  -5  -1   3  691.70   60.85
  -5   1   3  870.68   71.43
   5  -1  -3  868.96   55.58
  -5   1   3  692.07   61.72
   5   1  -3  796.43   60.38
   5  -1  -3  773.51   65.19
  -5  -1   3  785.37   49.21
   5   1  -4 1074.82   78.83
  -5  -1   4 1227.67   72.27
   5  -1  -4 1173.47   72.26
   5   1  -4 1325.52   92.77
   5  -1  -4 1215.79   82.41
  -5   1   4 1097.36   81.14
  -5   1   4 1368.20   99.64
  -5  -1   4 1178.64   70.28
  -5   1   4 1192.18   77.72
  -5  -1   4 1275.96   93.26
  -5   1   5 7631.92  360.49
   5  -1  -5 8046.45  356.02
   5  -1  -5 8062.52  404.21
   5   1  -5 7947.33  384.10
   5   1  -5 7985.94  354.87
  -5  -1   5 7704.37  379.24
  -5   1   5 7796.61  311.67
   5  -1  -5 7772.92  335.28
   5   1  -5 7818.86  384.28
  -5  -1   5 7887.65  351.12
   5  -1  -6 1138.88   71.97
  -5  -1   6 1287.43   97.53
  -5   1   6 1226.90   88.38
   5   1  -6 1186.24  103.85
   5  -1  -6 1102.82   80.51
   5   1  -6 1208.35   93.74
   5   1  -6 1251.65  102.73
  -5   1   6 1139.87   97.87
   5  -1  -6 1234.40   88.83
   5  -1  -7    5.80   19.84
   5  -1  -7    8.77   26.56
   5  -1  -7   18.88   30.88
  -5   1   7   41.53   27.89
   5   1  -7    2.24   23.00
   5   1  -7   68.92   36.72
   5   1  -7  -42.17   28.50
  -5  -1   7   22.46   30.81
   5   1  -8  359.84   59.88
  -5  -1   8  286.63   52.30
   5   1  -8  269.30   38.76
   5  -1  -8  227.58   45.38
   5  -1  -8  413.13   54.50
   5   1  -8  354.21   60.37
  -5   1   8  383.27   60.78
   5  -1  -8  329.53   52.51
   5   1  -9  621.16   73.81
   5  -1  -9  568.94   61.43
   5  -1  -9  585.99   79.94
   5  -1  -9  778.06   91.12
   5   1  -9  578.69   77.13
  -5   1   9  665.03   84.89
  -5  -1   9  669.15   95.07
  -5   2   1 1499.07  128.27
   5  -2  -1 1784.15  132.42
  -5   2   1 1607.98  107.55
  -5  -2   1 1623.67   81.07
  -5   2   1 1694.30   84.27
  -5  -2   1 1580.52  110.48
  -5  -2   1 1697.08  111.78
   5   2  -1 1727.01  101.89
  -5  -2   1 1638.89   95.31
   5   2  -1 1577.99  103.21
   5  -2  -1 1830.77   96.75
  -5   2   2  758.96   64.06
   5   2  -2  841.17   54.96
  -5  -2   2  797.06   74.78
   5  -2  -2  845.49   54.53
  -5  -2   2  815.04   50.34
  -5  -2   2  715.12   61.39
  -5   2   2  838.30   69.34
  -5   2   2  771.72   69.10
   5  -2  -2  720.89   47.40
   5   2  -2  829.32   67.78
  -5  -2   2  879.03   65.12
   5  -2  -312933.46  439.30
  -5   2   312571.18  609.85
   5  -2  -310574.73  463.01
  -5  -2   312610.22  473.14
  -5   2   312001.20  486.41
  -5   2   311759.16  506.88
   5   2  -312507.11  497.47
   5  -2  -312826.02  550.50
  -5  -2   312016.70  492.49
   5   2  -312833.41  541.83
  -5  -2   312713.85  576.72
  -5  -2   311673.96  481.57
  -5  -2   4   72.39   18.45
   5  -2  -4   86.25   19.20
  -5   2   4   75.12   21.27
  -5   2   4   74.54   33.70
   5  -2  -4   77.11   26.88
  -5  -2   4  102.57   30.91
   5   2  -4  116.29   26.25
   5   2  -4   70.14   27.20
  -5   2   4   80.11   25.19
   5   2  -4   71.88   24.99
  -5   2   5  716.61   64.49
   5  -2  -5  615.76   44.02
  -5   2   5  580.92   62.99
  -5  -2   5  535.94   41.30
   5   2  -5  620.86   65.60
   5   2  -5  578.58   61.49
   5   2  -5  556.24   55.84
  -5  -2   5  610.91   60.05
   5  -2  -5  652.75   64.64
  -5   2   5  498.69   55.19
   5   2  -6  377.43   45.45
   5  -2  -6  484.90   67.36
  -5   2   6  408.17   57.06
   5  -2  -6  377.65   54.05
   5   2  -6  424.21   59.01
  -5   2   6  435.22   49.62
  -5  -2   6  401.46   51.16
   5   2  -7  191.59   42.92
   5   2  -7  147.25   37.25
   5   2  -7  143.87   27.25
  -5  -2   7  123.67   40.21
   5  -2  -7  110.28   33.97
   5  -2  -7  192.35   41.83
  -5   2   7  119.63   33.91
   5  -2  -7  191.72   37.62
  -5   2   8 1251.72  137.42
   5  -2  -8 1222.43  114.24
   5   2  -8 1443.98  138.83
   5  -2  -8 1325.95  128.33
   5  -2  -8 1390.98  117.44
  -5  -2   8 1376.75  121.36
   5   2  -8 1247.38  111.47
   5   2  -9  239.54   54.94
   5   2  -9  327.59   58.31
   5  -2  -9  256.05   50.44
   5  -2  -9  296.92   51.43
  -5   2   9  295.72   67.01
  -5  -2   9  280.15   57.30
   5  -2  -9  199.13   37.94
  -5   3   1 6430.26  321.41
   5   3  -1 7293.29  366.33
  -5  -3   1 6552.33  268.73
  -5  -3   1 6893.65  282.05
  -5  -3   1 7057.24  332.91
   5  -3  -1 7227.80  318.64
   5   3  -1 6958.45  309.07
   5  -3  -1 7197.96  365.77
  -5   3   1 7029.28  382.35
  -5  -3   1 6849.39  377.22
  -5   3   1 7173.73  300.40
   5  -3  -2  550.28   56.28
   5  -3  -2  575.21   40.55
   5  -3  -2  442.36   36.06
   5   3  -2  564.97   49.04
  -5   3   2  536.94   47.53
  -5   3   2  499.53   46.40
  -5  -3   2  486.97   43.43
   5   3  -2  528.97   57.64
  -5  -3   2  530.02   52.92
  -5  -3   2  543.40   32.73
  -5   3   2  627.35   64.94
  -5  -3   2  586.02   59.18
  -5  -3   3  158.88   34.00
  -5  -3   3  192.00   23.83
  -5   3   3  212.24   35.86
   5  -3  -3  186.70   23.33
   5  -3  -3  129.75   16.39
  -5   3   3  232.15   39.13
  -5  -3   3  178.43   17.06
   5   3  -3  156.88   26.81
   5   3  -3  201.48   29.79
  -5   3   3  171.67   25.81
  -5  -3   3  218.40   40.79
   5  -3  -3  194.68   32.49
   5   3  -4   24.87   19.23
   5   3  -4  -36.04   22.44
  -5   3   4   23.79   21.99
   5  -3  -4   28.58   12.77
   5  -3  -4   44.53   33.01
  -5  -3   4   -2.40   16.65
  -5   3   4   65.23   26.80
   5   3  -4    3.39   24.72
  -5   3   4   16.55   14.91
  -5  -3   4   23.64   26.32
   5  -3  -5 7426.50  340.67
   5   3  -5 7575.55  414.05
   5   3  -5 7709.52  360.47
   5   3  -5 7831.30  389.88
  -5   3   5 7402.64  382.12
  -5  -3   5 7371.61  334.03
   5  -3  -5 7445.84  305.06
  -5  -3   5 7540.15  378.86
  -5   3   5 7286.93  341.58
  -5   3   5 7464.36  396.71
  -5   3   6   -5.60   25.90
  -5  -3   6    3.40   22.01
  -5   3   6   30.69   27.61
   5   3  -6   19.02   28.61
   5  -3  -6   22.83   26.11
   5  -3  -6    8.17   33.59
   5   3  -6    6.28   23.51
  -5  -3   6    6.91   32.25
   5   3  -7  108.51   35.60
   5  -3  -7  119.87   38.54
   5  -3  -7  151.68   43.90
   5   3  -7  117.84   41.81
  -5  -3   7  154.53   42.67
  -5  -3   7  110.44   30.10
  -5   3   7   88.46   37.46
  -5  -3   8    2.83   28.47
   5   3  -8   14.53   31.33
   5  -3  -8  -17.46   36.85
   5  -3  -8   17.79   31.42
   5  -3  -8    9.82   23.86
   5   3  -8    0.40   25.02
  -5   3   8   58.92   35.39
   5  -3  -9  555.04   75.25
  -5   3   9  573.23   84.00
   5   3  -9  473.83   79.43
   5  -3  -9  498.46   64.54
   5   3  -9  564.41   89.06
   5  -3  -9  550.28   77.61
  -5  -3   9  535.39   74.04
  -5   4   1  517.61   45.15
  -5   4   1  510.31   51.49
   5  -4  -1  412.86   38.54
   5  -4  -1  421.24   39.59
  -5  -4   1  376.20   30.13
  -5  -4   1  470.71   52.83
  -5  -4   1  421.65   26.98
   5   4  -1  517.41   47.22
  -5  -4   1  456.07   52.62
   5   4  -1  441.29   52.60
  -5   4   1  450.89   49.32
  -5  -4   2 2145.00  107.64
   5  -4  -2 2305.73  123.25
   5  -4  -2 1766.46  112.60
  -5   4   2 2149.42  115.19
   5  -4  -2 2292.45  133.83
  -5   4   2 2323.23  132.83
   5   4  -2 2352.23  138.85
  -5  -4   2 2201.07  152.17
  -5   4   2 2246.32  140.89
   5   4  -2 2245.93  130.68
  -5  -4   2 2229.11   99.52
  -5  -4   2 2356.23  170.66
  -5  -4   314576.39  619.69
   5  -4  -315425.66  584.19
  -5  -4   313850.10  534.16
   5   4  -314966.32  553.52
   5  -4  -314786.92  599.24
   5   4  -315051.06  675.22
  -5  -4   315000.77  596.29
  -5   4   314630.50  581.89
  -5  -4   315050.36  526.26
  -5   4   315136.90  595.16
   5  -4  -312947.75  544.24
  -5   4   315022.45  561.13
  -5   4   4  122.00   37.99
  -5  -4   4   74.13   14.69
  -5  -4   4   65.46   24.09
   5  -4  -4   45.68   27.06
   5   4  -4   42.70   20.09
   5   4  -4   67.68   30.06
   5   4  -4   44.06   23.45
  -5   4   4   46.21   32.62
   5  -4  -4   73.59   12.96
  -5   4   4   60.82   19.50
  -5   4   5 2370.75  147.80
   5   4  -5 2342.02  159.80
  -5  -4   5 2249.91  148.21
   5  -4  -5 2100.61  136.84
  -5  -4   5 2156.21  127.83
  -5   4   5 2196.83  143.31
  -5   4   5 2202.10  135.56
  -5  -4   5 2234.49  123.89
   5   4  -5 2219.32  168.15
  -5  -4   6   44.08   24.36
   5  -4  -6   30.53   39.42
  -5  -4   6   39.35   32.85
  -5   4   6   34.48   24.24
  -5   4   6   40.01   33.65
   5   4  -6   52.18   28.53
  -5   4   6   45.52   33.44
   5   4  -6   81.19   31.48
   5  -4  -7  165.81   35.35
  -5  -4   7  147.34   29.21
  -5   4   7  116.65   37.54
  -5  -4   7  165.92   42.73
   5  -4  -7  181.05   39.84
   5   4  -7  136.30   28.59
  -5   4   7   92.03   39.20
   5   4  -7  126.27   44.92
  -5   4   8  380.36   71.94
   5   4  -8  446.99   71.82
   5   4  -8  445.27   61.79
   5  -4  -8  359.28   57.48
  -5  -4   8  528.54   72.75
   5  -4  -8  316.95   47.28
   5  -4  -8  473.71   71.35
  -5  -4   9  341.19   54.39
   5  -4  -9  546.08   75.28
  -5   4   9  542.62   84.86
   5  -4  -9  538.84   76.59
   5   4  -9  562.73   71.23
   5  -4  -9  513.17   65.07
   5   4  -9  557.99   73.28
   5   5  -116259.56  729.55
   5  -5  -117313.98  648.35
   5  -5  -117093.71  633.47
  -5   5   117201.15  716.96
  -5  -5   117191.04  780.27
  -5  -5   117377.87  733.00
  -5   5   116835.17  620.78
  -5   5   116982.09  707.97
  -5  -5   116006.68  577.69
   5   5  -118355.47  795.79
  -5  -5   117008.95  556.47
  -5   5   2   20.19   24.67
   5   5  -2    1.04   20.16
   5  -5  -2   26.51   25.11
  -5   5   2   63.80   28.02
  -5   5   2   -8.05   21.62
  -5  -5   2   -3.68   29.74
  -5  -5   2   10.02   22.84
  -5  -5   2   18.24    6.01
  -5  -5   2   46.64    5.57
   5  -5  -2   25.71   12.73
   5  -5  -2   46.38   16.41
   5   5  -2   52.18   26.23
  -5  -5   3 1600.01   76.28
  -5   5   3 1794.73  137.98
  -5  -5   3 1835.64   76.21
  -5   5   3 1839.38  108.96
   5  -5  -3 1658.71   98.04
   5  -5  -3 1852.66   89.62
   5  -5  -3 1481.92   83.32
  -5  -5   3 1863.46  130.21
  -5   5   3 1758.23  116.27
  -5  -5   3 1944.24  109.69
   5   5  -3 1843.28  112.67
   5   5  -3 1769.02  134.92
  -5   5   4 1276.02   94.62
   5   5  -4 1093.98   89.23
  -5  -5   4 1159.88   63.28
   5   5  -4 1092.36   91.21
   5  -5  -4 1237.40   97.57
  -5  -5   4 1071.80   76.84
  -5   5   4 1151.91   87.23
   5  -5  -4 1148.04   57.00
  -5   5   4 1104.75   95.96
  -5   5   5 2979.74  187.18
   5   5  -5 3141.04  190.90
   5  -5  -5 3144.70  188.87
  -5  -5   5 3110.30  192.63
  -5  -5   5 3320.71  220.33
  -5   5   5 3382.87  225.35
   5   5  -5 3028.32  206.78
  -5   5   5 3113.67  178.51
  -5  -5   5 3060.36  154.11
   5   5  -6 1282.17  114.02
  -5   5   6 1414.09  115.63
  -5   5   6 1331.04  107.47
  -5  -5   6 1401.28  122.03
  -5   5   6 1411.70  114.07
   5   5  -6 1454.70  113.95
  -5  -5   6 1572.03  105.23
   5  -5  -6 1273.86  112.43
   5   5  -7  181.06   47.64
  -5  -5   7  213.18   33.52
   5  -5  -7  227.09   43.08
   5   5  -7  264.38   48.71
  -5  -5   7  173.00   50.01
  -5   5   7  238.30   48.60
  -5   5   7  213.61   45.37
  -5   5   7  234.87   45.75
   5   5  -8  129.49   39.29
  -5   5   8   52.22   37.38
  -5  -5   8   85.15   41.00
   5   5  -8   90.90   40.61
   5  -5  -8  166.88   45.55
   5  -5  -8  119.73   36.96
   5   5  -9  254.46   50.05
  -5  -5   9  203.92   44.18
   5  -5  -9  178.72   46.00
   5  -5  -9  198.41   49.55
   5  -5  -9  265.29   52.92
   5  -6  -1  193.25   26.86
  -5  -6   1  248.77   31.79
  -5   6   1  255.80   36.10
  -5   6   1  222.60   33.19
   5  -6  -1  230.15   30.34
   5   6  -1  256.89   36.45
   5   6  -1  219.79   32.14
  -5   6   1  162.75   32.27
  -5  -6   1  251.28   43.45
   5   6  -212638.49  560.76
   5  -6  -212455.95  516.91
  -5  -6   212000.67  520.94
   5  -6  -211911.65  546.65
  -5   6   212508.63  585.13
  -5  -6   212406.46  543.99
  -5   6   212121.74  487.23
   5   6  -212275.74  524.98
  -5   6   212196.32  510.79
  -5   6   3 3840.95  192.31
   5  -6  -3 3867.72  173.10
   5  -6  -3 3914.73  188.97
  -5  -6   3 4006.49  185.15
  -5  -6   3 3892.67  211.05
   5   6  -3 3851.47  219.38
  -5   6   3 4085.47  195.48
  -5   6   3 3892.19  186.10
   5   6  -3 3975.23  237.82
   5  -6  -3 3317.93  159.98
  -5   6   4 2146.48  161.23
   5   6  -4 1976.86  153.17
   5   6  -4 2121.03  155.97
  -5   6   4 2151.97  136.41
  -5  -6   4 2271.07  140.68
  -5  -6   4 2031.47   85.54
   5  -6  -4 2075.80  155.56
  -5  -6   4 2131.27  151.12
  -5   6   4 2236.41  142.32
   5   6  -5  259.69   44.79
   5   6  -5  329.19   47.67
  -5   6   5  372.05   46.54
  -5  -6   5  292.56   41.42
  -5   6   5  335.88   41.83
   5  -6  -5  365.10   45.14
  -5   6   5  338.50   40.99
  -5  -6   5  492.13   49.82
   5   6  -6  -27.06   30.53
  -5   6   6    7.92   30.56
   5  -6  -6   36.30   30.64
   5   6  -6   40.27   30.58
  -5   6   6  -23.65   30.63
  -5  -6   6  -15.89   30.50
  -5  -6   6  -32.06   30.54
  -5   6   6   31.87   30.59
  -5   6   7  683.80   64.71
   5   6  -7  555.71   66.69
  -5   6   7  493.14   68.19
  -5  -6   7  528.89   63.12
  -5   6   7  525.37   65.57
   5  -6  -7  509.47   59.96
   5   6  -7  617.32   97.96
  -5  -6   7  541.47   63.89
   5   6  -8 3567.93  256.57
  -5   6   8 3098.55  212.03
  -5   6   8 3089.54  220.03
  -5  -6   8 3831.60  247.89
   5  -6  -8 3279.76  212.33
  -5   6   8 3611.27  219.81
   5   6  -8 3525.33  236.42
  -5  -6   9  269.88   56.32
   5  -6  -9  192.67   56.17
  -5   6   9  300.81   54.48
   5   6  -9  256.21   51.20
  -5   7   1 2121.15  113.90
  -5  -7   1 2181.68  119.21
  -5  -7   1 2281.68  132.19
   5   7  -1 2219.10  140.13
   5   7  -1 2203.07  121.74
  -5   7   1 2214.44  155.25
  -5   7   1 2119.28  144.02
   5  -7  -1 2184.71  128.72
   5  -7  -1 2235.54  118.81
   5  -7  -216675.31  650.32
  -5  -7   217060.31  679.18
  -5   7   216354.45  638.47
   5   7  -217486.70  732.35
  -5   7   217155.88  738.30
   5   7  -216912.53  709.63
   5  -7  -216894.77  708.44
  -5   7   217077.82  727.33
  -5  -7   216280.09  744.36
  -5  -7   3  781.41   72.01
   5   7  -3  653.72   58.69
  -5   7   3  603.18   57.48
   5   7  -3  603.57   62.85
  -5   7   3  558.00   51.40
  -5   7   3  632.91   60.36
   5  -7  -3  609.78   37.07
   5  -7  -3  588.45   54.85
  -5  -7   3  605.05   57.11
  -5   7   4  532.45   48.00
  -5  -7   4  564.91   57.18
   5   7  -4  470.64   53.99
  -5   7   4  495.09   58.96
   5   7  -4  454.04   53.09
   5  -7  -4  449.94   45.98
  -5  -7   4  447.63   50.50
  -5   7   4  430.99   48.24
  -5  -7   5 1603.26  128.94
  -5   7   5 1553.88  132.36
  -5   7   5 1835.77   97.99
  -5  -7   5 1733.90  123.05
   5   7  -5 1608.45  126.75
   5  -7  -5 1614.77  115.57
  -5   7   5 1734.59  128.37
   5   7  -5 1803.75  110.98
  -5   7   6 2124.49  157.27
   5   7  -6 2122.39  160.79
   5   7  -6 2021.27  159.79
   5  -7  -6 1890.38  166.25
  -5   7   6 2235.08  158.44
  -5  -7   6 2194.69  154.74
  -5  -7   6 2179.46  160.04
  -5   7   6 2029.56  136.71
  -5   7   7   57.09   32.05
  -5  -7   7   56.19   30.31
   5   7  -7   43.16   28.16
  -5   7   7   48.62   36.87
   5   7  -7   51.73   44.17
   5  -7  -7   65.99   41.63
  -5  -7   7   91.78   31.71
  -5   7   7  150.35   38.82
  -5   7   8  476.44   79.24
   5  -7  -8  459.00   66.02
   5   7  -8  575.06   76.96
   5   7  -8  467.14   63.21
  -5  -7   8  353.71   53.58
  -5   7   8  361.84   53.69
  -5  -7   8  424.69   65.90
  -5   7   8  498.77   68.75
  -5  -8   1 2684.07  146.68
   5   8  -1 3004.91  141.49
  -5  -8   1 2885.85  163.48
  -5   8   1 2818.68  149.42
  -5   8   1 2867.53  177.07
   5   8  -1 2814.70  147.11
   5  -8  -1 2938.57  159.82
  -5   8   1 2868.11  161.21
   5  -8  -1 2869.40  143.88
   5  -8  -2 7114.65  292.13
  -5  -8   2 7030.06  382.64
   5  -8  -2 6764.10  368.28
  -5   8   2 6978.69  378.53
  -5   8   2 6909.30  361.06
  -5  -8   2 6781.21  340.42
   5   8  -2 7241.39  319.60
  -5   8   2 6695.68  314.68
   5   8  -2 7095.05  313.60
   5   8  -3  152.23   30.45
  -5   8   3  110.87   25.24
  -5   8   3  118.18   29.69
  -5  -8   3  102.86   25.01
   5  -8  -3  106.56   12.18
   5  -8  -3  120.09   37.99
  -5   8   3  109.49   26.25
  -5  -8   3  106.64   32.18
  -5   8   4 1795.52  125.19
  -5  -8   4 1664.20  115.22
   5  -8  -4 1839.13  112.27
   5   8  -4 1730.55  123.91
  -5   8   4 1903.34  142.10
   5   8  -4 1927.23  138.39
  -5   8   4 1767.82  131.51
  -5  -8   4 1698.59  115.73
  -5  -8   5   22.53   24.97
  -5  -8   5   10.62   29.51
  -5   8   5   40.68   29.22
   5  -8  -5   30.46   29.66
  -5   8   5   55.20   28.48
   5   8  -5   60.70   36.58
  -5   8   5   16.54   30.76
   5   8  -5  -18.19   32.34
  -5   8   6   37.32   30.08
   5   8  -6   16.90   24.67
  -5  -8   6  -16.59   23.82
   5  -8  -6   -0.80   41.28
  -5  -8   6   20.05   25.72
  -5   8   6  -38.02   32.24
   5   8  -6   25.54   30.06
  -5   8   6   41.16   56.64
   5   8  -7   13.92   29.60
  -5  -8   7   40.05   26.17
  -5   8   7   12.62   33.09
  -5   8   7   34.51   32.70
  -5  -8   7   18.23   24.59
  -5   8   7  -14.19   30.06
   5  -8  -7  -44.28   33.04
   5   8  -7   36.81   31.33
  -5  -8   8 3019.41  198.30
   5  -8  -8 3047.36  196.68
  -5   8   8 3110.09  211.20
  -5   8   8 2974.62  214.37
  -5   8   8 3037.66  209.45
   5   8  -8 3078.14  256.87
  -5  -8   8 2932.92  232.53
   5   8  -8 3186.44  236.10
  -5   9   1  375.14   38.99
   5   9  -1  340.17   41.89
   5  -9  -1  365.29   45.56
   5   9  -1  338.21   41.19
  -5  -9   1  308.80   35.37
  -5  -9   1  358.47   47.96
  -5   9   1  323.64   41.04
   5  -9  -1  316.28   34.07
  -5   9   1  365.77   40.62
  -5  -9   2   65.37   25.15
   5  -9  -2   51.77   15.21
  -5   9   2  103.75   24.58
   5   9  -2    3.33   24.45
  -5   9   2   65.43   34.48
  -5  -9   2   59.66   31.47
  -5   9   2   46.91   26.14
   5   9  -2   41.07   27.79
   5  -9  -2   36.18   28.63
  -5   9   3  215.67   34.69
  -5  -9   3  156.49   35.01
  -5  -9   3  137.31   28.73
   5   9  -3  174.50   37.28
  -5  -9   3  133.53   30.77
   5  -9  -3  226.28   41.49
  -5   9   3  198.04   43.50
  -5   9   3  208.07   32.96
  -5   9   4  767.87   82.88
  -5  -9   4  747.23   64.23
   5   9  -4  733.77   73.84
   5   9  -4  910.75   79.33
  -5   9   4  828.18   66.25
   5  -9  -4  720.35   86.38
  -5  -9   4  849.54   82.16
  -5   9   4  817.34   83.71
  -5  -9   5  173.05   36.94
  -5   9   5  180.95   35.61
   5  -9  -5  130.24   34.79
  -5   9   5  123.02   33.91
  -5  -9   5  167.98   33.64
   5   9  -5  186.51   37.94
   5   9  -5  197.32   49.37
  -5   9   5  199.10   34.61
   5   9  -6 2900.66  190.82
   5  -9  -6 2880.40  232.49
  -5   9   6 2911.16  188.56
  -5   9   6 2968.59  210.52
  -5  -9   6 2720.18  196.40
  -5  -9   6 2844.88  186.38
   5   9  -6 2998.38  189.12
  -5   9   6 2761.39  181.29
  -5  -9   7   39.86   33.80
  -5  -9   7  -15.28   28.91
   5   9  -7   -1.44   30.28
   5  -9  -7   -9.99   24.85
  -5   9   7   31.99   28.90
  -5   9   7   11.84   41.81
  -5   9   7  -24.60   40.22
   5   9  -7   -9.40   28.37
   5   9  -8   23.20   35.09
  -5   9   8    2.09   41.41
  -5  -9   8   13.23   19.75
   5  -9  -8   23.53   26.78
   5   9  -8   59.73   47.33
  -5  -9   8   14.20   29.23
  -5   9   8   36.46   32.37
  -5   9   8   39.43   34.02
  -5 -10   1   37.69   19.79
  -5 -10   1   -3.60   17.45
  -5  10   1   68.86   22.85
  -5  10   1   30.22   19.01
   5  10  -1   30.18   20.99
   5 -10  -1   50.01   19.56
   5 -10  -1   49.79   46.43
  -5  10   1   53.19   21.97
   5  10  -1   52.82   31.72
  -5  10   2 1584.41  109.16
  -5 -10   2 1815.04  117.87
   5 -10  -2 1652.81  106.18
  -5  10   2 1814.52  114.42
   5  10  -2 1669.71  110.37
   5  10  -2 1773.00  107.89
   5 -10  -2 1712.82  115.84
  -5  10   2 1757.44  108.31
  -5 -10   2 1772.14  108.89
  -5 -10   3   13.32   23.25
  -5  10   3  -28.11   23.28
   5 -10  -3    4.63   23.29
   5  10  -3   26.44   23.39
  -5  10   3   -4.29   23.35
  -5 -10   3  -24.80   23.40
  -5 -10   3    7.15   23.30
  -5  10   3  -10.51   23.29
  -5 -10   4  152.86   33.66
  -5  10   4  169.30   34.56
   5  10  -4  127.62   40.62
  -5 -10   4  163.76   40.62
  -5  10   4  206.39   39.87
   5 -10  -4   97.50   31.41
   5  10  -4  171.32   35.02
  -5  10   4  228.07   40.03
   5  10  -5  180.37   41.75
   5 -10  -5  136.48   37.58
  -5  10   5  220.04   41.32
  -5  10   5  154.47   44.27
  -5  10   5  117.18   35.51
   5  10  -5  182.38   31.36
  -5 -10   5  177.01   40.59
  -5 -10   5  110.60   39.70
  -5 -10   6  555.18   57.01
   5  10  -6  404.16   57.42
   5 -10  -6  415.41   60.12
   5  10  -6  517.72   67.41
  -5 -10   6  452.35   57.48
  -5  10   6  410.85   68.48
  -5  10   6  453.67   61.23
  -5  10   6  399.03   57.64
  -5  10   7  251.70   45.92
   5  10  -7  209.26   48.09
   5  10  -7  142.03   42.37
  -5  10   7  188.15   45.91
  -5 -10   7  173.11   40.27
   5 -10  -7  235.06   49.00
  -5 -10   7  107.97   38.65
  -5  10   7  132.36   49.44
  -5  10   8 2363.46  199.52
  -5 -10   8 2424.21  207.98
   5 -10  -8 2544.87  209.18
   5  10  -8 2398.99  175.00
  -5  10   8 2227.93  184.71
  -5 -10   8 2465.81  150.57
  -5  10   8 2167.53  157.44
   5  10  -8 2419.00  184.53
   5  11  -1  688.23   55.88
  -5  11   1  817.01   68.79
  -5 -11   1  690.79   60.54
  -5  11   1  704.68   63.65
   5 -11  -1  794.00   53.84
  -5  11   1  768.63   61.07
  -5 -11   1  823.91   66.03
   5 -11  -1  792.17   77.85
   5  11  -1  926.38   71.12
  -5  11   2 1882.88  114.18
  -5  11   2 1832.36  109.25
  -5 -11   2 1917.24  120.50
  -5  11   2 1808.06  132.76
   5  11  -2 1952.55  137.58
   5  11  -2 1784.32  134.54
   5 -11  -2 1646.32  114.10
  -5 -11   2 1831.70  117.49
   5 -11  -2 1767.51   94.46
   5 -11  -3    0.00   22.25
  -5 -11   3    4.20   22.27
  -5  11   3   -0.36   22.24
   5  11  -3  -31.44   22.34
  -5 -11   3   19.06   22.21
  -5  11   3   -8.43   22.24
  -5  11   3   22.30   22.30
  -5 -11   3  -31.82   22.35
  -5 -11   4   55.18   27.49
  -5  11   4    1.24   27.35
   5 -11  -4   12.52   25.71
   5  11  -4    0.40   28.47
   5  11  -4   12.63   29.90
  -5  11   4   28.46   28.14
  -5  11   4   14.27   26.45
  -5 -11   4   -9.42   33.32
   5  11  -5    0.00   27.52
  -5  11   5    6.78   29.41
   5 -11  -5   85.97   40.60
  -5  11   5   10.26   37.90
   5  11  -5   28.68   31.08
  -5 -11   5    9.19   26.17
  -5  11   5   73.74   30.12
  -5 -11   5   54.56   36.24
   5 -11  -6 2330.58  171.07
  -5 -11   6 2144.60  170.87
  -5  11   6 2180.49  165.67
   5  11  -6 2066.17  168.35
   5  11  -6 1989.69  149.36
  -5  11   6 1856.97  144.06
  -5  11   6 2019.39  160.76
  -5 -11   6 2081.96  138.66
   5  11  -7   91.48   36.28
  -5 -11   7   85.43   35.16
   5 -11  -7   53.95   38.79
  -5  11   7  164.97   49.07
   5  11  -7  129.69   41.28
  -5  11   7   66.31   31.25
  -5  11   7  150.03   43.22
  -5 -11   7  159.20   37.75
  -5  12   1   66.92   18.48
   5  12  -1   24.80   19.54
  -5  12   1   85.09   25.67
   5  12  -1   62.50   27.94
   5 -12  -1   15.75   19.43
  -5 -12   1   21.47   22.79
  -5 -12   1   99.11   27.25
   5 -12  -1   32.21   26.70
  -5  12   1   56.64   34.00
  -5  12   2  819.37   69.17
   5 -12  -2  909.32   86.93
  -5  12   2  831.48   85.41
  -5  12   2  821.71   67.02
  -5 -12   2  732.37   68.39
   5  12  -2  813.12   90.12
   5  12  -2  866.70   76.87
  -5 -12   2  859.63   73.70
  -5 -12   3  691.27   71.35
   5  12  -3  817.76   75.14
  -5  12   3  808.84   72.91
  -5  12   3  757.82   68.04
  -5 -12   3  745.35   90.68
  -5 -12   3  869.34   70.68
  -5  12   3  778.06   76.92
   5 -12  -3  775.90   77.12
  -5  12   4  312.91   49.25
  -5  12   4  338.73   52.44
  -5  12   4  300.98   51.32
  -5 -12   4  342.89   45.28
   5 -12  -4  360.98   51.93
   5  12  -4  297.66   54.49
  -5 -12   4  328.27   52.69
   5  12  -4  311.56   42.22
  -5  12   5   94.06   35.23
  -5  12   5   81.46   32.28
   5  12  -5   96.49   37.20
   5  12  -5   52.49   33.28
  -5  12   5   87.15   30.68
   5 -12  -5   58.44   28.26
  -5 -12   5   86.61   35.52
  -5 -12   5   71.87   31.76
  -5 -12   6  872.28   75.84
  -5  12   6  884.98   82.04
  -5 -12   6  795.03   96.36
   5  12  -6  823.23   92.32
   5 -12  -6  943.04  109.72
   5  12  -6  961.80   98.17
  -5  12   6  687.63   82.66
  -5  12   6 1115.27  102.61
   5  12  -7  134.80   48.04
   5 -12  -7  186.95   47.15
   5  12  -7  191.81   58.83
  -5  12   7  113.87   40.89
  -5 -12   7  148.82   37.36
  -5 -12   7  226.47   50.67
  -5  12   7  134.16   46.03
   5 -13  -1  721.30   62.44
   5 -13  -1  903.52   64.78
  -5 -13   1  868.42   72.67
  -5  13   1  894.02   82.38
  -5 -13   1  870.51   70.70
  -5  13   1  864.07   82.62
   5  13  -1  752.02   66.75
   5  13  -1  836.13   65.41
   5  13  -2 2037.61  151.51
   5  13  -2 2224.28  170.68
  -5  13   2 2125.86  177.61
  -5 -13   2 2186.60  146.89
  -5 -13   2 2055.82  143.29
   5 -13  -2 2215.06  156.57
  -5  13   2 2168.81  150.24
  -5  13   2 2051.68  125.55
   5 -13  -3  496.94   69.27
  -5  13   3  313.83   45.46
  -5  13   3  390.54   46.98
   5  13  -3  388.94   52.77
  -5  13   3  413.81   56.79
  -5 -13   3  351.43   50.95
  -5 -13   3  356.41   49.45
  -5 -13   3  422.89   61.17
  -5 -13   4   13.77   29.34
  -5  13   4   30.25   35.16
   5  13  -4   20.50   31.48
  -5 -13   4   13.65   27.98
   5 -13  -4   32.49   25.22
  -5  13   4   28.98   22.30
   5  13  -4   27.87   28.11
  -5  13   4  -34.45   23.26
  -5 -13   5 2728.39  190.36
   5  13  -5 2480.50  201.66
   5 -13  -5 2428.75  186.89
   5  13  -5 2553.99  202.95
  -5  13   5 2582.06  172.87
  -5 -13   5 2455.00  182.53
  -5  13   5 2807.56  238.30
  -5  13   5 2368.16  168.56
  -5  13   6 2334.19  175.07
   5  13  -6 2359.67  198.06
   5 -13  -6 2527.28  194.80
   5  13  -6 2898.31  218.59
  -5 -13   6 2602.57  177.74
  -5 -13   6 2580.55  182.29
  -5  13   6 2795.14  207.81
  -5  13   7  260.42   56.29
  -5  13   7  339.70   67.10
  -5 -13   7  307.96   50.48
   5  13  -7  384.23   64.11
   5 -13  -7  270.01   65.40
  -5 -13   7  402.20   67.23
   5  14  -1  173.80   32.32
   5 -14  -1  248.14   52.01
  -5 -14   1  179.59   30.72
   5  14  -1  225.55   44.37
  -5 -14   1  224.28   41.33
  -5  14   1  153.61   33.80
  -5  14   1  205.04   36.37
   5 -14  -2 1317.82  105.04
   5  14  -2 1275.58  120.42
  -5 -14   2 1262.88  105.08
  -5  14   2 1219.43  110.10
  -5  14   2 1259.14   97.73
   5  14  -2 1174.09  106.14
  -5 -14   2 1227.86   99.17
  -5  14   3 1392.17  123.33
   5  14  -3 1488.60  114.41
  -5  14   3 1227.66   87.23
  -5  14   3 1489.53  135.21
   5 -14  -3 1443.01  147.04
  -5 -14   3 1368.90  129.16
  -5 -14   3 1355.98  103.19
  -5 -14   3 1358.88  121.08
  -5 -14   4 2414.37  159.24
  -5  14   4 2565.99  224.03
   5 -14  -4 2532.76  175.88
  -5  14   4 2166.80  114.08
  -5  14   4 2243.63  184.51
   5  14  -4 2464.29  184.53
   5  14  -4 2423.92  139.84
  -5 -14   4 2187.58  183.47
  -5 -14   5    9.55   27.41
   5  14  -5   11.03   27.25
   5  14  -5   -0.80   37.12
   5 -14  -5    5.28   32.28
  -5 -14   5   29.57   30.53
  -5  14   5   54.84   33.54
  -5  14   5  -15.06   27.76
  -5  14   6   45.82   33.20
   5  14  -6  -11.00   32.67
  -5  14   6    7.64   43.40
   5  14  -6   53.15   38.25
  -5 -14   6   -6.80   30.98
  -5 -14   6   35.49   26.31
   5 -14  -6   52.93   35.43
  -5  15   1 2231.38  153.41
  -5 -15   1 2373.43  159.02
   5  15  -1 2340.77  177.23
  -5  15   1 2303.85  167.07
   5 -15  -1 2313.35  169.78
   5  15  -1 2231.59  184.10
  -5  15   2 1874.72  151.05
  -5 -15   2 2155.64  145.01
   5  15  -2 2043.90  181.18
  -5 -15   2 2183.38  152.74
  -5  15   2 2387.41  153.57
   5 -15  -2 2163.81  147.03
   5  15  -2 1980.08  154.14
  -5 -15   3  214.96   40.25
  -5  15   3  252.68   53.59
  -5 -15   3  238.29   44.15
   5  15  -3  291.87   48.04
  -5  15   3  208.34   46.78
  -5 -15   3  216.06   39.20
   5 -15  -3  170.64   43.67
  -5  15   4  168.46   40.15
  -5 -15   4   97.32   30.54
   5 -15  -4  158.09   39.35
  -5 -15   4   76.51   37.14
   5  15  -4  138.19   38.77
  -5  15   5  642.44   74.72
   5 -15  -5  634.32   77.72
   5  15  -5  645.43   77.51
  -5 -15   5  700.36   85.56
  -5  15   5  664.28   88.13
  -5 -15   5  794.79   72.80
   5  15  -5  660.67   75.11
  -5  15   6 1146.66  118.87
  -5 -15   6 1342.93  119.64
   5  15  -6 1348.57  127.31
   5 -15  -6 1359.76  153.40
   5  15  -6 1173.00  118.97
  -5  15   6 1257.89  123.27
   5  16  -1  194.81   38.27
   5 -16  -1  206.30   43.30
   5  16  -1  221.78   47.23
  -5  16   1  166.14   50.08
  -5  16   1  224.46   40.84
  -5 -16   1  167.80   39.75
   5  16  -2  485.29   54.39
   5 -16  -2  404.51   65.96
   5  16  -2  499.92   73.31
  -5  16   2  425.32   59.31
  -5 -16   2  451.76   57.87
  -5  16   3 2873.36  245.48
  -5 -16   3 2532.15  180.16
  -5 -16   3 2603.03  195.98
   5 -16  -3 2752.99  217.31
   5  16  -3 2656.29  164.33
   5  16  -4  777.73  111.15
   5 -16  -4  840.32  100.25
  -5 -16   4  886.96  110.63
  -5 -16   4  929.91   87.01
  -5  16   4  896.53   98.91
   5 -16  -5  209.81   47.71
  -5 -16   5  333.13   59.82
  -5  16   5  208.28   65.61
   5  16  -5  337.86   74.48
  -5 -16   5  283.41   61.13
   5  17  -1 1291.87  108.04
   5 -17  -1 1261.04  116.82
   5  17  -1 1204.26  121.40
  -5  17   1 1155.12  111.79
  -5 -17   1 1176.94   92.04
   5  17  -2  746.95   90.10
  -5 -17   2  791.95   78.67
   5 -17  -2  809.95   89.55
   5  17  -2  703.33   71.63
  -5  17   2  888.09   92.78
  -5  17   3    7.70   37.42
  -5 -17   3   -1.24   39.85
   5  17  -3   30.25   30.49
   5 -17  -3    6.99   39.08
  -5 -17   3    3.13   27.81
  -5  17   4   17.28   34.05
  -5 -17   4  113.86   38.90
  -5 -17   4   87.25   37.47
   5 -17  -4   63.44   40.59
   5  17  -4   53.34   37.19
   5 -17  -5 2798.77  198.44
  -5 -18   1  126.94   33.09
   5  18  -1  132.82   37.29
   5  18  -1  129.74   43.41
   5 -18  -1  170.51   50.04
  -5  18   1  180.31   47.85
   5 -18  -2  155.77   41.18
   5  18  -2  129.70   47.41
  -5 -18   2  112.73   31.32
  -5  18   2  147.18   47.64
   5  18  -2   60.20   27.86
  -5 -18   3 4385.74  303.09
  -5  18   3 4166.58  308.80
   5 -18  -3 4571.60  321.75
   5  18  -3 4321.85  318.38
   5  18  -4   56.53   43.98
   5 -18  -4   37.79   43.58
   5  19  -1 4440.03  283.68
   5 -19  -1 4662.49  337.34
   5  19  -1 5009.81  371.89
  -5 -19   1 4518.92  293.27
  -5  19   1 4905.81  367.42
   5  19  -2  209.38   53.20
   5  19  -2  207.18   49.46
  -5  19   2  118.88   41.21
   5 -19  -2  153.54   51.23
   5  19  -3 1611.84  170.31
   4   0  -1   18.36   15.68
  -4   0   1   15.70   18.70
  -4   0   1    1.24   12.28
  -4   0   1  -19.80   16.24
   4   0  -1   -6.00   21.80
   4   0  -1   -5.97   13.02
  -4   0   2 8795.01  398.44
   4   0  -2 8280.63  359.89
   4   0  -2 9079.62  351.67
  -4   0   2 8992.06  332.59
  -4   0   2 8724.76  353.12
  -4   0   2 8974.89  440.57
   4   0  -2 8542.49  396.25
   4   0  -3   -8.37   13.77
   4   0  -3   11.63   10.47
   4   0  -3   63.16   20.76
  -4   0   3   -4.88   24.12
   4   0  -3   -3.75   16.98
  -4   0   3   15.73    9.30
  -4   0   3    5.88   12.12
  -4   0   426632.93 1039.89
   4   0  -428730.77 1113.18
   4   0  -429303.97 1089.89
   4   0  -433301.19 1268.52
   4   0  -428874.18 1150.32
   4   0  -425988.46  975.79
   4   0  -5  -13.65   21.07
   4   0  -5    3.44   21.12
  -4   0   5  -21.75   21.11
   4   0  -5   16.86   21.09
  -4   0   5   16.03   21.11
   4   0  -5   -6.48   21.12
   4   0  -6 1499.32  104.91
  -4   0   6 1290.94   88.50
  -4   0   6 1249.45   73.22
   4   0  -6 1317.49   99.53
   4   0  -6 1419.13   92.03
   4   0  -7    6.76   25.12
   4   0  -7   -1.40   21.21
  -4   0   7    6.72   24.01
   4   0  -7   -1.04   27.49
   4   0  -8 2262.08  157.75
   4   0  -8 2695.50  186.10
  -4   0   8 2471.74  180.63
   4   0  -8 2648.85  190.50
   4   0  -9  -45.89   29.49
   4   0  -9   -5.53   29.51
   4   0  -9   21.69   29.49
  -4   0   9  -17.51   29.53
   4   0 -10  492.40   63.51
   4   0 -10  413.62   63.43
   4  -1  -1   95.36   17.05
   4  -1  -1  115.84   23.39
  -4  -1   1  124.84   25.53
  -4   1   1   76.08   20.48
   4   1  -1   68.02   20.25
  -4  -1   1   78.95   15.32
  -4  -1   1   96.29   13.20
   4   1  -1   81.82   21.85
  -4   1   1  104.57   20.47
  -4  -1   1   84.79   26.59
  -4   1   1   88.14   16.60
   4  -1  -1   83.52   21.51
  -4  -1   2  910.41   78.08
  -4  -1   2  888.68   59.35
  -4   1   2  896.95   54.50
   4  -1  -2  821.69   53.07
   4  -1  -2  891.78   66.89
   4   1  -2  860.76   64.43
   4   1  -2  940.04   63.36
   4   1  -2  783.26   67.52
  -4   1   2  966.77   62.54
  -4   1   2  899.45   67.37
  -4  -1   2  814.54   78.28
   4  -1  -2  937.08   55.30
  -4   1   2  899.88   64.48
  -4  -1   2  960.42   61.24
  -4   1   3 1582.24  101.71
  -4   1   3 1580.93  115.47
   4  -1  -3 1540.23  114.43
  -4  -1   3 1485.88  101.02
   4   1  -3 1452.32   70.08
   4  -1  -3 1433.21  103.09
  -4   1   3 1518.57   80.76
  -4  -1   3 1578.50  113.09
   4   1  -3 1581.86   87.34
   4   1  -3 1561.08  121.65
  -4  -1   3 1626.53   76.69
   4  -1  -3 1600.81   93.24
   4   1  -3 1567.12  102.59
  -4  -1   4 2491.33  148.70
   4  -1  -4 2419.14  142.35
  -4  -1   4 2544.21  153.59
   4  -1  -4 2556.88  160.47
   4   1  -4 2365.05  135.70
   4  -1  -4 2365.16  124.99
   4   1  -4 2515.72  149.03
  -4   1   4 2415.15  147.28
   4  -1  -4 2592.51  137.96
   4   1  -4 2566.49  148.41
   4  -1  -5  311.57   33.33
  -4  -1   5  455.35   49.57
   4  -1  -5  340.89   30.26
   4  -1  -5  367.64   38.86
  -4  -1   5  378.48   31.25
   4   1  -5  360.44   48.08
   4   1  -5  318.88   44.42
   4  -1  -5  331.61   36.84
   4  -1  -5  346.93   36.76
   4   1  -5  337.45   32.72
  -4   1   5  325.94   35.93
  -4   1   610409.10  539.13
   4   1  -6 9688.12  441.56
   4   1  -6 9929.99  453.04
   4  -1  -610214.77  440.23
   4   1  -610397.84  526.62
  -4   1   6 9478.03  386.26
  -4  -1   6 9650.33  449.81
  -4  -1   610070.78  390.43
   4  -1  -610478.37  506.20
   4  -1  -6 9974.70  447.85
   4   1  -7  237.85   40.60
   4  -1  -7  228.49   44.57
   4  -1  -7  213.48   40.05
   4   1  -7  212.91   29.69
  -4  -1   7  191.46   32.57
  -4  -1   7  339.67   49.68
  -4   1   7  220.40   38.61
   4   1  -7  214.99   36.25
   4  -1  -7  226.88   40.71
  -4   1   8  136.41   41.84
  -4  -1   8  100.37   38.90
   4   1  -8   80.00   30.65
   4  -1  -8   89.58   36.34
   4   1  -8  145.20   44.57
   4  -1  -8  128.86   26.87
   4   1  -8  136.59   35.42
   4  -1  -8   68.92   30.30
   4  -1  -9  175.56   42.66
  -4  -1   9  133.48   46.46
   4   1  -9  121.09   37.84
   4   1  -9   94.39   44.23
   4  -1  -9  130.43   37.91
  -4   1   9  123.04   40.97
   4   1  -9  197.01   37.34
   4  -1  -9  145.17   37.75
  -4  -1  10 2415.10  226.20
   4  -1 -10 2319.19  201.89
   4  -1 -10 2309.98  181.64
   4  -1 -10 2267.34  188.81
   4   1 -10 2428.71  185.19
  -4   2   1 5593.94  268.66
   4   2  -1 5226.64  254.46
  -4   2   1 4945.37  235.41
   4   2  -1 5226.44  265.89
  -4  -2   1 3914.14  297.62
   4  -2  -1 4929.50  272.53
  -4  -2   1 5314.06  233.60
  -4  -2   1 5316.43  222.85
  -4   2   1 5222.38  271.56
   4  -2  -1 5854.87  417.19
  -4   2   1 5239.50  259.90
  -4  -2   1 5078.37  284.07
   4  -2  -1 5374.10  230.46
  -4   2   2 1538.26   96.75
   4   2  -2 1497.81   89.83
  -4  -2   2 1402.58   96.76
  -4  -2   2 1480.73   78.34
  -4  -2   2 1404.25   85.70
  -4  -2   2 1573.73  119.73
   4  -2  -2 1571.93  103.33
   4  -2  -2 1528.96   84.11
   4  -2  -2 1311.47   97.59
  -4   2   2 1565.18  119.16
   4   2  -2 1341.29   80.67
  -4   2   2 1465.44   88.31
  -4  -2   3  793.73   57.42
  -4   2   3  864.75   63.61
   4   2  -3  843.33   69.19
  -4  -2   3  851.42   59.76
   4  -2  -3  777.89   53.55
   4  -2  -3  788.19   65.56
   4  -2  -3  831.03   50.42
  -4   2   3  885.61   70.71
   4   2  -3  875.20   69.99
  -4   2   3  818.57   51.26
   4   2  -3  917.89   58.90
  -4  -2   3  800.90   43.62
  -4   2   4 4137.35  203.31
  -4  -2   4 4111.19  254.15
   4  -2  -4 4235.86  235.85
   4  -2  -4 4252.23  174.92
  -4  -2   4 3800.37  205.22
  -4  -2   4 5111.37  221.87
   4  -2  -4 3730.85  183.81
   4  -2  -4 4265.78  235.98
   4   2  -4 3715.54  264.43
   4   2  -4 3851.01  211.53
   4   2  -4 4036.83  214.05
  -4   2   4 4275.72  211.91
  -4   2   5  126.25   31.50
  -4  -2   5  116.97   25.04
   4   2  -5  170.60   31.13
   4   2  -5  115.69   22.25
  -4  -2   5  102.21   29.93
   4  -2  -5   55.29   24.82
   4  -2  -5   79.49   10.73
   4  -2  -5   81.67   26.94
   4  -2  -5   91.24   15.77
   4   2  -5   82.84   25.72
   4  -2  -5  104.35   29.92
   4   2  -6  133.32   39.25
   4  -2  -6   93.36   26.99
  -4  -2   6   58.60   23.70
   4   2  -6   72.61   20.87
  -4   2   6   29.36   26.39
   4   2  -6   87.84   30.28
   4  -2  -6   17.63   31.90
  -4  -2   6   82.94   26.29
   4  -2  -6   25.80   21.48
   4  -2  -6   58.14   13.17
   4  -2  -7   -5.36   18.14
   4  -2  -7   -6.01   18.15
   4  -2  -7   -7.60   18.13
   4   2  -7   -8.32   18.12
  -4  -2   7    1.04   18.12
   4   2  -7   -1.28   18.12
   4   2  -7   -5.92   18.12
  -4  -2   7   -1.24   18.10
  -4   2   7  -41.28   18.15
   4  -2  -8 1400.20  120.30
   4   2  -8 1180.84  105.03
   4   2  -8 1330.33  137.98
   4   2  -8 1520.86  123.93
   4  -2  -8 1339.63  113.48
   4  -2  -8 1475.39  134.88
  -4  -2   8 1369.59  106.68
  -4   2   8 1647.70  137.39
   4  -2  -9   65.11   28.19
   4   2  -9   60.13   44.18
   4  -2  -9   87.90   40.35
   4  -2  -9   66.80   32.80
  -4  -2   9   92.89   42.58
   4   2  -9   41.00   35.76
  -4   2   9   63.81   31.72
   4   2  -9   75.06   23.51
   4  -2 -10   36.43   27.58
   4   2 -10   18.99   27.87
   4  -2 -10   11.00   34.08
   4  -2 -10    7.30   32.19
  -4   3   1 3416.40  192.68
   4  -3  -1 3381.36  147.18
  -4   3   1 3483.29  171.91
  -4  -3   1 3257.91  145.17
   4  -3  -1 3478.50  178.60
  -4   3   1 3429.21  155.84
  -4  -3   1 3351.59  138.90
  -4   3   1 3166.13  163.68
  -4  -3   1 3448.62  154.74
   4   3  -1 3323.67  171.49
   4   3  -1 3830.47  294.15
   4  -3  -2 1858.30   95.12
  -4   3   2 1891.53  101.92
  -4  -3   2 1771.11  106.33
  -4  -3   2 1816.97  102.29
  -4  -3   2 1778.78   85.42
  -4   3   2 1840.51  123.89
  -4  -3   2 1859.19   88.12
   4  -3  -2 1795.10   95.80
   4  -3  -2 1860.16  112.73
   4   3  -2 1774.74  123.89
  -4   3   2 1803.44  113.23
   4   3  -2 1808.52  125.22
  -4  -3   3  223.06   26.00
  -4  -3   3  227.68   37.75
  -4   3   3  263.15   30.87
  -4  -3   3  229.79   36.29
   4  -3  -3  223.98   22.38
   4  -3  -3  205.18   30.22
   4   3  -3  214.70   28.77
  -4   3   3  277.70   33.57
   4   3  -3  259.58   34.50
  -4   3   3  223.36   28.43
  -4  -3   3  249.69   24.67
   4  -3  -3  293.31   26.58
  -4   3   4  139.40   24.41
  -4   3   4  178.45   28.88
   4  -3  -4  152.99   28.63
   4   3  -4  161.85   22.55
   4   3  -4  215.03   33.25
   4   3  -4  200.35   37.66
   4  -3  -4  163.45   15.92
  -4  -3   4  238.94   36.67
  -4  -3   4  170.76   20.30
   4  -3  -4  189.46   27.06
  -4  -3   4  186.42   27.96
   4  -3  -4  201.06   17.98
   4  -3  -5   49.47   26.15
   4   3  -5   66.36   18.50
   4   3  -5   56.49   23.96
   4  -3  -5   60.20   10.65
   4  -3  -5   46.03   29.00
   4   3  -5   75.15   30.53
  -4  -3   5   75.30   21.72
  -4   3   5  103.81   32.04
   4  -3  -5   -4.91   21.49
  -4  -3   5   46.06   24.77
   4   3  -6 2403.39  149.15
  -4   3   6 2520.05  145.57
  -4  -3   6 2463.47  180.69
  -4  -3   6 2376.68  135.81
   4  -3  -6 2600.38  168.56
   4  -3  -6 2366.28  103.43
   4  -3  -6 2479.47  127.05
   4   3  -6 2583.53  183.48
   4  -3  -6 2360.53  160.02
   4   3  -6 2528.91  156.37
   4   3  -7  499.09   56.97
   4   3  -7  627.67   57.20
  -4  -3   7  593.84   71.67
   4  -3  -7  566.67   51.98
   4  -3  -7  600.17   67.72
  -4  -3   7  466.33   59.67
   4  -3  -7  493.11   58.10
  -4   3   7  553.76   73.66
   4   3  -7  528.61   54.53
  -4  -3   8  708.66   85.76
   4  -3  -8  667.62   85.12
   4  -3  -8  687.71   82.88
   4   3  -8  750.17   75.08
   4   3  -8  814.52   68.64
   4  -3  -8  637.92   83.22
  -4   3   8  749.15   85.40
   4   3  -8  731.84   73.31
  -4  -3   9  293.82   61.71
   4   3  -9  414.66   58.42
   4  -3  -9  319.11   48.88
  -4   3   9  365.17   53.52
   4  -3  -9  298.80   47.91
   4   3  -9  350.84   56.60
   4  -3  -9  326.69   60.61
  -4   4   1 5153.29  249.08
  -4  -4   1 5255.06  198.45
  -4   4   1 5078.72  214.22
  -4  -4   1 5016.73  181.16
   4   4  -1 5273.55  233.65
  -4   4   1 5695.11  366.26
  -4   4   1 4810.85  235.25
  -4  -4   1 4585.97  267.27
   4  -4  -1 5221.84  225.11
   4  -4  -1 4893.60  230.85
  -4   4   2   13.96   19.88
  -4  -4   2   11.82   16.37
  -4  -4   2   -0.96    5.81
  -4   4   2    1.28   20.12
   4   4  -2   12.22   19.31
   4   4  -2   26.28   21.09
  -4  -4   2   11.57    8.85
  -4  -4   2    5.29   22.95
   4  -4  -2   14.45    9.97
  -4   4   2    7.53   23.06
   4  -4  -2   19.36   10.90
   4  -4  -2   41.83   21.43
   4  -4  -3  763.99   62.08
  -4  -4   3  763.20   45.43
   4  -4  -3  854.42   43.62
  -4  -4   3  814.16   58.63
  -4   4   3  904.66   68.77
  -4   4   3  820.62   61.93
   4   4  -3  843.09   66.40
  -4   4   3  913.94   75.67
  -4  -4   3  862.83   67.20
   4  -4  -3  762.44   46.86
   4   4  -3  831.43   70.72
  -4  -4   3  785.61   46.31
   4  -4  -4 8594.48  296.21
   4  -4  -4 7389.01  272.98
  -4  -4   4 7755.00  346.35
  -4  -4   4 7719.24  308.11
  -4   4   4 8085.77  334.44
   4   4  -4 8567.42  427.35
  -4   4   4 8236.50  376.71
  -4   4   4 8484.23  395.95
  -4  -4   4 8527.42  391.20
   4   4  -4 8180.80  355.70
   4   4  -4 8435.07  369.92
   4  -4  -4 8409.17  378.45
   4   4  -5  -37.54   28.77
  -4   4   5   51.81   27.25
  -4  -4   5   17.62   27.96
   4   4  -5    8.59   13.51
   4  -4  -5    0.56   21.68
   4   4  -5   15.97   33.53
  -4  -4   5    9.30   19.92
   4  -4  -5    2.64   22.97
   4  -4  -5   32.07   28.68
   4   4  -6  -19.00   22.69
  -4   4   6   10.71   30.19
   4  -4  -6   18.55   23.35
  -4  -4   6    9.79   18.58
   4  -4  -6   39.68   28.56
   4   4  -6   10.55   28.42
   4   4  -6    6.28   16.67
  -4  -4   6   63.02   29.34
   4  -4  -6    8.74   26.91
  -4   4   7 1050.47   99.97
   4  -4  -7  967.23   83.92
   4  -4  -7  893.05   89.76
  -4  -4   7  985.87   78.88
   4   4  -7  829.13   63.88
   4   4  -7  934.24   89.15
   4  -4  -7  945.52   86.44
  -4  -4   7  967.49   81.71
   4   4  -7 1078.99   84.10
  -4  -4   8 1892.10  175.17
   4  -4  -8 1948.72  154.45
   4  -4  -8 1820.71  146.30
   4  -4  -8 2039.20  169.85
  -4   4   8 1844.83  143.86
   4   4  -8 1942.32  150.09
   4   4  -8 1764.06  150.66
  -4  -4   8 1737.75  125.81
   4   4  -8 1995.27  160.66
   4  -4  -9 2178.46  170.33
   4  -4  -9 2222.15  167.73
   4   4  -9 2443.59  174.12
   4   4  -9 2318.83  202.16
   4  -4  -9 2281.79  191.65
  -4  -4   9 2604.22  195.59
  -4   4   9 2403.35  215.19
  -4   5   117288.70  743.04
  -4   5   117720.43  728.95
  -4   5   117217.77  700.89
   4   5  -117744.95  705.17
   4   5  -117805.39  649.74
  -4  -5   117444.16  806.22
  -4  -5   118150.21  541.92
   4  -5  -116681.82  690.04
   4  -5  -116664.24  694.91
  -4   5   117236.67  670.27
   4  -5  -2 4110.29  233.39
  -4  -5   2 4176.48  223.48
   4   5  -2 4065.32  205.89
   4   5  -2 4044.42  244.25
  -4   5   2 3972.79  210.92
  -4  -5   2 4184.90  199.45
  -4   5   2 4347.75  223.46
  -4   5   2 4106.47  220.47
   4  -5  -2 4090.61  179.37
  -4   5   3  390.47   43.33
  -4   5   3  313.04   31.45
   4   5  -3  410.37   49.51
  -4  -5   3  403.09   24.36
  -4  -5   3  369.76   49.88
   4  -5  -3  351.65   47.83
   4  -5  -3  383.50   26.00
  -4  -5   3  421.08   38.98
  -4   5   3  378.66   47.90
   4  -5  -3  319.49   24.02
   4   5  -3  447.77   44.11
  -4  -5   3  351.92   23.26
  -4   5   4 1283.16   91.11
  -4   5   4 1196.03   83.77
   4   5  -4 1269.99   76.71
  -4   5   4 1195.95  100.05
   4  -5  -4 1082.32   76.86
  -4  -5   4 1231.17   81.61
  -4  -5   4 1205.72   82.50
  -4  -5   4 1019.68   57.74
   4   5  -4 1258.59  101.00
   4   5  -5    7.31   12.30
   4  -5  -5  -12.27   12.31
   4   5  -5    7.79   12.31
  -4   5   5   -4.81   12.35
   4  -5  -5  -14.67   12.35
  -4  -5   5   -4.07   12.30
   4  -5  -5  -17.38   12.31
   4   5  -5   21.34   12.33
  -4  -5   5   14.78   12.30
  -4  -5   6 7138.99  327.26
  -4   5   6 7224.28  368.13
  -4  -5   6 6805.45  365.75
   4  -5  -6 6919.64  346.90
   4  -5  -6 6718.56  344.17
   4   5  -6 6955.85  367.90
   4  -5  -6 6503.84  282.77
   4   5  -6 7094.28  340.35
   4   5  -6 6744.98  345.55
  -4   5   7 3515.64  210.68
  -4  -5   7 3475.18  195.41
   4  -5  -7 3308.55  188.30
  -4  -5   7 3368.98  170.61
   4  -5  -7 3503.45  198.11
   4   5  -7 3492.54  220.19
   4   5  -7 3811.42  211.86
   4   5  -7 3380.34  200.70
   4  -5  -7 3466.93  223.24
   4  -5  -8   10.50   34.39
   4   5  -8   62.81   47.62
   4   5  -8   65.41   34.82
  -4   5   8   42.01   32.34
  -4  -5   8   60.69   27.75
   4  -5  -8  103.79   37.86
   4  -5  -8   66.57   34.06
  -4  -5   8   89.34   43.26
   4  -5  -9   93.98   33.18
   4  -5  -9   75.60   38.99
  -4  -5   9   59.94   39.41
   4   5  -9   51.30   32.33
   4   5  -9   99.86   39.12
   4  -5  -9   59.89   33.88
  -4   5   9   74.74   42.17
   4  -6  -1  201.44   35.12
   4  -6  -1  198.72   19.56
   4   6  -1  142.94   25.34
  -4  -6   1  175.61   29.55
   4   6  -1  131.58   28.15
  -4   6   1  159.68   26.71
  -4   6   1  192.46   23.00
  -4   6   1  152.38   18.52
  -4   6   1  209.24   32.87
  -4  -6   1   48.70   24.89
   4   6  -2  436.38   47.19
  -4   6   2  423.96   36.66
  -4  -6   2  520.58   49.02
  -4   6   2  422.82   29.80
  -4  -6   2  437.53   46.89
  -4   6   2  390.60   44.08
   4  -6  -2  460.48   32.06
  -4   6   2  397.68   34.37
   4  -6  -2  449.70   43.25
  -4  -6   3 2808.14  139.67
   4  -6  -3 2667.19  164.17
   4  -6  -3 2472.59  102.12
  -4  -6   3 2606.27  152.07
  -4   6   3 2760.31  170.62
  -4   6   3 2758.95  137.95
   4  -6  -3 2843.00   99.58
   4   6  -3 2751.27  158.81
   4   6  -3 2679.05  172.42
  -4   6   3 2848.88  138.64
  -4  -6   3 2922.79   91.16
   4   6  -4 8504.38  488.45
  -4  -6   4 7931.91  314.76
  -4   6   4 7971.46  384.08
  -4   6   4 8577.51  397.24
  -4   6   4 8189.26  403.26
  -4  -6   4 8493.47  404.99
  -4  -6   4 8476.20  421.78
   4   6  -4 8586.53  377.49
   4  -6  -4 8381.84  330.94
   4   6  -5 1708.19  133.50
  -4   6   5 1504.47  118.79
  -4  -6   5 1551.17  107.27
   4  -6  -5 1683.90  118.22
  -4   6   5 1505.45   99.35
   4   6  -5 1501.11  111.67
   4   6  -5 1542.99   88.84
  -4   6   5 1550.21   98.89
  -4  -6   5 1611.04  117.24
   4   6  -6  256.48   31.55
   4   6  -6  273.71   40.66
  -4  -6   6  250.55   39.55
   4  -6  -6  225.78   44.07
  -4   6   6  324.66   49.87
   4   6  -6  337.74   47.37
  -4  -6   6  326.96   40.45
   4  -6  -6  347.80   39.48
   4  -6  -6  262.34   49.34
   4  -6  -7  224.84   44.19
   4   6  -7  134.25   40.35
   4  -6  -7  199.40   35.89
  -4   6   7  247.48   45.83
  -4  -6   7  153.21   39.24
  -4  -6   7   90.13   29.59
   4  -6  -7  257.28   40.31
   4   6  -7  147.11   39.20
   4   6  -8  112.90   32.18
   4  -6  -8   39.80   29.96
  -4  -6   8   20.63   25.71
   4  -6  -8   83.01   36.86
   4   6  -8   53.45   40.73
  -4  -6   8   83.59   38.13
  -4   6   8  131.09   47.59
   4  -6  -8  124.61   42.74
   4   6  -9 2653.98  212.36
   4  -6  -9 2373.91  190.42
   4  -6  -9 2580.44  177.98
  -4  -6   9 2622.98  187.03
   4  -6  -9 2422.39  175.53
   4   6  -9 2804.21  239.51
  -4   6   9 2403.88  208.91
   4   7  -116990.89  656.90
  -4   7   116598.62  686.39
   4  -7  -116853.39  722.72
   4  -7  -116839.53  584.37
   4   7  -116211.96  662.26
  -4   7   114674.40  573.75
  -4   7   115567.68  548.03
  -4  -7   116154.14  662.81
  -4   7   116398.16  689.08
   4   7  -2 1702.36  127.45
  -4   7   2 1622.04   79.83
   4  -7  -2 1680.34   76.01
  -4   7   2 1646.00  118.59
  -4  -7   2 1602.73  103.12
  -4  -7   2 1442.72   91.35
  -4   7   2 1553.30   97.52
   4  -7  -2 1666.17  123.75
  -4   7   2 1581.30   85.42
   4   7  -3   -7.86   23.49
  -4   7   3   -1.28   23.47
  -4  -7   3  -16.44   23.49
  -4   7   3    2.88   23.41
   4   7  -3   19.74   23.37
  -4  -7   3  -17.65   23.34
   4  -7  -3   19.40   23.44
  -4   7   3  -17.85   23.45
   4   7  -4  452.17   54.64
  -4   7   4  460.88   61.02
  -4  -7   4  444.15   53.16
  -4  -7   4  496.84   47.27
  -4  -7   4  472.18   28.59
  -4  -7   4  421.14   27.69
  -4   7   4  435.83   44.19
   4   7  -4  509.62   50.38
   4  -7  -4  554.94   47.39
  -4   7   4  435.46   41.95
   4   7  -5  693.57   52.42
  -4   7   5  690.22   80.60
  -4  -7   5  702.26   62.38
   4  -7  -5  753.88   66.05
  -4   7   5  749.58   69.35
  -4   7   5  657.19   71.32
   4   7  -5  749.56   77.25
   4   7  -5  729.49   79.52
  -4  -7   5  662.03   67.77
  -4  -7   6  922.53   70.15
   4  -7  -6 1003.76   85.82
  -4   7   6  978.54   74.09
   4  -7  -6  857.63   78.47
  -4  -7   6  846.73   74.68
   4   7  -6  916.55   86.52
   4   7  -6  923.69   72.64
  -4   7   6  904.51   81.76
  -4  -7   7 6000.53  321.08
   4  -7  -7 6074.44  320.41
   4   7  -7 5787.51  360.75
   4  -7  -7 5752.38  343.69
  -4   7   7 5649.19  360.77
   4  -7  -7 5801.44  315.23
  -4  -7   7 5726.39  331.28
   4   7  -7 5637.78  338.25
  -4  -7   8  388.50   60.77
   4  -7  -8  395.15   54.75
  -4   7   8  391.20   59.67
  -4  -7   8  392.14   58.77
   4   7  -8  474.99   72.88
   4   7  -8  332.44   55.20
   4  -7  -8  386.12   56.75
   4  -7  -8  449.21   76.32
  -4   7   9   31.77   44.00
  -4  -7   9    5.46   29.08
   4  -7  -9   26.70   31.63
   4  -7  -9   78.06   33.61
   4   7  -9   72.94   35.59
   4  -7  -9  -10.67   29.76
   4   7  -9   -7.19   30.76
   4  -8  -1 2310.95  103.68
   4  -8  -1 2321.70  129.26
  -4   8   1 2322.76  137.22
   4   8  -1 2450.10  134.54
  -4   8   1 2374.76  127.14
  -4  -8   1 2314.83  142.43
  -4   8   1 2233.58  117.24
  -4   8   1 2240.32  129.97
   4   8  -1 2288.04  176.89
  -4   8   2  225.56   19.88
   4   8  -2  243.30   30.96
   4  -8  -2  272.48   22.02
  -4   8   2  211.34   34.23
   4  -8  -2  231.86   31.83
  -4  -8   2  213.14   31.63
  -4   8   2  303.31   30.56
   4   8  -2  197.89   28.81
  -4   8   2  252.27   29.91
  -4  -8   2  283.19   45.38
  -4  -8   3 1836.87  125.42
   4  -8  -3 1893.62  141.02
  -4   8   3 2227.35  136.51
   4   8  -3 2069.36  131.09
  -4   8   3 2143.36  121.13
  -4   8   3 1945.09  137.58
   4   8  -3 2192.27  151.31
  -4  -8   3 1989.29  154.29
  -4   8   4  700.80   67.41
  -4   8   4  763.56   62.46
  -4  -8   4  673.05   70.32
  -4   8   4  739.10   57.07
   4   8  -4  715.99   76.11
   4  -8  -4  720.81   68.54
   4   8  -4  724.88   61.81
  -4  -8   4  668.69   58.84
   4   8  -5  -18.61   29.04
  -4   8   5   14.27   29.45
  -4  -8   5   -1.12   24.16
   4  -8  -5    4.33   22.00
   4   8  -5   36.31   27.62
  -4   8   5   33.57   22.74
  -4   8   5    9.61   19.18
  -4  -8   5   -1.76   20.32
   4   8  -6  976.46   76.74
  -4  -8   6 1060.44   75.82
  -4  -8   6 1144.08   84.35
  -4   8   6  873.19   81.45
   4  -8  -6  997.73   82.51
  -4   8   6 1098.00   71.93
  -4   8   6 1068.18   94.07
   4   8  -6 1095.11   89.48
   4   8  -7 1902.60  146.84
   4  -8  -7 1987.70  168.47
  -4  -8   7 2129.89  151.93
  -4  -8   7 2246.31  137.77
  -4   8   7 2025.84  144.70
   4  -8  -7 2106.19  144.93
  -4   8   7 2039.09  150.70
   4   8  -7 2002.41  158.63
  -4   8   8  271.32   54.32
   4   8  -8  229.25   49.50
   4  -8  -8  202.85   38.46
  -4  -8   8  234.27   48.48
   4  -8  -8  199.09   53.66
   4  -8  -8  202.91   43.80
  -4  -8   8  183.56   38.66
   4   8  -8  133.09   44.56
   4   8  -9 2911.30  228.07
  -4   8   9 3201.55  246.51
   4  -8  -9 3108.35  213.33
   4  -8  -9 2677.20  209.72
   4  -8  -9 2818.90  195.11
   4   8  -9 2975.08  241.05
  -4  -8   9 3183.63  204.02
   4  -9  -111364.52  496.61
   4   9  -111745.47  534.64
   4  -9  -111915.26  467.28
  -4   9   112222.68  632.71
  -4   9   111588.87  464.95
  -4   9   111274.47  449.15
  -4   9   111979.99  557.08
  -4  -9   111650.50  576.88
   4   9  -111939.33  556.46
   4   9  -2   25.34   16.11
  -4   9   2   45.57   20.36
  -4  -9   2   39.00   26.33
  -4   9   2   29.49    8.68
  -4   9   2   39.02   21.27
  -4   9   2   21.47   27.23
   4  -9  -2   46.36   11.10
   4  -9  -2   80.96   25.23
  -4  -9   2   69.50   30.18
   4   9  -2   30.15   20.53
  -4  -9   3  306.28   39.81
  -4  -9   3  245.31   32.30
  -4   9   3  287.71   30.63
   4  -9  -3  291.58   32.01
   4   9  -3  332.48   37.90
  -4   9   3  240.43   34.66
   4   9  -3  306.10   36.66
  -4   9   3  265.99   32.13
  -4  -9   4  475.41   46.08
  -4   9   4  398.99   41.37
   4   9  -4  457.88   49.50
   4  -9  -4  363.83   50.57
   4   9  -4  422.04   50.96
  -4   9   4  357.30   49.77
  -4   9   4  373.45   48.08
  -4  -9   4  358.40   46.28
  -4   9   5   -5.62   28.32
   4  -9  -5   38.66   29.57
   4   9  -5   29.45   25.85
  -4  -9   5   -3.36   28.16
  -4  -9   5   26.98   26.58
  -4   9   5  -26.38   28.18
   4   9  -5   31.44   31.84
  -4   9   5   23.08   25.29
   4   9  -6   -2.92   26.51
   4   9  -6   -3.08   26.52
  -4   9   6   20.97   26.54
  -4  -9   6   24.61   26.48
  -4   9   6  -41.18   26.61
  -4   9   6  -28.84   26.56
   4  -9  -6    7.62   26.59
  -4  -9   6  -31.90   26.51
  -4  -9   7  878.81   90.36
   4   9  -7  986.44   92.53
  -4   9   7 1031.46   94.75
   4   9  -7 1034.62  100.64
   4  -9  -7  996.89   84.44
  -4  -9   7  907.39   81.20
  -4   9   7  942.39   88.55
   4   9  -8  631.40   84.05
  -4   9   8  680.88   78.91
  -4   9   8  625.47   77.17
  -4  -9   8  594.01   72.66
   4   9  -8  739.76   91.25
  -4  -9   8  681.01   76.32
   4  -9  -8  679.22   74.00
   4  -9  -8  782.35   84.32
  -4   9   9  699.86   85.37
  -4  -9   9  786.51   89.70
   4   9  -9  839.70   83.42
   4  -9  -9  706.87   90.01
   4  -9  -9  777.16   98.19
  -4   9   9  819.93  110.86
  -4  -9   9  620.10   89.56
  -4  10   1  618.45   37.01
  -4  10   1  596.24   59.67
  -4  10   1  513.02   42.98
   4 -10  -1  545.57   55.61
   4  10  -1  597.38   50.25
  -4  10   1  585.72   56.55
   4  10  -1  638.35   56.27
   4 -10  -1  522.87   52.12
  -4 -10   1  582.93   46.77
  -4 -10   2   20.24   22.12
   4  10  -2   42.32   21.92
  -4  10   2   30.70   28.22
  -4  10   2   69.67   18.95
  -4  10   2   53.36   23.12
   4 -10  -2   52.81   12.93
  -4 -10   2   16.97   31.68
   4 -10  -2   53.88   26.74
  -4 -10   3 3437.78  192.24
  -4  10   3 3446.55  208.75
   4 -10  -3 3597.17  222.76
  -4 -10   3 3528.25  176.42
   4  10  -3 3662.44  210.75
  -4  10   3 3652.41  230.34
   4  10  -3 3617.36  174.66
  -4  10   3 3790.63  217.42
   4 -10  -4  447.68   61.10
  -4  10   4  334.59   51.99
  -4 -10   4  382.52   56.42
  -4  10   4  361.09   36.07
  -4 -10   4  400.37   47.62
  -4  10   4  410.49   49.53
   4  10  -4  397.06   54.32
   4  10  -4  362.65   50.77
  -4 -10   5  107.54   38.95
  -4  10   5   85.50   26.95
   4  10  -5  146.42   38.33
  -4 -10   5   61.40   27.36
   4  10  -5   76.22   23.93
  -4  10   5   52.88   35.09
  -4  10   5   63.50   33.14
   4 -10  -5   76.43   25.18
  -4  10   6  -24.29   25.54
   4  10  -6  -12.28   24.47
   4  10  -6   89.40   37.18
  -4  10   6   41.39   28.06
  -4  10   6  -12.60   32.11
  -4 -10   6   23.71   27.22
  -4 -10   6   -0.20   32.46
   4 -10  -6   28.41   29.05
  -4  10   7 1525.14  118.27
   4  10  -7 1397.02  123.80
   4 -10  -7 1420.92  114.59
  -4 -10   7 1507.35  125.62
   4  10  -7 1606.48  139.62
  -4  10   7 1346.86  117.08
  -4 -10   7 1404.56  112.73
  -4  10   7 1273.55  101.99
   4  10  -8  424.53   74.73
  -4 -10   8  330.31   56.33
   4  10  -8  528.28   75.54
   4 -10  -8  405.17   57.62
  -4  10   8  466.97   67.67
  -4  10   8  343.38   62.85
  -4 -10   8  392.07   67.98
  -4 -11   117576.46  737.43
   4 -11  -115602.31  610.11
  -4  11   115588.64  664.30
  -4 -11   116015.91  715.94
  -4  11   115657.04  613.91
   4 -11  -116278.60  654.50
  -4  11   115402.42  581.27
   4  11  -115328.75  680.45
   4 -11  -2   -1.12   18.52
  -4  11   2   -9.47   18.50
   4  11  -2    4.53   18.55
  -4  11   2  -44.99   18.50
  -4  11   2    5.52   18.54
  -4 -11   2   -4.19   18.45
  -4 -11   2  -16.23   18.55
  -4 -11   2   12.44   18.51
   4 -11  -2  -18.71   18.47
  -4  11   3  668.75   55.34
  -4  11   3  608.48   51.29
  -4 -11   3  647.34   54.03
  -4 -11   3  675.53   66.18
   4 -11  -3  611.12   59.25
  -4  11   3  662.46   58.09
   4  11  -3  682.33   64.91
   4  11  -3  544.45   51.17
   4  11  -4  192.68   36.33
  -4  11   4  124.43   27.35
  -4 -11   4  117.04   40.66
   4  11  -4  150.67   28.66
   4 -11  -4  183.56   40.45
  -4 -11   4  157.23   30.02
  -4  11   4  165.34   31.61
  -4  11   4  219.96   41.88
  -4 -11   5 1987.37  141.70
  -4  11   5 1737.19  132.90
  -4  11   5 1729.80  107.44
   4  11  -5 1968.89  145.76
   4 -11  -5 1650.18   99.69
  -4  11   5 1829.17  121.75
  -4 -11   5 2004.60  120.77
   4  11  -5 1847.18  135.94
  -4 -11   6   -0.04   24.69
  -4 -11   6  -42.22   33.02
  -4  11   6   33.55   33.55
  -4  11   6   19.45   27.47
   4  11  -6   22.79   29.22
  -4  11   6   19.38   32.43
   4  11  -6   -9.28   29.75
   4 -11  -6  -42.01   30.16
  -4  11   7 3079.59  185.95
  -4 -11   7 3599.47  250.06
  -4 -11   7 3363.56  202.69
   4 -11  -7 3572.23  228.82
   4  11  -7 3538.04  247.03
  -4  11   7 3436.36  224.01
  -4  11   7 3433.99  193.94
   4  11  -7 3509.09  242.83
  -4  11   8   24.06   41.11
   4  11  -8   -1.80   40.96
   4  11  -8   47.31   40.99
  -4  11   8   46.61   41.11
   4 -11  -8  -16.06   41.06
  -4 -11   8   -4.56   40.99
  -4 -11   8  -35.45   40.92
  -4 -12   1 1225.71   79.99
  -4  12   1 1120.36   77.56
  -4 -12   1 1208.13   95.88
  -4 -12   1 1262.22  101.19
  -4  12   1 1163.23   84.96
  -4  12   1 1125.60   74.45
   4  12  -1 1212.62   88.76
   4 -12  -1 1247.73   74.39
   4 -12  -1 1172.50   82.80
  -4 -12   2  180.04   29.60
  -4  12   2  228.51   27.69
  -4 -12   2  243.65   32.56
   4 -12  -2  153.17   34.95
   4  12  -2  230.60   32.23
  -4  12   2  184.30   42.86
  -4  12   2  166.40   30.00
  -4 -12   2  231.19   38.95
   4 -12  -2  183.05   22.09
  -4 -12   3 9979.95  463.64
  -4  12   3 9473.54  410.27
   4  12  -3 9862.61  471.59
   4  12  -3 9763.54  468.83
  -4  12   3 9860.49  434.12
  -4  12   3 9861.02  462.02
  -4 -12   310131.35  423.63
   4 -12  -3 9352.37  483.42
  -4  12   4  125.73   24.97
  -4 -12   4  174.72   41.47
  -4  12   4  132.27   37.53
  -4  12   4  113.87   36.41
  -4 -12   4  146.80   28.86
   4 -12  -4  146.34   35.48
   4  12  -4  168.99   38.71
   4  12  -4  161.10   35.13
   4  12  -5 1520.68  119.67
  -4  12   5 1407.42  124.18
  -4 -12   5 1411.99  101.50
  -4  12   5 1315.71   97.78
  -4  12   5 1315.96  122.38
   4  12  -5 1462.24  122.43
   4 -12  -5 1313.79  113.93
  -4 -12   5 1337.76  124.19
   4 -12  -6   18.65   32.18
  -4  12   6   65.77   35.44
   4  12  -6    8.47   25.14
   4  12  -6  -38.98   27.54
  -4 -12   6   12.07   26.70
  -4  12   6   -4.73   22.27
  -4  12   6   14.93   40.19
  -4 -12   6    5.97   23.95
  -4 -12   7  946.89   81.38
   4 -12  -7  921.35  100.67
   4  12  -7  918.40   96.43
   4  12  -7  984.57  108.15
  -4 -12   7  885.80  111.66
  -4  12   7  862.46   85.56
  -4  12   7  865.40  105.22
  -4  12   8  423.53   65.54
  -4 -12   8  268.34   52.11
   4  12  -8  325.75   57.55
   4 -12  -8  287.56   54.13
  -4  12   8  283.91   55.46
  -4 -12   8  320.85   60.78
   4  12  -8  326.91   58.34
  -4  13   1 6711.16  316.46
   4 -13  -1 6965.89  320.04
  -4 -13   1 6664.40  346.77
  -4 -13   1 6909.73  328.69
  -4  13   1 7425.31  334.72
   4  13  -1 7321.19  360.51
  -4  13   1 7126.16  324.01
   4 -13  -1 6811.45  343.02
  -4  13   2  -21.68   24.36
  -4  13   2   28.69   21.38
   4  13  -2   19.49   24.97
  -4 -13   2   15.97   24.06
   4 -13  -2   -2.55    9.94
   4 -13  -2  -13.76   21.15
  -4 -13   2   24.49   21.89
  -4  13   2   37.86   18.89
  -4 -13   2   36.13   40.75
  -4  13   3  529.62   52.61
  -4  13   3  540.18   57.91
  -4  13   3  617.21   69.65
   4  13  -3  557.24   59.48
   4  13  -3  563.79   53.56
  -4 -13   3  590.24   62.98
   4 -13  -3  685.69   76.47
  -4 -13   3  498.64   55.48
  -4  13   4  495.70   63.35
  -4 -13   4  525.24   63.55
  -4  13   4  523.18   58.38
   4  13  -4  615.91   60.20
   4 -13  -4  520.16   58.84
  -4  13   4  538.00   63.44
  -4 -13   4  587.03   65.74
   4  13  -4  513.76   61.84
  -4  13   5  859.08   74.85
  -4  13   5  951.83   80.63
   4  13  -5  898.28   92.72
   4  13  -5  835.07   86.44
  -4 -13   5  846.21   77.35
  -4 -13   5  806.42   64.41
   4 -13  -5  823.37   82.85
  -4  13   5  872.90   85.62
   4  13  -6 1428.43  110.26
   4  13  -6 1591.25  146.35
   4 -13  -6 1395.05  126.64
  -4 -13   6 1498.85  105.63
  -4 -13   6 1513.39  138.16
  -4  13   6 1448.06  129.61
  -4  13   6 1267.45  118.36
   4  13  -7 1042.07  118.25
   4  13  -7 1088.84  107.05
  -4  13   7  972.79  112.68
  -4 -13   7 1162.67  128.52
  -4 -13   7 1045.43   97.18
   4 -13  -7  968.50   99.93
  -4  13   7  836.24   99.21
  -4 -13   8   50.86   30.11
   4 -13  -8   35.85   24.72
  -4  13   8  -26.75   35.85
   4  13  -8   14.28   35.31
  -4  14   1 1093.02   77.57
   4  14  -1 1164.22   96.33
   4 -14  -1 1160.97   97.36
   4 -14  -1 1153.66   83.56
  -4 -14   1 1125.19   94.42
  -4 -14   1 1153.19   88.10
  -4 -14   1  794.76   76.28
  -4  14   1 1131.67   86.45
  -4  14   2  354.41   51.59
  -4 -14   2  439.59   46.14
   4 -14  -2  440.83   58.21
  -4 -14   2  396.57   42.47
   4  14  -2  381.53   49.57
  -4 -14   2  454.95   58.08
  -4  14   2  367.55   41.72
  -4  14   2  470.86   50.19
   4  14  -3  186.29   37.42
  -4 -14   3  208.78   41.49
  -4  14   3  238.01   40.19
   4  14  -3  264.44   37.75
  -4 -14   3  262.41   37.57
  -4  14   3  227.10   33.57
   4 -14  -3  217.49   42.74
  -4  14   3  246.84   32.59
   4 -14  -4 2649.95  182.33
  -4  14   4 2513.36  166.26
  -4  14   4 2696.12  178.42
   4  14  -4 2646.76  194.57
   4  14  -4 2749.17  193.22
  -4 -14   4 2694.00  184.58
  -4  14   4 2525.73  171.06
  -4 -14   4 2707.94  204.16
  -4 -14   5  193.09   35.42
   4  14  -5  149.92   37.31
  -4  14   5  230.49   41.34
   4  14  -5  188.62   44.05
  -4  14   5  192.72   38.90
  -4 -14   5  159.65   38.38
   4 -14  -5   96.75   35.89
   4  14  -6   50.69   38.11
   4  14  -6   87.91   36.64
  -4 -14   6   66.74   42.40
  -4 -14   6   59.80   26.41
   4 -14  -6   11.80   33.23
  -4  14   6   50.52   40.12
  -4  14   6   22.83   36.84
   4  14  -7  915.76  105.11
  -4 -14   7  910.62  105.67
  -4  14   7 1098.07  126.54
   4 -14  -7  954.79  102.76
  -4  14   7  876.08  102.49
   4  14  -7  949.72  108.75
  -4 -15   1 4267.85  235.27
  -4 -15   1 4021.31  217.67
  -4  15   1 4176.81  235.02
   4 -15  -1 3940.25  212.56
  -4  15   1 3822.38  250.06
   4  15  -1 4128.86  228.72
   4 -15  -1 4061.52  205.62
  -4 -15   1 4265.27  244.03
   4 -15  -2 2185.10  162.90
  -4 -15   2 2278.43  161.30
  -4 -15   2 2244.29  142.44
  -4 -15   2 2179.87  152.73
  -4  15   2 2165.49  133.46
  -4  15   2 2284.20  190.07
   4  15  -2 2152.22  157.40
  -4 -15   3 1295.68   96.18
  -4 -15   3 1395.19  125.13
   4 -15  -3 1213.29  114.27
  -4  15   3 1384.92  127.88
  -4  15   3 1319.61   94.70
   4  15  -3 1377.36  126.67
   4  15  -3 1377.36   86.39
  -4 -15   4   43.07   29.66
   4  15  -4  -39.59   34.75
   4  15  -4    5.11   22.12
  -4  15   4  -23.82   31.66
  -4  15   4    9.98   27.67
   4 -15  -4   42.84   33.14
  -4 -15   4   -9.95   21.44
  -4  15   5   49.96   26.26
  -4 -15   5   40.22   28.35
  -4  15   5  102.28   40.38
   4  15  -5   37.46   37.50
   4  15  -5   71.75   29.63
   4 -15  -5   68.32   34.28
  -4 -15   5  140.52   30.65
  -4  15   6 1575.32  146.75
  -4  15   6 1201.45  123.49
   4  15  -6 1075.95  109.59
   4  15  -6 1628.60  143.48
   4 -15  -6 1375.01  124.15
  -4 -15   6 1404.19  138.87
   4  15  -7  147.44   45.00
  -4  15   7  186.87   40.77
   4 -15  -7  228.77   53.21
  -4 -15   7  273.84   59.48
   4 -16  -1  -25.54   32.73
   4  16  -1   -7.80   32.81
  -4  16   1  -11.02   32.73
  -4 -16   1   28.54   32.73
  -4  16   1    0.48   32.75
   4  16  -2   22.75   25.71
  -4  16   2   22.19   30.29
  -4 -16   2   -3.63   39.10
   4 -16  -2   -9.10   26.93
  -4 -16   2   31.86   29.74
   4  16  -3 1630.87  124.18
  -4 -16   3 1647.35  141.88
  -4  16   3 1756.76  152.67
   4 -16  -3 1620.20  148.80
  -4 -16   3 1680.59  132.45
   4  16  -4 2578.68  176.95
   4 -16  -4 2398.66  191.03
  -4 -16   4 2646.07  198.99
  -4  16   4 2464.69  208.26
  -4 -16   4 2581.23  202.15
   4 -16  -5   67.15   32.68
   4  16  -5   94.20   35.70
   4  16  -5   55.53   28.34
  -4 -16   5   81.10   40.57
  -4  16   5   39.61   31.31
  -4  16   5   77.97   43.10
  -4 -16   6   82.33   38.19
   4 -16  -6   88.27   39.56
   4  16  -6   77.04   34.34
  -4  16   6  105.29   41.68
   4  16  -6  104.30   35.90
  -4  16   6   91.49   36.96
  -4  17   1 1733.79  143.65
   4  17  -1 1717.35  124.58
  -4 -17   1 1708.57  121.72
   4 -17  -1 1705.65  144.21
  -4 -17   2 3715.09  260.52
  -4 -17   2 3488.05  205.81
   4 -17  -2 3535.87  232.69
   4  17  -2 3855.51  251.71
  -4  17   2 3781.71  258.30
  -4 -17   3  403.88   68.83
   4 -17  -3  407.92   59.31
  -4 -17   3  367.12   57.62
  -4  17   3  359.78   56.00
   4  17  -3  325.95   56.14
  -4  17   4   74.17   47.41
  -4 -17   4  117.21   39.75
   4 -17  -4  148.57   42.76
   4  17  -4  163.26   43.05
  -4  17   5  651.46   82.90
   4  17  -5  543.55   72.36
  -4 -17   5  713.96   87.75
   4 -17  -5  555.03   72.67
   4 -17  -6 2325.61  205.69
  -4 -18   1  125.37   31.49
   4  18  -1  144.61   40.15
   4  18  -1  158.80   49.09
   4 -18  -1  135.40   45.37
  -4  18   1  210.62   43.87
   4  18  -2    6.08   29.19
  -4 -18   2   43.83   27.53
   4 -18  -2   18.24   32.08
  -4 -18   2   25.27   32.21
  -4  18   2   75.90   39.47
   4  18  -3  138.53   43.67
  -4 -18   3  133.52   46.89
   4 -18  -3  208.14   49.01
  -4  18   3  168.03   47.34
  -4  18   4 4311.48  290.60
   4 -18  -4 4546.72  311.90
  -4 -18   4 4252.24  381.83
   4  18  -4 4497.04  275.23
  -4 -18   5    1.08   29.74
   4 -18  -5   22.09   31.11
   4  18  -5   19.96   45.20
  -4  18   5  -13.64   37.71
  -4  19   1   14.21   21.63
   4  19  -1  -18.33   21.69
  -4 -19   1  -38.13   21.64
   4 -19  -1   -4.03   21.63
   4  19  -1    2.52   21.66
   4  19  -2  998.08  123.49
   4 -19  -2  948.43   88.59
  -4  19   2  905.15  115.42
  -4 -19   2  796.47  109.56
   4 -19  -3   16.88   35.28
  -4  19   3  -16.21   35.29
   4  19  -3   18.10   35.33
  -4 -19   3  -23.55   35.28
   4 -19  -4  747.63   88.25
   4  19  -4  687.05   92.55
  -4  19   4  831.34  111.23
  -4 -19   4  738.95   88.19
   4  20  -1  719.96   99.18
  -4  20   1  737.24   99.63
   4  20  -1  761.33   87.05
   4 -20  -1  694.09   87.27
   4 -20  -2  -35.51   33.48
  -4  20   2   -3.75   33.48
   4  20  -2  -18.96   33.55
  -4 -20   2   31.27   33.50
   4  20  -3   -6.99   27.74
   4 -20  -3    4.07   32.41
  -4  20   3   67.39   44.47
  -4  21   1  108.88   37.24
   4  21  -1   39.45   36.81
   4  21  -1   50.51   31.66
   3   0  -1    6.48   17.60
   3   0  -1   12.21   12.85
  -3   0   1   -4.64   11.68
  -3   0   1   -6.44   21.00
  -3   0   1   11.72   13.72
  -3   0   1   22.67   11.30
   3   0  -1    5.24   10.08
   3   0  -1   -3.16   11.80
  -3   0   1   -4.53   10.90
  -3   0   1    9.00   17.31
   3   0  -2   -0.08   17.33
   3   0  -2   -8.36   17.31
   3   0  -2    8.85   17.26
  -3   0   2   -5.69   17.34
  -3   0   2   -2.63   17.26
   3   0  -2   -6.86   17.27
  -3   0   2  -17.13   17.33
   3   0  -3  129.59   19.07
   3   0  -3  120.64   14.96
  -3   0   3   68.44   21.41
   3   0  -3   64.53   24.86
  -3   0   3  116.11   18.11
  -3   0   3  135.18   16.29
   3   0  -3   86.38   25.05
   3   0  -4  -10.33   14.47
  -3   0   4    5.64   14.52
   3   0  -4  -26.31   14.47
   3   0  -4   -0.64   14.53
  -3   0   4   -0.76   14.48
   3   0  -4  -10.37   14.53
   3   0  -513302.36  547.03
  -3   0   514536.81  559.69
   3   0  -514559.97  584.13
   3   0  -513941.54  607.77
   3   0  -514686.93  693.58
  -3   0   514648.57  630.30
   3   0  -6  -45.23   25.80
  -3   0   6    1.64   25.75
   3   0  -6   16.87   25.75
   3   0  -6   18.07   25.75
  -3   0   6  -10.41   25.78
   3   0  -7 8931.19  442.03
   3   0  -7 8942.27  425.67
  -3   0   7 9139.82  404.38
   3   0  -7 8525.65  412.97
  -3   0   7 8428.94  369.25
   3   0  -8    9.38   25.37
   3   0  -8  -40.35   25.32
   3   0  -8   -8.00   25.32
  -3   0   8  -11.18   25.37
  -3   0   9 5496.13  334.13
   3   0  -9 5260.33  291.15
   3   0  -9 5319.94  338.49
   3   0  -9 5038.09  339.89
   3   0 -10  -13.22   26.64
   3   0 -10  -26.92   26.64
  -3   0  10  -10.31   26.75
   3   0 -10   28.73   26.73
  -3  -1   1   35.92   10.40
  -3  -1   1   74.61   14.67
  -3  -1   1   -0.20   17.19
  -3  -1   1   47.51   10.62
  -3  -1   1   35.63   16.75
   3  -1  -1   41.98   14.23
   3  -1  -1   33.48   15.16
  -3   1   1   29.43   14.17
  -3   1   1   56.89   14.20
   3   1  -1   49.62   17.03
   3   1  -1   58.07   13.48
   3   1  -1   39.56   16.86
   3   1  -1   47.45   14.30
  -3   1   1   44.74   12.41
  -3   1   1   32.71   17.19
  -3   1   1   38.86   11.66
   3  -1  -1   36.05   14.28
  -3  -1   1   45.34   13.43
  -3   1   1   81.84   24.33
   3   1  -212323.41  512.17
  -3   1   211648.11  482.57
   3  -1  -212560.83  492.23
   3  -1  -211754.44  547.07
   3  -1  -211945.57  634.10
  -3   1   212368.52  515.00
   3  -1  -212339.68  501.17
  -3  -1   212193.35  473.33
  -3  -1   212035.47  479.08
  -3  -1   211748.91  528.73
  -3   1   211919.59  499.82
   3   1  -212404.13  496.92
   3   1  -212384.24  577.02
  -3   1   212173.85  430.41
   3   1  -212078.17  471.37
  -3  -1   3 5280.22  250.36
   3  -1  -3 5416.85  239.63
   3  -1  -3 5684.32  332.18
   3  -1  -3 5629.21  239.74
  -3   1   3 5586.64  238.46
   3  -1  -3 5473.39  266.85
   3   1  -3 5409.38  289.87
   3   1  -3 5279.55  247.48
  -3  -1   3 5502.49  226.67
  -3   1   4  501.72   42.99
   3   1  -4  432.08   42.03
  -3  -1   4  463.40   36.29
   3   1  -4  426.59   34.51
   3  -1  -4  489.62   34.41
  -3   1   4  481.06   35.09
   3  -1  -4  452.45   29.19
   3  -1  -4  547.56   49.48
  -3  -1   4  413.70   33.53
  -3  -1   4  553.90   50.05
   3  -1  -4  497.49   44.99
   3   1  -4  494.30   35.53
   3   1  -4  478.88   51.12
  -3  -1   5 5215.90  215.95
   3  -1  -5 4936.13  198.23
   3   1  -5 4854.68  218.74
   3   1  -5 5467.52  296.86
  -3   1   5 5566.00  221.83
   3   1  -5 5757.35  294.85
   3  -1  -5 5398.33  266.51
  -3   1   5 5279.27  274.97
  -3  -1   5 5297.78  257.31
   3   1  -5 5445.66  262.61
   3  -1  -5 5145.06  287.12
   3  -1  -5 5348.04  241.80
   3   1  -6 2049.63  129.84
   3  -1  -6 1966.40  131.46
   3  -1  -6 1673.34  108.43
  -3   1   6 1943.27  137.81
   3  -1  -6 2060.15  119.35
   3   1  -6 1969.02  131.77
   3   1  -6 1867.15  132.41
  -3   1   6 1890.23  107.72
   3  -1  -6 1953.55  121.34
  -3  -1   6 1914.94  110.89
  -3   1   7 4446.01  243.72
  -3   1   7 4578.81  231.46
  -3  -1   7 4679.44  255.78
   3  -1  -7 4489.54  269.42
   3   1  -7 4727.09  235.34
   3  -1  -7 4497.67  235.07
   3   1  -7 4479.22  263.19
  -3  -1   7 4419.71  232.01
   3  -1  -7 4752.36  257.95
   3   1  -7 4660.66  207.63
   3  -1  -8 1744.27  134.88
   3   1  -8 1671.32  126.81
  -3   1   8 1751.28  138.88
   3   1  -8 1664.52  135.28
  -3  -1   8 1654.12  115.45
   3   1  -8 1594.63  128.51
   3  -1  -8 1679.99  137.52
  -3  -1   8 1666.24  130.22
   3  -1  -8 1658.20  134.63
   3   1  -9 4865.32  318.61
  -3   1   9 5151.12  294.79
   3   1  -9 5176.43  292.82
   3  -1  -9 4976.23  348.51
   3   1  -9 5025.55  309.95
  -3  -1   9 5171.22  335.50
   3  -1  -9 5005.83  302.78
   3  -1  -9 4877.80  262.54
   3  -1 -10   82.30   35.36
   3  -1 -10   61.10   29.75
  -3   1  10   13.56   35.82
   3   1 -10   28.19   25.63
   3  -1 -10   68.28   36.48
   3   1 -10   90.95   33.90
  -3  -1  10   91.98   38.49
   3   1 -10   82.28   47.71
   3   2  -1 3337.77  174.45
  -3   2   1 3233.12  236.71
  -3   2   1 3222.49  201.12
  -3   2   1 3188.68  163.06
  -3  -2   1 3142.82  159.02
  -3  -2   1 3238.87  201.27
   3  -2  -1 3336.49  146.48
   3  -2  -1 3131.22  195.69
  -3  -2   1 3038.53  180.70
  -3  -2   1 3290.61  140.01
   3  -2  -1 3166.31  137.21
  -3  -2   1 3255.10  193.51
   3   2  -1 3007.98  182.93
  -3   2   1 3140.02  172.03
  -3  -2   1 3162.57  143.79
  -3   2   1 3164.42  182.64
  -3   2   1 3199.23  224.95
   3   2  -1 3300.60  178.31
   3   2  -1 3219.54  186.52
   3   2  -2  978.00   77.83
  -3   2   2  976.46   68.25
  -3  -2   2 1023.32   58.06
   3  -2  -2  903.55   54.01
   3  -2  -2  948.97   80.39
  -3  -2   2  932.02   62.58
  -3  -2   2  955.02   51.42
   3   2  -2  944.52   65.68
  -3  -2   2  955.42   48.71
   3  -2  -2 1061.66   58.41
  -3   2   2  978.42   56.71
   3   2  -2  925.49   69.83
   3  -2  -2 1043.46   75.98
  -3   2   2  985.33   76.70
  -3   2   2  901.63   60.54
  -3  -2   3    1.80   17.45
   3   2  -3    0.60   12.48
   3  -2  -3   -4.87   17.96
   3   2  -3   30.91   12.92
  -3   2   3   21.61   11.64
  -3  -2   3    4.41    7.93
   3  -2  -3   11.73   16.53
   3  -2  -3    8.40    8.64
  -3  -2   3   -4.66   15.69
  -3   2   3    9.21   19.94
   3   2  -3   29.23   19.03
   3   2  -3    2.92   17.93
   3  -2  -3   13.10    8.73
   3  -2  -3   47.54   19.29
  -3  -2   4 1519.24  106.70
   3  -2  -4 1505.53   89.02
   3  -2  -4 1903.59  166.47
   3   2  -4 1444.90   86.63
   3   2  -4 1486.86   64.10
  -3  -2   4 1580.68   88.35
  -3  -2   4 1457.24  113.72
  -3   2   4 1429.48  105.44
   3   2  -4 1552.29   88.87
   3  -2  -4 1459.53   72.62
   3  -2  -4 1547.06   86.24
   3   2  -4 1608.05  111.88
  -3  -2   517651.43  691.62
  -3   2   517340.97  719.74
  -3   2   516815.16  596.31
   3   2  -517326.92  728.01
   3  -2  -516750.53  711.96
   3  -2  -517370.54  708.40
   3   2  -517704.71  707.70
  -3  -2   517369.40  705.51
   3  -2  -516710.41  612.23
   3  -2  -516990.12  629.20
   3  -2  -6  100.52   31.35
   3   2  -6  113.67   33.03
  -3  -2   6   66.76   31.38
   3   2  -6   85.91   31.12
  -3   2   6   35.07   12.15
  -3   2   6   78.54   36.03
  -3  -2   6   85.63   23.72
   3  -2  -6   43.19   23.39
   3  -2  -6   74.93   13.16
   3   2  -6   73.85   32.70
   3  -2  -6   65.88   25.06
   3   2  -7 1539.60  122.09
   3   2  -7 1902.39  121.27
  -3   2   7 1895.11  126.48
   3   2  -7 1749.60  121.35
  -3  -2   7 1810.34  109.33
  -3  -2   7 1825.22  134.28
   3  -2  -7 1800.77  116.75
   3  -2  -7 1739.10  116.95
   3  -2  -7 1804.33  112.63
   3  -2  -8 3245.28  191.01
   3   2  -8 3313.50  216.12
  -3  -2   8 3274.30  197.02
   3   2  -8 3331.71  236.71
  -3  -2   8 3520.14  233.55
   3  -2  -8 3230.18  225.40
   3  -2  -8 3462.39  196.05
  -3   2   8 3604.58  241.68
   3   2  -8 3144.62  187.08
   3   2  -9  770.48   80.81
   3  -2  -9  658.53   69.68
   3  -2  -9  741.38   76.60
   3   2  -9  740.18   81.29
  -3   2   9  809.23   91.03
  -3  -2   9  687.83   89.10
   3   2  -9  708.11   73.47
   3  -2  -9  820.24   89.12
   3   2 -10  883.28   92.49
  -3   2  10 1227.25  120.41
   3   2 -10 1205.38  104.72
   3   2 -10  946.98  128.24
  -3  -2  10 1121.88  121.26
   3  -2 -10 1066.15  106.25
   3  -2 -10  951.66  100.25
   3  -2 -10 1022.80  115.11
   3   3  -1 1095.29   74.83
  -3   3   1 1031.62   76.33
   3  -3  -1 1088.19   70.91
   3   3  -1 1069.86   86.12
  -3   3   1 1054.80   75.52
   3   3  -1 1066.06   70.93
   3  -3  -1 1015.15   73.22
  -3  -3   1 1112.41   79.58
  -3  -3   1 1027.56   93.22
   3  -3  -1 1057.63   67.07
  -3   3   1 1071.65   63.38
  -3  -3   1 1050.39   52.47
  -3  -3   1 1096.87   92.13
  -3   3   1 1189.07   59.82
  -3   3   1 1041.21   69.19
  -3   3   1 1174.15   83.50
  -3  -3   1 1119.75   66.60
   3   3  -1 1002.34   72.60
  -3  -3   1 1119.06   52.48
   3   3  -2 1369.18   91.43
   3  -3  -2 1273.37  103.32
   3   3  -2 1290.39  101.20
  -3  -3   2 1381.36   62.19
  -3  -3   2 1268.25   77.48
   3  -3  -2 1345.39   82.40
  -3  -3   2 1354.85   81.76
  -3   3   2 1424.30   77.72
   3   3  -2 1304.44   83.32
  -3   3   2 1320.20  126.04
  -3   3   2 1418.36   95.78
  -3   3   2 1297.02   82.65
  -3  -3   2 1373.67   72.34
   3  -3  -2 1333.06   66.33
   3  -3  -2 1287.55   61.40
   3   3  -3 1201.71   80.45
  -3   3   3 1248.39  118.85
   3  -3  -3 1233.28   81.57
   3   3  -3 1074.96   66.61
   3   3  -3 1170.16   72.27
   3   3  -3 1067.30   67.40
  -3  -3   3 1159.47   69.72
  -3  -3   3 1208.56   82.44
  -3  -3   3  949.44   90.68
   3  -3  -3 1127.19   80.20
   3  -3  -3 1167.56   59.11
   3  -3  -3 1060.77   58.22
   3  -3  -3 1144.32   83.58
  -3  -3   4  235.77   22.34
   3   3  -4  219.99   34.94
   3  -3  -4  196.17   25.22
   3   3  -4  235.18   36.46
  -3  -3   4  217.57   28.16
  -3  -3   4  189.85   29.80
   3  -3  -4  214.85   16.74
   3  -3  -4  219.89   15.73
   3  -3  -4  160.77   26.05
   3  -3  -4  214.23   28.73
   3   3  -4  237.51   23.65
  -3   3   4  239.67   31.36
  -3  -3   5 7953.01  375.16
   3   3  -5 7924.90  374.20
   3   3  -5 7857.92  356.80
   3   3  -5 7704.40  381.85
  -3   3   5 8119.92  416.79
   3  -3  -5 7908.15  397.45
   3  -3  -5 7372.63  283.21
   3  -3  -5 8145.68  419.03
  -3  -3   5 7722.89  356.84
   3  -3  -5 7820.43  375.76
  -3   3   6  232.62   18.71
   3  -3  -6  238.18   35.51
   3  -3  -6  197.13   20.83
   3   3  -6  308.40   40.03
   3   3  -6  251.19   36.22
   3  -3  -6  232.46   38.63
  -3  -3   6  197.17   36.04
  -3   3   6  245.70   39.69
   3   3  -6  243.69   30.28
   3  -3  -6  259.22   34.98
  -3  -3   6  232.05   33.40
   3  -3  -7 6200.38  322.92
   3   3  -7 6198.62  322.10
   3  -3  -7 6052.92  325.28
   3   3  -7 6060.11  328.92
  -3   3   7 6591.49  338.78
  -3  -3   7 5923.40  299.75
   3   3  -7 6318.92  355.52
  -3  -3   7 6657.36  296.16
   3  -3  -7 6239.75  283.98
  -3  -3   8  212.86   43.40
   3   3  -8  205.59   42.96
   3  -3  -8  198.09   39.46
   3  -3  -8  167.39   37.62
  -3   3   8  217.32   37.34
   3  -3  -8  198.43   36.93
  -3  -3   8  208.48   34.27
   3   3  -8  218.22   42.63
   3   3  -8  237.32   35.46
  -3   3   9 1232.84  131.63
   3   3  -9 1027.15  119.54
   3   3  -9 1243.83  106.39
  -3  -3   9 1170.88  119.64
   3  -3  -9 1226.19  129.19
   3   3  -9 1125.35  119.80
   3  -3  -9 1284.68  101.75
   3  -3  -9 1241.41  116.21
   3   3 -10 2118.79  159.72
   3   3 -10 2283.30  182.29
   3   3 -10 2396.52  196.53
  -3  -3  10 2795.51  214.60
   3  -3 -10 2328.19  194.55
   3  -3 -10 2375.41  183.37
   3  -3 -10 2271.45  188.64
  -3   3  10 2737.62  214.73
  -3   4   1 2700.28  146.31
  -3  -4   1 2715.49   97.12
   3  -4  -1 2714.42  138.60
   3   4  -1 2679.80  141.14
   3   4  -1 2753.89  158.43
   3   4  -1 2690.38  163.36
  -3   4   1 2666.81  141.79
  -3   4   1 2665.13  117.71
  -3   4   1 2879.94  164.21
  -3   4   1 2733.88  138.14
  -3  -4   1 2872.26   95.53
  -3  -4   1 2725.59  152.41
   3  -4  -1 2716.82  123.51
  -3  -4   1 2721.38  150.96
  -3  -4   1 2819.44  156.54
  -3   4   1 2656.55  166.43
  -3  -4   1 2620.05  166.13
   3  -4  -1 2693.67  154.13
   3  -4  -2  139.98   14.84
   3   4  -2  142.46   28.61
  -3  -4   2  135.00   12.26
  -3  -4   2  127.68   20.90
   3  -4  -2  126.33   22.63
  -3   4   2  119.01   20.58
  -3  -4   2  122.65   11.29
   3  -4  -2  117.01   22.39
   3  -4  -2  121.98   14.78
  -3  -4   2  143.80   28.50
  -3   4   2  162.76   26.26
   3   4  -2  121.17   22.34
  -3   4   2  114.04   20.73
   3   4  -3 1800.21   89.31
   3   4  -3 1767.37  106.53
  -3   4   3 1666.86  106.27
   3  -4  -3 1904.72  116.63
   3  -4  -3 1802.23   69.94
   3  -4  -3 1647.32   65.21
  -3  -4   3 1801.55  125.27
  -3  -4   3 1770.69   89.08
   3   4  -3 1772.67  105.54
  -3  -4   3 1708.33  101.30
   3  -4  -4   83.58   22.84
   3  -4  -4  112.69   27.06
   3  -4  -4   71.30   26.21
   3   4  -4   73.99   21.53
  -3  -4   4   75.15   17.16
   3   4  -4  104.65   18.11
  -3   4   4   77.85   26.48
  -3  -4   4   64.23   14.81
   3   4  -4   70.73   28.04
  -3  -4   4  108.00   24.86
   3   4  -517863.78  637.28
   3   4  -516737.86  687.63
   3   4  -518023.20  771.97
   3  -4  -517682.96  769.76
  -3   4   517949.82  797.32
  -3  -4   517110.63  717.03
  -3  -4   517198.09  794.61
   3  -4  -517168.95  790.13
   3  -4  -517664.33  856.87
   3  -4  -6  204.30   36.46
   3  -4  -6  200.24   11.12
   3   4  -6  291.30   43.38
  -3  -4   6  278.73   41.57
   3  -4  -6  222.11   32.19
  -3   4   6  245.58   44.27
  -3  -4   6  196.07   35.97
   3   4  -6  195.73   31.37
   3   4  -6  297.20   43.30
   3  -4  -6  218.45   37.56
   3  -4  -6  222.04   12.53
   3   4  -7  164.16   30.68
   3   4  -7  122.08   39.73
  -3   4   7  163.68   42.80
  -3  -4   7  113.95   27.13
   3  -4  -7  144.52   38.58
   3  -4  -7  168.68   33.01
   3   4  -7  133.16   34.37
   3  -4  -7  171.20   34.48
  -3  -4   7  211.98   37.51
   3   4  -8 1811.45  122.74
  -3   4   8 1903.65  135.65
  -3  -4   8 1645.75  118.39
   3  -4  -8 1756.53  126.80
   3   4  -8 1658.19  134.58
   3   4  -8 1801.41  118.96
   3  -4  -8 1779.31  119.56
   3  -4  -8 1855.72  168.58
  -3  -4   8 1484.89  110.21
   3  -4  -9  333.46   50.90
   3  -4  -9  276.86   41.25
   3   4  -9  284.78   46.32
  -3   4   9  284.30   52.67
  -3  -4   9  352.25   52.81
   3  -4  -9  371.51   61.19
   3   4  -9  240.20   53.41
   3   4  -9  308.69   49.27
   3   4 -10   72.20   33.78
  -3  -4  10   34.63   30.90
   3  -4 -10   23.39   34.62
  -3   4  10   10.75   38.54
   3   4 -10   -5.19   34.19
   3  -4 -10    3.72   31.00
  -3   5   1 2378.34  123.50
  -3   5   1 2222.83  146.96
   3   5  -1 2244.03  126.08
   3  -5  -1 2088.35  126.81
  -3  -5   1 2225.54  126.07
  -3   5   1 2285.97  147.25
  -3  -5   1 2179.13  113.73
  -3  -5   1 2242.14  129.63
  -3  -5   1 2267.32  168.24
  -3  -5   1 2305.63  133.38
   3  -5  -1 2209.72  116.11
   3  -5  -1 2304.33  122.76
  -3   5   1 2230.74  126.19
   3  -5  -1 2258.36  153.26
  -3  -5   2 2870.61  177.91
   3   5  -2 2858.26  154.44
  -3   5   2 2869.58  114.46
   3   5  -2 2272.16  180.68
  -3   5   2 2864.11  160.91
  -3   5   2 2876.79  123.96
  -3  -5   2 2540.49  143.06
   3  -5  -2 3099.03  205.91
   3  -5  -2 2811.27  119.20
  -3   5   2 2554.43  148.46
   3  -5  -3 6626.48  324.82
  -3   5   3 6398.26  326.08
  -3  -5   3 6551.02  374.04
  -3  -5   3 6206.08  258.13
   3   5  -3 6345.45  248.07
   3   5  -3 6602.93  347.09
  -3  -5   3 6343.76  287.31
   3   5  -3 6620.90  374.93
  -3   5   3 6272.47  282.73
   3   5  -4   87.19   25.05
  -3  -5   4   74.96   11.58
   3   5  -4   59.64   14.93
   3  -5  -4   78.12   21.67
   3   5  -4   86.94   22.46
  -3  -5   4   73.27   24.98
  -3  -5   4   75.21   24.60
   3  -5  -4  105.86   27.90
   3  -5  -4   67.43   24.27
  -3   5   4   47.97   28.30
   3  -5  -5  895.26   92.15
   3  -5  -5  935.77   64.76
   3   5  -5  866.79   56.89
  -3  -5   5  805.43   62.05
  -3  -5   5 1027.18   70.25
   3  -5  -5  959.95   73.29
  -3  -5   5  971.10   79.80
   3   5  -5  884.97   62.90
  -3   5   5  830.28   61.60
   3   5  -5  917.27   82.58
  -3  -5   6 4215.83  205.28
   3   5  -6 4082.44  231.05
   3   5  -6 4264.50  228.66
  -3  -5   6 4483.13  235.73
   3  -5  -6 4456.23  255.22
   3  -5  -6 4149.77  261.23
  -3   5   6 4556.96  275.95
   3   5  -6 4581.01  284.47
   3  -5  -6 4221.88  214.66
   3  -5  -7 1327.08  101.26
   3   5  -7 1125.50   83.81
   3   5  -7 1188.11   94.18
   3  -5  -7 1212.76   90.95
  -3  -5   7 1241.38   90.37
   3  -5  -7 1280.85   89.61
  -3  -5   7 1167.76   84.29
   3   5  -7 1190.48   91.69
  -3   5   7 1271.33  104.70
   3   5  -8 1350.56  101.37
  -3  -5   8 1518.34  119.50
   3   5  -8 1605.10  137.63
   3  -5  -8 1436.13  114.14
   3  -5  -8 1643.13  114.78
  -3  -5   8 1457.47  111.01
   3  -5  -8 1416.40  136.86
   3   5  -8 1444.69  126.40
  -3   5   8 1495.80  123.59
   3   5  -9  689.75   85.96
   3  -5  -9  752.71   76.89
  -3   5   9  644.22   93.36
   3   5  -9  567.40   60.89
   3   5  -9  672.95   87.34
  -3  -5   9  668.07   66.65
   3  -5  -9  640.36   74.38
  -3  -5   9  599.64   60.12
   3  -5  -9  656.51   74.10
   3   5 -10  153.84   50.45
   3   5 -10  150.86   43.92
  -3  -5  10  130.85   50.24
   3  -5 -10  183.48   47.73
   3  -5 -10  173.87   51.25
  -3   6   1  153.04   16.06
  -3   6   1  148.87   32.64
  -3  -6   1  136.29   22.42
   3   6  -1  118.30   21.99
  -3  -6   1  176.66   23.78
   3  -6  -1   69.78   22.13
   3  -6  -1  175.84   18.82
   3  -6  -1  134.86   17.50
  -3  -6   1  154.68   17.28
  -3   6   1  124.40   22.76
  -3   6   1  153.75   21.73
   3   6  -2 2653.92  147.17
   3  -6  -2 2706.90  109.93
  -3   6   2 2703.21  156.40
   3  -6  -2 2835.97  149.71
  -3   6   2 2771.62  154.63
  -3   6   2 2832.25  122.67
  -3  -6   2 2762.01  158.40
  -3   6   2 2702.08  158.42
  -3  -6   2 2783.93  143.27
   3   6  -2 2726.70  135.12
  -3   6   3 1975.30  116.86
   3   6  -3 2007.36  101.86
   3   6  -3 1982.32   87.96
  -3   6   3 1807.14  113.60
  -3  -6   3 1858.35   88.54
  -3  -6   3 1990.95   97.33
   3   6  -3 1896.36  122.41
  -3   6   3 2448.72  200.42
   3  -6  -3 1930.52  117.94
  -3  -6   3 1962.14  134.99
  -3  -6   4 6729.83  300.04
   3   6  -4 7195.23  306.92
   3   6  -4 7193.12  371.53
   3   6  -4 7024.20  335.73
  -3  -6   4 6820.42  292.67
  -3  -6   4 7438.05  375.63
   3  -6  -4 6940.86  337.90
  -3   6   4 6903.07  345.93
   3  -6  -4 7075.74  364.98
   3   6  -5 3332.72  174.05
  -3  -6   5 3101.59  183.00
  -3  -6   5 3233.12  163.56
  -3  -6   5 2981.85  149.45
  -3   6   5 3215.49  166.12
   3  -6  -5 3276.05  206.12
   3  -6  -5 3192.22  168.35
   3   6  -5 3257.18  156.39
   3  -6  -5 3206.54  172.96
   3   6  -5 3353.77  179.73
   3   6  -6  630.38   66.73
  -3  -6   6  527.84   45.34
   3  -6  -6  507.36   53.62
   3   6  -6  527.02   65.90
  -3   6   6  556.65   53.96
   3  -6  -6  460.73   55.38
  -3  -6   6  566.24   58.28
   3   6  -6  515.28   44.43
   3  -6  -6  524.61   46.02
   3   6  -7  523.84   54.40
  -3  -6   7  438.32   43.26
  -3  -6   7  455.07   47.29
   3  -6  -7  436.27   51.76
   3   6  -7  483.92   44.55
   3   6  -7  461.31   51.56
   3  -6  -7  370.10   49.53
  -3   6   7  394.00   48.65
   3  -6  -7  444.94   49.22
   3   6  -8 2214.94  140.16
   3   6  -8 2191.37  158.95
   3  -6  -8 2096.78  168.16
   3  -6  -8 2081.84  136.68
  -3   6   8 2229.06  165.09
   3   6  -8 2156.33  164.71
  -3  -6   8 2212.80  172.52
   3  -6  -8 2133.27  168.75
  -3  -6   8 2179.63  146.92
   3  -6  -9  227.16   36.27
  -3  -6   9  137.06   38.17
   3  -6  -9  165.76   45.36
   3   6  -9  192.01   46.70
   3  -6  -9  270.66   48.91
  -3   6   9  260.42   51.92
  -3  -6   9  174.21   36.99
   3   6  -9  148.54   39.56
   3  -6 -10  170.40   44.89
  -3  -6  10  175.29   42.61
   3  -6 -10  152.68   50.35
   3   6 -10  195.39   42.43
  -3   7   1  252.46   31.95
   3   7  -1  188.06   25.16
  -3   7   1  177.57   17.78
  -3   7   1  209.38   28.74
  -3  -7   1  191.30   23.62
   3  -7  -1  181.05   20.67
   3  -7  -1  189.26   21.84
  -3   7   1  214.22   22.69
  -3  -7   1  159.20   30.55
  -3  -7   1  188.30   21.36
   3  -7  -1  222.19   28.03
   3   7  -232188.61 1326.25
   3   7  -230498.39 1176.85
  -3  -7   232133.07 1234.32
  -3   7   233310.98 1062.75
  -3   7   229257.11 1054.51
  -3   7   232293.45 1165.76
   3  -7  -232994.79 1238.85
   3  -7  -230705.47 1024.54
  -3   7   230542.96 1175.23
   3  -7  -3 1316.40   64.83
  -3  -7   3 1250.55   92.37
  -3   7   3 1162.47   86.95
   3   7  -3 1261.89   95.58
  -3   7   3 1554.00  143.85
  -3  -7   3 1202.96   51.59
  -3  -7   3 1351.26  114.43
   3   7  -3 1240.57   54.50
  -3   7   3 1229.34   99.96
   3   7  -3 1298.61   71.81
  -3  -7   4 3454.25  168.94
   3  -7  -4 3635.38  211.87
  -3   7   4 3696.39  171.11
  -3  -7   4 3526.78  181.42
   3  -7  -4 3521.06  185.15
   3   7  -4 3609.21  153.69
   3   7  -4 3657.63  200.98
   3   7  -4 3769.95  221.49
  -3   7   4 3580.79  169.53
  -3  -7   4 3673.69  192.98
   3  -7  -5 3921.64  242.08
   3  -7  -5 3941.24  209.98
  -3   7   5 4028.53  246.13
  -3  -7   5 3968.79  208.03
   3   7  -5 3758.71  208.19
  -3  -7   5 3393.24  166.88
  -3  -7   5 3966.92  200.68
   3  -7  -5 3678.29  180.46
   3   7  -5 3802.75  236.98
   3   7  -5 3810.07  184.74
  -3  -7   6 1467.77  104.48
  -3  -7   6 1424.79  101.77
   3   7  -6 1616.76  114.65
   3  -7  -6 1423.09  107.95
   3  -7  -6 1492.51   93.10
   3  -7  -6 1304.72   86.27
  -3   7   6 1417.24   92.85
   3   7  -6 1478.28  101.36
   3   7  -6 1355.20   95.29
   3  -7  -7  269.14   44.13
  -3   7   7  196.09   42.63
  -3  -7   7  182.91   40.48
   3  -7  -7  168.99   39.48
   3   7  -7  271.70   41.17
  -3  -7   7  217.36   35.53
   3   7  -7  159.66   34.17
   3   7  -7  201.86   31.68
   3  -7  -7  157.64   36.71
  -3   7   8  880.46   84.40
   3   7  -8 1025.70   94.84
   3   7  -8  963.08   82.92
  -3  -7   8 1086.88  104.46
  -3  -7   8 1047.64   87.38
   3  -7  -8  913.93  102.31
   3  -7  -8 1003.57   93.26
   3  -7  -8  977.72   87.24
   3   7  -8 1044.50   95.76
  -3  -7   9  299.25   46.03
  -3   7   9  257.77   56.79
   3  -7  -9  234.48   41.38
  -3  -7   9  260.92   43.70
   3   7  -9  350.87   66.42
   3  -7  -9  310.39   47.06
   3   7  -9  299.16   48.74
   3  -7  -9  390.86   50.94
  -3   8   1 1511.81   92.51
  -3   8   1 1482.52   84.64
   3  -8  -1 1482.84   83.78
  -3   8   1 1572.20   97.78
  -3  -8   1 1602.57   99.14
  -3  -8   1 1270.08  107.58
   3  -8  -1 1516.09  100.18
  -3   8   1 1608.94   94.28
   3   8  -1 1612.88   91.22
   3  -8  -1 1563.81   90.53
  -3  -8   1 1567.25   68.87
  -3   8   2 3786.03  172.97
   3   8  -2 3828.45  178.25
  -3   8   2 3809.09  146.97
  -3  -8   2 3674.38  201.26
   3  -8  -2 3613.41  207.40
   3  -8  -2 3569.26  145.88
  -3   8   2 3705.33  201.53
  -3  -8   2 3782.06  212.03
   3   8  -2 3688.21  191.65
  -3   8   2 3677.78  205.56
   3   8  -3   89.66   25.49
  -3   8   3   96.95   26.63
  -3   8   3   63.70   19.27
   3  -8  -3  104.71   23.65
   3   8  -3   82.17    6.74
   3   8  -3  144.73   30.30
  -3  -8   3  101.42    7.21
  -3   8   3   60.18   20.59
  -3  -8   3   99.58   23.25
  -3  -8   3   71.20   20.41
   3  -8  -4 6523.83  363.88
   3   8  -4 6523.25  264.06
   3   8  -4 6415.95  332.30
  -3   8   4 6654.55  306.33
  -3   8   4 6612.78  287.66
  -3  -8   4 6942.51  358.70
   3   8  -4 6549.81  283.95
  -3   8   4 6537.68  296.74
  -3  -8   4 6518.02  309.49
  -3  -8   4 6057.78  251.36
   3   8  -5  178.30   36.41
   3   8  -5  200.71   19.58
  -3   8   5  226.70   36.76
  -3  -8   5  181.98   30.14
  -3  -8   5  201.18   30.91
   3  -8  -5  218.87   32.04
  -3   8   5  245.61   39.07
   3  -8  -5  232.31   38.87
   3   8  -5  219.73   38.73
   3   8  -6   28.89   23.54
   3  -8  -6   67.90   23.33
  -3  -8   6   46.53   22.80
   3   8  -6   72.54   16.69
   3  -8  -6   84.58   35.98
   3   8  -6  118.42   35.70
  -3   8   6   88.32   35.70
  -3  -8   6   94.32   29.78
   3  -8  -6  118.94   28.12
   3   8  -7  500.50   67.39
   3  -8  -7  468.10   71.30
   3  -8  -7  485.08   57.47
  -3   8   7  492.82   62.99
  -3  -8   7  502.01   60.39
   3  -8  -7  518.49   60.39
   3   8  -7  528.64   61.61
   3   8  -7  470.69   50.44
  -3  -8   7  543.10   61.55
   3   8  -8 3192.07  222.86
  -3   8   8 3070.70  229.86
   3  -8  -8 2917.26  198.29
   3  -8  -8 3026.42  185.19
   3   8  -8 2960.67  205.49
  -3  -8   8 2811.47  181.83
  -3  -8   8 3128.55  202.02
   3  -8  -8 2742.37  175.75
   3   8  -9   50.26   34.09
  -3  -8   9   79.52   29.55
  -3   8   9   80.53   39.22
   3   8  -9   91.55   30.60
   3  -8  -9   -2.16   25.06
   3  -8  -9   33.37   21.03
   3  -8  -9   16.18   36.37
  -3  -8   9   63.49   33.52
  -3   9   1 1326.97   98.10
  -3  -9   1 1381.92   93.98
  -3   9   1 1396.71   76.45
  -3   9   1 1244.13   67.06
   3   9  -1 1360.68   84.21
  -3  -9   1 1451.26   97.58
  -3  -9   1 1294.55   72.38
   3  -9  -1 1283.32   71.51
   3  -9  -1 1255.10   91.79
   3  -9  -1 1378.72   65.78
  -3   9   1 1290.23   86.69
  -3   9   2 7801.33  275.48
  -3  -9   2 7850.09  362.58
   3   9  -2 7577.32  356.55
   3   9  -2 8356.45  445.66
  -3   9   2 7930.34  461.68
  -3   9   2 7130.78  314.87
   3  -9  -2 7450.11  415.38
  -3   9   2 8604.99  450.92
   3  -9  -2 7553.39  290.90
  -3  -9   2 7703.55  385.60
  -3   9   3   27.87   18.76
   3   9  -3    4.15   19.10
  -3   9   3   21.03   19.87
   3  -9  -3   -8.90   14.81
  -3  -9   3  -20.26   17.90
   3   9  -3    7.44   26.40
  -3   9   3  -12.70   28.27
  -3  -9   3    6.38   23.78
  -3  -9   4 1793.55  110.04
   3   9  -4 1842.30  110.88
   3   9  -4 1787.77  109.47
  -3   9   4 1870.78  145.95
  -3   9   4 1754.19  115.89
  -3  -9   4 1566.70   85.42
   3   9  -4 1729.14   82.02
   3  -9  -4 1769.32  138.15
  -3   9   4 1602.94  110.07
  -3  -9   4 1811.92  112.59
   3   9  -5  249.87   23.88
   3   9  -5  218.74   37.81
  -3   9   5  220.31   29.67
   3  -9  -5  171.36   33.94
   3   9  -5  133.45   38.68
  -3  -9   5  253.44   33.73
  -3  -9   5  232.46   30.86
   3  -9  -5  191.69   45.47
  -3   9   5  210.27   38.27
  -3  -9   6 5580.31  301.13
  -3   9   6 5917.79  301.76
  -3   9   6 5466.41  287.36
  -3  -9   6 5491.85  326.11
   3  -9  -6 5368.65  297.94
   3   9  -6 5238.71  253.42
   3   9  -6 5530.34  299.94
   3   9  -6 5430.90  318.95
   3  -9  -6 5401.74  279.81
   3   9  -7  373.18   46.85
  -3  -9   7  313.60   42.97
   3  -9  -7  349.88   55.29
   3  -9  -7  363.13   42.12
   3   9  -7  415.26   48.61
  -3  -9   7  309.98   50.11
   3  -9  -7  307.77   50.60
  -3   9   7  319.84   50.39
   3   9  -8 1473.12  130.18
  -3  -9   8 1760.65  158.36
   3  -9  -8 1506.13  129.28
   3  -9  -8 1459.68  117.38
  -3  -9   8 1527.94  118.65
   3   9  -8 1560.62  130.71
   3  -9  -8 1654.71  121.89
  -3   9   8 1792.11  146.60
   3   9  -9  350.63   58.67
   3   9  -9  181.89   48.43
  -3  -9   9  280.70   52.94
  -3  -9   9  188.43   40.18
   3  -9  -9  248.51   57.69
   3  -9  -9  185.00   38.64
   3  -9  -9  222.95   39.43
  -3   9   9  300.85   65.72
  -3 -10   1  335.24   29.32
  -3 -10   1  410.53   43.06
  -3 -10   1  460.56   50.55
  -3  10   1  420.56   33.73
  -3  10   1  399.79   29.48
  -3  10   1  355.95   44.37
   3 -10  -1  399.23   29.06
   3 -10  -1  436.21   32.44
  -3  10   1  407.08   38.69
   3 -10  -1  397.04   45.47
   3  10  -1  501.24   36.36
   3 -10  -2 3195.90  130.29
  -3  10   2 3062.95  172.28
  -3  10   2 2495.69  171.90
  -3  10   2 3337.06  174.10
  -3  10   2 3061.05  116.65
  -3 -10   2 3090.10  163.33
   3 -10  -2 3095.72  179.42
   3  10  -2 3097.29  220.25
   3  10  -2 2264.12  163.94
  -3 -10   2 3123.82  181.04
  -3  10   3 1751.12   86.99
  -3  10   3 1731.53   96.82
   3  10  -3 1737.32  118.73
  -3 -10   3 1759.72  101.67
   3  10  -3 1651.80  104.16
   3 -10  -3 1648.09  106.77
  -3 -10   3 1632.29  108.70
  -3  10   3 1699.57  106.96
   3  10  -4 1407.37   94.69
   3 -10  -4 1462.68  116.69
  -3  10   4 1588.32   91.03
   3  10  -4 1563.26   79.55
   3  10  -4 1489.80  115.42
  -3 -10   4 1425.71   92.84
  -3 -10   4 1577.23  117.10
  -3  10   4 1664.86  127.03
  -3  10   4 1517.87   99.57
  -3 -10   4 1362.66   67.87
  -3 -10   5    0.36   20.39
   3  10  -5   37.57   25.98
  -3  10   5   45.28   30.60
  -3  10   5   11.78   17.59
  -3  10   5   11.20   22.40
  -3 -10   5   -1.52   23.06
   3 -10  -5   22.83   18.92
   3  10  -5   25.72   27.88
   3  10  -6 1177.91  105.05
  -3 -10   6 1279.35   93.72
   3 -10  -6 1197.57   99.55
   3  10  -6 1174.03  101.41
  -3  10   6 1223.38   96.50
  -3 -10   6 1182.01  100.61
   3 -10  -6 1080.03  105.85
  -3  10   6 1032.54   90.19
  -3 -10   7   68.61   28.06
   3 -10  -7  -18.25   25.25
   3  10  -7   24.44   29.67
  -3  10   7   24.53   30.90
   3 -10  -7    7.89   34.66
  -3 -10   7   -3.80   26.88
  -3  10   7    4.84   23.00
   3  10  -7   67.24   39.46
  -3 -10   8 3736.97  225.31
   3  10  -8 3796.39  249.72
   3  10  -8 3930.70  241.23
  -3  10   8 3822.81  248.12
   3 -10  -8 3740.51  234.65
   3 -10  -8 3501.67  234.14
   3 -10  -8 3886.20  302.86
  -3 -10   8 3610.48  242.60
  -3 -10   9  105.81   39.63
  -3  10   9   58.98   45.32
  -3 -10   9  111.88   35.99
   3  10  -9   76.31   34.10
   3  10  -9   68.02   38.54
   3 -10  -9   98.85   40.11
   3 -11  -1 1572.77   75.03
  -3  11   1 1607.41  118.87
   3 -11  -1 1484.97   87.94
  -3 -11   1 1587.36   95.02
  -3  11   1 1590.02   98.02
   3 -11  -1 1600.46   97.77
  -3  11   1 1573.88   78.92
  -3  11   1 1749.88  126.20
  -3 -11   1 1647.60  112.10
   3  11  -1 1555.50   94.88
  -3 -11   1 1392.40   73.94
  -3 -11   1 1590.65   83.52
   3  11  -215194.86  582.95
  -3  11   217664.40  813.18
  -3  11   217130.66  755.82
   3  11  -215326.01  712.61
  -3 -11   215180.52  572.81
   3 -11  -215137.54  722.49
  -3 -11   214599.05  682.51
  -3  11   215234.69  578.29
   3 -11  -214430.95  540.02
  -3  11   214749.27  517.34
  -3  11   3    2.72   24.20
   3  11  -3   19.43   14.32
   3  11  -3   30.25   27.22
  -3 -11   3   25.91   17.61
  -3 -11   3   17.95   24.89
  -3  11   3    9.85   23.15
  -3  11   3   28.14   16.12
   3 -11  -3   47.25   24.58
  -3  11   4  108.88   24.74
   3  11  -4  145.36   33.16
  -3  11   4  177.05   42.63
   3  11  -4  130.40   29.79
  -3  11   4  155.90   31.16
   3 -11  -4  149.36   28.16
  -3 -11   4  125.09   28.47
  -3 -11   4  139.80   29.66
  -3  11   5  -27.63   17.88
  -3 -11   5    4.49   20.36
  -3 -11   5   13.95   27.66
   3  11  -5   -6.51   24.96
  -3  11   5   34.29   26.79
   3  11  -5   45.04   29.65
  -3  11   5   33.93   25.80
   3 -11  -5   14.35   20.26
  -3  11   6  861.08   70.94
  -3 -11   6  939.77   92.88
  -3 -11   6 1143.99  109.06
   3  11  -6  952.54   82.30
   3 -11  -6  891.29   94.01
   3 -11  -6  959.73   86.15
   3  11  -6  960.80   82.34
  -3  11   6 1050.47   82.98
  -3 -11   7   48.46   27.53
   3 -11  -7   64.08   37.23
   3 -11  -7   73.62   29.55
   3  11  -7   77.22   30.50
  -3  11   7   72.18   25.78
   3  11  -7  166.46   38.30
  -3 -11   7   95.32   36.36
  -3  11   7   66.12   39.39
   3  11  -8  127.98   46.36
  -3 -11   8   41.68   32.84
  -3 -11   8  144.04   32.94
   3 -11  -8   91.94   40.76
   3 -11  -8  139.83   34.22
   3  11  -8   67.81   38.44
  -3  11   8  124.31   47.46
  -3 -11   9  814.04   94.86
   3  11  -9  975.23  115.68
   3  11  -9  954.57  106.57
  -3  11   9 1101.19  140.19
   3  12  -1   15.08   21.44
  -3 -12   1   50.61   32.15
  -3 -12   1   25.67   20.28
   3 -12  -1   23.62    9.01
  -3 -12   1   17.25   11.88
   3 -12  -1   19.41   14.37
   3 -12  -1   13.01   28.78
  -3 -12   1   20.09   14.57
  -3  12   1   44.11   14.96
  -3  12   1   27.15   22.95
  -3  12   1   15.50   13.98
   3  12  -2 3883.75  203.37
  -3 -12   2 3961.64  216.40
  -3  12   2 4445.61  256.27
  -3  12   2 4017.15  233.24
   3  12  -2 4024.15  245.37
  -3  12   2 3993.07  163.44
  -3 -12   2 3896.51  205.84
   3 -12  -2 4076.72  206.85
   3 -12  -2 4042.42  170.16
   3  12  -3   45.68   17.83
  -3 -12   3   39.05   22.94
  -3  12   3   13.82   17.54
  -3 -12   3   64.89   22.98
   3 -12  -3   47.05   28.57
  -3  12   3   27.31   18.38
   3  12  -3   56.65   24.05
  -3  12   3    7.95   23.32
  -3 -12   4 2012.37  162.20
  -3  12   4 2049.15  142.42
   3  12  -4 2224.10  144.49
  -3  12   4 2314.62  170.02
  -3 -12   4 2283.79  131.09
   3 -12  -4 1997.49  118.67
  -3  12   4 2096.80  127.94
   3  12  -4 2042.49  129.74
   3  12  -5 1920.70  124.67
  -3  12   5 1958.89  129.19
  -3 -12   5 2097.76  157.26
   3  12  -5 1961.82  134.06
  -3  12   5 2163.23  146.72
  -3  12   5 1841.10  112.44
  -3 -12   5 2086.50  118.08
   3 -12  -5 1986.80  114.40
  -3 -12   6  972.01   86.57
   3 -12  -6 1072.44   83.43
   3  12  -6  995.39   89.60
  -3  12   6  974.45   65.90
  -3  12   6  907.46   86.57
  -3 -12   6 1018.35   88.48
   3  12  -6 1139.31  118.25
  -3  12   6  876.09   69.11
  -3 -12   7  706.38   69.34
  -3  12   7  658.67   73.50
   3  12  -7  774.76   68.12
   3  12  -7  664.66   81.00
   3 -12  -7  683.77   85.81
   3 -12  -7  694.52   75.98
  -3 -12   7  756.04   85.99
  -3  12   8 3257.28  229.16
   3  12  -8 3361.06  233.00
   3  12  -8 3350.51  242.49
  -3 -12   8 3299.83  225.90
   3 -12  -8 3269.29  242.22
   3 -12  -8 3081.91  226.59
   3  13  -1 3168.32  189.56
  -3  13   1 3189.06  188.54
  -3  13   1 3088.44  150.19
  -3  13   1 3220.91  149.86
  -3 -13   1 3238.44  178.98
  -3 -13   1 3052.16  153.87
  -3 -13   1 3028.07  168.42
   3 -13  -1 3255.18  147.13
   3 -13  -1 3070.86  205.09
  -3  13   213379.22  530.83
   3  13  -214255.21  603.84
  -3 -13   213544.68  647.76
   3 -13  -213078.83  576.66
   3  13  -213432.35  680.98
  -3  13   213522.71  530.34
  -3 -13   213680.62  556.66
   3 -13  -213072.56  521.15
  -3  13   213653.31  626.36
  -3  13   3 2537.87  175.22
   3 -13  -3 2663.42  188.80
  -3 -13   3 2507.98  175.48
   3  13  -3 2638.84  178.43
  -3  13   3 2627.09  132.86
   3  13  -3 2725.46  179.27
  -3  13   3 2647.19  162.07
  -3 -13   3 2577.82  140.01
   3  13  -4   72.06   24.47
  -3  13   4   81.88   37.60
  -3 -13   4   39.60   33.77
   3 -13  -4   91.13   29.86
  -3 -13   4   65.69   22.37
   3  13  -4  120.65   39.53
  -3  13   4   76.50   18.38
  -3  13   4   19.00   24.74
   3  13  -5 1026.80   84.11
  -3  13   5 1364.53  103.86
   3 -13  -5 1195.79  120.90
  -3 -13   5 1124.91  106.75
  -3  13   5 1261.98   87.98
   3  13  -5 1164.93  112.06
  -3  13   5 1133.88   80.11
  -3 -13   5 1273.26  120.02
   3  13  -6  659.65   67.58
   3  13  -6  663.11   69.56
   3 -13  -6  746.04   68.67
  -3  13   6  704.04   67.39
  -3 -13   6  774.33   78.31
  -3  13   6  681.17   79.56
  -3 -13   6  737.51   77.80
  -3  13   7 3186.52  218.33
  -3 -13   7 3794.40  221.13
  -3 -13   7 3288.60  236.95
  -3  13   7 3608.52  256.96
   3  13  -7 3256.65  225.12
   3  13  -7 3654.71  236.73
   3 -13  -7 3196.03  230.28
  -3  13   8  852.93   86.95
   3 -13  -8  710.97   78.30
   3  13  -8  747.68   90.53
   3  13  -8  687.12   75.67
  -3 -13   8  709.84   81.66
  -3  14   1  119.84   29.29
  -3  14   1  131.91   22.71
  -3 -14   1  139.97   27.60
  -3  14   1  124.16   17.26
   3  14  -1  168.69   27.28
   3 -14  -1  123.18   30.54
   3 -14  -1  152.33   24.95
  -3 -14   1  135.53   31.68
  -3 -14   1  133.06   20.86
  -3  14   2 1594.22  119.99
   3  14  -2 1551.31  113.00
  -3  14   2 1531.79   99.34
   3  14  -2 1525.29  100.90
  -3 -14   2 1650.73  104.56
  -3 -14   2 1561.00   92.79
   3 -14  -2 1480.71  116.31
   3 -14  -2 1505.86   92.14
  -3  14   2 1434.62   89.65
   3 -14  -3  267.95   42.46
  -3  14   3  309.83   31.30
   3  14  -3  229.12   34.88
  -3  14   3  224.33   40.48
  -3  14   3  241.04   31.59
   3  14  -3  276.05   43.61
  -3 -14   3  256.07   47.39
  -3 -14   3  261.13   28.13
   3  14  -4 1789.42  150.05
   3 -14  -4 1629.89  115.23
  -3 -14   4 1733.46  111.83
  -3 -14   4 1668.22  130.42
  -3  14   4 1742.63  121.38
  -3  14   4 1715.44  136.26
   3  14  -4 1647.50  101.29
  -3  14   5 1683.61  139.52
   3  14  -5 1486.33  132.90
   3  14  -5 1649.87  126.31
  -3  14   5 1396.72  106.75
  -3 -14   5 1525.19  115.81
   3 -14  -5 1356.60  122.52
  -3 -14   5 1436.40  129.45
   3  14  -6  -19.44   38.83
   3  14  -6  -52.43   38.88
  -3  14   6  -19.39   38.98
  -3 -14   6   19.64   39.08
   3 -14  -6  -34.86   38.85
  -3  14   6  -42.54   39.02
  -3 -14   6   15.54   38.88
   3  14  -7 1534.12  118.19
   3  14  -7 1489.92  128.68
  -3  14   7 1606.42  146.13
  -3 -14   7 1608.48  140.95
   3 -14  -7 1613.10  125.18
  -3  14   7 1548.51  140.30
  -3 -14   8   22.63   31.46
  -3  14   8   67.68   40.29
   3  14  -8   41.77   43.05
   3  14  -8   60.59   33.66
  -3 -15   1   25.82   31.01
  -3  15   1  -11.23   25.25
   3 -15  -1   -7.87   12.55
  -3  15   1    2.36   14.29
   3  15  -1    5.64   18.88
  -3 -15   1   17.78   13.86
   3 -15  -1  -15.77   27.46
  -3 -15   1  -10.60   18.22
   3  15  -2 4061.31  242.08
  -3  15   2 4184.80  220.80
  -3  15   2 3920.97  190.25
  -3 -15   2 4073.84  223.95
   3 -15  -2 4141.38  190.87
  -3 -15   2 4327.59  285.51
  -3  15   2 3985.44  189.96
   3 -15  -2 3933.98  242.42
   3  15  -2 3998.88  212.72
  -3  15   3  292.17   36.14
   3  15  -3  285.87   42.23
  -3  15   3  306.69   49.43
   3  15  -3  323.28   45.33
  -3 -15   3  358.20   42.92
   3 -15  -3  324.20   46.02
  -3 -15   3  328.99   52.94
   3  15  -4  380.82   55.09
   3 -15  -4  450.02   56.45
  -3 -15   4  472.11   61.86
  -3 -15   4  433.92   52.37
  -3  15   4  439.09   46.48
  -3  15   4  371.45   42.09
   3  15  -4  438.75   52.48
  -3  15   5  371.93   48.90
  -3 -15   5  411.48   48.47
   3  15  -5  444.88   53.99
  -3  15   5  435.23   62.07
  -3 -15   5  418.78   61.05
   3 -15  -5  431.06   52.82
   3  15  -5  446.78   59.47
   3  15  -6  323.86   53.41
  -3  15   6  348.34   55.23
   3 -15  -6  348.11   58.48
  -3  15   6  347.83   58.65
  -3 -15   6  348.57   57.72
   3  15  -6  399.64   62.82
   3  15  -7   50.77   36.36
   3  15  -7   48.11   29.69
  -3  15   7   17.68   36.96
   3 -15  -7   19.91   28.65
  -3  15   7   50.42   41.84
  -3 -15   7   38.08   35.12
  -3 -16   1  613.97   56.94
   3 -16  -1  627.85   69.94
   3  16  -1  703.80   66.88
  -3  16   1  654.35   65.12
  -3 -16   1  567.66   75.76
   3 -16  -1  665.56   50.98
  -3  16   1  606.38   49.32
  -3 -16   2 1526.26  110.88
  -3 -16   2 1751.94  128.72
   3 -16  -2 1559.81  126.59
   3  16  -2 1739.97  144.05
  -3  16   2 1738.30  136.23
   3  16  -3  280.79   43.47
   3  16  -3  275.29   46.61
  -3  16   3  256.61   35.33
  -3 -16   3  339.19   40.00
   3 -16  -3  294.61   47.58
  -3  16   3  373.82   58.13
  -3 -16   3  374.38   53.62
   3  16  -4 1012.66   85.56
  -3  16   4  925.81   92.45
  -3 -16   4  935.16   84.12
   3 -16  -4  861.81   85.59
  -3 -16   4  891.99   79.12
   3  16  -4  884.28   84.16
  -3  16   4  869.44   84.58
   3  16  -5 1919.97  165.25
  -3  16   5 1862.40  154.42
  -3 -16   5 1896.60  128.99
  -3  16   5 1638.87  112.50
   3  16  -5 1793.03  122.24
   3 -16  -5 1731.27  122.79
  -3  16   6   32.13   30.12
   3  16  -6   12.65   34.16
  -3  16   6    7.09   32.93
   3  16  -6  -30.51   21.92
   3 -16  -6   26.10   33.28
  -3 -16   6   63.29   39.21
   3  16  -7  182.10   52.29
  -3  16   7  177.45   58.47
   3 -16  -7  136.35   38.06
  -3 -16   7  138.24   41.78
   3  16  -7   78.46   38.31
  -3  16   7  170.63   50.32
   3 -17  -1 1008.06   81.92
  -3 -17   1  993.60   79.96
   3  17  -1  941.65   89.77
  -3 -17   1  975.24   88.28
   3 -17  -1  921.33   84.87
  -3  17   1 1061.10   77.10
   3  17  -2 3194.72  198.42
  -3 -17   2 2948.73  206.40
  -3  17   2 3025.42  177.10
  -3 -17   2 3055.25  178.81
   3 -17  -2 2863.51  219.94
  -3 -17   3  525.14   49.89
  -3 -17   3  490.41   82.74
   3  17  -3  397.42   57.72
   3 -17  -3  412.90   49.70
  -3  17   3  366.22   55.86
   3  17  -4    7.03   29.50
  -3 -17   4   19.15   37.58
   3 -17  -4    5.59   30.46
  -3  17   4   -6.63   33.13
  -3  17   5 2536.69  193.65
  -3 -17   5 2546.94  195.55
  -3  17   5 2249.17  158.41
   3  17  -5 2530.86  207.77
   3 -17  -5 2556.90  168.90
  -3  17   6   28.12   31.92
   3  17  -6   40.35   37.71
   3  17  -6   26.22   31.49
  -3  17   6  -13.20   29.01
   3 -17  -6   17.68   30.49
  -3 -17   6  -18.44   26.70
  -3 -18   1  808.59   79.86
   3 -18  -1  778.20   93.41
   3  18  -1  741.31   61.86
  -3 -18   1  826.63   78.79
  -3  18   1  886.86   96.91
  -3  18   2  487.48   76.65
   3  18  -2  487.50   68.52
   3 -18  -2  422.06   71.25
  -3 -18   2  404.91   51.40
   3 -18  -3 2290.79  216.34
  -3 -18   3 2256.03  219.26
  -3  18   3 2324.02  177.22
   3  18  -3 2321.26  219.23
  -3 -18   4   37.69   33.63
   3 -18  -4   82.79   37.88
  -3  18   4   30.50   35.65
   3  18  -4   70.15   41.80
  -3  18   5 3551.61  285.71
   3  18  -5 3716.44  287.00
  -3 -18   5 3445.33  240.18
   3 -18  -5 3069.49  219.73
   3 -18  -6  374.54   65.19
  -3  19   1 2848.56  179.95
  -3 -19   1 2963.44  233.22
   3  19  -1 2786.09  219.93
   3 -19  -1 2877.69  205.36
   3  19  -2  -25.71   25.11
  -3 -19   2   -0.28   25.06
  -3  19   2   39.37   25.07
   3 -19  -2  -33.93   25.07
   3 -19  -3 1765.21  158.77
  -3 -19   3 1641.02  177.85
   3  19  -3 1732.96  179.71
  -3  19   3 1750.79  144.04
   3  19  -4  171.40   39.38
  -3 -19   4  174.64   35.73
  -3  19   4  115.24   49.05
   3 -19  -4   94.80   42.91
   3  19  -5  667.74  100.96
  -3 -19   5  636.65   83.79
   3 -19  -5  606.77   79.42
  -3  19   5  459.68   73.92
   3 -20  -1  208.66   49.57
   3  20  -1  183.87   44.23
  -3  20   1  212.63   47.46
  -3 -20   1  232.89   54.92
  -3 -20   2   39.91   33.85
  -3  20   2   36.50   41.09
   3 -20  -2   26.30   35.80
   3  20  -2    3.84   30.24
  -3  20   3 1539.24  146.77
  -3 -20   3 1547.45  159.51
   3 -20  -3 1387.83  140.08
   3  20  -3 1445.40  146.74
  -3  20   4  221.03   60.85
  -3 -20   4  213.42   62.45
   3 -20  -4  254.95   55.24
   3  20  -4  202.60   43.18
  -3  21   1  259.15   57.05
   3  21  -1  278.58   63.29
  -3 -21   1  201.43   49.94
   3 -21  -1  297.77   67.57
  -3  21   2  -10.34   28.76
   3 -21  -2   38.40   28.50
  -3 -21   2   -2.32   27.23
   3  21  -2    5.52   29.56
   3  21  -3   77.16   41.66
  -3 -21   3  109.99   51.22
  -3  21   3   99.47   42.03
   3 -21  -3   50.57   28.74
  -3 -22   1  422.18   62.94
   3  22  -1  431.70   61.78
  -3  22   1  367.58   63.25
  -2   0   1    0.88   16.91
  -2   0   1    0.12   16.88
   2   0  -1   20.66   16.90
   2   0  -1   -3.92   16.87
   2   0  -1   -2.35   16.83
   2   0  -1   -7.16   16.89
  -2   0   1    2.72   16.91
  -2   0   1  -21.12   16.88
  -2   0   1  -27.57   16.84
  -2   0   1    9.82   16.84
   2   0  -2  138.26   18.49
   2   0  -2  185.42   27.89
   2   0  -2  129.10   14.59
   2   0  -2  149.58   21.07
   2   0  -2  128.53   27.63
  -2   0   2  110.07   17.85
  -2   0   2  127.29   20.11
  -2   0   2  168.82   18.28
  -2   0   2  149.30   26.00
  -2   0   2  121.58   19.99
   2   0  -3  -33.04   15.47
   2   0  -3   20.72   15.43
   2   0  -3    6.16    6.24
   2   0  -3   -3.88   13.21
   2   0  -3    4.62   18.57
  -2   0   3   17.77   12.80
  -2   0   3  -10.29   12.33
  -2   0   3   -4.54    9.84
  -2   0   3   -1.52   15.17
  -2   0   3   19.72   12.15
   2   0  -473398.11 2708.83
   2   0  -473195.59 2616.78
   2   0  -470652.97 2481.29
  -2   0   474342.51 2412.68
  -2   0   471849.33 2355.68
   2   0  -5  -15.73   16.73
   2   0  -5  -21.89   16.76
   2   0  -5   -3.76   16.71
   2   0  -5    9.28   16.71
  -2   0   5  -26.46   16.73
  -2   0   5  -18.09   16.73
   2   0  -624701.88 1043.59
   2   0  -624504.96  940.22
   2   0  -624131.89  953.05
  -2   0   624961.86  977.50
  -2   0   623638.34  933.62
   2   0  -7  -18.63   18.43
  -2   0   7   -8.65   18.45
   2   0  -7  -14.85   18.45
  -2   0   7  -21.35   18.47
   2   0  -7  -10.71   18.50
   2   0  -8 1914.84  129.72
  -2   0   8 1873.64  143.58
   2   0  -8 2011.85  148.51
   2   0  -8 2020.54  113.19
  -2   0   8 1779.58  115.46
   2   0  -9   -5.31   25.37
   2   0  -9    5.70   25.15
   2   0  -9    0.56   34.37
  -2   0   9   -0.04   35.61
   2   0 -10   13.37   28.22
   2   0 -10   41.57   29.22
   2   0 -10   29.96   40.49
  -2   0  10  115.89   36.89
   2   1  -1  610.80   55.13
   2   1  -1  632.11   43.08
   2   1  -1  536.23   41.96
   2   1  -1  549.84   53.47
   2   1  -1  616.32   44.05
  -2   1   1  637.51   52.88
  -2   1   1  642.49   46.45
  -2   1   1  660.10   52.65
  -2   1   1  643.88   42.37
  -2   1   1  615.45   44.03
  -2   1   1  585.26   36.05
  -2  -1   1  527.41   38.32
  -2  -1   1  573.06   37.77
  -2  -1   1  522.94   39.34
  -2  -1   1  648.45   50.08
  -2  -1   1  634.08   58.12
   2  -1  -1  610.80   43.32
   2  -1  -1  599.43   43.16
   2  -1  -1  555.38   47.69
  -2   1   2  676.87   46.00
   2   1  -2  625.82   56.43
   2   1  -2  580.44   42.00
   2   1  -2  556.12   55.88
   2   1  -2  626.82   56.01
  -2   1   2  592.53   59.50
  -2   1   2  632.73   38.85
  -2   1   2  578.14   52.03
  -2  -1   2  609.42   46.57
  -2  -1   2  624.68   50.10
  -2  -1   2  584.80   34.59
  -2  -1   2  549.99   41.84
   2  -1  -2  604.47   40.60
   2  -1  -2  608.95   48.19
   2  -1  -2  523.27   36.86
   2  -1  -2  680.53   52.77
   2  -1  -2  583.67   39.99
   2   1  -2  636.71   41.10
  -2  -1   2  609.77   50.99
  -2   1   2  593.44   51.16
   2   1  -3  125.00   18.19
   2   1  -3  171.66   23.47
   2   1  -3  115.64   14.85
   2   1  -3  114.42   23.33
   2   1  -3  110.95   26.74
  -2   1   3  149.98   20.77
  -2   1   3  133.86   24.14
  -2   1   3  134.30   14.46
  -2   1   3  135.93   25.49
  -2   1   3  130.18   19.69
  -2  -1   3  116.55   18.15
  -2  -1   3  133.27   24.49
  -2  -1   3  130.50   18.58
  -2  -1   3  109.74   20.41
  -2  -1   3  118.20   17.46
   2  -1  -3  108.65   19.05
   2  -1  -3  100.24   26.25
   2  -1  -3  118.23   15.33
   2  -1  -3   98.64   20.05
   2  -1  -3   99.44   21.87
   2   1  -4   10.08   17.33
   2   1  -4   23.99   20.83
   2   1  -4   14.48   10.88
   2   1  -4   63.34   20.89
  -2   1   4   29.72   15.38
  -2   1   4   43.46   21.49
  -2  -1   4   14.10   11.81
  -2  -1   4   34.18   13.95
  -2  -1   4   68.07   22.00
   2  -1  -4   37.34   15.86
   2  -1  -4   42.70   19.61
   2  -1  -4   27.90   10.63
   2  -1  -4   39.16   24.47
   2   1  -5 5923.05  303.99
   2   1  -5 5727.55  277.55
   2   1  -5 5700.87  305.18
   2   1  -5 5922.54  310.50
  -2   1   5 5735.10  238.75
  -2   1   5 5757.64  290.67
  -2  -1   5 5557.71  261.74
  -2  -1   5 5531.70  256.86
   2  -1  -5 5756.15  279.67
   2  -1  -5 5717.29  327.38
   2  -1  -5 5687.96  235.43
   2  -1  -5 5770.76  315.21
   2   1  -632127.20 1250.05
   2   1  -631164.96 1069.25
   2   1  -629890.85 1123.03
  -2   1   629432.30 1076.93
  -2   1   629870.17 1132.17
  -2  -1   634949.23 1270.38
  -2  -1   630866.02 1176.89
   2  -1  -629873.54 1222.45
   2  -1  -630342.40 1152.26
   2  -1  -628613.48 1105.27
   2  -1  -631573.01 1242.27
   2   1  -7 2597.72  168.54
   2   1  -7 2502.94  158.70
   2   1  -7 2514.94  155.13
  -2   1   7 2786.39  174.84
  -2   1   7 2477.54  140.20
  -2  -1   7 2530.42  120.08
  -2  -1   7 2725.11  191.96
   2  -1  -7 2603.30  172.98
   2  -1  -7 2530.45  142.55
   2  -1  -7 2639.21  178.42
   2   1  -8 1572.12  114.69
   2  -1  -8 1456.18  108.12
   2  -1  -8 1446.57  103.31
   2   1  -8 1473.50  109.97
   2   1  -8 1529.11  135.95
  -2   1   8 1403.18   88.25
  -2   1   8 1457.40  109.99
  -2  -1   8 1371.34   89.11
  -2  -1   8 1374.56  104.98
   2  -1  -8 1177.36  102.58
   2  -1  -9  396.67   55.44
  -2   1   9  306.78   49.80
   2   1  -9  309.93   47.14
   2   1  -9  313.90   46.03
   2   1  -9  251.83   41.95
  -2  -1   9  294.14   44.14
   2  -1  -9  268.03   41.11
   2  -1  -9  290.53   46.98
   2   1 -10 1601.09  142.85
   2   1 -10 1495.37  131.35
   2   1 -10 1548.12  156.59
  -2   1  10 1670.95  145.02
  -2  -1  10 1889.08  170.29
   2  -1 -10 1647.58  159.16
   2  -1 -10 1850.53  174.78
  -2   2   1 1946.32  106.95
  -2   2   1 2022.33   97.98
  -2   2   1 1765.44  103.14
  -2   2   1 2015.46  125.74
   2   2  -1 2044.24  126.29
   2  -2  -1 1800.39  116.46
  -2  -2   1 1843.05  126.51
   2   2  -1 2055.47  101.18
   2   2  -1 1932.07  134.50
   2   2  -1 1753.12  102.64
  -2   2   1 1938.09   99.63
  -2   2   1 1976.68   69.60
  -2   2   1 2058.78  116.38
  -2  -2   1 1870.32   85.65
  -2  -2   1 1934.38   78.53
  -2  -2   1 1906.68   98.91
  -2  -2   1 1965.04  114.80
  -2  -2   1 1857.61  101.15
   2  -2  -1 1910.22  118.18
   2  -2  -1 2021.93   95.35
   2   2  -2 7673.31  378.31
   2  -2  -2 7253.47  336.17
   2   2  -2 7688.13  325.24
   2   2  -2 7803.68  394.06
  -2   2   2 7842.19  316.27
  -2   2   2 7824.68  332.53
  -2   2   2 7542.56  322.51
  -2   2   2 8301.32  359.77
  -2  -2   2 7517.43  312.51
  -2  -2   2 8057.44  320.02
   2  -2  -2 7607.35  345.00
   2  -2  -2 7457.45  303.28
   2  -2  -2 7955.75  287.44
   2  -2  -2 7405.17  280.74
   2  -2  -2 7754.05  299.19
   2   2  -2 7763.77  313.72
  -2  -2   2 7397.99  375.76
  -2  -2   2 8057.43  292.31
   2   2  -2 7210.11  346.04
  -2  -2   2 7799.85  318.52
   2   2  -3 3987.33  277.49
   2  -2  -3 4153.39  204.75
   2   2  -3 4032.57  207.86
   2   2  -3 3953.38  188.53
   2   2  -3 3852.73  177.36
  -2   2   3 4153.38  218.43
  -2   2   3 3828.66  217.51
  -2   2   3 4028.16  223.13
  -2  -2   3 3900.98  180.87
  -2  -2   3 3901.76  193.30
  -2  -2   3 4060.09  241.80
  -2  -2   3 3985.22  275.14
   2  -2  -3 4148.29  255.60
   2  -2  -3 3926.23  159.65
   2  -2  -3 4034.36  231.19
   2  -2  -3 3974.09  219.48
  -2   2   3 3856.32  233.44
   2   2  -3 3803.94  184.44
  -2  -2   3 4077.46  184.53
  -2   2   3 3927.24  153.82
   2   2  -4 2590.87  119.07
   2   2  -4 2745.29  160.36
   2   2  -4 2597.72  129.23
   2   2  -4 2577.53  152.08
  -2   2   4 2476.32  102.64
  -2   2   4 2637.96  140.32
  -2  -2   4 2638.86  123.82
  -2  -2   4 2472.21  128.34
  -2  -2   4 2582.11  143.82
   2  -2  -4 2607.10  141.71
   2  -2  -4 2491.67  114.69
   2  -2  -4 2636.74  144.73
   2  -2  -4 2511.46  172.12
   2   2  -5 1282.70   92.97
   2   2  -5 1518.87   95.11
  -2   2   5 1205.59   83.04
  -2  -2   5 1288.42   79.62
   2  -2  -5 1313.79   92.25
   2  -2  -5 1382.57   92.08
   2  -2  -5 1353.40   73.23
   2  -2  -5 1383.81  109.74
  -2   2   5 1289.38   68.77
  -2  -2   5 1350.68   83.74
   2  -2  -6  193.92   43.00
   2   2  -6   87.59   26.77
   2   2  -6   91.21   29.51
  -2   2   6   73.19   15.82
  -2   2   6  138.14   35.14
  -2  -2   6   79.13   28.43
  -2  -2   6  133.51   34.04
   2  -2  -6   96.93   26.64
   2  -2  -6  147.06   30.71
   2  -2  -6   58.41   13.07
   2   2  -6  151.04   30.73
   2   2  -7 1101.36   89.02
   2   2  -7 1185.56   84.15
   2   2  -7 1072.54   87.73
  -2   2   7 1084.55   64.30
  -2   2   7 1126.67   81.58
  -2  -2   7 1201.25   86.93
  -2  -2   7 1125.93   89.20
   2  -2  -7 1149.88   74.74
   2  -2  -7 1076.53   89.14
   2  -2  -7 1134.57  108.10
   2   2  -813239.00  623.91
   2   2  -813022.38  569.30
   2   2  -812660.76  650.41
  -2   2   813517.41  639.59
  -2  -2   813544.41  571.45
   2  -2  -812964.23  589.09
   2  -2  -812685.97  628.08
   2  -2  -812509.00  554.82
  -2  -2   812599.26  580.52
   2   2  -9  578.86   80.70
   2   2  -9  640.23   58.92
   2   2  -9  585.06   71.50
  -2  -2   9  514.74   54.09
  -2  -2   9  557.05   59.77
   2  -2  -9  522.49   64.97
   2  -2  -9  578.48   59.03
   2  -2  -9  492.09   61.61
  -2   2   9  544.41   71.73
  -2   2  10  650.74   75.10
   2   2 -10  593.09   79.09
   2   2 -10  542.25   63.98
   2   2 -10  686.71   85.73
   2  -2 -10  602.64   71.30
  -2  -2  10  593.08   78.94
   2  -2 -10  627.37   82.20
   2   3  -1   30.36   14.08
   2   3  -1   23.42   15.61
   2   3  -1   10.52   12.08
   2   3  -1   28.23   13.84
  -2   3   1   21.68   13.14
  -2   3   1   33.52   13.18
  -2   3   1   24.61   12.10
  -2   3   1   11.18    6.61
  -2   3   1   22.99   14.62
  -2   3   1    5.60   14.36
  -2  -3   1   39.47    4.96
  -2  -3   1   34.31    4.33
  -2  -3   1    9.95   17.55
  -2  -3   1   13.95   12.40
  -2  -3   1   48.16   11.22
   2  -3  -1   15.56    8.76
   2  -3  -1   19.96   11.82
  -2   3   1   15.14   17.98
   2  -3  -1   33.08   13.90
  -2  -3   1   25.23   14.00
   2   3  -2   99.48   15.89
   2   3  -2  127.00   13.46
  -2   3   2  103.90   19.11
   2  -3  -2   91.54   17.61
   2  -3  -2  128.39   17.82
  -2   3   2   89.35   13.28
   2   3  -2  104.88   21.99
   2   3  -2  127.03   21.53
   2   3  -2  120.65   20.74
  -2   3   2  107.56   18.59
  -2   3   2  100.28   20.90
  -2  -3   2  120.95   11.84
  -2  -3   2  118.16   16.72
  -2  -3   2  112.72   23.89
  -2  -3   2  122.09   23.03
   2  -3  -2  140.87   24.67
   2  -3  -2  145.47   17.43
   2  -3  -2  119.45    9.48
   2  -3  -2  125.42    9.68
  -2  -3   2  102.93   16.45
   2   3  -3 6494.05  318.05
  -2   3   3 6370.77  236.00
   2   3  -3 6232.17  261.12
   2  -3  -3 6441.56  206.67
   2  -3  -3 6277.60  331.03
   2   3  -3 6074.91  282.05
   2   3  -3 6071.28  258.61
   2   3  -3 5964.60  289.59
  -2   3   3 6301.19  289.50
  -2   3   3 5861.42  238.22
  -2   3   3 6137.27  277.03
  -2  -3   3 6462.98  270.61
  -2  -3   3 6095.58  262.37
  -2  -3   3 6558.24  326.78
   2  -3  -3 6231.72  335.09
   2  -3  -3 5738.32  201.48
   2  -3  -3 5669.87  306.71
   2   3  -4 2028.85  128.22
   2   3  -4 2060.12   90.18
  -2  -3   4 1999.20  124.61
   2   3  -4 2103.36  147.55
   2   3  -4 2043.57  157.74
  -2   3   4 2018.98   74.52
  -2   3   4 1926.61  113.16
  -2  -3   4 1996.82  120.01
  -2  -3   4 1981.27  111.99
   2  -3  -4 1969.92  104.29
   2  -3  -4 1857.62   83.41
   2  -3  -4 2028.38  109.18
   2  -3  -5 5995.38  329.23
  -2   3   5 5818.27  270.00
   2   3  -5 6429.40  307.45
   2   3  -5 5982.74  305.96
   2   3  -5 6083.71  308.48
  -2   3   5 5985.88  241.96
  -2  -3   5 5728.75  267.76
   2  -3  -5 6145.25  360.06
   2  -3  -5 6038.24  292.96
   2  -3  -5 5935.94  218.03
   2   3  -6 3036.68  168.02
   2   3  -6 3145.16  164.93
   2   3  -6 3120.10  184.07
  -2   3   6 3100.01  161.47
  -2  -3   6 3103.10  163.78
  -2  -3   6 3076.60  210.40
   2  -3  -6 3234.28  141.06
   2  -3  -6 2765.13  123.63
   2  -3  -6 3155.64  186.66
   2  -3  -6 3126.12  212.28
  -2   3   6 2993.62  128.07
   2  -3  -7 1695.72  131.40
   2   3  -7 1581.24  107.79
   2   3  -7 1673.62  120.16
  -2   3   7 1483.84   85.04
  -2   3   7 1703.32  113.21
  -2  -3   7 1712.85  101.72
  -2  -3   7 1737.96   96.73
   2  -3  -7 1609.10  119.56
   2  -3  -7 1691.22  104.18
   2   3  -7 1659.79  112.69
   2   3  -8 1874.82  143.94
   2   3  -8 1536.72  122.66
   2   3  -8 1683.28  117.28
  -2   3   8 1691.85  125.37
  -2  -3   8 1936.55  122.79
  -2  -3   8 1903.69  109.03
   2  -3  -8 1943.00  108.28
   2  -3  -8 1680.05  115.16
   2  -3  -8 1711.50  130.03
   2   3  -9  -30.16   31.20
   2   3  -9   15.94   26.07
   2   3  -9    9.45   31.71
  -2  -3   9  -16.71   20.59
  -2  -3   9    2.76   27.08
   2  -3  -9   29.53   30.48
   2  -3  -9   35.18   24.87
   2  -3  -9   -0.88   25.34
  -2   3   9   30.02   30.94
   2   3 -10 4240.54  282.18
   2   3 -10 4495.94  264.73
   2   3 -10 4810.07  291.76
  -2   3  10 5087.95  342.31
  -2  -3  10 5032.15  309.97
   2  -3 -10 4699.54  315.28
   2  -3 -10 4533.38  272.22
  -2   4   1 2217.95   91.43
  -2   4   1 1870.10  117.21
  -2   4   1 2175.40   95.37
  -2   4   1 2129.90  112.39
   2   4  -1 2057.18  121.63
  -2  -4   1 2143.58  109.35
   2  -4  -1 2095.69  123.56
  -2  -4   1 2099.41  111.99
  -2  -4   1 2098.66  116.06
   2   4  -1 2192.74  117.67
   2   4  -1 2096.43  129.53
   2   4  -1 2128.08  118.25
  -2   4   1 2170.29  127.18
  -2   4   1 2007.95  124.24
  -2  -4   1 2172.51  125.21
   2  -4  -1 2213.99  147.27
   2  -4  -1 2169.61  100.32
  -2   4   1 2097.55  102.41
  -2   4   2  448.76   39.43
   2   4  -2  408.86   25.71
  -2  -4   2  470.46   40.80
   2  -4  -2  456.77   34.39
  -2   4   2  395.15   50.44
   2  -4  -2  489.01   17.54
   2  -4  -2  405.97   43.35
  -2   4   2  521.13   43.84
   2   4  -2  508.51   46.00
   2   4  -2  429.96   33.62
   2   4  -2  497.17   47.76
  -2   4   2  459.13   36.51
  -2   4   2  438.68   41.70
  -2  -4   2  453.46   27.37
  -2  -4   2  466.91   43.27
  -2  -4   2  462.03   51.07
  -2  -4   2  427.79   44.80
   2  -4  -2  418.74   34.77
   2   4  -2  464.87   45.19
   2  -4  -313285.32  560.40
   2   4  -313419.25  499.43
   2   4  -313663.71  498.81
   2   4  -313548.33  606.47
   2   4  -313222.91  565.73
  -2   4   312771.35  470.51
  -2   4   313945.00  542.27
  -2   4   313997.90  579.51
  -2  -4   313579.25  500.51
  -2  -4   313662.28  542.23
   2  -4  -312989.74  561.25
   2  -4  -312887.66  567.70
  -2  -4   313358.51  563.22
   2   4  -313619.47  571.62
   2   4  -411162.50  437.72
   2   4  -411675.00  514.16
   2   4  -411644.81  511.25
  -2   4   411359.34  472.96
  -2  -4   411019.17  485.50
  -2  -4   411256.98  454.50
   2  -4  -411419.02  474.60
   2  -4  -411385.67  483.26
  -2  -4   411197.63  434.85
   2  -4  -411330.64  536.06
   2   4  -5 2789.83  158.74
   2   4  -5 2838.12  148.88
   2   4  -5 2745.03  181.54
  -2   4   5 2795.98  155.55
  -2  -4   5 2808.46  150.90
  -2  -4   5 2891.27  175.79
   2  -4  -5 2798.70  170.89
   2  -4  -5 2681.75  112.93
   2  -4  -5 2688.64  166.55
   2  -4  -5 2634.02  158.23
  -2   4   5 2620.40  103.66
   2   4  -6 5945.62  317.35
   2   4  -6 6021.62  274.44
   2   4  -6 5947.75  318.24
  -2   4   6 5623.82  242.06
  -2   4   6 5892.93  299.70
  -2  -4   6 5845.36  283.37
  -2  -4   6 5669.61  257.82
   2  -4  -6 5850.98  297.31
   2  -4  -6 6275.77  263.24
   2  -4  -6 5618.65  235.17
   2  -4  -6 6024.97  294.84
   2   4  -7 2662.53  152.39
  -2  -4   7 2631.11  131.31
  -2  -4   7 2732.15  166.80
   2  -4  -7 2677.06  147.55
   2   4  -7 2669.46  165.44
   2   4  -7 2815.44  182.09
   2  -4  -7 2751.89  189.06
   2  -4  -7 2737.57  167.05
  -2   4   7 2681.90  178.38
   2   4  -8  297.08   44.91
   2   4  -8  412.79   55.64
  -2   4   8  382.86   50.34
  -2  -4   8  350.82   40.26
   2  -4  -8  394.11   46.93
   2  -4  -8  480.81   47.44
   2  -4  -8  435.43   52.27
  -2  -4   8  476.61   48.74
   2   4  -8  381.89   50.36
  -2  -4   9  767.25   69.03
  -2  -4   9  858.43   76.17
   2   4  -9  914.88   83.82
   2   4  -9  866.64   81.86
   2   4  -9  912.78  100.43
  -2   4   9  824.03   91.81
   2  -4  -9  855.27   86.83
   2  -4  -9  857.19   82.15
   2  -4  -9  879.42   89.02
  -2   4  10  473.46   65.07
   2   4 -10  414.53   66.16
   2   4 -10  466.28   64.78
   2   4 -10  480.79   68.28
  -2  -4  10  560.69   70.95
   2  -4 -10  444.03   66.85
   2  -4 -10  400.23   53.80
   2   5  -1 6976.14  304.71
   2   5  -1 7250.52  364.01
  -2   5   1 6969.70  331.84
  -2   5   1 7798.72  341.13
  -2   5   1 7613.03  301.69
  -2   5   1 7108.07  297.79
  -2   5   1 7401.37  328.10
  -2  -5   1 7511.32  280.78
  -2  -5   1 7325.28  355.04
  -2  -5   1 7095.14  310.41
  -2  -5   1 7425.79  312.95
   2  -5  -1 7093.20  333.43
   2  -5  -1 7222.01  310.53
   2  -5  -1 7552.38  320.30
   2   5  -1 7530.71  307.27
   2   5  -1 7113.90  339.13
   2  -5  -1 7428.76  278.73
  -2   5   1 7502.65  281.29
  -2   5   2 2336.13  143.63
   2   5  -2 2269.33   95.75
   2   5  -2 2334.31  135.17
   2   5  -2 2228.39  120.07
   2   5  -2 2374.77  130.40
  -2   5   2 2342.52  176.94
  -2   5   2 2386.04  141.34
  -2   5   2 2292.29  115.55
  -2   5   2 2390.36  147.68
  -2  -5   2 2264.67   99.66
  -2  -5   2 2314.74  180.11
  -2  -5   2 2345.30  124.50
  -2  -5   2 2237.50  141.01
  -2  -5   2 2309.00  117.54
   2  -5  -2 2320.88  122.97
   2  -5  -2 2105.34  124.06
  -2   5   2 2241.00  140.95
   2   5  -2 2435.10  137.53
  -2   5   335085.47 1274.90
   2   5  -337018.35 1265.07
   2   5  -335794.73 1315.01
   2   5  -336382.70 1489.25
  -2   5   335488.40 1342.23
  -2  -5   337256.06 1286.45
  -2  -5   337136.20 1457.95
  -2  -5   335815.16 1276.27
   2  -5  -335843.77 1292.09
   2  -5  -334949.63 1267.12
   2  -5  -335237.71 1385.72
   2   5  -336782.82 1294.17
   2   5  -4 1400.09   90.00
   2   5  -4 1388.14  106.08
   2   5  -4 1372.29   81.76
  -2   5   4 1370.44   87.77
  -2  -5   4 1283.27   80.24
  -2  -5   4 1365.06   96.43
  -2  -5   4 1366.86   88.88
   2  -5  -4 1464.30  113.19
   2  -5  -4 1430.12   93.69
   2  -5  -4 1334.40   76.89
   2   5  -5 1914.85  106.29
   2   5  -5 1903.44  134.21
  -2   5   5 1741.66  125.85
   2   5  -5 1808.24  128.39
  -2  -5   5 1754.84  111.14
  -2  -5   5 2001.51  120.95
   2  -5  -5 1827.10  116.89
   2  -5  -5 1970.70  137.39
   2  -5  -5 1894.86  111.82
   2  -5  -6 3799.90  181.45
   2  -5  -6 3497.45  149.61
   2  -5  -6 3839.71  181.30
   2   5  -6 3768.64  227.88
   2   5  -6 4015.08  192.03
   2   5  -6 3875.93  226.56
  -2   5   6 3668.78  200.62
  -2  -5   6 3879.25  191.44
  -2  -5   6 3994.28  166.84
   2  -5  -6 3651.74  178.34
  -2   5   6 3582.53  138.35
   2   5  -7  774.03   69.49
  -2  -5   7  708.03   61.98
  -2  -5   7  714.77   66.09
   2   5  -7  728.89   58.19
   2   5  -7  820.38   66.32
  -2   5   7  762.75   63.59
   2  -5  -7  750.76   66.30
   2  -5  -7  713.98   59.91
   2  -5  -7  712.16   66.20
  -2  -5   8   13.49   27.29
  -2  -5   8   99.80   33.07
   2   5  -8   71.87   28.28
   2   5  -8   49.65   29.93
  -2   5   8  120.46   34.97
   2  -5  -8   25.14   27.54
   2  -5  -8   62.96   23.90
   2  -5  -8   82.22   32.03
   2   5  -8   76.50   28.43
  -2   5   9  139.84   46.83
   2   5  -9   83.23   37.29
   2  -5  -9   81.19   39.48
   2   5  -9   50.21   27.92
   2   5  -9   87.19   29.36
  -2  -5   9  101.38   33.91
  -2  -5   9   84.71   31.77
   2  -5  -9   87.38   27.34
   2  -5  -9   88.01   31.06
   2   5 -10 1201.02  139.07
   2   5 -10 1388.34  138.26
   2   5 -10 1485.36  157.68
  -2   5  10 1368.55  154.85
  -2  -5  10 1362.62  112.41
   2  -5 -10 1639.65  162.56
   2  -5 -10 1272.94  121.40
   2  -6  -147030.57 1646.67
  -2  -6   146518.94 1548.68
   2   6  -146842.47 1668.63
   2   6  -148946.90 1781.49
   2   6  -146508.55 1667.82
   2   6  -148379.09 1684.58
  -2   6   145965.74 1710.70
  -2   6   150978.18 1635.36
  -2   6   146880.12 1579.41
  -2   6   146712.11 1670.25
  -2  -6   151038.52 1718.65
  -2  -6   146406.65 1762.35
  -2  -6   148252.26 1681.39
   2  -6  -147143.91 1595.71
   2  -6  -146675.64 1540.33
   2  -6  -145357.49 1533.44
  -2   6   148717.73 1726.64
  -2   6   143965.05 1570.45
   2  -6  -2 3993.40  232.22
   2  -6  -2 3859.85  186.87
   2   6  -2 3898.14  207.22
   2   6  -2 4180.21  234.91
  -2   6   2 3852.15  197.13
  -2   6   2 4234.25  134.37
  -2   6   2 3945.09  213.93
  -2  -6   2 3895.34  176.44
  -2  -6   2 4008.68  194.92
  -2  -6   2 4093.37  258.29
   2   6  -2 3958.67  154.96
   2   6  -2 3915.52  195.05
  -2  -6   2 3922.37  153.04
  -2   6   2 3901.96  203.39
  -2   6   2 4103.84  212.24
   2  -6  -2 4129.13  133.37
  -2   6   3 2695.70  132.82
   2   6  -3 2867.84  122.33
   2   6  -3 2752.78  131.05
   2   6  -3 2953.48  147.47
  -2   6   3 2794.10  155.94
  -2  -6   3 2687.43  132.46
  -2  -6   3 3131.33  231.74
  -2  -6   3 2923.59  151.59
   2  -6  -3 2817.64  149.86
   2  -6  -3 2862.99  168.44
   2  -6  -3 2828.92  168.09
   2   6  -3 2933.78  154.67
   2  -6  -4 1067.41   79.42
  -2   6   4  962.41   69.46
   2   6  -4  985.33   73.22
   2   6  -4 1030.69   88.78
   2   6  -4 1063.31   80.89
  -2  -6   4 1008.52   55.79
  -2  -6   4 1074.03   89.34
  -2  -6   4 1078.95   77.37
   2  -6  -4 1041.79   82.78
   2  -6  -4 1045.93   77.07
   2  -6  -5 1907.41  116.61
   2   6  -5 1833.33  121.57
   2   6  -5 1811.35  114.14
   2   6  -5 1913.58  109.97
  -2   6   5 1870.21   95.13
  -2  -6   5 1688.10  111.60
  -2  -6   5 1746.70  112.16
   2  -6  -5 1840.51  123.10
   2  -6  -5 1836.51  112.46
  -2  -6   6 1166.78   80.56
   2   6  -6 1229.44   90.35
   2   6  -6 1247.10   82.78
   2   6  -6 1241.77   99.27
  -2   6   6 1249.49   99.65
  -2  -6   6 1293.69   99.06
   2  -6  -6 1121.65   74.98
   2  -6  -6 1164.64   95.11
   2  -6  -6 1148.84   75.57
   2   6  -7 2813.43  201.00
  -2  -6   7 2754.21  133.01
   2  -6  -7 2827.27  151.57
   2  -6  -7 2642.26  142.52
   2   6  -7 2800.04  164.86
   2   6  -7 2724.14  164.35
  -2  -6   7 2738.04  152.05
   2  -6  -7 2700.17  175.65
  -2   6   7 2625.46  149.58
   2  -6  -8 1553.09  106.94
   2   6  -8 1519.96  132.64
   2   6  -8 1616.31  126.79
  -2   6   8 1530.98  119.41
  -2  -6   8 1568.74  118.72
  -2  -6   8 1611.93  121.74
   2  -6  -8 1523.87  136.18
   2  -6  -8 1589.75  107.89
   2   6  -8 1599.28  134.96
   2   6  -9  836.43   95.92
   2   6  -9  801.55   88.38
   2   6  -9  915.63   93.45
  -2  -6   9  920.03   77.75
   2  -6  -9  787.24   85.25
   2  -6  -9  782.37   71.31
  -2   6   9  819.28   90.26
  -2  -6   9  859.51   80.09
   2  -6  -9  897.15   88.37
   2   6 -10  383.06   54.67
   2   6 -10  435.24   64.44
   2   6 -10  464.49   79.80
  -2  -6  10  331.07   66.19
  -2  -6  10  445.76   65.30
   2  -6 -10  502.14   73.86
   2  -6 -10  466.64   59.67
  -2   6  10  438.79   80.91
   2  -7  -1 8812.15  389.12
   2   7  -1 9061.01  411.92
  -2  -7   1 8741.34  404.83
   2   7  -1 7867.79  290.79
   2   7  -1 8794.55  284.09
   2   7  -1 8964.44  423.70
   2   7  -1 8920.30  373.25
  -2   7   1 8211.28  389.55
  -2   7   1 8758.23  336.30
  -2   7   1 8384.48  345.96
  -2   7   1 9187.31  388.09
  -2  -7   1 9160.75  385.18
  -2  -7   1 8822.48  368.41
  -2  -7   1 8984.36  400.85
   2  -7  -1 8913.41  380.04
   2  -7  -1 8671.81  369.39
   2  -7  -1 8926.99  387.24
   2   7  -2   38.52   10.85
   2   7  -2   33.11   20.52
   2   7  -2   62.76   23.84
  -2   7   2   41.35   20.65
  -2  -7   2   43.32    8.29
  -2  -7   2   37.00   16.26
  -2  -7   2   25.32   12.42
   2   7  -2   33.77    7.81
  -2   7   2   46.15    6.76
  -2   7   2   44.16   16.38
  -2   7   2   59.68   16.20
  -2   7   2   33.51   12.54
  -2  -7   2   17.10   19.54
   2  -7  -2   59.60   20.72
   2  -7  -2   40.20    8.19
   2  -7  -2   48.60   13.59
  -2  -7   327440.57  927.25
   2  -7  -326156.01 1007.96
   2   7  -326655.55  948.21
   2   7  -327359.73  987.33
   2   7  -327581.60 1252.36
   2   7  -329266.70 1293.60
  -2   7   326665.38 1005.47
  -2   7   327472.04  991.35
  -2   7   326187.91  944.99
  -2  -7   326543.74  961.49
  -2  -7   325740.79  975.27
   2  -7  -4  120.31   21.97
  -2  -7   4  167.55   25.83
   2   7  -4  189.16   35.75
   2   7  -4  137.31   16.68
   2   7  -4  192.66   37.42
  -2   7   4  123.91   33.14
  -2  -7   4  153.09   15.88
  -2  -7   4  187.06   24.62
   2  -7  -4  154.87   29.67
   2  -7  -4  208.90   32.71
   2   7  -5 3016.81  171.79
   2   7  -5 3056.05  146.77
   2   7  -5 3191.83  187.32
  -2   7   5 3048.66  173.67
  -2  -7   5 3114.97  168.23
  -2  -7   5 3153.95  150.02
   2  -7  -5 3154.96  196.13
   2  -7  -5 2972.59  163.25
   2  -7  -5 2974.42  150.56
   2   7  -6 1515.35  103.39
  -2  -7   6 1491.87   97.57
  -2   7   6 1419.88   99.56
   2   7  -6 1495.51  112.72
   2   7  -6 1659.17   98.81
  -2  -7   6 1636.19   93.39
   2  -7  -6 1563.63  116.30
   2  -7  -6 1449.40   92.24
   2  -7  -6 1583.70   96.35
  -2   7   7  696.91   75.37
   2   7  -7  850.04   70.03
   2   7  -7  804.51   76.59
   2   7  -7  883.19   85.50
  -2  -7   7  761.44   72.14
  -2  -7   7  830.81   65.12
   2  -7  -7  848.02   78.95
   2  -7  -7  890.81   64.39
   2  -7  -7  854.45   82.39
  -2  -7   8  248.29   36.74
   2   7  -8  263.65   35.87
   2   7  -8  361.68   49.73
   2   7  -8  246.39   40.24
  -2   7   8  242.15   58.49
  -2  -7   8  210.14   37.70
   2  -7  -8  291.05   49.90
   2  -7  -8  309.31   36.64
   2  -7  -8  232.91   42.56
  -2  -7   9  143.99   34.37
   2  -7  -9  180.21   48.20
   2   7  -9  137.33   39.85
   2   7  -9  110.57   30.68
   2   7  -9  142.58   40.95
  -2   7   9  114.51   48.23
  -2  -7   9  125.57   33.20
   2  -7  -9  101.87   29.97
   2  -7  -9   99.32   37.31
   2   7 -10  400.24   55.50
   2   7 -10  359.71   74.11
  -2   7  10  356.21   67.44
  -2  -7  10  265.58   53.41
  -2  -7  10  300.34   52.22
   2  -7 -10  350.97   56.05
   2  -7 -10  321.96   53.91
   2   8  -1 3539.89  136.52
   2   8  -1 3616.37  219.65
  -2   8   1 3530.15  152.44
  -2  -8   1 3534.72  147.92
  -2   8   1 3573.46  193.59
   2   8  -1 3848.88  131.45
   2   8  -1 3616.84  158.61
   2   8  -1 3690.04  155.65
  -2   8   1 4295.97  306.39
  -2   8   1 3669.73  158.98
  -2  -8   1 2741.62  206.32
  -2  -8   1 3701.04  174.98
   2  -8  -1 4315.38  292.39
   2  -8  -1 3668.37  166.52
   2  -8  -1 3601.15  180.74
   2  -8  -1 3560.47  159.48
   2   8  -213225.93  513.68
   2   8  -212924.66  511.15
   2   8  -212136.23  500.16
  -2   8   212880.24  453.99
  -2   8   212478.21  493.86
  -2   8   213121.07  485.77
  -2  -8   212852.93  438.02
  -2  -8   213337.33  622.09
  -2  -8   212832.07  496.81
  -2  -8   213213.67  538.14
   2  -8  -212379.17  672.34
   2  -8  -212914.00  439.79
   2  -8  -212653.22  482.76
  -2   8   212893.97  466.64
  -2   8   212989.59  558.03
   2   8  -212711.32  442.26
   2   8  -313342.50  510.56
   2   8  -314257.62  592.51
   2   8  -317217.70  922.22
  -2   8   313640.61  520.52
  -2   8   313938.75  544.17
  -2  -8   313583.40  517.15
  -2  -8   314082.90  597.08
  -2  -8   313323.91  583.27
   2  -8  -313806.26  509.32
   2  -8  -313756.47  565.54
  -2   8   315198.93  751.81
   2   8  -4 1447.59   80.79
   2   8  -4 1558.94  103.21
   2   8  -4 1559.96  110.46
  -2   8   4 1524.86   90.96
  -2  -8   4 1439.77  116.34
  -2  -8   4 1601.70   94.26
   2  -8  -4 1453.64  102.65
   2  -8  -4 1377.95  106.76
  -2  -8   4 1430.11   81.71
   2   8  -5 2120.02  145.94
  -2  -8   5 2205.16  141.84
  -2   8   5 2009.64  146.10
   2   8  -5 2032.32  115.40
   2   8  -5 2014.79  128.96
  -2  -8   5 2077.37  110.96
   2  -8  -5 2048.86  137.88
   2  -8  -5 2015.85  122.88
   2  -8  -5 2118.98  125.02
   2  -8  -6  580.30   57.08
   2   8  -6  536.33   45.58
   2   8  -6  573.39   62.62
   2   8  -6  515.09   56.02
  -2   8   6  560.57   51.34
  -2  -8   6  538.09   56.63
  -2  -8   6  699.45   49.32
   2  -8  -6  570.20   49.23
   2  -8  -6  529.05   44.49
  -2   8   7 1957.60  137.57
   2  -8  -7 1926.05  125.78
  -2  -8   7 2157.75  125.98
   2   8  -7 2027.63  138.35
   2   8  -7 2141.07  155.62
   2   8  -7 2076.15  158.64
  -2  -8   7 2100.11  139.95
   2  -8  -7 1974.40  153.29
   2  -8  -7 2006.90  120.07
   2   8  -8  110.72   27.31
   2  -8  -8   78.90   31.28
   2   8  -8   97.89   27.39
   2   8  -8  115.77   33.57
  -2   8   8  129.05   38.42
  -2  -8   8   87.88   33.58
  -2  -8   8  108.18   28.62
   2  -8  -8  189.89   32.27
   2  -8  -8   92.30   28.96
  -2  -8   9  432.80   58.73
   2   8  -9  481.04   59.73
   2   8  -9  451.12   63.06
   2   8  -9  485.81   71.25
  -2   8   9  461.66   58.38
  -2  -8   9  442.92   61.88
   2  -8  -9  447.25   73.71
   2  -8  -9  448.99   58.95
   2   8 -10  101.39   38.07
  -2  -8  10   75.09   31.51
  -2  -8  10  137.08   39.73
   2  -8 -10   88.06   34.05
   2   9  -1 6517.61  316.77
   2   9  -1 6603.99  227.88
  -2  -9   1 6421.80  308.28
   2  -9  -1 6204.71  264.23
   2  -9  -1 6280.13  255.70
  -2   9   1 6371.15  352.32
   2  -9  -1 6288.36  275.50
  -2   9   1 6490.13  290.93
  -2  -9   1 6340.50  286.67
   2   9  -1 6021.74  227.73
   2   9  -1 7222.13  472.58
   2   9  -1 6170.66  278.33
  -2   9   1 6355.20  239.17
  -2   9   1 6447.03  246.37
  -2  -9   1 6487.98  266.37
   2  -9  -1 6317.51  327.57
  -2   9   2 2035.34  109.72
  -2   9   2 1743.42   95.90
   2   9  -2 2102.87  147.56
  -2  -9   2 2079.29  116.14
   2  -9  -2 1923.04   80.66
   2   9  -2 1929.12   88.06
   2   9  -2 2104.02  123.41
   2   9  -2 1938.77  114.60
  -2   9   2 2060.18  124.86
  -2   9   2 2070.55   87.68
  -2   9   2 2045.65  115.01
  -2  -9   2 1955.66   88.07
  -2  -9   2 2050.79   98.50
  -2  -9   2 1897.25  148.67
   2  -9  -2 2024.81  131.11
   2  -9  -2 1944.04  108.78
  -2  -9   311809.87  449.46
   2   9  -311721.93  490.39
   2   9  -311637.78  411.44
  -2   9   311678.18  470.34
   2   9  -312232.43  485.37
  -2   9   311415.46  498.88
  -2   9   310915.28  435.59
  -2   9   311442.04  488.25
  -2  -9   311315.45  445.33
  -2  -9   311901.28  492.59
   2  -9  -311601.09  548.19
  -2  -9   4 2614.35  199.37
  -2   9   4 2273.66  130.64
   2   9  -4 2143.39  124.97
   2   9  -4 2488.21  158.47
   2   9  -4 2246.42  147.34
  -2   9   4 2183.36  110.02
  -2  -9   4 2087.64  108.00
  -2  -9   4 2206.98  167.24
   2  -9  -4 2184.96  144.22
   2  -9  -4 2217.69  158.28
  -2  -9   5 4309.08  256.25
   2   9  -5 4285.59  216.77
   2   9  -5 4084.08  198.49
   2   9  -5 4095.82  186.86
  -2   9   5 4218.33  200.95
  -2  -9   5 4460.38  199.14
   2  -9  -5 4025.88  279.13
   2  -9  -5 3891.62  223.10
   2  -9  -5 4228.33  208.89
  -2  -9   6  179.91   32.55
   2   9  -6  164.35   37.71
   2   9  -6  176.78   28.34
   2   9  -6  180.96   33.07
  -2   9   6  122.18   34.11
  -2  -9   6  151.42   29.16
   2  -9  -6  166.43   33.69
   2  -9  -6   94.70   27.94
   2  -9  -6  191.54   33.74
   2  -9  -7  975.38   82.00
   2  -9  -7  979.92  107.22
   2   9  -7  875.81   82.84
   2   9  -7 1044.23   81.64
   2   9  -7  929.50   76.79
  -2   9   7 1103.63   94.18
  -2  -9   7 1091.96   90.65
  -2  -9   7  924.39   78.52
   2  -9  -7  952.06   88.79
   2  -9  -8  192.16   40.27
   2   9  -8  232.65   47.66
   2   9  -8  237.62   41.41
   2   9  -8  205.64   33.99
  -2   9   8  219.89   48.28
  -2  -9   8  252.98   47.10
  -2  -9   8  222.10   43.90
   2  -9  -8  220.52   43.11
   2  -9  -8  252.40   43.53
   2   9  -9   84.83   40.38
   2  -9  -9   27.99   33.78
   2   9  -9   89.80   35.50
  -2   9   9   55.47   39.19
  -2  -9   9   40.53   31.61
  -2  -9   9   58.94   29.67
   2  -9  -9   22.76   29.10
   2  10  -1 3567.96  152.58
  -2  10   1 3578.88  189.90
  -2  10   1 3398.98  148.21
  -2  10   1 3293.07  150.23
  -2  10   1 3594.49  181.11
  -2 -10   1 3632.75  192.18
  -2 -10   1 3514.98  175.34
   2 -10  -1 3406.46  221.17
   2 -10  -1 3597.86  138.82
   2 -10  -1 3578.91  159.94
   2 -10  -1 3425.98  174.62
  -2 -10   1 3576.68  157.95
   2  10  -1 3182.75  159.95
   2  10  -1 3329.84  138.83
   2  10  -1 3709.54  145.36
   2  10  -1 3613.89  197.37
   2  10  -2  198.93   19.90
   2 -10  -2  188.74   23.01
  -2 -10   2  220.47   24.02
   2  10  -2  234.25   20.98
   2  10  -2  244.08   33.13
   2  10  -2  187.76   23.32
   2  10  -2  265.11   29.23
  -2  10   2  277.28   40.42
  -2  10   2  268.27   24.05
  -2  10   2  278.51   28.39
  -2  10   2  241.43   24.82
  -2  10   2  207.49   21.25
  -2 -10   2  244.00   27.84
  -2 -10   2  258.01   29.12
   2 -10  -2  181.85   26.58
   2 -10  -2  248.98   21.73
   2  10  -310816.99  399.37
  -2  10   311097.38  442.61
  -2 -10   310925.39  449.31
   2 -10  -311264.11  524.34
  -2 -10   312043.96  471.90
  -2  10   311044.15  467.66
  -2 -10   311381.14  543.87
   2  10  -310926.78  536.46
   2  10  -311332.20  539.54
  -2  10   311602.78  537.11
  -2  10   310383.28  362.52
  -2  10   311418.26  367.04
  -2  10   311349.49  485.66
  -2 -10   4 1018.14   57.00
   2  10  -4 1071.08   65.18
   2  10  -4 1093.22   86.57
   2  10  -4 1216.72   87.34
  -2  10   4 1015.46   57.55
  -2 -10   4 1058.60   80.24
   2 -10  -4 1141.45   86.72
   2 -10  -4 1029.44   83.18
   2  10  -5  305.81   31.69
   2  10  -5  349.61   46.25
  -2  10   5  342.33   34.54
   2  10  -5  432.48   49.52
  -2  10   5  326.32   41.90
  -2 -10   5  355.92   42.82
  -2 -10   5  447.27   40.52
   2 -10  -5  345.18   48.45
   2 -10  -5  300.65   36.35
   2 -10  -6   36.10   32.10
   2  10  -6   26.07   31.87
   2  10  -6   44.42   20.93
   2  10  -6   15.00   25.45
  -2  10   6   25.22   33.22
  -2 -10   6   22.96   27.84
  -2 -10   6   12.03   19.58
   2 -10  -6   16.54   21.97
   2 -10  -6   71.94   26.07
  -2  10   7 5382.12  280.47
   2 -10  -7 5250.01  266.38
   2 -10  -7 5489.65  297.34
   2  10  -7 5127.91  267.00
   2  10  -7 5210.27  288.54
   2  10  -7 5362.61  327.21
  -2 -10   7 5377.14  312.43
  -2 -10   7 5506.17  269.56
   2 -10  -7 5135.40  279.61
   2 -10  -8  -18.17   24.04
  -2 -10   8   -6.16   30.01
   2  10  -8   62.46   33.08
   2  10  -8  -18.97   34.07
  -2  10   8  -22.19   30.71
  -2 -10   8    9.78   23.19
   2 -10  -8   30.72   34.72
   2 -10  -8   45.66   27.06
   2  10  -9 5205.62  303.05
   2  10  -9 5176.17  328.34
  -2  10   9 4865.39  266.72
  -2 -10   9 4494.25  259.91
   2 -10  -9 5071.12  327.73
   2  11  -114947.90  560.83
   2  11  -116002.34  529.32
   2  11  -115480.18  654.04
  -2  11   116088.05  561.85
  -2  11   114939.50  529.89
  -2  11   115568.88  574.28
  -2 -11   115113.00  583.11
   2 -11  -116175.09  555.29
   2 -11  -115262.40  608.64
  -2 -11   116386.35  583.98
  -2  11   115599.91  604.54
   2 -11  -115327.46  663.80
  -2  11   115202.58  576.06
  -2 -11   116248.09  745.52
   2  11  -115862.81  616.79
   2  11  -2  721.52   40.77
   2  11  -2  680.73   66.62
   2  11  -2  673.39   54.20
  -2  11   2  666.45   39.02
  -2  11   2  645.33   48.01
  -2  11   2  752.87   39.38
  -2 -11   2  737.79   71.97
  -2 -11   2  752.15   46.77
  -2 -11   2  636.80   48.69
   2 -11  -2  669.43   44.77
   2 -11  -2  689.02   47.08
  -2  11   2  697.12   51.40
  -2  11   2  724.77   66.63
   2  11  -2  663.63   46.08
   2  11  -3 9675.25  400.23
   2  11  -3 9566.78  406.26
  -2  11   3 9874.26  409.74
  -2  11   3 9173.93  326.87
  -2  11   3 9894.97  408.22
  -2  11   3 9485.21  432.84
  -2  11   3 8670.54  403.60
  -2 -11   3 9548.58  360.15
  -2 -11   3 9721.36  438.10
  -2 -11   310036.70  404.80
   2 -11  -3 9754.71  449.09
   2  11  -310022.78  449.49
  -2  11   3 9555.31  330.66
   2  11  -4  439.46   38.23
   2  11  -4  483.92   54.26
   2  11  -4  441.00   46.73
  -2  11   4  530.61   55.06
  -2  11   4  470.82   38.70
  -2 -11   4  375.15   40.30
  -2 -11   4  568.70   62.64
   2 -11  -4  380.89   42.28
  -2 -11   4  464.13   60.84
   2  11  -5 5326.33  299.59
   2  11  -5 6080.60  325.44
   2  11  -5 6036.82  277.70
  -2  11   5 5950.39  257.04
  -2 -11   5 5999.35  301.66
  -2 -11   5 6216.23  302.52
   2 -11  -5 5861.05  304.74
  -2  11   5 5835.18  280.76
   2 -11  -5 5946.56  305.39
   2  11  -6  527.54   61.13
   2  11  -6  498.60   54.74
  -2 -11   6  518.96   66.13
  -2 -11   6  521.49   49.87
   2 -11  -6  539.27   62.78
   2  11  -6  518.73   47.85
  -2  11   6  517.80   45.35
  -2  11   6  595.71   65.76
   2 -11  -6  490.46   49.55
   2  11  -7 6077.16  350.93
   2  11  -7 6611.50  374.73
  -2  11   7 6785.78  365.28
  -2 -11   7 6334.75  317.91
   2 -11  -7 6612.23  390.34
   2 -11  -7 6272.04  296.39
   2 -11  -7 6335.42  329.74
  -2 -11   7 6609.40  307.86
   2  11  -7 6987.92  354.24
   2  11  -8   82.77   36.68
   2  11  -8  176.20   42.42
  -2  11   8   82.88   47.18
  -2 -11   8   68.93   33.04
  -2 -11   8   64.54   29.00
   2 -11  -8   68.90   37.25
   2 -11  -8   54.60   29.27
   2  11  -9 1329.23  134.40
   2 -11  -9 1330.08  140.63
   2  11  -9 1384.37  124.41
  -2  11   9 1223.38  105.82
  -2 -11   9 1175.13  102.19
  -2  12   1 2012.24  112.10
   2  12  -1 2037.11  112.10
   2  12  -1 2184.57  162.86
   2  12  -1 2068.66  103.28
  -2  12   1 1971.02  105.95
  -2  12   1 2037.20  103.93
  -2 -12   1 2019.23  124.64
  -2 -12   1 2191.79  118.83
  -2 -12   1 2039.09  114.73
   2 -12  -1 2129.26  109.11
  -2  12   1 2008.07  116.00
  -2  12   1 2031.02  124.59
   2 -12  -1 1971.24  122.85
   2  12  -1 1995.71   87.16
   2  12  -2   87.47   12.79
   2  12  -2   83.91   22.82
  -2  12   2   70.09   17.97
  -2  12   2   57.02   17.41
  -2 -12   2   84.62   20.42
   2 -12  -2   79.69   31.66
   2 -12  -2   78.21   18.68
  -2  12   2   59.58   21.77
  -2  12   2   70.28   14.12
   2  12  -2   77.13   18.70
   2  12  -2   52.14   12.77
  -2 -12   2  114.49   29.36
   2  12  -316515.69  737.89
   2  12  -316683.12  689.47
  -2  12   316347.17  735.96
  -2  12   316034.25  599.49
  -2  12   315257.95  567.58
  -2 -12   315900.38  628.00
   2 -12  -316341.77  663.12
  -2  12   315630.70  560.12
   2  12  -316433.85  581.56
  -2  12   316522.06  689.13
  -2 -12   316981.16  685.66
  -2 -12   315659.39  588.80
   2  12  -4 1393.52   88.11
   2  12  -4 1651.66   99.22
  -2  12   4 1623.21  128.99
  -2  12   4 1475.11   74.70
   2 -12  -4 1525.32   91.44
  -2 -12   4 1767.68  102.19
  -2 -12   4 1664.76  130.25
  -2  12   4 1527.33   99.47
   2  12  -4 1509.81  113.35
   2  12  -5 5494.16  273.60
  -2  12   5 5711.82  327.70
  -2  12   5 5663.22  279.18
  -2 -12   5 5560.03  305.66
   2 -12  -5 5198.71  288.32
   2 -12  -5 5785.72  308.05
   2  12  -5 5699.26  297.53
  -2 -12   5 5704.56  284.54
   2  12  -5 5616.77  274.66
   2  12  -6   20.07   16.84
   2  12  -6    5.51   26.93
  -2  12   6  -29.81   27.37
  -2 -12   6   34.70   23.48
   2 -12  -6    6.22   24.90
  -2 -12   6   57.87   29.98
   2 -12  -6   15.70   35.04
   2  12  -6   18.99   24.15
   2  12  -7  -12.13   36.39
  -2  12   7   42.39   34.04
  -2 -12   7   17.83   30.55
  -2 -12   7   43.18   23.01
   2 -12  -7    8.06   24.53
   2 -12  -7   84.39   35.91
   2  12  -7   23.58   35.81
   2  12  -8 1931.18  167.16
   2  12  -8 1841.32  152.21
  -2 -12   8 1982.06  174.09
   2 -12  -8 1869.16  169.18
  -2  12   8 1847.05  152.82
   2  12  -9  675.45   90.19
   2  12  -9  458.54   72.96
  -2 -12   9  629.09   79.89
  -2  12   9  657.95   87.37
   2  13  -1 6226.99  259.23
   2  13  -1 6432.91  347.83
   2  13  -1 6311.51  275.19
  -2  13   1 6358.69  393.70
  -2  13   1 6453.73  267.79
  -2  13   1 6404.54  268.22
  -2 -13   1 6010.14  243.21
   2 -13  -1 6359.88  288.84
   2 -13  -1 6638.14  270.28
  -2 -13   1 6356.35  308.19
  -2 -13   1 6585.20  281.55
   2  13  -1 6291.91  254.32
  -2  13   1 6289.57  244.75
  -2  13   1 5963.56  277.10
   2  13  -2   50.91   18.94
  -2  13   2   76.75   28.31
  -2  13   2   39.66   13.84
  -2 -13   2   88.09   30.08
  -2 -13   2   65.02   22.23
   2 -13  -2   55.56   15.97
   2 -13  -2  102.31   32.19
   2  13  -2   55.65   11.89
  -2  13   2   78.96   19.57
   2  13  -2   56.72   20.02
   2  13  -3 1872.69  106.53
   2  13  -3 1945.28  115.61
  -2  13   3 1944.84  116.44
  -2  13   3 1780.82   89.80
  -2 -13   3 1991.18  129.02
  -2 -13   3 2038.48  125.90
   2 -13  -3 1924.32  118.89
   2  13  -3 2041.31  126.40
  -2  13   3 1823.66  105.65
   2  13  -4  558.30   46.39
   2  13  -4  561.01   52.58
  -2  13   4  626.46   63.92
  -2  13   4  543.30   55.22
  -2  13   4  483.76   42.33
  -2 -13   4  597.99   57.38
   2 -13  -4  681.33   65.79
   2  13  -4  585.73   54.10
  -2 -13   4  644.92   59.54
   2  13  -5 1320.21   87.92
  -2  13   5 1225.52  105.95
  -2  13   5 1272.78   84.36
  -2 -13   5 1409.89  113.80
   2 -13  -5 1350.87  109.41
   2  13  -5 1307.51  107.49
   2  13  -5 1225.73  110.10
  -2 -13   5 1373.11   97.29
   2  13  -6 7027.36  360.20
  -2  13   6 7379.35  414.02
   2 -13  -6 6732.69  356.33
   2 -13  -6 7028.59  374.82
  -2 -13   6 7097.37  322.33
  -2 -13   6 7475.25  393.22
   2  13  -6 7509.49  381.13
   2  13  -7  764.55   83.49
  -2  13   7  735.01   69.28
   2 -13  -7  668.12   66.67
   2 -13  -7  749.76   80.82
   2  13  -7  745.87   76.12
  -2 -13   7  766.12   94.30
   2  13  -8  846.86   82.20
   2  13  -8  958.24  118.77
  -2  13   8  988.53   93.35
  -2 -13   8  912.23   85.78
   2 -13  -8  786.64  103.20
  -2 -14   1  539.66   35.92
  -2  14   1  544.89   41.29
   2  14  -1  578.24   42.14
   2  14  -1  535.04   56.70
   2  14  -1  604.74   39.21
  -2  14   1  591.19   59.15
  -2  14   1  576.13   44.76
  -2 -14   1  562.19   53.51
  -2 -14   1  729.92   58.73
   2 -14  -1  720.31   73.68
   2 -14  -1  711.61   75.62
  -2 -14   2   -9.46   11.57
   2  14  -2   -5.70   11.57
   2  14  -2  -23.02   11.59
   2  14  -2    4.79   11.57
  -2  14   2  -13.36   11.60
  -2  14   2   -0.96   11.57
  -2 -14   2   27.36   11.57
   2 -14  -2   46.25   11.58
   2 -14  -2   -1.40   11.57
  -2  14   2    7.27   11.58
   2  14  -3  127.84   18.12
   2  14  -3  137.24   37.71
   2  14  -3  139.25   24.66
  -2  14   3  143.46   26.12
  -2  14   3  110.96   20.38
   2 -14  -3  136.72   29.35
  -2  14   3  197.06   41.11
  -2 -14   3  159.18   36.11
  -2 -14   3  126.86   23.04
   2 -14  -4 3368.15  215.20
   2  14  -4 3711.16  229.78
   2  14  -4 3528.93  192.87
  -2  14   4 3525.56  222.53
  -2  14   4 3875.52  209.73
  -2 -14   4 3672.81  210.17
  -2 -14   4 3945.22  191.47
  -2 -14   5 3051.20  184.40
   2  14  -5 2901.55  192.33
  -2  14   5 3134.74  220.32
  -2  14   5 3083.92  185.50
  -2 -14   5 3066.93  217.00
   2 -14  -5 3011.47  193.97
   2  14  -5 3073.67  192.50
   2  14  -6  893.86   98.09
   2  14  -6  887.75   74.08
  -2  14   6  907.41   90.47
  -2 -14   6  989.36   90.07
   2 -14  -6  897.22   76.40
  -2  14   6  993.30  101.76
  -2  14   7 2876.11  184.61
  -2 -14   7 2619.53  199.26
   2 -14  -7 2797.69  206.64
   2 -14  -7 2520.07  190.56
   2  14  -7 2632.62  159.33
   2  14  -7 2817.65  216.28
   2  14  -8  906.07   94.11
   2  14  -8  684.10   85.73
  -2  14   8  740.05   92.51
  -2 -14   8  801.09   87.36
   2 -14  -8  742.30  101.17
  -2  15   1 4887.51  250.68
  -2  15   1 4600.81  210.92
   2  15  -1 4553.96  229.55
   2  15  -1 4768.56  216.97
  -2  15   1 4711.52  202.14
  -2 -15   1 4876.18  245.46
   2 -15  -1 4934.79  262.78
   2  15  -1 4832.74  228.12
  -2 -15   1 4791.48  278.14
   2 -15  -1 4896.08  292.29
  -2 -15   2 1338.02  110.34
   2 -15  -2 1090.07   72.96
  -2  15   2 1193.26   67.64
   2  15  -2 1155.57   71.73
   2  15  -2 1362.88  109.61
   2  15  -2 1099.51   70.40
  -2  15   2 1275.03   98.85
  -2 -15   2 1296.59  105.50
   2 -15  -2 1191.14   89.32
   2 -15  -3 2064.33  127.91
  -2 -15   3 2336.53  156.84
  -2  15   3 2228.75  131.20
   2  15  -3 2117.17  158.97
  -2  15   3 2254.73  163.19
  -2 -15   3 2088.53  155.52
   2  15  -3 2148.41  121.15
   2  15  -4  199.27   37.25
   2  15  -4  165.34   29.02
  -2  15   4  224.49   32.62
  -2 -15   4  166.84   41.94
  -2 -15   4  140.94   26.08
   2 -15  -4  120.49   34.97
  -2  15   4  214.58   46.00
   2  15  -5  378.40   47.50
  -2  15   5  382.05   53.60
  -2 -15   5  471.07   68.89
   2  15  -5  418.70   57.16
  -2  15   5  337.84   56.34
   2 -15  -5  350.46   46.77
  -2 -15   6 1699.93  135.84
  -2  15   6 1804.49  142.30
  -2  15   6 1581.53  137.26
   2 -15  -6 1680.57  122.91
   2  15  -6 1626.91  140.71
   2  15  -6 1946.39  155.14
   2  15  -7  248.01   45.56
  -2  15   7  290.90   63.77
  -2  15   7  245.68   51.81
   2 -15  -7  240.25   44.08
  -2 -15   7  356.76   62.99
   2  15  -7  261.44   49.21
  -2  15   8   18.43   29.47
   2  15  -8   44.76   40.48
   2  15  -8   34.73   27.99
  -2 -15   8   -2.12   26.62
   2  16  -1   30.11   15.37
  -2 -16   1   34.32   26.98
   2 -16  -1   41.20   22.12
   2  16  -1   31.60   24.52
  -2  16   1   16.07   29.73
   2 -16  -1   32.47   32.67
  -2 -16   1   36.00   15.87
   2  16  -2   31.85   16.05
  -2  16   2   14.22   26.84
  -2  16   2   34.08   14.76
  -2 -16   2   -0.72   28.61
  -2 -16   2   19.73   17.94
   2 -16  -2    1.99   14.88
   2 -16  -2   33.91   29.20
   2  16  -2  -10.87   20.27
   2  16  -3 2662.32  190.09
   2  16  -3 2718.33  150.86
  -2  16   3 2960.02  167.78
  -2  16   3 2562.54  140.62
   2 -16  -3 2649.85  157.96
  -2 -16   3 2657.31  153.01
  -2 -16   3 2817.28  153.05
  -2  16   4 1153.10  100.33
  -2  16   4 1250.54  100.01
  -2 -16   4 1086.08  128.91
   2 -16  -4 1227.34  112.84
   2  16  -4 1200.95  104.27
   2  16  -4 1118.33  110.30
   2  16  -5  614.83   69.26
   2  16  -5  649.93   83.24
  -2  16   5  551.71   72.80
  -2  16   5  567.34   63.84
  -2 -16   5  556.49   66.63
   2 -16  -5  581.21   63.45
   2  16  -6  226.78   41.66
  -2  16   6  257.65   49.90
  -2 -16   6  275.48   48.25
  -2  16   6  268.08   50.97
   2 -16  -6  240.98   42.99
   2  16  -6  270.44   48.81
   2  16  -7  299.12   63.26
   2  16  -7  377.12   62.37
  -2  16   7  426.21   58.85
  -2  16   7  397.86   57.71
  -2 -16   7  268.91   55.02
   2  17  -1 3581.30  201.94
  -2 -17   1 3277.65  199.74
  -2 -17   1 3250.66  179.88
   2 -17  -1 3286.24  217.39
  -2  17   1 3452.30  198.51
   2 -17  -1 3331.53  213.46
   2  17  -2 2770.18  230.00
  -2  17   2 2759.29  194.08
  -2 -17   2 2775.59  193.56
  -2 -17   2 2787.63  195.72
   2 -17  -2 2794.50  182.03
   2 -17  -2 2749.41  172.60
  -2  17   3  625.02   72.76
  -2  17   3  637.06   53.28
  -2 -17   3  744.88   77.20
   2 -17  -3  687.27   77.60
   2  17  -3  633.27   77.65
   2  17  -4  757.21   90.54
  -2  17   4  751.88   76.89
  -2 -17   4  737.06   81.93
   2 -17  -4  626.16   68.60
  -2  17   4  784.36   81.40
   2  17  -4  641.54   66.13
   2  17  -5    5.19   22.58
  -2  17   5   23.82   37.04
  -2  17   5   54.15   26.61
  -2 -17   5   29.16   34.58
   2  17  -5    6.75   28.42
   2 -17  -5   10.53   30.41
   2  17  -6  536.47   82.09
   2  17  -6  567.57   74.54
  -2 -17   6  674.25   82.06
   2 -17  -6  649.85   73.65
  -2  17   6  619.76   84.18
  -2  17   6  703.89   68.59
   2  17  -7  666.40   86.96
  -2  17   7  532.95   77.25
  -2  17   7  577.44   76.39
   2  18  -1   95.38   32.22
  -2  18   1   47.29   30.10
  -2 -18   1   93.28   38.04
   2 -18  -1  120.44   37.22
  -2 -18   1   74.62   24.01
   2 -18  -1   77.89   24.90
   2  18  -2   -7.16   26.80
  -2  18   2   41.98   32.44
  -2 -18   2   21.03   24.14
   2 -18  -2   82.00   34.03
   2  18  -3   15.87   25.66
  -2 -18   3   17.51   30.00
   2 -18  -3   36.42   32.71
  -2  18   3    9.83   30.13
   2  18  -4 1523.46  176.51
  -2  18   4 1430.48  119.33
  -2 -18   4 1470.27  148.52
   2 -18  -4 1428.84  108.41
  -2  18   5  230.10   53.05
  -2 -18   5  205.54   56.22
   2 -18  -5  200.96   39.38
   2  18  -5  219.52   53.93
  -2  18   5  148.50   39.85
   2  18  -6 1050.03  116.46
  -2  18   6  858.90   97.48
   2 -18  -6  689.46   82.05
  -2 -18   6  939.48  115.09
   2 -19  -1   95.95   25.09
  -2 -19   1  103.59   34.01
   2  19  -1   91.20   41.12
  -2  19   1   87.36   28.03
   2 -19  -1  104.23   39.70
  -2 -19   2  368.21   57.87
   2  19  -2  440.79   61.73
   2 -19  -2  389.84   58.99
  -2  19   2  447.69   54.90
   2  19  -3  180.05   44.09
  -2 -19   3  147.87   39.45
  -2  19   3  252.35   49.71
   2 -19  -3  175.90   33.22
   2  19  -4   77.54   35.03
  -2 -19   4   34.33   26.79
   2 -19  -4   65.94   32.89
  -2  19   4   19.16   37.92
  -2 -19   5   32.25   34.12
   2 -19  -5   82.09   37.74
  -2  19   5   22.62   32.71
   2  19  -5   16.73   33.81
   2 -19  -6 1215.32  101.58
   2  20  -1 2448.98  191.81
  -2  20   1 2631.41  186.83
   2 -20  -1 2647.78  178.74
  -2 -20   1 2440.25  215.25
   2  20  -2  543.90   85.28
  -2 -20   2  480.39   66.85
  -2  20   2  584.94   85.01
   2 -20  -2  497.66   66.98
   2  20  -3  242.59   52.54
  -2  20   3  214.98   47.72
  -2 -20   3  216.23   45.67
   2 -20  -3  171.89   37.06
  -2  20   4 1169.38  112.00
   2 -20  -4 1162.83  107.22
  -2 -20   4 1339.88  151.30
   2  20  -4 1266.33  138.09
  -2  20   5    2.36   39.19
   2 -20  -5   27.12   28.56
  -2  21   1  262.66   49.04
  -2 -21   1  238.22   44.53
   2 -21  -1  208.76   46.13
   2  21  -1  236.95   51.67
   2  21  -2  175.39   47.47
  -2  21   2  299.60   63.64
  -2 -21   2  253.70   62.47
   2 -21  -2  212.54   50.68
  -2  21   3  192.87   42.13
  -2 -21   3  166.45   48.07
   2  21  -3  196.01   53.11
   2 -21  -3  239.16   44.84
  -2  21   4   97.55   39.68
  -2 -21   4  160.31   44.12
   2 -21  -4   70.87   30.45
   2  22  -1   24.24   33.61
  -2  22   1   85.57   38.49
  -2 -22   1   46.70   30.32
  -2  22   1   41.50   28.16
   2  22  -2  158.01   39.63
  -2  22   2  189.39   46.94
   2 -22  -2  130.99   42.73
  -2 -22   2  134.58   43.64
  -2  22   3  922.53  120.54
   2 -22  -3 1004.90  110.28
   1   0  -114205.15  520.56
   1   0  -113825.98  475.64
   1   0  -114933.70  594.41
   1   0  -113978.44  551.68
  -1   0   114256.22  493.26
  -1   0   114144.83  532.74
  -1   0   114111.19  600.22
  -1   0   114428.15  521.59
   1   0  -114836.86  539.12
  -1   0   114618.58  522.75
  -1   0   2    2.87   13.99
  -1   0   2  -18.11   14.03
   1   0  -2  -21.56   14.04
   1   0  -2   -5.69   14.07
   1   0  -2    7.32   14.04
   1   0  -2   -6.00   14.03
   1   0  -2    0.04   13.99
  -1   0   2    0.52   14.06
  -1   0   2    2.80   14.05
  -1   0   2   -2.16   14.03
  -1   0   353559.68 1760.68
   1   0  -355944.66 1904.05
   1   0  -353006.63 1826.76
   1   0  -352449.99 1766.29
   1   0  -350117.42 1793.61
   1   0  -352657.48 1762.07
  -1   0   356563.95 1820.57
  -1   0   354879.18 1991.79
  -1   0   350459.00 1826.88
  -1   0   355057.35 1804.34
   1   0  -4   -8.06   16.60
   1   0  -4   -8.51   13.08
   1   0  -4   10.01   10.41
   1   0  -4   -2.60   20.86
  -1   0   4    5.28   11.49
  -1   0   4   27.24   12.76
  -1   0   4   -3.37   12.94
  -1   0   4   -4.72   21.20
   1   0  -528948.94 1225.38
   1   0  -529495.25 1041.45
   1   0  -528152.14 1045.69
   1   0  -529025.35 1051.84
  -1   0   527777.26 1023.03
  -1   0   529219.35 1134.84
  -1   0   6   23.14   19.70
   1   0  -6   10.50   18.35
   1   0  -6  -10.80   17.47
   1   0  -6   11.08   23.24
  -1   0   6   35.11   21.04
  -1   0   7  543.38   56.29
  -1   0   7  492.09   51.99
   1   0  -7  571.44   43.19
   1   0  -7  586.34   53.29
   1   0  -7  533.75   57.68
  -1   0   8  -17.87   21.55
   1   0  -8   23.19   32.47
   1   0  -8    2.37   20.32
   1   0  -8   -2.40   24.52
  -1   0   8   19.42   18.78
   1   0  -9 2360.96  192.54
   1   0  -9 2383.59  152.99
   1   0  -9 2490.38  187.98
  -1   0   9 2440.49  165.44
  -1   0   9 2689.13  168.46
   1   0 -10  -12.09   30.21
   1   0 -10  -25.59   30.18
  -1   0  10   43.63   30.33
   1   1  -163100.67 2071.07
   1   1  -3 5228.45  237.64
   1   1  -3 5584.52  253.08
   1   1  -3 5443.81  253.68
   1   1  -3 5629.13  273.85
   1   1  -3 5458.44  237.40
  -1   1   3 5546.00  308.59
  -1   1   3 5614.48  256.00
  -1   1   3 5325.76  231.46
  -1   1   3 5762.18  245.69
  -1  -1   3 5608.59  205.67
  -1  -1   3 5375.35  225.66
  -1  -1   3 5129.20  238.45
  -1  -1   3 5254.55  241.36
   1  -1  -3 5595.07  300.03
   1  -1  -3 5460.62  215.88
  -1   1   3 5425.58  256.09
  -1  -1   3 5467.02  278.06
   1  -1  -3 5404.17  263.88
   1  -1  -3 5241.90  291.93
   1  -1  -3 5347.74  250.13
   1   1  -437165.20 1401.58
   1   1  -436007.81 1267.97
   1   1  -438123.63 1265.65
   1   1  -435532.34 1307.88
  -1   1   437251.88 1276.61
  -1   1   436294.39 1314.31
  -1  -1   436971.76 1401.39
  -1  -1   438135.30 1362.14
  -1  -1   436504.55 1345.18
  -1  -1   438469.95 1384.38
   1  -1  -436418.58 1393.03
   1  -1  -437324.57 1330.58
   1  -1  -437315.11 1280.92
   1  -1  -436390.84 1446.30
  -1   1   437742.84 1235.62
   1   1  -5 2678.33  134.67
   1   1  -5 2533.46  125.46
  -1   1   5 2809.20  178.17
   1  -1  -5 2762.23  164.91
   1  -1  -5 2768.35  138.12
   1  -1  -5 2570.62  150.29
   1  -1  -5 2710.61  134.66
   1   1  -5 2762.83  145.04
   1   1  -5 2617.34  172.30
  -1   1   5 2688.60  144.59
  -1  -1   5 2564.48  161.23
  -1  -1   5 2630.22  143.28
   1   1  -6 1950.87  120.49
   1   1  -6 1953.29  110.82
  -1   1   6 1847.04   88.08
  -1   1   6 1715.70   96.23
  -1  -1   6 1825.25  106.91
  -1  -1   6 1789.80  123.82
   1  -1  -6 2013.84  132.65
   1  -1  -6 1664.95  138.12
   1  -1  -6 1761.69  111.62
   1   1  -6 1835.24  118.54
   1   1  -7 5168.76  251.71
   1   1  -7 5115.51  211.56
   1   1  -7 5095.12  273.51
  -1   1   7 4979.97  276.53
  -1   1   7 5084.55  224.50
  -1  -1   7 4658.25  253.69
  -1  -1   7 5393.04  293.28
   1  -1  -7 5049.02  337.16
   1  -1  -7 4798.57  274.18
   1  -1  -7 5286.79  245.97
   1   1  -8    8.36   27.52
   1   1  -8   11.40   21.23
  -1   1   8    9.77   32.69
  -1  -1   8   16.14   21.10
  -1  -1   8   48.31   18.47
   1  -1  -8   20.75   21.03
   1  -1  -8   12.70   24.84
   1   1  -8   44.95   30.90
  -1   1   8   10.17   16.49
   1  -1  -8   21.75   22.19
   1   1  -9  328.50   55.26
   1   1  -9  380.73   49.51
   1   1  -9  402.88   53.89
  -1   1   9  413.95   56.45
  -1  -1   9  288.48   36.93
  -1  -1   9  385.61   55.58
   1  -1  -9  359.14   56.92
   1  -1  -9  363.91   54.15
   1  -1  -9  290.21   51.72
   1   1 -10   34.88   30.57
   1   1 -10  139.93   39.42
  -1   1  10   81.54   47.46
  -1  -1  10   50.61   27.73
   1  -1 -10   77.71   38.20
   1  -1 -10   39.06   31.48
   1  -2  -153040.80 1783.43
   1  -2  -153144.61 1788.53
  -1  -2   154898.00 1751.16
  -1   2   2 1293.46   73.64
  -1  -2   2 1335.05   69.22
  -1  -2   2 1280.07   74.30
  -1  -2   2 1384.13   83.53
   1  -2  -2 1312.96   85.33
   1  -2  -2 1239.36   47.98
   1   2  -2 1301.24   70.89
   1   2  -2 1298.55   78.98
   1   2  -2 1324.58   75.51
   1   2  -2 1372.71   75.83
  -1   2   2 1342.86   87.81
  -1   2   2 1369.64   97.45
  -1   2   2 1128.51   56.17
  -1   2   2 1250.75   79.58
  -1  -2   2 1382.74   91.43
  -1  -2   2 1437.51   94.69
   1  -2  -2 1282.50   71.78
   1  -2  -2 1387.75   88.70
   1  -2  -2 1358.10   80.67
   1   2  -2 1357.34   79.95
   1   2  -310832.57  430.75
   1   2  -310195.92  428.71
   1   2  -310810.79  435.47
   1   2  -310441.01  526.82
   1   2  -310425.60  500.43
  -1   2   310908.05  449.89
  -1   2   310328.98  424.67
  -1   2   3 9811.12  359.28
  -1   2   310431.57  462.96
  -1  -2   310545.12  469.15
  -1  -2   310608.73  444.55
  -1  -2   3 9899.46  447.94
  -1  -2   310718.72  502.53
   1  -2  -310430.87  401.12
   1  -2  -310289.68  456.75
   1  -2  -3 9908.70  369.72
   1  -2  -310482.31  489.55
   1  -2  -310371.74  430.23
  -1  -2   310379.52  406.02
  -1   2   311068.26  404.79
   1   2  -432865.46 1243.17
  -1   2   433145.56 1278.72
  -1   2   430922.53 1079.09
  -1   2   432850.32 1303.20
  -1   2   432741.86 1185.11
  -1  -2   432771.09 1121.30
  -1  -2   431538.09 1247.81
  -1  -2   430962.07 1191.16
   1  -2  -431722.60 1198.56
   1  -2  -432565.12 1213.71
   1  -2  -431944.43 1243.18
   1   2  -433178.79 1193.04
   1  -2  -432171.88 1173.79
   1   2  -433210.89 1230.27
   1   2  -432537.21 1239.71
   1   2  -432608.29 1262.51
  -1  -2   433811.54 1106.21
   1   2  -5 8306.70  374.61
  -1   2   5 8112.29  377.51
  -1   2   5 8333.70  346.34
  -1   2   5 8117.65  385.07
  -1  -2   5 8467.06  379.70
  -1  -2   5 8519.60  370.51
   1  -2  -5 8263.20  336.92
   1  -2  -5 8368.88  378.60
   1  -2  -5 8298.90  361.70
   1   2  -5 9338.92  474.43
   1   2  -5 8638.25  402.44
   1  -2  -5 8592.42  345.43
   1   2  -6 2546.97  129.04
   1   2  -6 2591.96  132.61
   1   2  -6 2525.03  176.08
  -1   2   6 2389.30  140.09
  -1   2   6 2480.62  155.44
  -1  -2   6 2610.20  161.21
  -1  -2   6 2569.92  155.35
   1  -2  -6 3077.57  197.58
   1  -2  -6 2247.14  123.29
   1  -2  -6 2504.71  168.62
   1  -2  -6 2565.99  140.04
   1   2  -7   11.33   26.51
   1   2  -7   15.04   20.53
   1   2  -7    7.87   21.09
  -1   2   7  -10.41   15.74
  -1   2   7  -17.42   19.71
   1  -2  -7   14.88   20.36
   1  -2  -7   21.32   21.12
   1  -2  -7   36.54   23.19
  -1  -2   7   31.37   20.19
  -1  -2   7   -1.20   20.30
   1   2  -8   93.40   26.64
   1   2  -8   82.56   25.27
   1   2  -8   97.31   33.57
  -1   2   8   56.59   19.41
  -1   2   8   76.50   35.61
  -1  -2   8   49.89   22.94
  -1  -2   8   62.64   28.00
   1  -2  -8   40.65   28.66
   1  -2  -8   95.57   22.87
   1  -2  -8   61.40   31.64
  -1   2   9 1840.85  132.31
  -1  -2   9 1957.19  135.16
   1  -2  -9 1716.24  146.93
   1  -2  -9 1875.80  123.51
   1  -2  -9 1850.81  127.11
   1   2  -9 1842.97  126.71
   1   2  -9 1848.29  145.00
   1   2  -9 1754.84  129.32
  -1  -2   9 1592.99  116.71
   1   2 -10  161.81   45.06
   1   2 -10  200.14   52.37
  -1   2  10  208.24   47.81
  -1  -2  10  180.91   43.72
   1  -2 -10  155.47   43.49
   1  -2 -10  221.73   43.15
  -1   3   1 8726.51  364.61
  -1   3   1 9044.02  324.46
   1   3  -1 8777.15  389.15
  -1   3   1 8991.27  298.90
   1   3  -1 8888.15  318.60
   1   3  -1 8818.76  342.99
   1   3  -1 9323.10  355.86
   1   3  -1 9301.20  338.03
  -1   3   1 8643.53  383.12
  -1   3   1 9259.71  338.29
  -1  -3   1 8473.95  297.96
  -1  -3   1 9135.47  362.35
  -1  -3   1 8730.94  376.27
  -1  -3   1 8657.01  367.43
  -1  -3   1 8514.15  343.36
   1  -3  -1 8871.22  360.90
   1  -3  -1 8661.19  319.12
   1  -3  -1 8891.44  293.85
   1  -3  -1 9047.16  321.97
  -1   3   1 9181.59  398.83
  -1  -3   215548.99  517.60
  -1   3   214875.52  552.63
  -1  -3   214079.67  572.68
  -1   3   215311.78  561.53
   1   3  -214848.67  589.61
   1   3  -215101.48  557.90
  -1   3   215108.06  578.93
  -1   3   214030.80  586.32
  -1  -3   214404.76  592.38
   1  -3  -214665.69  582.45
   1   3  -214339.73  519.74
   1   3  -214933.63  547.48
   1   3  -215309.24  558.36
  -1  -3   214794.58  534.66
   1  -3  -214150.36  630.72
   1  -3  -214342.05  566.96
   1  -3  -214646.81  546.24
  -1  -3   215204.06  573.55
  -1  -3   3 1860.07  106.08
  -1  -3   3 1875.17  102.38
   1  -3  -3 1893.60  109.74
  -1  -3   3 1873.53  101.58
   1   3  -3 1818.05   85.75
   1   3  -3 1910.90  108.66
   1   3  -3 1962.99  105.83
   1   3  -3 1837.89  118.35
   1   3  -3 1902.38   99.71
  -1   3   3 1893.28  130.78
  -1   3   3 1908.73   98.83
  -1   3   3 1819.00   75.92
  -1   3   3 1822.72  125.15
  -1   3   3 1953.13  102.56
  -1  -3   3 1807.38  101.03
  -1  -3   3 1898.46  120.49
   1  -3  -3 1808.42   80.87
   1  -3  -3 1840.39  136.58
   1  -3  -3 1890.22  111.02
   1  -3  -3 1838.41  100.28
   1   3  -4 2258.94  135.64
   1   3  -4 2306.68  139.95
   1   3  -4 2433.30  132.02
   1   3  -4 2250.74  131.10
   1   3  -4 2475.48  150.05
  -1   3   4 2417.90   89.79
  -1   3   4 2276.36   97.72
  -1   3   4 2295.66  148.08
  -1   3   4 2283.85  114.14
  -1  -3   4 2266.30  118.81
  -1  -3   4 2356.00  117.72
  -1  -3   4 2278.15  133.56
   1  -3  -4 2220.87  123.56
   1  -3  -4 2253.84  126.14
   1  -3  -4 2331.26  114.15
   1  -3  -4 2232.37  110.82
   1  -3  -5 5666.58  261.89
  -1  -3   5 6117.11  300.77
  -1   3   5 5608.97  212.26
  -1   3   5 5781.39  296.42
   1  -3  -5 6827.69  433.23
   1   3  -5 7044.75  437.92
   1   3  -5 4939.48  310.77
   1   3  -5 5771.67  275.87
  -1   3   5 5402.59  243.79
   1  -3  -5 5753.80  238.11
   1  -3  -5 5693.18  226.11
   1   3  -6 9322.17  450.76
  -1   3   6 9413.01  373.12
   1   3  -6 9482.70  393.14
   1   3  -6 9694.00  418.86
   1  -3  -6 9314.47  423.91
   1  -3  -6 9980.26  428.31
   1  -3  -6 9273.80  421.73
  -1   3   6 9419.23  418.32
  -1  -3   6 9397.22  421.33
  -1  -3   6 9829.12  420.48
   1  -3  -6 8562.33  341.84
   1   3  -7 5209.51  265.16
   1   3  -7 5147.22  241.95
   1   3  -7 5155.02  269.12
  -1   3   7 4852.09  251.21
  -1   3   7 5011.26  276.65
  -1  -3   7 4847.09  227.90
  -1  -3   7 4919.92  232.13
   1  -3  -7 4768.57  243.40
   1  -3  -7 5083.22  233.75
   1  -3  -7 5089.56  280.93
   1   3  -8  792.67   73.63
   1   3  -8  696.98   73.56
   1   3  -8  687.00   75.17
  -1   3   8  652.67   52.58
  -1   3   8  563.56   59.27
  -1  -3   8  768.04   70.01
  -1  -3   8  727.80   55.48
   1  -3  -8  660.58   75.20
   1  -3  -8  749.89   64.93
   1  -3  -8  714.97   65.14
   1   3  -9  565.58   62.59
   1   3  -9  516.68   53.07
   1   3  -9  617.77   61.66
  -1   3   9  499.26   72.79
  -1  -3   9  488.20   48.63
  -1  -3   9  670.75   77.57
   1  -3  -9  622.96   73.66
   1  -3  -9  551.80   50.14
   1  -3  -9  478.22   66.59
   1   3 -10  253.57   95.80
   1  -3 -10  144.12   37.85
   1   3 -10  193.69   48.54
  -1   3  10  172.71   47.03
  -1  -3  10  132.26   41.15
   1  -3 -10   70.29   36.90
   1   4  -140856.42 1447.04
   1   4  -143260.55 1656.53
   1   4  -142574.28 1387.07
   1   4  -140877.52 1442.07
  -1   4   141022.50 1489.35
  -1   4   142792.39 1447.71
  -1   4   141622.12 1508.56
  -1   4   141523.14 1355.99
  -1   4   140421.67 1403.99
  -1   4   141049.18 1402.55
  -1   4   142643.15 1385.51
  -1  -4   141143.02 1340.31
  -1  -4   143557.27 1523.53
  -1  -4   141690.36 1477.02
  -1  -4   140524.69 1454.42
  -1  -4   144481.07 1506.09
   1  -4  -141398.40 1507.69
   1  -4  -140393.59 1421.39
   1   4  -2 1688.11  100.28
   1   4  -2 1794.15  119.23
   1   4  -2 1675.31   91.43
   1   4  -2 1672.80   98.60
   1   4  -2 1620.21   86.74
  -1   4   2 1628.98  122.88
  -1   4   2 1652.47  109.01
  -1   4   2 1883.49   55.10
  -1   4   2 1673.22   99.83
  -1   4   2 1763.40  103.58
  -1  -4   2 1728.49   77.98
  -1  -4   2 1800.80   99.05
  -1  -4   2 1597.77   99.72
  -1  -4   2 1693.79   82.64
  -1  -4   2 1723.25   98.01
   1  -4  -2 1631.26  108.82
   1  -4  -2 1646.87  106.62
   1  -4  -2 1615.37  112.69
   1  -4  -2 1669.50   85.50
  -1   4   3  788.88   59.91
   1   4  -3  832.62   60.00
   1   4  -3  854.44   61.33
   1   4  -3  903.25   73.71
   1   4  -3  803.82   45.97
   1   4  -3  802.73   52.78
  -1   4   3  755.47   82.92
  -1   4   3  841.01   71.08
  -1   4   3  763.25   32.73
  -1   4   3  825.10   59.13
  -1  -4   3  835.70   44.87
  -1  -4   3  832.40   72.07
  -1  -4   3  855.36   68.02
  -1  -4   3  835.83   60.55
  -1  -4   3  776.49   61.89
   1  -4  -3  809.60   67.31
   1  -4  -3  837.27   67.38
   1  -4  -3  786.24   37.77
   1  -4  -3  714.47   55.54
   1  -4  -3  891.11   67.38
   1   4  -410898.93  458.73
   1   4  -410188.20  483.18
   1   4  -410691.81  436.43
  -1   4   410441.67  404.88
  -1   4   4 9985.98  357.33
  -1   4   410444.41  393.24
  -1  -4   410743.44  445.42
  -1  -4   410279.67  409.05
  -1  -4   410619.00  417.63
   1  -4  -410118.46  421.30
   1  -4  -4 9696.96  368.67
   1  -4  -410268.80  446.05
   1   4  -5 2514.02  173.67
   1   4  -5 2387.47  137.11
   1   4  -5 2506.78  138.46
  -1   4   5 2260.52   92.44
  -1   4   5 2394.26  127.33
  -1  -4   5 2476.56  135.49
  -1  -4   5 1782.27  140.03
   1  -4  -5 2512.46  139.39
   1  -4  -5 2548.20  141.54
   1  -4  -5 2364.04  116.40
   1  -4  -6 2902.35  162.69
   1  -4  -6 3241.23  190.35
   1   4  -6 2794.07  178.25
   1   4  -6 3067.09  155.37
   1   4  -6 2934.45  150.45
  -1   4   6 2854.24  152.98
  -1   4   6 3009.40  161.59
  -1  -4   6 2850.22  142.70
  -1  -4   6 2947.69  146.94
   1  -4  -6 2307.99  136.21
   1  -4  -6 2866.83  166.13
   1   4  -7  327.35   41.55
   1   4  -7  252.77   32.96
   1   4  -7  252.35   40.11
  -1   4   7  270.18   24.74
  -1   4   7  271.96   41.48
  -1  -4   7  248.27   31.69
  -1  -4   7  304.43   35.16
   1  -4  -7  271.36   38.76
   1  -4  -7  256.41   37.32
   1  -4  -7  289.56   33.87
   1   4  -8  936.96   76.29
   1   4  -8 1003.11   72.59
   1   4  -8 1056.80   93.84
  -1   4   8  835.04   71.86
  -1  -4   8  920.63   68.45
  -1  -4   8 1049.29   92.25
   1  -4  -8  945.27   90.63
   1  -4  -8 1011.35   69.86
   1  -4  -8  893.04   77.54
   1  -4  -9 3494.08  226.06
   1   4  -9 3502.06  231.62
   1   4  -9 3704.10  207.46
   1   4  -9 3721.67  254.36
  -1  -4   9 3344.58  213.44
  -1  -4   9 3709.93  224.19
  -1   4   9 3570.04  232.10
   1  -4  -9 3400.50  236.67
   1   4 -10   -6.99   22.40
   1   4 -10    8.05   22.46
   1   4 -10    0.04   22.36
  -1   4  10  -17.64   22.45
  -1  -4  10    0.64   22.44
  -1  -4  10  -16.42   22.47
   1  -4 -10   34.06   22.38
   1  -4 -10  -11.17   22.38
   1   5  -1  425.64   29.15
   1   5  -1  417.42   33.57
   1   5  -1  371.46   34.26
   1   5  -1  392.25   29.05
   1   5  -1  369.49   26.04
  -1   5   1  349.95   31.04
  -1   5   1  367.97   34.52
  -1   5   1  422.35   53.02
  -1   5   1  391.02   24.64
  -1   5   1  372.27   24.40
  -1   5   1  399.95   27.80
  -1   5   1  390.79   26.32
  -1  -5   1  400.24   25.65
  -1  -5   1  377.70   31.49
  -1  -5   1  371.94   41.97
  -1  -5   1  356.10   27.50
  -1  -5   1  386.68   27.09
   1  -5  -1  463.68   36.11
   1  -5  -1  387.07   27.91
   1  -5  -1  402.91   30.65
  -1  -5   242478.58 1415.03
   1   5  -242179.26 1490.63
   1   5  -241807.05 1532.72
   1   5  -243385.80 1426.92
   1   5  -243711.57 1429.47
   1   5  -242035.85 1453.47
  -1   5   241648.50 1477.38
  -1   5   242262.23 1486.98
  -1   5   240993.02 1309.97
  -1   5   241638.71 1305.25
  -1   5   239838.64 1393.88
  -1   5   240059.63 1459.66
  -1  -5   242942.12 1429.92
  -1  -5   239970.90 1410.46
  -1  -5   242087.63 1448.54
  -1  -5   244159.41 1377.57
   1  -5  -241330.31 1523.69
   1  -5  -240204.13 1523.82
   1  -5  -240800.80 1446.04
   1  -5  -241337.90 1422.54
   1   5  -3 1131.53   72.30
   1   5  -3 1183.69   76.80
   1   5  -3 1185.27   92.47
   1   5  -3 1070.42   71.57
   1   5  -3 1093.03   86.89
  -1   5   3 1151.24   83.09
  -1   5   3 1101.47   46.94
  -1   5   3 1169.02   51.87
  -1   5   3 1082.05   75.08
  -1   5   3 1123.95   77.84
  -1  -5   3 1174.82   62.65
  -1  -5   3 1191.93   87.83
  -1  -5   3 1166.82   83.13
  -1  -5   3 1208.19   66.74
  -1  -5   3 1146.32   69.32
   1  -5  -3 1156.90   74.28
   1  -5  -3 1108.62   66.68
   1  -5  -3 1169.88   91.71
   1  -5  -3 1114.47   75.44
   1  -5  -4  525.27   26.11
   1   5  -4  557.73   42.88
   1   5  -4  529.56   57.73
   1   5  -4  519.75   44.51
   1   5  -4  553.17   44.60
  -1   5   4  482.08   39.32
  -1   5   4  487.60   26.43
  -1   5   4  472.75   38.51
  -1   5   4  546.07   40.57
  -1  -5   4  567.85   58.18
  -1  -5   4  618.85   75.40
  -1  -5   4  507.18   39.15
   1  -5  -4  605.30   52.24
   1  -5  -4  531.54   45.93
   1  -5  -4  619.43   53.65
   1   5  -5 1023.73   75.32
   1   5  -5  952.43   74.89
   1   5  -5 1092.17   85.16
  -1   5   5 1060.54   58.40
  -1   5   5 1072.74   79.19
  -1  -5   5  983.61   62.83
  -1  -5   5 1125.97   93.08
   1  -5  -5 1173.28   90.51
   1  -5  -5 1070.13   76.57
   1  -5  -5 1040.05   58.53
   1  -5  -5 1070.37   76.86
   1   5  -6 2737.70  159.71
   1   5  -6 2867.63  139.08
   1   5  -6 2771.90  178.12
  -1   5   6 2881.36  167.15
  -1  -5   6 3003.36  173.77
  -1  -5   6 2952.46  145.81
   1  -5  -6 2870.02  166.45
   1  -5  -6 2127.41  144.67
   1  -5  -6 2510.52  116.40
   1  -5  -6 2766.14  149.32
  -1   5   6 2634.76  130.23
   1   5  -7 3432.58  209.83
   1   5  -7 3345.88  211.43
  -1   5   7 3103.32  163.40
  -1   5   7 3474.43  225.02
  -1  -5   7 3447.77  235.48
  -1  -5   7 3536.13  169.33
   1  -5  -7 3537.17  228.16
   1  -5  -7 3514.48  184.97
   1  -5  -7 3393.30  179.13
   1   5  -7 3351.24  182.81
   1   5  -8  822.35   67.45
   1   5  -8  790.26   67.54
   1   5  -8  740.08   74.48
  -1   5   8  845.22   74.87
  -1  -5   8  691.51   64.64
   1  -5  -8  719.23   74.35
   1  -5  -8  743.18   61.09
   1  -5  -8  715.89   67.78
  -1  -5   8  796.96   76.59
   1   5  -9  293.51   47.80
   1   5  -9  278.68   41.61
   1   5  -9  244.90   51.92
  -1   5   9  313.23   62.01
  -1  -5   9  345.44   49.88
  -1  -5   9  288.42   48.33
   1  -5  -9  323.53   57.15
   1  -5  -9  251.09   41.09
   1   5 -10  328.87   50.08
   1   5 -10  352.32   56.18
   1   5 -10  399.01   57.71
  -1   5  10  391.39   64.44
  -1  -5  10  310.43   52.80
  -1  -5  10  385.35   62.72
   1  -5 -10  360.62   54.71
   1  -5 -10  347.05   58.20
  -1   6   1  362.69   27.33
  -1  -6   1  375.81   31.92
   1  -6  -1  348.17   27.94
   1   6  -1  411.26   27.94
   1   6  -1  307.40   34.06
   1   6  -1  444.83   39.80
   1   6  -1  408.17   29.51
   1   6  -1  379.35   31.36
  -1   6   1  388.25   34.04
  -1   6   1  347.11   38.04
  -1   6   1  438.44   33.84
  -1   6   1  332.13   26.61
  -1   6   1  407.49   33.09
  -1   6   1  346.59   27.61
  -1  -6   1  379.37   22.31
  -1  -6   1  357.89   37.54
  -1  -6   1  341.73   33.80
  -1  -6   1  309.83   27.46
   1  -6  -1  400.07   32.07
   1  -6  -1  330.16   25.23
   1   6  -2 3757.21  153.52
   1   6  -2 3917.58  223.89
   1   6  -2 3909.70  198.49
   1   6  -2 3972.91  198.30
   1   6  -2 3860.33  173.91
  -1   6   2 3828.79  216.13
  -1   6   2 3878.96  170.32
  -1   6   2 3647.02  139.97
  -1   6   2 3874.73  142.75
  -1   6   2 3546.13  167.17
  -1   6   2 3860.75  171.80
  -1   6   2 3822.32  177.57
  -1  -6   2 3933.67  175.02
  -1  -6   2 3973.76  204.24
  -1  -6   2 3731.17  228.98
  -1  -6   2 4101.52  191.42
  -1  -6   2 4040.04  209.12
   1  -6  -2 3914.43  157.23
   1  -6  -2 3696.53  203.84
   1  -6  -2 3803.88  179.80
   1   6  -3  432.76   31.77
   1   6  -3  370.39   38.51
   1   6  -3  390.05   29.25
   1   6  -3  395.07   41.20
  -1   6   3  385.11   37.58
  -1   6   3  354.15   18.71
  -1   6   3  395.73   19.29
  -1   6   3  428.83   43.53
  -1   6   3  345.21   32.89
  -1  -6   3  361.55   34.64
  -1  -6   3  364.17   33.51
  -1  -6   3  378.94   35.22
  -1  -6   3  414.77   33.88
   1  -6  -3  345.17   35.47
   1  -6  -3  364.26   33.04
   1  -6  -3  386.38   36.35
  -1   6   415909.69  550.33
  -1   6   417726.25  573.81
   1   6  -416665.98  688.07
   1   6  -416494.20  750.17
   1   6  -417619.62  615.01
   1   6  -416577.99  664.08
  -1   6   416540.38  631.11
  -1   6   417017.69  638.14
  -1   6   416445.81  627.09
  -1  -6   417170.98  595.43
  -1  -6   416837.36  819.75
  -1  -6   417723.92  621.29
   1  -6  -416534.57  684.52
   1  -6  -416859.88  638.95
   1  -6  -416781.81  632.72
   1   6  -5 1396.61   92.86
   1   6  -5 1342.67   89.63
   1   6  -5 1446.14  108.87
  -1   6   5 1348.56   62.79
  -1   6   5 1361.83   98.92
  -1  -6   5 1466.41   94.03
  -1  -6   5 1441.89   99.58
   1  -6  -5 1336.17   91.37
   1  -6  -5 1385.73   85.59
   1  -6  -5 1298.81   66.75
   1  -6  -5 1553.25   99.93
   1   6  -6 3301.80  181.87
   1   6  -6 3490.88  150.15
   1   6  -6 3406.40  225.26
  -1   6   6 3237.35  135.66
  -1   6   6 3579.27  187.57
  -1  -6   6 3306.47  172.13
  -1  -6   6 3384.26  163.26
   1  -6  -6 3499.47  188.74
   1  -6  -6 3788.28  249.78
   1  -6  -6 2972.99  134.30
   1  -6  -6 3473.52  204.58
   1   6  -7   27.80   18.52
   1   6  -7   38.04   25.66
   1   6  -7   47.55   23.29
  -1   6   7   55.94   15.73
  -1   6   7   32.73   31.73
  -1  -6   7   40.12   22.02
  -1  -6   7   11.95   23.82
   1  -6  -7   50.55   24.00
   1  -6  -7   61.83   24.88
   1  -6  -7   15.71   21.90
   1   6  -8 3635.62  219.11
   1   6  -8 3946.59  233.56
   1   6  -8 3909.02  243.45
  -1   6   8 3980.04  195.92
  -1  -6   8 4009.57  229.58
  -1  -6   8 4095.75  250.93
   1  -6  -8 3731.99  238.56
   1  -6  -8 3766.08  222.47
   1  -6  -8 3914.14  216.47
   1   6  -9 1681.91  123.25
   1   6  -9 1891.12  138.22
   1   6  -9 1879.95  138.79
  -1   6   9 1609.81  141.74
  -1  -6   9 1696.91  126.32
  -1  -6   9 1861.90  138.10
   1  -6  -9 1692.68  141.39
   1  -6  -9 1646.98  127.88
   1   6 -10  941.10   88.59
   1   6 -10  961.13  101.07
   1   6 -10 1129.54  115.52
  -1   6  10 1007.68  108.48
  -1  -6  10  935.39  101.02
  -1  -6  10  914.80   90.09
   1  -6 -10  945.29  102.44
   1  -6 -10  880.80   90.19
  -1  -7   1 3845.08  192.74
  -1  -7   1 3819.96  175.79
  -1  -7   1 3872.89  164.71
   1  -7  -1 3719.65  187.53
   1   7  -1 3624.33  139.33
   1   7  -1 3699.17  167.84
   1   7  -1 3894.31  201.70
   1   7  -1 3850.67  200.94
   1   7  -1 4056.42  174.47
   1   7  -1 3934.30  198.52
  -1   7   1 3690.06  177.35
  -1   7   1 4077.89  276.13
  -1   7   1 3798.34  212.08
  -1   7   1 3819.19  163.72
  -1   7   1 3775.79  191.93
  -1   7   1 3721.96  160.82
  -1   7   1 3792.75  183.26
  -1  -7   1 3912.85  212.81
   1  -7  -1 3954.32  186.45
   1  -7  -1 3955.21  178.11
   1   7  -235691.13 1214.41
   1   7  -236147.40 1381.78
   1   7  -237991.98 1339.10
   1   7  -235951.03 1310.64
  -1   7   236519.69 1341.29
  -1   7   237536.73 1244.73
  -1   7   235169.36 1307.09
  -1   7   235224.68 1262.42
  -1   7   236067.00 1267.98
  -1  -7   235934.96 1275.77
  -1  -7   234199.22 1362.88
  -1  -7   236347.59 1262.37
  -1  -7   236698.86 1315.12
   1  -7  -235614.18 1265.20
   1  -7  -235446.35 1290.34
   1  -7  -237566.60 1190.86
   1  -7  -234787.76 1328.94
   1   7  -3  207.36   37.03
   1   7  -3  354.32   27.33
   1   7  -3  366.35   26.70
   1   7  -3  383.30   32.79
  -1   7   3  358.60   34.24
  -1   7   3  329.98   18.92
  -1   7   3  317.36   21.67
  -1   7   3  333.91   31.94
  -1   7   3  326.40   30.70
  -1  -7   3  345.09   33.25
  -1  -7   3  397.68   57.36
  -1  -7   3  413.81   34.22
   1  -7  -3  318.43   42.82
   1  -7  -3  364.60   35.19
   1  -7  -3  370.79   37.73
   1   7  -4  342.18   41.40
   1   7  -4  319.88   31.34
  -1   7   4  344.81   18.65
  -1   7   4  357.07   23.01
  -1   7   4  332.23   37.25
   1  -7  -4  419.70   43.81
  -1  -7   4  355.69   33.27
   1  -7  -4  337.68   30.84
   1  -7  -4  349.88   26.92
   1   7  -4  348.60   28.55
   1   7  -4  366.89   43.40
  -1   7   4  313.33   27.41
  -1  -7   4  356.99   38.03
  -1  -7   4  336.44   27.86
   1   7  -5  199.80   24.69
   1   7  -5  161.56   27.09
   1   7  -5  159.31   28.91
  -1   7   5  152.72   13.88
  -1   7   5  150.98   13.02
  -1   7   5  178.29   27.62
  -1  -7   5  142.54   34.68
  -1  -7   5  168.78   26.93
   1  -7  -5   77.17   29.60
   1  -7  -5  148.10   24.46
   1  -7  -5  183.89   25.61
   1   7  -610817.84  482.39
   1   7  -610705.90  477.27
  -1  -7   610992.13  472.41
   1  -7  -610649.03  479.74
  -1  -7   610402.07  503.50
   1   7  -610499.42  454.94
  -1   7   610156.32  370.41
  -1   7   610769.49  492.40
   1  -7  -610534.51  478.47
   1  -7  -610548.51  469.14
   1  -7  -7  416.81   46.83
   1  -7  -7  461.25   42.04
   1   7  -7  420.68   42.99
   1   7  -7  388.17   40.77
   1   7  -7  356.93   47.40
  -1  -7   7  473.84   46.61
  -1  -7   7  473.98   43.71
   1  -7  -7  454.54   54.18
  -1   7   7  397.30   56.71
   1   7  -8  568.19   61.22
   1   7  -8  656.39   62.60
   1   7  -8  701.83   84.45
  -1   7   8  764.14   76.61
  -1  -7   8  735.71   77.36
  -1  -7   8  638.80   62.25
   1  -7  -8  633.31   66.50
   1  -7  -8  630.10   65.70
   1  -7  -8  616.81   66.39
   1   7  -9  654.33   73.23
   1   7  -9  592.95   63.72
   1   7  -9  668.42   65.35
  -1   7   9  702.98   87.23
  -1  -7   9  583.72   71.22
  -1  -7   9  630.33   73.45
   1  -7  -9  718.74   84.59
   1  -7  -9  551.79   71.34
   1   7 -10    2.88   32.15
   1   7 -10   35.73   25.34
   1   7 -10  -13.35   31.61
  -1   7  10  -22.30   31.06
  -1  -7  10   15.32   32.05
  -1  -7  10   22.65   28.97
   1  -7 -10   27.08   29.08
   1  -7 -10   32.20   24.62
   1   8  -1  258.45   20.16
   1   8  -1  339.38   38.63
   1   8  -1  290.96   22.92
   1   8  -1  313.32   27.22
  -1   8   1  253.01   30.99
  -1   8   1  310.43   36.39
  -1   8   1  289.02   30.91
  -1   8   1  286.60   22.64
  -1   8   1  294.19   24.06
  -1   8   1  239.71   21.96
  -1   8   1  280.01   21.57
  -1  -8   1  302.83   20.99
  -1  -8   1  305.67   29.69
  -1  -8   1  346.16   31.59
  -1  -8   1  267.80   24.69
   1  -8  -1  299.57   34.58
   1  -8  -1  317.10   26.78
  -1   8   2 3104.09  154.68
   1   8  -2 2971.91  137.71
   1   8  -2 2968.73  153.28
   1   8  -2 3130.42  151.32
   1   8  -2 2931.47  138.55
  -1   8   2 3055.43  127.77
  -1   8   2 3126.80  163.87
  -1   8   2 2939.09  149.10
  -1   8   2 2970.31  147.39
  -1   8   2 2927.76  143.15
  -1  -8   2 3154.05  145.85
  -1  -8   2 3045.27  151.57
  -1  -8   2 3149.07  162.45
  -1  -8   2 3274.51  156.98
   1  -8  -2 3119.99  188.44
   1  -8  -2 3025.54  183.85
   1  -8  -2 3029.52  131.80
   1   8  -3   42.71   14.76
   1   8  -3   59.92   20.17
   1   8  -3   22.33   10.89
   1   8  -3    9.30   16.87
  -1   8   3   27.27    7.42
  -1   8   3   21.17    8.24
  -1   8   3   33.02   18.43
  -1   8   3   20.10   10.15
  -1   8   3   18.71    9.08
  -1  -8   3   37.17   12.98
  -1  -8   3   38.40   21.70
  -1  -8   3   41.50   15.22
   1  -8  -3   78.48   28.22
   1  -8  -3   30.71   19.13
   1   8  -419116.57  687.24
   1   8  -418928.14  787.59
   1   8  -418736.24  668.00
   1   8  -418653.59  782.10
  -1   8   417610.05  615.60
  -1   8   418837.75  624.28
  -1   8   418982.31  748.43
  -1   8   418773.31  668.67
  -1  -8   418125.29  743.83
  -1  -8   418949.98  791.89
  -1  -8   419643.83  683.34
   1  -8  -419426.38  793.69
   1  -8  -418448.01  753.87
   1  -8  -418924.54  718.82
   1   8  -5 2326.43  127.35
   1   8  -5 2155.01  137.47
   1   8  -5 2303.59  161.84
  -1   8   5 2067.61   91.76
  -1   8   5 2211.89   91.27
  -1   8   5 2208.55  119.42
  -1  -8   5 2471.82  121.22
  -1  -8   5 2365.13  131.61
   1  -8  -5 2250.92  128.28
   1  -8  -5 2090.39  161.37
   1  -8  -5 2289.82  121.76
   1   8  -6  783.15   60.22
  -1   8   6  730.45   40.17
   1   8  -6  762.25   61.79
   1   8  -6  817.19   52.78
  -1   8   6  868.31   65.13
  -1  -8   6  796.98   64.02
  -1  -8   6  798.60   63.00
   1  -8  -6  722.61   65.87
   1  -8  -6  858.87   63.11
   1  -8  -6  765.08   60.13
   1   8  -7  949.58   84.51
   1   8  -7  968.32   79.53
   1   8  -7 1002.22   76.95
  -1   8   7  945.90   96.96
  -1  -8   7  943.16   92.31
  -1  -8   7  952.21   66.80
   1  -8  -7  977.36   87.53
   1  -8  -7  844.42   82.64
   1  -8  -7  965.13   75.57
   1   8  -8 2922.64  184.45
   1   8  -8 3239.15  202.21
   1   8  -8 3107.58  188.35
  -1   8   8 3169.73  213.88
  -1  -8   8 2767.23  195.57
  -1  -8   8 2950.41  171.59
   1  -8  -8 2976.50  200.95
   1  -8  -8 2885.02  181.21
   1  -8  -8 2910.20  176.87
   1   8  -9   53.64   27.58
   1   8  -9   76.34   33.78
   1   8  -9   12.17   25.70
  -1   8   9   55.03   34.73
  -1  -8   9   80.74   31.66
  -1  -8   9   72.25   27.11
   1  -8  -9   97.99   35.31
   1  -8  -9   64.61   27.42
   1   8 -10  898.17   97.33
   1   8 -10  920.17   96.35
   1   8 -10 1021.54  116.72
  -1   8  10  907.16  105.17
  -1  -8  10  876.73   98.16
   1  -8 -10  926.91  104.32
   1   9  -1  285.94   22.13
   1   9  -1  302.80   24.07
   1   9  -1  209.10   34.47
   1   9  -1  267.88   21.68
   1   9  -1  285.93   25.07
  -1   9   1  287.82   34.91
  -1   9   1  286.30   27.20
  -1   9   1  292.68   23.62
  -1   9   1  310.49   31.62
  -1   9   1  307.21   23.81
  -1  -9   1  269.89   40.39
  -1  -9   1  332.98   28.25
  -1  -9   1  303.59   28.66
   1  -9  -1  297.98   37.07
   1  -9  -1  349.20   31.49
   1   9  -241288.93 1365.06
   1   9  -240031.21 1473.38
  -1   9   241227.20 1489.60
  -1   9   239292.83 1370.57
  -1   9   240347.34 1403.10
  -1   9   240294.81 1448.83
  -1   9   241630.73 1350.73
  -1   9   241370.50 1345.19
  -1  -9   242573.29 1366.09
  -1  -9   240701.38 1451.43
  -1  -9   242041.78 1423.76
  -1  -9   241989.48 1472.16
   1  -9  -239662.56 1422.04
   1  -9  -239072.16 1400.20
   1   9  -239731.91 1408.38
   1   9  -240424.91 1471.54
   1   9  -3  399.67   33.39
   1   9  -3  316.95   37.63
   1   9  -3  380.27   26.91
  -1   9   3  385.41   22.25
  -1   9   3  306.39   42.47
  -1   9   3  350.31   29.36
  -1  -9   3  357.59   33.78
   1  -9  -3  292.50   36.59
   1   9  -3  426.47   37.63
  -1   9   3  382.54   30.56
  -1   9   3  373.73   31.61
  -1  -9   3  391.79   28.30
  -1  -9   3  369.80   38.99
   1  -9  -3  408.63   41.26
   1   9  -4 1656.91  104.39
   1   9  -4 1748.65  114.49
   1   9  -4 1724.30  100.72
   1   9  -4 1767.88  106.46
  -1   9   4 1616.72   72.05
  -1   9   4 1675.22   72.75
  -1   9   4 1612.71   99.52
  -1   9   4 1706.52   93.92
  -1  -9   4 1353.05  146.73
  -1  -9   4 1725.25  117.75
  -1  -9   4 1801.87   85.28
   1  -9  -4 1713.71  131.85
   1  -9  -4 1687.11  121.41
   1  -9  -4 1691.83   92.64
   1   9  -5   26.74   16.56
   1   9  -5    7.10   24.58
   1   9  -5  -13.53   16.58
  -1   9   5    4.67    5.99
  -1   9   5    7.37    6.84
  -1  -9   5   21.63   19.35
  -1  -9   5   20.16   19.24
   1  -9  -5   24.34   24.74
   1  -9  -5   10.90   18.44
   1  -9  -5    8.79   12.83
  -1   9   5  -18.40   28.53
   1   9  -6 5965.78  251.01
   1   9  -6 5990.74  341.19
   1   9  -6 5654.95  280.54
  -1   9   6 5649.25  273.99
  -1  -9   6 5737.35  334.58
  -1  -9   6 6226.58  298.29
   1  -9  -6 6113.46  318.88
   1  -9  -6 6049.40  284.51
   1  -9  -6 5792.74  286.45
   1   9  -7 2368.49  152.28
   1   9  -7 2537.97  134.95
   1   9  -7 2592.80  162.52
  -1   9   7 2474.64  159.48
  -1  -9   7 2519.06  192.10
  -1  -9   7 2517.47  143.24
   1  -9  -7 2519.33  148.10
   1  -9  -7 2361.66  145.08
   1  -9  -7 2377.40  145.76
   1   9  -8  199.89   37.26
   1   9  -8  208.32   39.54
   1   9  -8  197.44   45.06
  -1   9   8  156.95   41.67
  -1  -9   8  247.27   45.91
  -1  -9   8  222.72   37.60
   1  -9  -8  176.78   36.40
   1  -9  -8  211.81   31.49
   1  -9  -8  175.12   34.52
   1   9  -9  338.69   46.81
   1   9  -9  277.33   48.07
   1   9  -9  506.74   72.08
  -1  -9   9  342.02   52.96
  -1  -9   9  344.46   53.92
   1  -9  -9  339.89   54.71
   1  -9  -9  318.94   48.92
  -1   9   9  273.49   51.74
   1   9 -10  105.84   32.76
   1   9 -10   62.09   30.84
  -1  -9  10  103.59   45.90
   1  10  -1  402.90   32.79
   1  10  -1  390.87   31.35
   1  10  -1  339.80   36.23
   1  10  -1  419.40   25.17
   1  10  -1  366.69   39.98
  -1  10   1  565.00   61.10
  -1  10   1  350.24   33.29
  -1  10   1  406.76   35.89
  -1  10   1  420.31   32.26
  -1  10   1  407.64   29.54
  -1  10   1  469.25   26.29
  -1 -10   1  443.99   45.94
  -1 -10   1  428.38   29.34
  -1 -10   1  419.33   30.98
   1 -10  -1  434.93   31.97
   1 -10  -1  475.78   37.27
   1  10  -2  154.91   24.85
   1  10  -2  153.00   19.12
   1  10  -2  141.73   21.85
  -1  10   2  130.09   17.31
  -1  10   2   94.96   20.02
  -1  10   2  128.97   12.55
  -1  10   2  131.27   14.45
  -1 -10   2  132.91   32.54
  -1 -10   2  132.16   16.43
  -1 -10   2  168.61   20.00
   1 -10  -2  120.70   19.42
   1 -10  -2  106.05   15.22
   1  10  -2  112.08   17.82
  -1  10   2  152.18   28.88
  -1  10   2  133.77   20.73
  -1 -10   2  136.84   17.31
   1  10  -3    3.35    9.46
   1  10  -3  -18.17   16.34
   1  10  -3   12.97   11.93
  -1  10   3    0.52   17.67
  -1  10   3  -16.26   11.12
  -1  10   3    5.64    7.16
  -1 -10   3   10.82    9.78
  -1 -10   3   -1.68   17.57
  -1 -10   3   20.00   11.98
   1 -10  -3  -12.74   17.02
   1 -10  -3   15.74   17.82
   1  10  -3  -14.42   12.78
  -1  10   3    1.92    7.85
  -1  10   3    7.34    9.83
   1  10  -416411.15  713.29
  -1  10   416141.83  564.04
  -1  10   416097.09  585.05
  -1  10   416212.48  615.14
  -1 -10   417768.37  616.03
   1  10  -416538.58  727.89
   1  10  -416788.37  641.80
  -1  10   415966.41  598.58
  -1  10   416003.44  581.32
   1 -10  -416608.82  676.49
  -1 -10   416468.96  748.12
   1 -10  -416432.94  776.16
   1  10  -416590.21  623.29
   1  10  -5 2335.50  140.84
   1  10  -5 2312.19  126.76
   1  10  -5 2282.13  151.69
  -1  10   5 2136.38   91.96
  -1  10   5 2321.10  116.18
  -1 -10   5 2353.20  128.63
  -1 -10   5 2416.77  124.28
   1 -10  -5 2308.57  151.05
   1 -10  -5 2259.15  135.43
   1 -10  -5 2252.83  121.02
   1  10  -6  -10.82   16.69
   1  10  -6   63.23   25.25
   1  10  -6   11.40   23.37
  -1  10   6  -21.63   29.82
  -1 -10   6   33.66   21.03
   1 -10  -6   27.54   27.22
   1 -10  -6   15.36   21.06
   1 -10  -6   34.67   18.30
  -1 -10   6   19.91   25.03
   1  10  -7 1577.65  137.13
   1  10  -7 1483.34   99.19
   1  10  -7 1784.63  131.26
  -1  10   7 1622.30  133.44
  -1 -10   7 1579.92  140.26
  -1 -10   7 1756.43  133.69
   1 -10  -7 1712.33  140.14
   1 -10  -7 1702.27  115.05
   1 -10  -7 1595.80  102.11
   1  10  -8 1205.36  104.27
   1  10  -8 1432.47   98.22
   1  10  -8 1324.58   95.35
  -1  10   8 1340.45  114.98
  -1 -10   8 1317.04  125.75
  -1 -10   8 1347.75  101.12
   1 -10  -8 1357.69  104.77
   1 -10  -8 1108.34   82.37
   1  10  -9   -1.08   19.07
   1  10  -9   -4.43   19.04
   1  10  -9  -38.28   19.04
  -1  10   9   22.69   19.05
  -1 -10   9  -11.57   19.09
   1 -10  -9  -18.08   19.04
  -1  11   1  285.66   27.28
  -1  11   1  246.98   23.60
   1  11  -1  284.95   27.62
   1  11  -1  275.62   23.49
   1  11  -1  248.92   29.68
   1  11  -1  280.49   24.20
   1  11  -1  276.77   28.13
  -1  11   1  267.57   19.83
  -1 -11   1  253.88   31.77
  -1 -11   1  303.93   23.67
  -1 -11   1  273.15   24.18
   1 -11  -1  257.91   29.88
   1 -11  -1  284.20   26.61
  -1  11   1  251.26   22.89
  -1  11   1  284.70   37.10
  -1  11   1  295.12   20.80
   1  11  -224738.57  970.42
   1  11  -223432.76  824.16
   1  11  -224719.99  870.41
   1  11  -223170.50  951.15
  -1  11   224926.77  960.24
  -1  11   224017.87  850.88
  -1  11   222959.13  856.44
  -1  11   222624.84  982.84
  -1  11   223621.42  820.03
  -1  11   223573.75  819.87
  -1 -11   223912.33  884.09
  -1 -11   223797.84  990.30
  -1 -11   224517.55  836.80
  -1 -11   224028.16  863.91
   1 -11  -222645.30  935.07
   1 -11  -222990.46  833.69
   1  11  -3  791.01   51.39
   1  11  -3  743.69   55.80
  -1  11   3  749.52   47.48
  -1  11   3  647.92   53.47
  -1  11   3  751.66   40.91
  -1  11   3  741.42   35.79
  -1 -11   3  807.00   53.25
  -1 -11   3  812.81   46.81
   1 -11  -3  758.40   64.98
   1  11  -3  795.99   50.09
   1  11  -3  790.90   61.92
  -1  11   3  764.00   54.89
  -1 -11   3  791.32   66.81
   1  11  -4 2227.56  180.40
   1  11  -4 2077.93  157.16
   1  11  -4 2024.15  120.61
   1  11  -4 2150.24  113.09
  -1  11   4 1991.02   85.50
  -1  11   4 1937.52   91.65
  -1  11   4 2027.38  114.28
  -1  11   4 2104.53  118.11
  -1  11   4 1904.25   88.20
  -1 -11   4 2072.04  123.03
  -1 -11   4 2213.08  102.36
   1 -11  -4 2108.92  103.88
   1 -11  -4 2144.44  123.65
   1  11  -5 5576.65  298.72
   1  11  -5 5461.98  298.04
  -1  11   5 5507.39  261.71
  -1  11   5 4995.98  230.26
  -1 -11   5 5410.09  318.70
  -1 -11   5 5443.21  248.06
   1 -11  -5 5404.63  248.17
   1 -11  -5 5324.58  234.59
   1  11  -5 5264.27  289.80
   1 -11  -6 4893.09  311.60
   1  11  -6 5813.68  318.86
   1  11  -6 5684.48  305.49
  -1  11   6 5548.76  273.09
  -1 -11   6 5205.09  315.69
  -1 -11   6 5571.81  252.56
   1  11  -6 5148.57  288.35
   1 -11  -6 5236.45  258.42
   1  11  -7  812.88   74.77
  -1  11   7  927.37   73.80
  -1 -11   7  848.69   79.30
  -1 -11   7  941.29   66.69
   1 -11  -7  870.80   80.64
   1 -11  -7  867.30   79.80
   1 -11  -7  873.90   69.58
   1  11  -7  855.64   88.23
   1  11  -7  890.16   71.03
   1  11  -8 1184.45   97.91
   1  11  -8 1119.25  106.28
   1  11  -8 1262.15  121.54
  -1  11   8 1367.29  103.82
  -1 -11   8 1103.68  105.63
   1 -11  -8 1177.54  107.99
   1  11  -9   71.63   33.86
   1  11  -9  106.94   44.76
  -1  11   9  112.44   48.04
  -1 -11   9  128.89   34.93
   1 -11  -9   58.24   38.56
   1  12  -1 3803.37  183.35
   1  12  -1 4072.06  189.15
   1  12  -1 3909.30  218.83
   1  12  -1 4220.12  186.08
   1  12  -1 4121.09  177.06
  -1  12   1 4117.33  227.65
  -1  12   1 4180.05  199.94
  -1  12   1 3986.58  158.66
  -1  12   1 3920.01  163.16
  -1  12   1 4207.68  156.16
  -1 -12   1 4144.51  202.13
  -1 -12   1 4182.40  162.70
  -1 -12   1 3905.99  191.72
   1 -12  -1 3860.51  226.36
   1 -12  -1 4166.05  199.96
   1  12  -2  219.18   26.58
   1  12  -2  213.39   39.15
   1  12  -2  205.45   22.32
   1  12  -2  292.95   25.91
  -1  12   2  242.30   35.08
  -1  12   2  261.66   30.02
  -1  12   2  246.92   26.38
  -1  12   2  212.37   15.06
  -1  12   2  244.57   19.28
  -1 -12   2  211.03   26.85
  -1 -12   2  224.79   34.33
  -1 -12   2  227.00   24.60
  -1 -12   2  200.64   24.00
   1 -12  -2  236.61   42.89
   1 -12  -2  240.09   24.29
   1  12  -3 4139.01  192.71
   1  12  -3 4066.92  238.74
   1  12  -3 3933.99  196.51
   1  12  -3 4143.80  193.48
  -1  12   3 4194.81  198.83
  -1  12   3 4114.67  172.74
  -1  12   3 3777.51  185.44
  -1  12   3 3931.80  187.93
  -1  12   3 3964.95  161.09
  -1  12   3 3951.55  160.49
  -1 -12   3 4004.97  230.47
  -1 -12   3 4314.37  192.86
   1 -12  -3 4029.49  209.46
   1  12  -412435.43  470.30
   1  12  -412135.85  538.92
   1  12  -412184.30  559.09
  -1  12   411355.22  434.32
  -1  12   412243.58  529.75
  -1  12   411898.71  445.66
  -1 -12   412151.21  595.35
  -1 -12   413157.32  483.82
   1 -12  -412101.81  484.39
   1 -12  -412242.75  482.04
   1  12  -5 3765.62  206.89
   1  12  -5 3887.64  214.54
   1  12  -5 3673.03  209.76
  -1  12   5 3873.47  210.42
  -1  12   5 3471.28  166.24
  -1 -12   5 3818.08  242.68
  -1 -12   5 3788.92  183.36
   1 -12  -5 3747.76  194.77
   1 -12  -5 3548.94  222.12
   1  12  -6  228.30   33.54
   1  12  -6  206.49   34.96
   1  12  -6  311.76   35.82
  -1  12   6  242.32   47.32
  -1 -12   6  263.69   47.02
  -1 -12   6  257.83   35.32
   1 -12  -6  206.61   43.00
   1 -12  -6  229.76   38.17
   1  12  -7  423.05   47.27
   1  12  -7  415.00   53.83
   1  12  -7  405.81   59.52
  -1  12   7  384.00   57.64
  -1 -12   7  408.90   57.08
   1 -12  -7  358.88   59.44
   1 -12  -7  409.73   46.31
  -1 -12   8 1702.24  143.49
   1  12  -8 1435.36  133.64
   1 -12  -8 1485.00  115.95
   1  12  -8 1392.80  120.02
   1  12  -8 1652.34  119.34
  -1  12   8 1574.06  128.88
   1  12  -9   37.54   31.03
  -1  12   9   16.89   36.93
  -1 -12   9  -12.36   26.89
   1 -12  -9  -13.82   33.82
   1  12  -9  -23.21   35.19
   1  13  -124434.35  894.74
   1  13  -124715.66  932.50
   1  13  -123272.68  965.90
   1  13  -124192.42  901.75
   1  13  -124087.11  823.98
  -1  13   123674.88  919.32
  -1  13   123929.55  866.79
  -1  13   123870.70  816.86
  -1  13   123094.49  799.66
  -1  13   124816.75  799.05
  -1 -13   125686.88 1023.59
  -1 -13   124990.59  835.38
  -1 -13   123161.30  837.28
   1 -13  -125081.63  941.80
   1 -13  -124167.94  947.83
   1  13  -212294.16  485.69
   1 -13  -212002.85  554.05
   1  13  -212228.09  552.86
   1  13  -212085.07  454.54
  -1  13   211985.69  518.48
  -1  13   212076.43  419.76
  -1 -13   212133.46  475.07
  -1 -13   212641.08  458.21
  -1 -13   211528.91  405.92
   1 -13  -212194.77  554.45
   1  13  -211924.69  502.34
  -1  13   213506.04  675.07
  -1  13   210535.73  422.72
  -1  13   211602.10  402.13
  -1 -13   320227.60  801.52
   1  13  -319876.84  824.83
   1  13  -319704.13  758.59
   1  13  -319318.00  739.72
  -1  13   319987.30  779.87
  -1  13   319260.27  713.99
  -1  13   318164.69  769.15
  -1  13   318216.96  632.78
   1 -13  -318829.49  830.55
  -1 -13   319917.14  692.07
   1  13  -4 3215.20  178.62
   1  13  -4 3222.06  185.25
   1  13  -4 3286.71  184.87
  -1  13   4 3093.31  144.20
  -1  13   4 2977.16  150.18
  -1 -13   4 3162.77  227.23
  -1 -13   4 3180.49  142.64
   1 -13  -4 2949.86  174.36
   1  13  -5 1298.09  100.23
   1  13  -5 1369.54  104.65
  -1  13   5 1506.97  110.13
  -1 -13   5 1474.36  100.49
  -1 -13   5 1359.20   87.86
   1 -13  -5 1407.44  119.60
   1 -13  -5 1261.25   98.34
   1  13  -5 1469.29   92.63
   1  13  -6 1225.89   94.32
   1  13  -6 1075.23  103.23
   1  13  -6 1276.59   92.94
  -1  13   6  995.27   98.09
  -1 -13   6 1144.31  105.87
   1 -13  -6 1045.22  108.39
   1 -13  -6 1069.91   82.10
   1  13  -7  119.33   29.32
   1  13  -7  135.30   42.87
   1  13  -7  112.32   37.92
  -1  13   7  127.30   32.44
  -1 -13   7  119.55   40.44
   1 -13  -7   71.82   39.15
   1 -13  -7  126.80   30.33
   1  13  -8  274.66   52.30
   1  13  -8  270.64   52.13
  -1  13   8  288.72   61.81
  -1 -13   8  306.42   51.62
   1 -13  -8  329.18   53.55
   1  13  -9   49.69   37.59
   1  13  -9  -14.38   30.12
  -1 -13   9   15.84   34.64
   1  14  -1  808.09   64.17
   1  14  -1 1041.41   87.58
   1  14  -1  932.18   66.72
   1  14  -1  833.18   54.73
  -1  14   1  859.64   77.02
  -1  14   1  950.56   57.90
  -1  14   1  844.99   59.84
  -1  14   1  866.95   46.70
  -1  14   1  917.52   47.40
  -1 -14   1  980.27   85.35
  -1 -14   1 1028.44   61.64
  -1 -14   1  828.35   50.73
   1 -14  -1  942.70   80.89
   1 -14  -1  884.95   74.59
  -1  14   2  597.61   44.54
  -1 -14   2  596.39   42.31
  -1 -14   2  519.72   61.32
   1 -14  -2  540.58   44.09
   1  14  -2  552.41   43.20
  -1  14   2  529.58   22.76
   1  14  -2  620.59   58.87
   1  14  -2  596.44   58.55
   1 -14  -2  520.69   44.06
  -1  14   2  592.11   58.14
   1  14  -3 3800.55  179.69
   1  14  -3 3745.86  230.27
   1  14  -3 3731.49  193.63
  -1  14   3 3989.59  203.46
  -1  14   3 3633.74  163.39
  -1  14   3 3819.26  183.74
  -1 -14   3 4065.89  253.43
  -1 -14   3 4098.13  179.77
   1 -14  -3 3822.01  202.54
   1  14  -4  507.53   49.27
   1  14  -4  532.18   67.78
   1  14  -4  549.26   53.05
  -1  14   4  459.89   58.31
  -1  14   4  445.71   49.29
  -1 -14   4  539.96   61.22
  -1 -14   4  600.13   39.47
   1 -14  -4  494.00   47.43
   1  14  -5 3207.44  212.79
  -1  14   5 3337.56  196.79
   1  14  -5 3453.56  224.45
   1 -14  -5 3286.40  208.37
   1  14  -5 3131.90  182.44
  -1 -14   5 3178.40  227.86
   1 -14  -5 3474.79  222.16
   1 -14  -6  133.20   42.88
   1 -14  -6  199.70   35.54
  -1 -14   6  240.61   41.12
   1  14  -6  256.08   30.62
   1  14  -6  254.80   38.96
   1  14  -6  297.07   45.17
  -1  14   6  234.91   40.17
   1  14  -7   94.12   41.03
   1  14  -7   45.32   33.52
  -1  14   7   90.76   36.71
  -1 -14   7   59.43   35.39
   1 -14  -7   61.65   35.29
   1  14  -8 1815.98  153.19
   1  14  -8 1510.27  142.59
  -1  14   8 1808.64  128.36
  -1 -14   8 1776.87  161.27
   1 -14  -8 1569.67  140.27
   1  15  -1  -13.26   16.54
   1  15  -1    4.04   20.79
   1  15  -1    9.73   11.09
  -1  15   1   15.28   20.08
  -1  15   1    4.64   10.13
  -1  15   1    5.41    7.46
  -1 -15   1   13.89   25.51
  -1 -15   1   -4.84   15.39
   1 -15  -1   -1.20   26.89
   1 -15  -1  -17.32   17.68
   1  15  -2   63.84   24.10
   1  15  -2   39.55   14.58
   1  15  -2   53.50   17.08
  -1  15   2   80.56   32.29
  -1  15   2   45.05   19.52
  -1 -15   2   27.94   26.30
  -1 -15   2   27.70   14.57
   1 -15  -2   32.18   26.58
   1 -15  -2   42.01   18.41
  -1  15   3 1604.02   95.92
   1  15  -3 1557.99  114.16
   1  15  -3 1802.80  113.47
   1  15  -3 1731.92  124.97
  -1  15   3 1747.36  107.18
  -1  15   3 1621.43   95.16
  -1 -15   3 1583.38  119.42
  -1 -15   3 1750.41   82.36
   1 -15  -3 1481.22  115.86
  -1 -15   4   22.22   22.90
   1  15  -4   33.45   15.57
   1  15  -4   50.65   30.96
   1  15  -4   64.96   23.47
  -1  15   4   24.93   32.46
  -1  15   4   20.26   26.55
   1 -15  -4   36.68   26.89
  -1  15   5 3417.21  195.60
  -1  15   5 3789.73  260.29
   1  15  -5 3392.26  228.61
   1  15  -5 3828.83  216.85
   1  15  -5 3663.36  222.11
  -1 -15   5 3857.59  272.47
   1 -15  -5 3300.67  203.37
   1  15  -6 2014.91  156.15
   1  15  -6 2267.99  147.11
  -1  15   6 2023.26  138.96
  -1 -15   6 2267.59  170.42
   1 -15  -6 2249.99  150.51
   1 -15  -6 1902.12  147.16
   1  15  -7 2494.65  189.09
  -1  15   7 2387.12  190.52
  -1 -15   7 2470.25  186.98
   1 -15  -7 1974.14  187.46
   1  15  -7 2523.83  196.56
   1  15  -8  713.24   84.30
  -1 -15   8  688.48   95.26
   1  15  -8  611.73   80.17
  -1  15   8  652.42   88.46
   1 -15  -8  654.88   70.96
  -1 -16   1 1226.11   83.77
  -1  16   1 1236.29   69.66
   1  16  -1 1282.31   78.06
   1  16  -1 1259.86   99.62
  -1  16   1 1375.27   99.94
  -1 -16   1 1266.69   76.47
   1 -16  -1 1203.71   94.70
   1 -16  -1 1517.13  106.43
   1  16  -2   38.50   17.53
   1  16  -2   46.66   27.51
   1  16  -2   56.87   18.86
  -1  16   2   38.37   23.90
  -1  16   2   61.27   19.60
  -1 -16   2   69.53   23.91
  -1 -16   2   59.57   16.23
   1 -16  -2   49.29   27.26
   1 -16  -2  102.89   21.92
   1  16  -3   40.60   34.21
   1  16  -3   24.54   15.05
   1  16  -3   39.67   18.68
  -1  16   3   -6.20   21.43
  -1  16   3   31.72   18.79
  -1  16   3   52.66   23.16
  -1 -16   3   58.30   23.74
   1 -16  -3   45.36   27.74
  -1  16   4   16.57   30.54
   1  16  -4   64.91   26.84
   1  16  -4   34.36   17.00
   1  16  -4   94.51   31.76
  -1  16   4   53.19   27.92
  -1 -16   4   45.51   34.86
   1 -16  -4   53.21   29.28
   1  16  -5   -7.39   33.46
   1  16  -5   -5.96   22.98
  -1  16   5   57.16   36.65
  -1  16   5    5.24   27.01
  -1 -16   5   59.54   31.90
   1 -16  -5   15.41   23.99
   1  16  -6   18.88   33.29
   1  16  -6   27.47   30.26
  -1  16   6   36.69   34.09
  -1  16   6   46.99   35.27
  -1 -16   6   54.05   34.42
   1 -16  -6   28.67   24.45
  -1 -16   7  437.54   68.69
   1  16  -7  318.06   56.54
   1  16  -7  421.57   62.55
  -1  16   7  414.78   57.11
   1 -16  -7  319.33   64.66
   1  17  -1 2688.03  166.17
   1  17  -1 2669.74  172.02
  -1  17   1 3057.65  173.23
  -1 -17   1 2777.71  162.05
   1 -17  -1 2868.93  170.85
   1 -17  -1 2883.70  174.48
   1  17  -2 1171.72   82.71
   1  17  -2 1225.58  101.56
  -1  17   2 1042.12  106.38
  -1  17   2 1053.15   63.61
  -1 -17   2 1122.31   96.33
   1 -17  -2 1112.54   87.44
   1 -17  -2 1154.35   84.66
   1  17  -3  370.81   38.07
   1  17  -3  432.27   55.44
   1  17  -3  330.40   40.72
  -1  17   3  400.02   44.90
  -1  17   3  367.80   40.32
  -1 -17   3  416.78   60.17
   1 -17  -3  312.45   48.24
  -1  17   4  951.08   79.42
  -1 -17   4  876.18   88.98
   1 -17  -4 1019.59   88.41
   1  17  -4  998.81   99.16
   1  17  -4  976.07   90.65
  -1  17   4  995.41   88.38
   1  17  -5   32.82   39.17
   1  17  -5   10.94   19.97
  -1  17   5   51.27   26.44
  -1  17   5  -20.26   27.82
  -1 -17   5   36.52   30.46
   1 -17  -5    9.94   24.23
  -1  17   6   16.20   33.60
   1  17  -6   11.27   33.56
   1  17  -6    2.08   33.53
  -1  17   6    3.41   33.65
  -1 -17   6   15.95   33.49
   1 -17  -6  -29.23   33.49
   1  17  -7  864.61  105.38
   1  17  -7  695.05   69.19
  -1  17   7  681.07   99.12
  -1  17   7  678.03   76.15
  -1 -17   7  758.52   95.08
   1  18  -1 1858.52  127.44
   1  18  -1 1997.42  168.25
  -1  18   1 1818.28  140.02
  -1 -18   1 1987.91  139.25
   1 -18  -1 1869.68  145.81
   1 -18  -1 1833.98  134.09
   1  18  -2  422.74   52.05
   1  18  -2  543.89   70.53
  -1  18   2  412.90   53.30
  -1 -18   2  474.85   57.17
   1 -18  -2  426.63   56.01
   1 -18  -2  385.64   49.91
  -1 -18   3  274.80   46.00
   1  18  -3  317.05   56.17
  -1  18   3  346.62   48.14
   1 -18  -3  341.43   50.36
  -1  18   4   96.61   28.57
  -1  18   4   73.31   30.45
   1  18  -4  102.03   29.60
  -1 -18   4   92.18   41.43
   1 -18  -4   61.82   31.87
  -1 -18   5 1782.79  147.89
   1  18  -5 1853.18  161.53
  -1  18   5 1627.76  136.76
  -1  18   5 1639.18  127.49
   1 -18  -5 1662.26  116.47
  -1 -18   6    0.36   30.25
   1  18  -6   25.60   33.06
  -1  18   6   35.46   29.53
   1  18  -6  100.74   42.39
  -1  18   6   13.44   23.97
  -1  19   1 1410.00  119.91
   1 -19  -1 1492.33  113.41
   1  19  -1 1532.22  142.79
  -1 -19   1 1410.20  132.65
   1  19  -2  190.49   47.81
  -1  19   2  223.28   40.23
  -1 -19   2  218.59   38.56
   1 -19  -2  222.45   40.41
   1 -19  -2  193.58   35.57
   1  19  -3   33.55   32.91
  -1  19   3   89.93   35.91
  -1 -19   3  103.45   40.09
   1 -19  -3   69.41   36.96
   1  19  -4  236.80   54.22
  -1  19   4  173.46   48.26
  -1 -19   4  283.91   52.26
   1 -19  -4  169.15   39.65
   1  19  -5  308.72   56.62
  -1  19   5  311.72   50.50
  -1 -19   5  274.29   53.47
   1 -19  -5  323.59   49.71
   1  19  -6   29.01   43.70
  -1  19   6   -1.60   31.05
  -1  19   6    6.12   29.90
   1  20  -1  439.49   62.75
  -1  20   1  447.67   62.11
   1 -20  -1  537.08   59.05
  -1 -20   1  410.93   52.55
  -1  20   1  471.03   81.84
   1  20  -2   77.52   37.42
  -1  20   2   20.60   27.68
  -1 -20   2   83.51   39.56
   1 -20  -2   97.37   38.97
   1  20  -3  697.97   92.18
  -1  20   3  655.59   70.87
  -1 -20   3  590.33   92.24
   1 -20  -3  673.36   82.83
   1  20  -4   -4.52   36.92
  -1  20   4    1.32   36.97
  -1 -20   4  -28.66   36.83
   1 -20  -4   -9.26   36.89
   1  20  -5 2325.12  204.77
  -1  20   5 2157.02  213.25
  -1 -20   5 2299.14  157.28
   1 -20  -5 2007.49  153.96
   1  21  -1 3550.36  310.82
  -1  21   1 3619.17  230.97
  -1  21   1 3785.56  286.99
  -1 -21   1 3650.28  207.67
   1 -21  -1 3662.73  179.35
  -1  21   2  -18.43   29.42
   1  21  -2    3.16   26.18
  -1  21   2   -2.04   32.85
  -1 -21   2   47.15   34.45
   1  21  -3  543.50   71.48
  -1  21   3  296.49   64.08
  -1 -21   3  330.75   55.85
   1 -21  -3  338.87   58.89
   1  21  -4   69.25   38.52
  -1  21   4    5.84   31.05
   1 -21  -4   14.17   26.99
  -1 -21   4   25.63   35.39
   1  22  -1   90.34   41.62
  -1  22   1   63.13   32.13
  -1  22   1  103.41   39.75
  -1 -22   1  135.45   37.47
   1  22  -2   36.31   35.43
  -1  22   2  -15.09   23.93
  -1  22   2   -5.08   26.94
  -1 -22   2   18.81   27.39
   1  22  -3  393.70   71.25
  -1  22   3  349.09   59.00
  -1  22   3  284.96   62.24
  -1 -22   3  315.64   48.79
   1  23  -1  361.54   66.67
  -1  23   1  234.74   49.52
  -1  23   1  370.76   68.71
  -1 -23   1  304.52   63.65
   0   0  -1   15.43    7.38
   0   0  -1   17.06    8.03
   0   0   1    8.55    8.67
   0   0   1    7.03    5.15
   0   0   1    0.28    5.82
   0   0   1   13.52    9.04
   0   0  -1   19.72   11.04
   0   0  -1   12.05    7.64
   0   0   1   12.65    7.46
   0   0  -1   10.99    6.67
   0   0  -3  -19.99   10.20
   0   0  -3    2.39   10.13
   0   0   3  -13.95   10.18
   0   0  -3  -28.73   10.19
   0   0   3    2.36   10.16
   0   0  -3   -5.69   10.17
   0   0   3    9.48   10.16
   0   0  -3   -1.24   10.18
   0   0   3    2.88   10.15
   0   0  -4  633.50   58.96
   0   0   4  618.43   42.58
   0   0  -4  667.64   50.46
   0   0   4  670.45   52.46
   0   0   4  611.77   61.85
   0   0  -4  645.19   47.10
   0   0  -4  662.25   53.25
   0   0   4  602.24   55.53
   0   0  -4  620.09   38.90
   0   0  -5   16.50   20.10
   0   0  -5   42.35   21.67
   0   0  -5   13.30   13.10
   0   0  -5   19.39   14.32
   0   0   5   -4.65   11.90
   0   0   5   -8.45   14.97
   0   0   5   -4.33   17.71
   0   0   6 3881.93  223.22
   0   0  -6 3629.68  182.62
   0   0   6 3519.11  186.31
   0   0  -6 4026.45  192.32
   0   0  -6 3832.22  184.11
   0   0   6 3951.60  184.24
   0   0  -7   25.92   16.12
   0   0   7    3.16   21.71
   0   0   7    2.68   26.07
   0   0  -7   11.60   18.61
   0   0  -7  -15.71   24.15
   0   0  -8  183.54   27.75
   0   0   8  163.47   28.84
   0   0   8  157.15   37.79
   0   0  -8  154.98   36.39
   0   0  -8  203.21   34.91
   0   0   9   23.25   20.05
   0   0   9  -10.48   22.81
   0   0  -9   16.06   31.28
   0   0  -9   -2.31   29.76
   0   0  10 2358.87  157.55
   0   0 -10 2137.46  146.43
   0   0 -10 2364.68  184.25
   0  -1   0    0.44    3.31
   0   1   0   -8.42    4.69
   0   1   0   10.05    4.03
   0   1   0    3.55    3.35
   0  -1   0   16.07    4.41
   0  -1   0   -1.20    4.67
   0   1   1 1721.15   90.94
   0  -1  -1 1668.29  102.11
   0   1   1 1614.53   69.09
   0   1   1 1582.09   65.02
   0   1   1 1553.65   71.34
   0   1  -1 1671.20   84.66
   0   1  -1 1528.30   92.38
   0   1  -1 1674.55   75.31
   0   1  -1 1756.33   92.87
   0  -1   1 1689.47   87.17
   0  -1  -1 1592.99   67.22
   0  -1   1 1625.28   85.87
   0  -1  -1 1544.84   86.35
   0  -1   1 1556.18   68.18
   0  -1  -1 1642.32   88.98
   0  -1   1 1641.41   81.52
   0  -1   1 1699.40   75.51
   0   1   1 1595.55   81.94
   0  -1  -1 1601.72   67.62
   0   1  -1 1564.39   71.63
   0   1   286209.77 2777.19
   0   1  -284460.07 2789.11
   0   1   3 2125.96  126.08
   0   1   3 2193.47  115.24
   0   1   3 2022.22   95.20
   0   1   3 2078.65  126.15
   0   1   3 2068.81  124.89
   0   1  -3 2106.80  115.69
   0   1  -3 2115.96  103.98
   0   1  -3 2092.26  115.13
   0   1  -3 2109.88  106.52
   0   1  -3 2082.16  115.35
   0  -1  -3 2113.13   90.83
   0  -1  -3 2079.89   97.10
   0  -1  -3 2024.41  101.08
   0  -1  -3 2125.34  126.11
   0  -1   3 2083.53  129.42
   0  -1   3 2081.03  123.53
   0  -1   3 2049.71   96.30
   0  -1   3 2060.09  122.05
   0  -1   3 2139.15  118.11
   0  -1  -3 2049.63  122.37
   0   1  -4 3485.41  188.87
   0  -1  -4 3408.09  158.37
   0  -1   4 3536.57  153.32
   0  -1   4 3336.47  150.10
   0   1   4 3420.28  160.12
   0   1   4 3473.23  169.95
   0   1   4 3354.19  184.29
   0   1   4 3396.99  160.89
   0   1  -4 3500.69  181.78
   0   1  -4 3231.81  185.58
   0   1  -4 3289.43  184.58
   0   1  -4 3443.70  172.31
   0  -1  -4 3417.26  196.43
   0  -1  -4 3567.62  167.01
   0  -1  -4 3507.59  210.50
   0  -1   4 3504.87  162.78
   0  -1   4 3356.27  183.68
   0   1  -5   20.48   11.91
   0   1  -5   55.56   24.72
   0  -1  -5   36.88   24.91
   0  -1  -5   12.10    8.80
   0  -1  -5   31.48   12.17
   0  -1   5   12.67   11.10
   0  -1   5   25.22   17.54
   0   1   5   31.90   19.28
   0  -1   5    0.36   15.58
   0  -1  -5   29.01   19.55
   0   1   5   22.06   11.05
   0   1   5   17.13   17.45
   0   1  -5   53.27   20.29
   0   1   6  516.69   50.97
   0   1  -6  598.08   44.79
   0  -1  -6  601.41   50.20
   0  -1  -6  559.24   36.43
   0  -1  -6  565.92   52.88
   0  -1   6  596.02   46.44
   0  -1   6  611.72   57.47
   0   1   6  576.11   46.46
   0   1   6  559.24   44.47
   0   1  -6  578.09   46.19
   0   1  -6  590.81   46.62
   0   1   7  306.45   45.97
   0   1  -7  268.49   44.17
   0   1  -7  301.03   33.71
   0  -1  -7  295.54   40.93
   0  -1  -7  262.80   26.83
   0  -1  -7  256.29   37.67
   0  -1   7  308.10   40.52
   0   1   7  247.34   29.15
   0   1  -7  232.08   38.90
   0  -1   7  302.01   35.46
   0   1   8 3870.10  216.31
   0  -1  -8 3943.72  193.35
   0  -1  -8 4000.52  223.26
   0   1   8 4198.86  232.18
   0  -1   8 4125.24  226.61
   0   1  -8 4019.41  204.71
   0   1  -8 4148.67  211.32
   0   1  -8 3832.81  232.91
   0  -1  -8 3978.19  253.22
   0  -1   8 4136.10  208.04
   0   1   9  322.56   46.57
   0   1  -9  218.11   42.11
   0   1   9  232.13   41.82
   0   1  -9  267.09   35.32
   0   1  -9  245.38   45.13
   0  -1  -9  231.46   50.01
   0  -1  -9  318.35   44.57
   0  -1   9  282.43   41.72
   0  -1   9  275.37   46.99
   0   1  10  782.24   96.95
   0   1 -10  760.52   86.99
   0   1 -10  753.91   80.74
   0  -1 -10  714.20   77.90
   0  -1 -10  694.36   80.93
   0  -1  10  644.31   75.37
   0  -1  10  736.18   84.84
   0   2   132143.26 1051.55
   0   2   131355.38 1070.25
   0   2  -131314.76 1067.07
   0   2  -133804.51 1168.42
   0  -2  -132425.87 1054.45
   0  -2   132337.89 1011.89
   0   2   258598.19 1931.14
   0   2   257161.02 2036.74
   0   2  -260959.46 2014.90
   0   2  -258924.51 1966.79
   0  -2  -261010.36 2024.98
   0  -2   260045.87 2076.93
   0  -2   259164.27 2069.73
   0  -2   260621.72 2007.92
   0   2   259159.51 2097.86
   0   2   261343.00 1970.34
   0   2  -3  835.97   49.66
   0   2  -3  889.11   76.90
   0  -2  -3  798.37   70.44
   0   2   3  814.83   70.19
   0   2   3  900.80   50.37
   0   2   3  816.06   46.65
   0   2   3  911.09   67.30
   0   2   3  911.68   49.83
   0   2  -3  891.92   64.90
   0   2  -3  867.22   58.70
   0   2  -3  890.54   55.85
   0  -2  -3  794.06   52.84
   0  -2  -3  864.72   47.48
   0  -2  -3  781.80   49.89
   0  -2  -3  731.70   59.44
   0  -2   3  896.67   60.72
   0  -2   3  829.05   44.39
   0  -2   3  836.93   70.38
   0  -2   3  781.06   52.59
   0  -2   3  831.32   62.14
   0  -2  -421897.08  803.47
   0  -2  -422254.02  839.75
   0  -2   423257.41  845.40
   0  -2   422106.38  803.29
   0   2   422532.43  813.01
   0   2   422137.14  837.75
   0   2   422124.57  839.40
   0   2  -422958.84  999.35
   0   2  -422598.44  881.93
   0  -2  -421654.29  963.29
   0   2   423001.38  889.46
   0  -2  -423117.70  822.70
   0  -2   424086.71  902.73
   0  -2   421722.31  792.43
   0   2  -424088.74  905.88
   0   2  -422332.04  783.39
   0   2  -422714.50  803.37
   0   2   5   17.76   10.08
   0   2   5   43.00   24.01
   0  -2  -5   17.62   22.90
   0  -2  -5   52.71   12.73
   0   2   5   24.92   15.72
   0   2  -5   26.32   20.96
   0   2  -5   14.60   14.24
   0   2  -5   39.29   23.11
   0  -2  -5   10.54    9.58
   0  -2  -5   20.28   17.67
   0  -2   5   23.41   13.67
   0  -2   5   53.06   17.22
   0  -2   5   40.82   15.13
   0  -2   6 2017.57  130.57
   0   2   6 2044.22   96.09
   0   2  -6 2103.48  133.74
   0  -2  -6 1878.39  129.72
   0  -2  -6 1994.68  106.03
   0  -2  -6 2018.50  130.42
   0  -2   6 1936.30  110.73
   0   2   6 1886.48  107.32
   0   2   6 2077.86  128.81
   0   2  -6 2028.42  140.08
   0   2  -6 2071.42  114.03
   0   2   7   52.95   20.69
   0   2   7   57.57   27.34
   0   2  -7   49.90   22.02
   0   2  -7   46.90   24.47
   0  -2  -7   66.55   35.32
   0  -2  -7   86.53   19.29
   0  -2   7   42.43   23.36
   0  -2   7  108.04   24.18
   0   2  -7   51.60   30.40
   0  -2  -7  114.84   22.75
   0   2   8  695.95   55.44
   0   2   8  719.69   77.39
   0   2  -8  680.81   70.22
   0   2  -8  638.61   53.00
   0  -2  -8  647.11   62.20
   0  -2  -8  723.90   60.19
   0  -2  -8  643.30   64.07
   0   2  -8  633.73   69.50
   0  -2   8  601.01   58.50
   0  -2   8  620.01   63.74
   0  -2  -9   40.81   28.43
   0   2   9   29.32   22.72
   0   2   9   34.99   28.88
   0   2  -9   53.62   32.68
   0   2  -9   55.57   20.46
   0   2  -9   36.55   24.30
   0  -2  -9   78.80   34.75
   0  -2   9   38.20   29.47
   0  -2   9   49.80   35.19
   0   2  10 3694.78  250.22
   0   2 -10 3576.82  267.48
   0   2 -10 3545.19  207.92
   0  -2 -10 3770.94  276.22
   0  -2 -10 3661.79  215.81
   0  -2  10 3234.89  202.10
   0  -2  10 3482.51  233.43
   0  -3   0   17.29   10.02
   0  -3   0   20.94    7.06
   0   3   0   10.10    9.54
   0   3   0   17.79    9.53
   0   3   0    2.71    9.62
   0   3   0   -0.20    6.66
   0   3   0    6.28    6.04
   0  -3   0   -6.77    8.62
   0  -3   0   14.64   12.13
   0  -3   0   -6.82    8.46
   0   3   111687.89  420.53
   0   3   111579.04  417.40
   0   3   110758.58  371.66
   0  -3  -111371.02  441.03
   0  -3   110584.16  426.19
   0   3   111915.55  435.15
   0   3   110930.54  407.56
   0   3   111174.41  413.24
   0   3   110565.84  377.48
   0   3  -110898.58  416.82
   0   3  -110563.28  440.82
   0   3  -111765.67  489.26
   0   3  -111267.21  427.58
   0   3  -111728.18  414.69
   0   3  -110851.97  411.82
   0  -3  -111294.53  402.54
   0  -3  -111188.71  392.88
   0  -3   111302.40  452.85
   0  -3   111633.95  402.44
   0  -3   111675.59  425.56
   0   3   2 2901.79  122.26
   0   3   2 2828.26  116.51
   0   3   2 3018.19  130.43
   0   3   2 2958.30  131.09
   0  -3  -2 3022.28  138.45
   0   3   2 2806.15  141.00
   0  -3  -2 2900.94  123.49
   0   3  -2 3078.65  163.31
   0   3  -2 3141.48  142.89
   0   3  -2 3101.22  154.60
   0   3  -2 3132.86  143.59
   0  -3  -2 2953.94  147.39
   0  -3  -2 2924.50  168.84
   0  -3   2 3138.21  161.71
   0  -3  -2 3116.22  148.63
   0  -3   2 3121.82  166.17
   0  -3   2 2957.79  156.40
   0  -3   2 2962.49  156.77
   0  -3   2 3032.56  155.50
   0   3  -2 2876.33  159.20
   0   3   312308.94  546.69
   0   3   313235.81  448.44
   0   3   311176.73  465.40
   0   3   311513.89  541.65
   0   3   312778.12  481.88
   0   3  -313039.63  552.32
   0   3  -312348.78  496.58
   0   3  -312343.96  483.62
   0   3  -312810.65  429.93
   0   3  -312150.69  519.49
   0  -3  -311633.50  526.40
   0  -3  -312089.69  459.78
   0  -3  -311964.25  444.28
   0  -3  -312399.38  551.28
   0  -3  -312337.88  489.82
   0  -3   312302.31  470.25
   0  -3   312447.35  460.25
   0  -3   312621.17  516.46
   0  -3   311620.76  459.70
   0  -3   313203.86  505.42
   0   3   417054.39  593.35
   0   3   416363.41  601.06
   0   3   415899.60  632.15
   0   3   417291.52  626.87
   0   3  -416671.05  633.13
   0   3  -416764.80  713.52
   0   3  -415877.83  690.22
   0   3  -416674.97  663.58
   0   3  -416575.93  693.48
   0  -3  -416407.39  737.28
   0  -3  -416959.42  653.24
   0  -3  -417323.00  732.45
   0  -3  -416717.38  656.00
   0  -3   416289.32  621.48
   0  -3   416460.63  778.31
   0  -3   417107.74  667.44
   0  -3   416601.54  643.41
   0   3   5    9.84    8.44
   0   3   5   16.83   15.63
   0   3  -5   -6.27   14.89
   0   3  -5   22.75   21.35
   0  -3  -5    7.56   22.53
   0  -3  -5   -5.33   11.06
   0  -3  -5    6.52   12.52
   0  -3  -5   -1.84   18.92
   0  -3   5   32.47   16.14
   0  -3   5  -11.76   17.71
   0   3   5   45.40   24.72
   0   3  -5   -1.12   17.94
   0   3   6 1178.84   65.60
   0   3   6 1265.18   81.26
   0   3   6 1374.46   87.00
   0   3  -6 1317.25   90.38
   0   3  -6 1441.51  113.80
   0   3  -6 1285.90  101.71
   0  -3  -6 1174.55   91.77
   0  -3  -6 1272.07   83.20
   0  -3  -6 1204.37   85.58
   0  -3   6 1299.46   97.05
   0  -3   6 1223.22   78.83
   0   3   7   25.70   21.45
   0  -3  -7   18.06   14.81
   0  -3   7   34.58   27.73
   0   3   7   12.44   18.04
   0   3  -7   -3.56   24.39
   0   3  -7   -2.08   16.66
   0   3  -7   -6.04   22.23
   0  -3  -7  -10.99   22.19
   0  -3  -7   19.63   19.35
   0  -3   7   26.17   21.01
   0   3   8  326.26   42.53
   0   3   8  405.49   57.64
   0   3  -8  363.30   61.05
   0   3  -8  374.59   39.29
   0   3  -8  370.68   47.58
   0  -3  -8  392.77   46.99
   0  -3  -8  465.53   41.82
   0  -3  -8  328.41   48.73
   0  -3   8  382.02   44.00
   0  -3   8  379.67   46.00
   0   3   9    8.28   23.03
   0   3  -9  -10.67   28.49
   0   3  -9   11.35   21.13
   0   3  -9    1.84   22.75
   0  -3  -9   14.89   28.98
   0  -3  -9   -3.15   27.29
   0  -3   9   -4.48   27.47
   0  -3   9    9.17   26.30
   0   3  10 3747.45  238.59
   0   3 -10 3591.50  234.80
   0   3 -10 3646.05  218.90
   0  -3 -10 3969.77  270.70
   0  -3 -10 3385.31  208.59
   0  -3  10 3415.01  236.77
   0  -3  10 3591.36  227.35
   0   4   086548.27 2731.74
   0   4   1 3717.01  215.56
   0   4   1 4029.82  154.57
   0   4   1 3620.57  173.19
   0   4   1 3971.85  136.00
   0   4  -1 3780.65  170.76
   0   4  -1 3849.72  171.88
   0   4  -1 4300.24  196.93
   0   4  -1 4133.54  196.80
   0  -4  -1 4000.55  168.38
   0  -4  -1 3898.14  180.26
   0  -4  -1 3914.93  174.76
   0  -4  -1 3774.81  131.85
   0  -4   1 4118.81  202.38
   0   4   1 3864.52  176.70
   0  -4   1 3774.78  142.38
   0  -4   1 3990.56  183.27
   0   4   1 3959.68  138.01
   0   4  -1 3791.12  211.87
   0   4  -1 3830.53  138.59
   0  -4   1 3958.05  188.71
   0  -4  -2 1440.25   75.41
   0  -4   2 1567.16   96.72
   0  -4   2 1607.62  103.77
   0   4   2 1547.40  105.98
   0   4   2 1478.70   72.13
   0   4   2 1479.86   78.77
   0   4   2 1504.16   91.91
   0   4   2 1583.77   96.17
   0   4   2 1519.01   77.34
   0   4  -2 1473.01  105.88
   0   4  -2 1503.33   86.18
   0   4  -2 1606.90  102.24
   0   4  -2 1658.49   91.31
   0   4  -2 1450.77  116.95
   0  -4  -2 1537.42   86.86
   0  -4  -2 1552.53   84.48
   0  -4  -2 1482.26   66.04
   0  -4   2 1502.54   90.75
   0  -4   2 1590.13   79.50
   0  -4   2 1590.17   91.57
   0   4   3 3908.37  170.30
   0   4   3 3445.57  171.60
   0   4   3 3835.75  210.54
   0   4   3 3833.88  158.78
   0   4   3 3816.47  155.02
   0   4   3 3646.56  166.83
   0   4  -3 3745.99  172.45
   0   4  -3 3755.40  183.58
   0   4  -3 3834.05  204.32
   0   4  -3 3865.59  182.45
   0   4  -3 3813.92  178.82
   0  -4  -3 3787.01  164.08
   0  -4  -3 3797.11  175.47
   0  -4  -3 3638.92  148.33
   0  -4  -3 3692.26  173.09
   0  -4   3 3835.01  195.25
   0  -4   3 3978.73  167.93
   0  -4   3 3765.46  167.51
   0  -4   3 3731.28  182.32
   0  -4   3 4037.57  200.69
   0  -4  -4 3688.01  178.93
   0  -4   4 3962.94  221.03
   0  -4   4 3821.58  205.22
   0   4   4 3597.45  155.16
   0   4   4 3903.78  247.03
   0  -4  -4 3608.85  180.98
   0  -4  -4 3752.38  203.32
   0  -4   4 3934.07  165.10
   0   4   4 3814.83  171.11
   0   4   4 3705.62  155.79
   0   4  -4 3815.94  194.30
   0   4  -4 3636.57  194.83
   0   4  -4 3681.38  168.14
   0   4  -4 3969.07  224.64
   0  -4  -4 4319.89  322.55
   0   4   5  474.89   31.88
   0   4   5  501.28   35.54
   0   4   5  357.19   35.30
   0   4  -5  403.50   36.06
   0   4  -5  456.10   37.98
   0   4  -5  485.31   43.79
   0  -4  -5  501.17   40.03
   0  -4  -5  501.81   31.89
   0  -4  -5  441.81   37.87
   0  -4   5  454.55   34.52
   0  -4   5  451.50   36.00
   0  -4  -5  432.17   43.77
   0   4   6  529.95   32.66
   0   4   6  543.64   43.50
   0   4   6  616.14   55.86
   0   4  -6  603.65   47.03
   0  -4  -6  615.94   36.42
   0  -4  -6  532.88   48.16
   0  -4  -6  597.19   49.57
   0  -4   6  635.23   50.36
   0  -4   6  573.51   54.06
   0   4  -6  540.51   44.00
   0   4  -6  547.74   61.16
   0  -4  -6  545.56   60.48
   0   4   7 1388.94   88.99
   0   4   7 1431.75   87.41
   0  -4  -7 1422.73  117.04
   0  -4  -7 1424.59   78.38
   0  -4  -7 1316.13   82.96
   0  -4   7 1401.94  100.80
   0  -4   7 1486.69  114.32
   0   4  -7 1436.92   90.84
   0   4  -7 1543.03  116.06
   0   4  -7 1397.30   84.20
   0   4   8  694.07   70.15
   0   4  -8  674.22   61.84
   0   4  -8  753.47   60.53
   0   4  -8  737.85   63.09
   0  -4  -8  557.91   63.74
   0  -4  -8  842.90   66.64
   0   4   8  703.44   55.80
   0  -4  -8  832.63   71.95
   0  -4   8  791.56   59.25
   0  -4   8  748.83   76.10
   0   4   9 1513.77  116.37
   0   4  -9 1695.68  140.40
   0   4  -9 1400.72  117.80
   0   4  -9 1601.34  137.48
   0  -4  -9 1563.46  143.77
   0  -4  -9 1632.27  111.71
   0  -4   9 1591.68  118.53
   0  -4   9 1413.02  113.80
   0   4  10 1220.09  118.68
   0   4 -10 1031.54  116.39
   0  -4 -10 1071.45   95.41
   0  -4  10  990.70   88.05
   0  -4  10 1186.28  101.79
   0   4 -10 1036.05  119.13
   0  -4 -10  990.09   99.39
   0   5   0   15.59   13.76
   0   5   0   -1.40    7.94
   0   5   0   -7.97   12.18
   0   5   0   -7.05    8.41
   0   5   0   -2.23   11.45
   0   5   0    4.77    7.17
   0  -5   0    1.12   13.96
   0  -5   0   -8.50   11.18
   0  -5   0    4.27    8.22
   0  -5   0    6.58    6.26
   0  -5   119260.76  729.43
   0  -5   119421.14  657.56
   0   5   120593.89  707.25
   0   5   119803.95  681.86
   0   5   118990.42  683.74
   0   5   118813.70  623.59
   0   5  -118752.16  760.95
   0   5  -118991.27  792.92
   0   5  -119790.81  719.72
   0   5  -120376.51  672.35
   0   5  -120038.42  652.35
   0   5  -119703.34  703.21
   0  -5  -119891.18  774.55
   0  -5  -118658.45  724.92
   0  -5  -118815.71  683.85
   0  -5   119884.55  741.39
   0  -5   119029.54  747.92
   0   5   119597.35  749.29
   0   5   119888.65  682.40
   0   5   119794.75  625.06
   0   5   2 5464.44  243.98
   0   5   2 5254.77  251.29
   0   5   2 5381.43  226.47
   0  -5   2 5582.71  234.79
   0   5   2 5541.60  284.42
   0   5   2 5370.51  285.75
   0   5   2 5297.93  202.75
   0   5   2 5415.20  197.69
   0   5  -2 5339.09  231.05
   0   5  -2 5470.00  214.40
   0   5  -2 5727.97  256.59
   0   5  -2 5666.01  281.74
   0   5  -2 5641.85  227.95
   0   5  -2 5434.38  270.09
   0  -5  -2 5422.16  249.46
   0  -5  -2 5433.30  240.86
   0  -5  -2 5184.68  221.14
   0  -5   2 5490.96  262.28
   0  -5   2 5387.46  299.23
   0  -5   2 5365.84  213.14
   0   5  -319439.57  761.90
   0  -5  -318826.29  673.68
   0   5   318800.10  783.68
   0   5   318857.19  644.91
   0   5   319322.00  667.01
   0   5   318143.17  701.10
   0   5   319358.14  759.62
   0   5   318666.09  698.28
   0   5  -318452.05  785.44
   0   5  -319954.79  757.69
   0   5  -321106.80  709.91
   0   5  -319367.95  788.52
   0  -5  -319458.26  745.41
   0  -5  -318828.69  744.80
   0  -5  -318634.67  688.77
   0  -5   318806.23  744.03
   0  -5   318765.04  637.23
   0  -5   319732.53  775.33
   0  -5   319394.01  747.03
   0  -5   319914.54  824.83
   0   5   4 4079.05  169.47
   0   5  -4 4146.34  210.56
   0   5   4 4016.81  180.73
   0   5   4 3967.78  181.35
   0   5   4 3749.91  216.70
   0   5  -4 4031.50  187.04
   0   5  -4 4145.27  163.50
   0   5  -4 4032.92  224.31
   0  -5  -4 3958.86  222.36
   0  -5  -4 4011.10  200.49
   0  -5  -4 3931.16  195.32
   0  -5  -4 3951.74  188.32
   0  -5   4 4055.73  178.87
   0   5  -5 1215.55   87.36
   0   5   5 1171.76   63.36
   0   5   5 1157.44   62.75
   0   5   5 1207.09   77.92
   0   5  -5 1208.64   81.35
   0   5  -5 1227.44   89.72
   0  -5  -5 1121.95   84.68
   0  -5  -5 1266.30   63.49
   0  -5  -5 1128.73   66.49
   0  -5  -5 1116.92   79.32
   0  -5   5 1167.72   91.07
   0  -5   5 1245.68   62.11
   0  -5  -6 4646.90  245.58
   0   5  -6 4788.28  212.50
   0   5  -6 4658.92  228.75
   0  -5   6 4350.27  190.32
   0   5   6 4141.34  192.53
   0   5   6 4484.39  210.75
   0   5   6 4545.85  238.35
   0   5  -6 4535.66  226.88
   0  -5  -6 4356.59  188.83
   0  -5  -6 4063.15  176.09
   0  -5  -6 4561.70  225.15
   0  -5   6 4600.57  223.88
   0   5   7 2647.86  148.33
   0   5  -7 2575.79  142.81
   0  -5  -7 2390.23  126.96
   0   5  -7 2552.71  126.95
   0   5  -7 2411.66  158.33
   0   5   7 2400.53  121.19
   0  -5  -7 2528.44  131.89
   0  -5  -7 2469.04  172.73
   0  -5   7 2458.49  162.23
   0  -5   7 2565.71  164.93
   0   5   8 3786.74  180.09
   0   5   8 3733.97  220.95
   0   5  -8 4003.74  191.27
   0   5  -8 3760.70  181.83
   0   5  -8 4019.76  227.35
   0  -5  -8 3637.91  226.06
   0  -5  -8 3879.61  201.15
   0  -5  -8 3960.52  233.62
   0  -5   8 3893.81  207.76
   0  -5   8 3751.92  221.93
   0   5   9  224.97   48.99
   0   5  -9  324.42   49.19
   0   5  -9  293.72   44.22
   0   5  -9  321.14   54.81
   0  -5  -9  257.16   52.10
   0  -5  -9  265.75   41.38
   0  -5   9  253.26   52.79
   0  -5   9  303.46   40.63
   0   5  10  376.94   67.15
   0   5 -10  356.67   58.48
   0   5 -10  324.85   63.18
   0  -5 -10  414.42   55.26
   0  -5 -10  324.99   46.89
   0  -5  10  354.36   59.47
   0  -5  10  342.62   62.70
   0   6   034219.07 1286.48
   0   6   036872.07 1226.69
   0   6   036686.75 1323.04
   0   6   036125.08 1190.63
   0   6   035832.04 1178.32
   0   6   035733.45 1194.57
   0  -6   034746.90 1229.67
   0  -6   035588.52 1266.51
   0  -6   035402.64 1156.10
   0  -6   035233.59 1191.96
   0   6   1  703.30   41.41
   0   6   1  752.20   45.90
   0   6   1  747.73   51.25
   0   6   1  717.23   47.29
   0   6   1  827.60   49.32
   0   6   1  648.26   26.80
   0   6   1  763.64   28.88
   0   6  -1  813.91   57.94
   0   6  -1  728.62   58.77
   0   6  -1  777.38   64.71
   0   6  -1  747.66   57.37
   0   6  -1  727.28   37.86
   0   6  -1  728.41   43.32
   0  -6  -1  728.03   53.57
   0  -6  -1  751.68   52.86
   0  -6  -1  746.54   38.36
   0  -6   1  762.64   52.00
   0  -6   1  771.65   51.57
   0  -6   1  768.85   37.17
   0  -6   1  813.52   45.86
   0   6   2  417.50   32.49
   0   6   2  411.05   38.51
   0   6   2  442.64   38.53
   0   6   2  408.86   27.23
   0   6   2  436.34   39.39
   0   6   2  369.51   42.82
   0   6   2  396.93   23.75
   0   6  -2  406.11   41.19
   0   6  -2  398.91   29.90
   0   6  -2  448.67   37.59
   0   6  -2  421.47   23.55
   0   6  -2  450.25   33.72
   0  -6  -2  454.92   40.91
   0  -6  -2  434.10   33.78
   0  -6  -2  439.51   28.87
   0  -6   2  433.15   31.36
   0  -6   2  435.12   36.10
   0  -6   2  441.40   31.96
   0  -6   2  440.56   34.79
   0   6  -2  436.07   51.61
   0   6   315881.21  562.23
   0   6   315696.30  568.52
   0   6   315220.86  706.34
   0   6   316115.78  578.54
   0   6  -315667.69  679.00
   0   6  -316605.96  698.94
   0   6  -317864.31  699.61
   0   6  -316909.37  615.57
   0   6  -316844.80  811.70
   0  -6  -315732.47  735.40
   0  -6  -316157.50  637.10
   0  -6  -315818.34  575.04
   0  -6   316320.06  739.99
   0  -6   315854.89  727.06
   0  -6   316193.47  625.19
   0  -6   317579.93  715.63
   0   6   316693.33  593.42
   0   6   412041.07  435.06
   0   6   411901.48  470.99
   0   6   411380.30  445.35
   0   6   411807.31  445.80
   0   6  -412479.91  536.50
   0   6  -413119.50  556.39
   0   6  -412340.72  448.78
   0   6  -412184.07  467.82
   0  -6  -411938.13  567.27
   0  -6  -411332.74  463.16
   0  -6  -411198.80  469.91
   0  -6  -411426.38  485.62
   0  -6   411641.27  450.92
   0  -6   411807.38  457.48
   0   6   5 9902.68  366.08
   0   6   510282.93  394.97
   0   6   510072.39  489.82
   0   6  -510197.15  493.64
   0   6  -510827.13  494.55
   0   6  -510069.71  440.21
   0  -6  -510498.65  460.78
   0  -6  -510020.32  402.27
   0  -6  -5 9520.85  398.28
   0  -6  -510187.22  439.12
   0  -6   510451.09  488.53
   0  -6   510394.44  432.86
   0   6   6 7321.57  327.55
   0   6   6 8074.51  381.36
   0   6   6 8613.13  366.52
   0   6  -6 8230.84  427.08
   0   6  -6 8184.14  364.25
   0   6  -6 8728.42  415.82
   0  -6  -6 8063.45  386.26
   0  -6  -6 8287.66  315.93
   0  -6  -6 7088.77  330.18
   0  -6  -6 7982.46  342.71
   0  -6   6 8322.46  390.47
   0  -6   6 8728.35  351.15
   0   6   7  162.44   25.16
   0   6   7  141.01   50.63
   0   6  -7  166.34   33.59
   0   6  -7  180.99   29.75
   0   6  -7  158.21   41.88
   0  -6  -7  116.25   36.99
   0  -6  -7  143.59   23.94
   0  -6  -7  145.61   29.74
   0  -6   7  160.30   38.65
   0  -6   7  167.10   28.42
   0   6   8  -16.47   28.78
   0   6  -8   27.33   22.45
   0   6  -8   20.52   21.68
   0   6  -8    0.56   38.08
   0  -6  -8   -9.89   26.49
   0  -6  -8   -7.83   22.28
   0  -6   8   37.66   22.15
   0  -6   8   18.92   20.32
   0   6   9 1364.15  119.58
   0   6  -9 1153.85   89.18
   0   6  -9 1111.37   92.71
   0   6  -9 1223.83  107.01
   0  -6  -9  984.04  109.37
   0  -6  -9 1111.16   98.37
   0  -6   9 1042.87   93.77
   0  -6   9 1050.65   93.15
   0   6  10  577.85   80.99
   0   6 -10  602.81   87.70
   0   6 -10  471.01   73.80
   0  -6 -10  521.31   93.85
   0  -6 -10  563.06   58.37
   0  -6  10  552.68   57.16
   0  -6  10  493.70   62.29
   0   7   0   12.22   13.34
   0   7   0    9.69   13.33
   0   7   0   -0.48   13.28
   0   7   0    0.12   13.29
   0   7   0  -11.74   13.30
   0   7   0   -1.57   13.37
   0  -7   0   34.64   13.29
   0  -7   0  -15.05   13.30
   0  -7   0   -9.15   13.30
   0  -7   0   -1.60   13.28
   0   7   1 5772.50  231.69
   0   7   1 5749.93  252.37
   0   7   1 6027.05  254.58
   0   7   1 5790.65  236.93
   0   7   1 5878.54  305.88
   0   7   1 5133.59  182.56
   0   7   1 5972.63  183.00
   0   7  -1 5696.99  270.49
   0   7  -1 6016.88  290.19
   0   7  -1 5921.30  261.12
   0   7  -1 5999.28  238.42
   0   7  -1 5772.13  232.18
   0   7  -1 6038.90  265.50
   0  -7  -1 5898.26  273.48
   0  -7  -1 5757.53  289.89
   0  -7  -1 5916.00  236.40
   0  -7   1 5962.18  239.03
   0  -7   1 5929.73  301.38
   0  -7   1 5972.90  235.56
   0  -7   1 5989.81  228.36
   0   7   2 2084.14  130.45
   0   7   2 2155.34  103.11
   0   7   2 1994.97   98.45
   0   7   2 2129.36   99.20
   0   7   2 2019.57   97.92
   0   7   2 2098.15  120.38
   0   7   2 2046.11   80.27
   0   7   2 2107.90   86.70
   0   7  -2 2052.83  117.63
   0   7  -2 2027.62  116.55
   0   7  -2 2262.54  119.55
   0   7  -2 2082.16   99.28
   0   7  -2 1996.26  134.68
   0  -7  -2 2039.55  129.72
   0  -7  -2 2042.97  110.48
   0  -7   2 1963.06  101.84
   0  -7   2 2014.14  100.66
   0  -7   2 2053.28   87.25
   0  -7   2 2142.28  123.90
   0   7  -2 2084.41  115.79
   0   7   310130.33  393.51
   0   7   3 9472.31  388.10
   0   7   310388.21  378.81
   0   7   3 9881.07  451.09
   0   7   3 9832.13  367.82
   0   7  -310251.97  416.21
   0   7  -310220.20  511.52
   0   7  -310314.92  384.11
   0   7  -3 9763.41  385.99
   0  -7  -310338.41  449.11
   0  -7  -3 9771.01  387.74
   0  -7  -3 9585.44  353.80
   0  -7   310279.79  439.02
   0  -7   313539.33  845.54
   0  -7   3 9685.74  370.06
   0   7   4  651.28   39.22
   0   7   4  661.99   42.19
   0   7   4  657.61   48.47
   0   7   4  594.38   45.30
   0   7   4  639.25   36.73
   0   7  -4  628.54   46.39
   0   7  -4  617.04   47.49
   0   7  -4  650.80   39.12
   0   7  -4  721.70   66.39
   0  -7  -4  608.56   55.35
   0  -7  -4  654.59   45.48
   0  -7  -4  665.62   47.92
   0  -7   4  649.16   58.00
   0  -7   4  728.17   43.54
   0   7   5 4688.68  229.21
   0   7   5 4770.77  202.68
   0   7   5 5057.15  272.19
   0   7   5 4550.98  201.83
   0   7  -5 4904.17  257.01
   0   7  -5 5030.32  270.52
   0   7  -5 4889.61  239.21
   0   7  -5 4842.40  254.61
   0  -7  -5 5107.95  320.23
   0  -7  -5 4864.42  213.06
   0  -7  -5 4435.61  206.22
   0  -7  -5 4816.76  223.34
   0  -7   5 4837.94  242.15
   0  -7   5 5110.18  228.11
   0   7   6  213.82   36.68
   0   7  -6  156.67   27.77
   0   7  -6  201.61   28.79
   0  -7  -6  172.83   23.50
   0  -7   6  194.20   29.36
   0   7   6  176.97   21.59
   0   7  -6  221.79   38.61
   0  -7  -6  164.28   37.83
   0  -7  -6  207.16   23.38
   0  -7  -6  147.21   20.91
   0  -7   6  179.66   38.78
   0   7   7 6381.76  348.71
   0  -7  -7 6324.51  285.06
   0   7  -7 6098.80  323.12
   0   7  -7 6308.41  306.40
   0   7  -7 6275.79  305.66
   0  -7  -7 5925.48  321.22
   0  -7  -7 5943.51  276.91
   0  -7   7 6446.76  321.11
   0  -7   7 6199.57  319.68
   0  -7  -8  265.32   35.53
   0  -7   8  262.50   40.24
   0   7   8  228.33   36.68
   0   7  -8  301.67   46.79
   0   7  -8  297.91   36.67
   0   7  -8  279.39   55.88
   0  -7  -8  254.72   46.62
   0  -7   8  289.33   45.98
   0   7   9  329.03   58.83
   0   7  -9  279.90   43.60
   0   7  -9  280.02   49.45
   0   7  -9  327.27   58.06
   0  -7  -9  310.96   53.15
   0  -7  -9  233.02   40.77
   0  -7   9  325.16   51.70
   0  -7   9  386.92   54.03
   0   7  10  495.73   67.12
   0   7 -10  418.44   62.74
   0   7 -10  497.80   71.65
   0  -7 -10  477.34   70.04
   0  -7 -10  414.63   53.11
   0  -7  10  428.47   55.71
   0   8   0 6411.40  294.93
   0   8   0 6862.74  295.73
   0   8   0 6752.00  305.00
   0   8   0 6726.16  323.83
   0   8   0 6288.74  240.52
   0   8   0 6035.37  250.23
   0  -8   0 6385.27  295.16
   0  -8   0 6355.04  315.37
   0  -8   0 6173.21  256.48
   0  -8   0 6166.11  229.80
   0   8  -1  856.79   67.51
   0   8  -1  890.97   60.28
   0   8   1  889.65   53.49
   0   8   1  984.74   60.58
   0   8   1  802.82   52.45
   0   8   1  833.16   54.28
   0   8   1  825.32   49.54
   0   8   1  873.76   54.19
   0   8  -1  863.53   58.05
   0   8  -1  829.33   78.67
   0   8  -1  916.28   48.12
   0   8  -1  834.73   60.74
   0  -8  -1  864.90   67.81
   0  -8  -1  843.61   70.21
   0  -8   1  820.44   55.80
   0  -8   1  791.08   69.20
   0  -8   1  891.71   47.34
   0  -8   1  884.10   49.76
   0   8   2 5602.08  265.42
   0   8   2 5663.90  286.19
   0   8   2 6020.33  193.15
   0   8  -2 6014.58  290.56
   0  -8  -2 5690.11  259.19
   0  -8  -2 5457.99  255.23
   0  -8   2 5820.61  257.34
   0  -8   2 5796.44  255.71
   0  -8   2 5795.54  255.40
   0   8   2 5436.33  193.20
   0   8  -2 5829.63  265.81
   0   8  -2 5682.41  242.16
   0   8  -2 6041.96  230.45
   0  -8   2 5926.39  219.36
   0   8   2 5767.49  293.49
   0   8   2 6074.16  276.73
   0   8   2 5392.59  234.75
   0   8   2 5997.62  241.63
   0   8   3 1605.91  105.09
   0   8   3 1575.51   90.33
   0   8   3 1585.73   86.21
   0   8   3 1645.57   95.19
   0   8   3 1618.95   74.67
   0   8  -3 1590.76   92.84
   0   8  -3 1794.46  131.65
   0   8  -3 1668.40   75.94
   0   8  -3 1557.22  101.71
   0  -8  -3 1545.43   86.17
   0  -8  -3 1574.71   84.02
   0  -8   3 1634.46  113.84
   0  -8   3 1578.47   95.41
   0  -8   3 1674.42   78.00
   0   8   4  527.39   43.56
   0   8   4  566.62   36.62
   0   8   4  558.77   39.46
   0   8   4  552.39   52.29
   0   8   4  547.24   34.26
   0   8  -4  530.21   57.44
   0   8  -4  588.00   35.90
   0   8  -4  568.47   53.01
   0  -8  -4  544.47   48.04
   0  -8  -4  517.74   33.18
   0  -8  -4  614.37   37.47
   0  -8   4  558.70   47.83
   0  -8   4  603.55   37.34
   0   8   5 1968.21  111.06
   0   8   5 2066.14  104.69
   0   8   5 1932.02  120.77
   0   8   5 2081.23  114.00
   0   8  -5 2233.02  144.06
   0  -8  -5 2128.13  140.10
   0  -8  -5 2063.10  107.38
   0  -8  -5 2052.73  107.32
   0  -8   5 2282.21  144.76
   0  -8   5 2145.15  104.70
   0   8   5 2015.91  115.82
   0   8  -5 2092.05  116.96
   0   8  -5 2030.96  122.96
   0   8  -5 2142.84  145.61
   0   8   6   24.30   14.36
   0   8   6   52.87   29.24
   0   8  -6    1.48   21.95
   0   8  -6   37.02   21.82
   0   8  -6   29.60   23.39
   0  -8  -6  -12.85   17.99
   0  -8  -6   49.39   16.52
   0  -8  -6   24.24   16.61
   0  -8   6   12.24   27.60
   0  -8   6   23.41   21.61
   0   8   7 3577.50  186.56
   0   8   7 3866.49  222.35
   0   8  -7 3665.43  189.63
   0   8  -7 3720.52  181.07
   0   8  -7 3780.31  204.78
   0  -8  -7 3613.31  212.82
   0  -8  -7 3769.75  191.35
   0  -8  -7 3696.36  189.32
   0  -8   7 3683.51  239.23
   0  -8   7 3908.47  202.32
   0   8   8  703.13   71.48
   0   8  -8  749.60   65.73
   0   8  -8  869.31   73.29
   0   8  -8  747.36   72.41
   0  -8  -8  801.20   74.17
   0  -8  -8  796.99   70.48
   0  -8   8  668.56   76.41
   0  -8   8  818.66   74.40
   0   8   9 2259.53  167.11
   0   8  -9 2205.90  147.52
   0   8  -9 2361.28  158.19
   0  -8  -9 2249.39  176.87
   0  -8  -9 1969.09  137.39
   0  -8   9 2422.88  181.71
   0  -8   9 2284.28  163.89
   0   8  -9 2190.01  171.74
   0   8  10   44.79   39.40
   0   8 -10   56.72   31.26
   0   8 -10    9.14   39.58
   0  -8 -10   29.14   30.61
   0  -8  10   47.42   35.34
   0   9   0   -9.38   16.16
   0   9   0   -3.56   16.20
   0   9   0   -0.40   16.27
   0  -9   0  -10.14   16.17
   0  -9   0    5.03   16.17
   0  -9   0   -5.59   16.18
   0   9   0   13.86   16.22
   0   9   0  -10.00   16.21
   0  -9   0    3.12   16.20
   0   9   1 3086.42  155.06
   0   9   1 3169.23  147.77
   0   9   1 3182.57  158.31
   0   9   1 3140.52  146.67
   0   9   1 3159.71  168.25
   0   9   1 3090.70  140.90
   0   9  -1 3140.22  172.18
   0  -9  -1 3137.55  165.65
   0  -9  -1 3097.17  151.23
   0  -9   1 3077.51  153.22
   0  -9   1 3214.46  201.47
   0  -9   1 3226.82  124.31
   0  -9   1 3166.96  153.78
   0   9  -1 3222.10  177.61
   0   9  -1 3277.91  133.65
   0   9  -1 3033.48  155.35
   0   9   2  633.04   52.87
   0   9   2  736.96   52.00
   0   9   2  709.66   51.60
   0   9  -2  730.96   46.71
   0   9  -2  726.96   53.65
   0   9  -2  690.16   38.76
   0   9  -2  687.27   58.37
   0  -9  -2  625.63   46.48
   0  -9  -2  728.61   59.92
   0   9   2  815.59   50.08
   0  -9   2  697.41   56.64
   0  -9   2  739.97   39.45
   0  -9   2  667.37   43.33
   0   9   318003.36  665.56
   0   9   317662.17  627.73
   0   9   317374.14  643.44
   0   9   319640.09  808.20
   0   9   317899.19  602.51
   0   9   318139.96  608.30
   0   9  -316752.20  743.87
   0   9  -317558.71  750.27
   0   9  -318974.12  621.86
   0   9  -318190.14  769.18
   0  -9  -318204.72  693.50
   0  -9  -317616.56  652.32
   0  -9   317950.00  741.80
   0  -9   318312.38  667.18
   0   9   4 1519.44  109.63
   0   9   4 1555.19   91.74
   0   9   4 1479.95   76.27
   0   9   4 1595.18  112.75
   0   9   4 1489.77   76.81
   0   9  -4 1578.92   94.19
   0   9  -4 1480.24  136.02
   0   9  -4 1561.40   81.84
   0   9  -4 1518.95   98.30
   0  -9  -4 1482.39   77.43
   0  -9  -4 1481.25   77.23
   0  -9  -4 1538.65   69.93
   0  -9   4 1505.61  118.67
   0  -9   4 1493.56   94.15
   0   9   5  307.80   33.70
   0   9   5  313.14   39.41
   0   9   5  293.02   35.74
   0   9  -5  427.33   42.86
   0   9  -5  357.69   42.89
   0   9  -5  312.51   25.99
   0   9  -5  349.69   49.49
   0  -9  -5  353.47   35.45
   0  -9  -5  367.46   30.64
   0  -9  -5  340.22   29.43
   0  -9   5  367.94   44.80
   0  -9   5  368.33   31.69
   0   9   5  371.63   30.95
   0   9   6   15.56   12.49
   0   9   6   -3.36   27.87
   0   9  -6   25.82   17.52
   0   9  -6    9.78   19.31
   0   9  -6   10.42   31.85
   0  -9  -6   17.95   20.91
   0  -9  -6    9.66   15.16
   0  -9  -6    4.27   14.25
   0  -9   6   24.27   21.99
   0  -9   6   27.90   16.39
   0   9  -7 2489.05  156.32
   0   9   7 2155.78  135.47
   0   9  -7 2280.73  140.67
   0   9  -7 2355.43  141.30
   0  -9  -7 1975.88  133.94
   0  -9  -7 2393.06  131.81
   0  -9  -7 2320.15  147.63
   0  -9   7 2428.95  149.84
   0  -9   7 2372.55  141.43
   0   9  -8  142.13   33.15
   0   9  -8  167.34   40.91
   0  -9   8  132.53   29.39
   0   9   8  156.14   39.50
   0   9  -8  110.23   27.01
   0  -9  -8  108.56   37.28
   0  -9  -8  115.32   31.39
   0  -9   8  176.82   35.35
   0   9   9   54.42   38.41
   0   9  -9  116.36   41.81
   0   9  -9   93.29   33.25
   0   9  -9  111.69   35.35
   0  -9  -9   44.53   40.22
   0  -9   9   84.03   39.71
   0   9 -10  311.38   59.21
   0  -9  10  337.32   50.55
   0  10   0  643.12   49.36
   0  10   0  698.00   37.34
   0  10   0  657.95   43.01
   0  10   0  644.74   40.67
   0 -10   0  707.81   68.60
   0 -10   0  663.01   43.98
   0 -10   0  683.57   31.30
   0  10   1  627.73   47.03
   0  10  -1  603.23   42.38
   0 -10   1  672.80   50.91
   0 -10   1  670.77   45.03
   0  10   1  681.32   53.79
   0  10   1  668.47   41.36
   0  10   1  637.25   51.42
   0  10  -1  604.85   54.48
   0  10  -1  643.31   35.24
   0  10  -1  679.90   51.88
   0 -10  -1  681.52   47.09
   0 -10  -1  635.19   42.63
   0 -10   1  598.25   59.86
   0  10  -2 2061.55   89.31
   0  10   2 1992.26   88.18
   0  10   2 1899.91  106.47
   0  10  -2 1904.71  133.04
   0  10  -2 1925.07  115.06
   0  10  -2 2003.71  111.95
   0 -10  -2 2223.21  165.83
   0 -10  -2 2008.69  128.90
   0 -10  -2 1884.41   95.50
   0 -10   2 1979.57  108.94
   0 -10   2 1894.72  133.90
   0 -10   2 2073.32   87.12
   0 -10   2 2020.98   90.34
   0  10   3 2901.64  104.91
   0  10  -3 2886.14  164.65
   0  10   3 2928.43  123.44
   0  10   3 2891.50  141.58
   0  10   3 3120.55  162.92
   0  10   3 2832.64  108.40
   0  10  -3 2921.75  159.04
   0  10  -3 2968.70  129.82
   0  10  -3 3223.04  224.85
   0 -10  -3 2994.62  148.80
   0 -10  -3 2843.80  155.84
   0 -10   3 3071.15  175.12
   0 -10   3 3097.80  125.14
   0  10   4   23.04   13.50
   0  10   4    4.79   10.03
   0  10   4  -17.21   19.49
   0  10   4    3.32    8.04
   0  10  -4    5.91   16.17
   0  10  -4   -7.19   18.41
   0  10  -4    8.62    8.82
   0  10  -4  -26.53   22.80
   0 -10  -4    2.44   25.33
   0 -10  -4   24.23   15.87
   0 -10  -4   13.35   10.47
   0 -10   4   19.48   24.83
   0 -10   4   15.99   11.46
   0  10   510140.00  391.93
   0  10   510411.15  495.80
   0  10  -510531.28  436.60
   0  10  -511129.18  502.66
   0  10  -510421.02  430.19
   0 -10  -510640.18  457.56
   0 -10  -510231.94  427.79
   0 -10  -510559.72  397.91
   0 -10   510832.00  499.95
   0 -10   511270.69  427.30
   0  10  -6  734.39   69.82
   0  10   6  682.11   48.32
   0  10   6  790.16   77.92
   0  10  -6  726.92   58.53
   0  10  -6  772.38   72.83
   0 -10  -6  864.52   63.98
   0 -10  -6  795.46   57.84
   0 -10  -6  708.39   59.19
   0 -10   6  867.64   81.07
   0 -10   6  827.30   58.63
   0  10   7  915.69   85.91
   0  10  -7  913.38   75.16
   0  10  -7  884.34   71.88
   0  10  -7  917.44   86.57
   0 -10  -7  755.46   82.68
   0 -10  -7  839.97   60.58
   0 -10  -7  902.73   64.67
   0 -10   7 1018.11   83.30
   0 -10   7  908.58   66.25
   0  10  -8    0.24   26.40
   0  10   8   10.58   34.78
   0  10  -8    1.48   21.46
   0  10  -8   23.74   24.58
   0 -10  -8   54.98   36.60
   0 -10  -8   56.62   23.17
   0 -10   8   -9.76   28.85
   0  10   9 2245.95  197.68
   0  10  -9 2196.12  171.65
   0  10  -9 2331.81  183.34
   0  10  -9 2283.45  164.32
   0 -10  -9 2356.91  169.47
   0 -10   9 2269.21  166.08
   0  11   0    8.21   12.58
   0  11   0   -2.92   12.58
   0  11   0   -5.81   12.58
   0  11   0    2.89   12.60
   0 -11   0   18.77   12.54
   0 -11   0   -2.24   12.54
   0 -11   0   -3.77   12.58
   0 -11   1 5364.24  215.38
   0  11   1 6305.97  411.10
   0  11   1 5278.33  261.42
   0  11   1 5173.45  215.79
   0  11  -1 5053.93  255.71
   0  11  -1 5458.94  265.17
   0  11  -1 5114.91  211.07
   0  11  -1 5159.21  225.63
   0 -11  -1 5225.11  251.86
   0 -11  -1 5268.07  220.33
   0 -11   1 5145.06  273.76
   0 -11   1 5431.98  201.24
   0  11   2 3948.05  205.76
   0  11  -2 3868.76  210.50
   0  11  -2 4181.16  187.88
   0  11   2 3971.16  253.48
   0  11   2 3743.71  163.80
   0  11  -2 3994.26  226.07
   0  11  -2 4176.87  164.25
   0 -11  -2 3952.59  177.14
   0 -11   2 3833.25  202.95
   0 -11   2 4320.08  156.70
   0 -11   2 3805.52  189.30
   0 -11   337787.39 1161.24
   0  11   334921.08 1203.54
   0  11   334321.74 1215.12
   0  11   333612.64 1269.46
   0  11  -336293.05 1396.53
   0  11  -335135.52 1341.86
   0  11  -335720.34 1192.18
   0  11  -334222.64 1382.83
   0 -11  -336799.50 1441.04
   0 -11  -341111.42 1408.12
   0 -11   335984.64 1334.39
   0  11   4  200.63   24.01
   0  11   4  226.88   34.06
   0  11   4  171.91   15.87
   0  11   4  179.05   16.46
   0  11   4  201.60   16.76
   0  11  -4  186.08   25.89
   0  11  -4  183.71   33.24
   0 -11  -4  154.90   38.54
   0  11  -4  204.82   22.10
   0  11  -4  229.12   31.87
   0 -11  -4  164.77   25.88
   0 -11   4  240.18   42.03
   0 -11   4  215.67   21.58
   0  11   5  276.29   26.97
   0  11   5  342.93   39.16
   0  11  -5  295.21   40.77
   0  11  -5  375.65   50.05
   0  11  -5  348.63   37.71
   0 -11  -5  411.96   49.83
   0 -11  -5  387.77   39.48
   0 -11  -5  331.68   27.98
   0 -11   5  367.74   42.64
   0 -11   5  391.03   30.96
   0  11   6  364.14   50.77
   0  11  -6  418.69   47.00
   0  11  -6  340.07   40.70
   0  11  -6  402.58   44.37
   0 -11  -6  276.56   54.86
   0 -11  -6  376.56   36.57
   0 -11  -6  328.24   31.95
   0 -11   6  359.85   55.54
   0 -11   6  368.10   32.16
   0  11   7 4319.57  286.55
   0  11  -7 4783.04  273.11
   0  11  -7 4601.78  246.10
   0  11  -7 4536.62  245.81
   0 -11  -7 4285.42  253.46
   0 -11   7 4276.85  273.60
   0  11   8  -10.54   25.60
   0  11  -8   21.18   31.37
   0  11  -8   13.89   25.11
   0  11  -8   26.16   30.16
   0 -11  -8   -1.91   34.34
   0 -11   8    1.52   30.29
   0  11   9  385.89   58.28
   0  11  -9  302.24   49.62
   0  11  -9  302.08   56.67
   0  11  -9  391.59   61.22
   0 -11  -9  324.66   52.12
   0 -11   9  399.22   54.11
   0  12   0 8866.03  355.84
   0  12   0 8137.48  361.83
   0  12   0 8418.89  326.14
   0 -12   0 8597.11  374.57
   0 -12   0 8915.59  438.59
   0 -12   0 8498.22  322.57
   0  12   120855.16  877.96
   0  12   120975.54  754.04
   0  12   120925.10  789.18
   0  12  -120647.73  851.22
   0  12  -121202.19  727.85
   0  12  -121680.10  738.25
   0 -12  -119689.43  879.17
   0 -12  -120607.85  809.46
   0 -12   121869.90  889.14
   0 -12   120513.60  710.85
   0  12   2  230.47   36.29
   0  12   2  158.04   27.01
   0  12  -2  226.96   32.71
   0  12  -2  258.58   34.85
   0  12  -2  244.98   17.91
   0  12  -2  211.01   26.22
   0 -12  -2  251.67   33.64
   0 -12  -2  186.78   24.42
   0 -12   2  194.11   32.43
   0 -12   2  236.04   18.36
   0 -12   2  195.38   27.65
   0  12   3 2191.07  109.55
   0  12   3 2011.92  113.92
   0  12   3 2190.24  129.16
   0  12  -3 2204.45  124.00
   0  12  -3 2115.89  120.35
   0  12  -3 2307.69   96.89
   0  12  -3 2287.08  117.85
   0 -12  -3 2195.81  127.07
   0 -12  -3 2227.34  123.43
   0 -12   3 2117.70  137.17
   0 -12   3 2402.22   95.15
   0  12   4  479.91   37.97
   0  12   4  509.43   47.79
   0  12   4  423.26   20.38
   0  12  -4  570.53   57.43
   0  12  -4  473.35   57.48
   0  12  -4  578.10   53.63
   0 -12  -4  535.51   53.80
   0 -12  -4  466.88   44.56
   0 -12   4  482.78   54.95
   0 -12   4  521.03   32.73
   0  12   5 4171.47  200.67
   0  12   5 4637.14  227.71
   0  12  -5 3531.35  235.45
   0  12  -5 4644.19  250.40
   0  12  -5 4365.67  229.91
   0 -12  -5 4322.51  265.41
   0 -12  -5 4204.00  211.67
   0 -12   5 4130.55  240.58
   0 -12   5 4477.97  185.36
   0  12   6   23.90   30.93
   0  12  -6   -7.31   23.16
   0  12  -6   -3.39   18.45
   0  12  -6   20.80   23.53
   0 -12  -6    4.67   31.04
   0 -12  -6  -12.10   16.85
   0 -12   6   16.01   32.59
   0  12   7  755.70   65.64
   0  12  -7  619.96   63.95
   0  12  -7  718.49   70.13
   0  12  -7  690.41   75.06
   0 -12  -7  581.13   71.69
   0 -12   7  656.85   68.03
   0  12   8   27.59   35.49
   0  12  -8   34.05   29.49
   0  12  -8   34.58   27.55
   0  12  -8    8.68   31.45
   0 -12  -8  -37.26   24.54
   0 -12   8   91.11   37.67
   0  12   9 1093.89  119.91
   0  12  -9  992.24  100.40
   0  12  -9  910.69   82.07
   0  12  -9  990.73  116.19
   0 -12  -9  941.42   99.33
   0 -12   9  880.90  109.39
   0  13   0   -5.01   21.12
   0  13   0  -40.07   21.06
   0  13   0   -6.98   21.15
   0  13   0   -5.22   21.15
   0  13   0   -1.96   21.08
   0 -13   0    9.10   21.04
   0 -13   0    6.10   21.16
   0  13   1   61.02   19.41
   0  13   1   60.80   19.77
   0  13   1   80.54   20.70
   0  13  -1   55.91   19.00
   0  13  -1   80.27   25.92
   0  13  -1   97.00   14.05
   0  13  -1   82.74   12.00
   0  13  -1   79.92   17.28
   0 -13  -1   95.07   29.14
   0 -13  -1   72.44   19.25
   0 -13   1  111.24   31.20
   0 -13   1   60.15   13.31
   0  13   2 6211.00  264.98
   0  13   2 6134.84  296.44
   0  13  -2 6201.23  281.60
   0  13  -2 6207.57  301.33
   0  13  -2 6507.08  236.26
   0  13  -2 6139.91  295.98
   0 -13  -2 5865.75  288.94
   0 -13  -2 6167.33  285.65
   0 -13   2 5865.31  316.46
   0  13   3 7637.58  382.76
   0  13   3 7763.27  366.49
   0  13   3 7562.71  346.11
   0  13  -3 7792.13  408.30
   0  13  -3 7893.96  389.06
   0  13  -3 8045.26  260.94
   0  13  -3 7606.31  372.63
   0 -13  -3 7666.52  321.09
   0 -13   3 7612.13  386.99
   0 -13   3 8207.41  255.39
   0  13   4    5.37   15.16
   0  13   4   46.75   29.46
   0  13  -4   50.32   19.54
   0  13  -4   26.16   19.53
   0  13  -4   80.50   27.61
   0 -13  -4   64.34   27.73
   0 -13  -4   64.15   21.84
   0 -13   4   44.76   23.85
   0 -13   4   56.93    8.94
   0  13   5  430.67   37.31
   0  13   5  476.84   47.40
   0  13  -5  494.31   51.58
   0  13  -5  478.33   57.85
   0  13  -5  410.98   43.61
   0 -13  -5  500.39   52.73
   0 -13  -5  496.80   52.71
   0 -13   5  407.59   48.87
   0  13   6  109.78   38.33
   0  13  -6   61.23   25.36
   0  13  -6   54.32   27.12
   0  13  -6   49.38   32.55
   0 -13  -6  115.56   36.14
   0 -13  -6  111.99   24.40
   0 -13   6  114.68   35.29
   0  13   7 4209.25  250.31
   0  13  -7 3821.80  197.96
   0  13  -7 4211.89  231.14
   0  13  -7 4168.64  282.96
   0 -13  -7 3859.81  225.30
   0 -13   7 4046.26  258.81
   0  13   8  624.71   75.70
   0  13  -8  603.09   70.18
   0  13  -8  711.94   72.31
   0  13  -8  629.91   68.19
   0 -13  -8  654.69   89.61
   0 -13   8  713.71   87.84
   0  13  -9   56.71   36.05
   0  13  -9  -12.15   33.57
   0 -13   9   -7.36   25.76
   0  14   021558.83  811.04
   0  14   020810.36  908.12
   0  14   021696.79  767.89
   0  14   021695.14  755.91
   0  14   021012.51  704.72
   0 -14   022405.75  785.78
   0 -14   020649.89  718.58
   0  14   1 9608.09  438.86
   0  14   1 9670.91  392.61
   0  14  -1 9706.83  440.95
   0  14  -1 9494.86  423.75
   0  14  -1 9470.72  365.82
   0  14  -1 9283.99  343.67
   0  14  -1 9482.04  370.32
   0 -14  -1 9366.94  449.22
   0 -14  -1 9608.00  417.98
   0 -14   1 9808.79  484.97
   0 -14   1 8995.08  350.35
   0  14   2  866.92   70.55
   0  14   2  938.42   55.47
   0  14  -2  929.77   70.30
   0  14  -2  965.31   80.24
   0  14  -2  875.32   39.80
   0  14  -2  992.70   69.30
   0 -14  -2  880.26   75.26
   0 -14  -2  967.63   64.53
   0 -14   2  903.17   84.83
   0  14   3 3827.56  222.61
   0  14   3 3927.22  202.77
   0  14   3 3738.05  222.02
   0  14  -3 3873.35  247.46
   0  14  -3 3913.82  217.16
   0  14  -3 3783.77  190.74
   0 -14  -3 3894.92  176.01
   0 -14   3 3798.07  206.39
   0  14   4  291.11   31.36
   0  14   4  318.26   39.19
   0  14  -4  321.81   42.61
   0  14  -4  295.36   39.38
   0  14  -4  258.84   38.79
   0 -14  -4  276.59   33.90
   0 -14  -4  280.55   33.91
   0 -14   4  327.78   40.68
   0  14   5 4317.87  221.32
   0  14  -5 4136.13  247.00
   0  14  -5 4500.37  227.78
   0  14  -5 4441.96  228.45
   0 -14  -5 4201.92  249.49
   0 -14  -5 4359.24  222.00
   0 -14   5 4169.63  246.32
   0  14   6   27.42   36.13
   0  14  -6   61.79   22.57
   0  14  -6   51.41   34.11
   0  14  -6   47.74   35.27
   0 -14  -6   71.91   37.40
   0 -14  -6   52.50   22.64
   0 -14   6   65.96   29.37
   0  14   7 2214.31  187.11
   0  14  -7 2096.19  146.31
   0  14  -7 2500.66  181.66
   0  14  -7 2337.51  178.23
   0 -14  -7 2207.69  187.79
   0 -14   7 2379.42  172.40
   0  14   8   74.05   38.04
   0  14  -8   37.68   35.56
   0  14  -8   85.53   31.32
   0  14  -8   64.38   30.29
   0 -14  -8   42.06   42.41
   0 -14   8   54.51   28.06
   0  15   0   -6.29   21.93
   0  15   0    9.51   21.87
   0  15   0  -11.09   21.97
   0  15   0    2.23   21.82
   0 -15   0  -38.65   21.84
   0 -15   0   -0.68   21.93
   0  15   1   79.03   20.42
   0  15   1   76.14   19.07
   0  15  -1   82.92   21.28
   0  15  -1   91.62   25.25
   0  15  -1   73.57   14.10
   0  15  -1   69.43   14.72
   0 -15  -1   88.87   27.07
   0 -15   1   88.71   26.56
   0  15   2 4417.56  274.06
   0  15   2 4372.17  194.82
   0  15  -2 4311.55  216.87
   0  15  -2 4299.25  225.41
   0 -15  -2 4216.56  204.94
   0 -15  -2 4502.39  199.72
   0 -15   2 4293.03  263.92
   0  15   3 2118.54  138.78
   0  15   3 2318.13  122.82
   0  15   3 2299.50  137.74
   0  15  -3 2006.02  151.39
   0  15  -3 2356.02  159.71
   0  15  -3 2168.00  122.21
   0 -15  -3 2188.89  126.14
   0 -15   3 2061.12  147.79
   0  15   4   94.03   30.02
   0  15   4   53.85   18.16
   0  15   4   69.46   24.38
   0  15  -4   72.37   22.94
   0  15  -4   77.64   31.99
   0  15  -4   93.32   25.82
   0 -15  -4   65.41   26.95
   0 -15   4  142.27   32.38
   0  15   5  255.43   49.52
   0  15  -5  249.62   37.72
   0  15  -5  135.95   41.30
   0  15  -5  282.76   47.14
   0 -15  -5  235.94   38.44
   0 -15  -5  240.31   36.76
   0 -15   5  253.80   48.12
   0  15   6  578.11   73.50
   0  15  -6  563.29   59.72
   0  15  -6  465.78   60.71
   0  15  -6  578.93   62.24
   0 -15  -6  525.49   68.72
   0 -15   6  618.50   58.80
   0  15   7 1236.52  125.58
   0  15  -7 1213.35  110.41
   0  15  -7 1388.20  135.34
   0  15  -7 1278.65  118.35
   0 -15  -7 1110.88  114.18
   0 -15   7 1286.53  133.42
   0  15   8  398.00   68.58
   0  15  -8  478.18   69.96
   0  15  -8  522.90   79.31
   0 -15  -8  412.97   55.83
   0 -15   8  472.13   69.72
   0  16   0 2159.22  138.91
   0  16   0 2565.89  158.75
   0  16   0 2344.62  123.14
   0 -16   0 2448.28  161.36
   0  16   1  815.35   75.26
   0  16   1  819.63   68.45
   0  16   1  778.35   61.48
   0  16  -1  797.50   72.79
   0  16  -1  847.17   56.61
   0  16  -1  711.26   50.65
   0 -16  -1  676.48   55.22
   0 -16   1  705.73   66.32
   0  16   2 1378.16   94.92
   0  16   2 1332.88   81.35
   0  16  -2 1266.80   78.93
   0  16  -2 1403.15  111.09
   0  16  -2 1196.11   85.66
   0 -16  -2 1360.46   90.68
   0 -16  -2 1350.71   84.47
   0 -16   2 1338.90   88.64
   0  16   3  279.10   38.61
   0  16   3  207.41   29.40
   0  16   3  278.12   37.32
   0  16  -3  187.85   35.29
   0  16  -3  198.71   39.22
   0  16  -3  242.05   35.91
   0 -16  -3  248.43   36.32
   0 -16   3  249.93   42.25
   0  16   4 4263.58  225.84
   0  16   4 3882.03  233.30
   0  16  -4 4055.69  212.31
   0  16  -4 4532.29  247.94
   0  16  -4 4070.65  226.85
   0 -16  -4 4024.66  232.05
   0 -16   4 4348.96  260.05
   0  16   5 1219.88   91.15
   0  16  -5 1384.38   99.09
   0  16  -5 1315.13  120.54
   0  16  -5 1311.30   99.70
   0 -16  -5 1276.82   94.58
   0 -16   5 1303.17  123.06
   0  16   6  626.77   73.59
   0  16  -6  679.55   71.41
   0  16  -6  760.33   97.16
   0  16  -6  740.23   80.44
   0 -16  -6  695.63   77.88
   0 -16   6  801.37   81.47
   0  16   7  392.35   57.32
   0  16  -7  365.86   58.51
   0  16  -7  364.33   54.81
   0 -16  -7  328.09   54.78
   0 -16   7  443.15   71.19
   0  16   8  371.14   61.64
   0  16  -8  540.90   73.11
   0  16  -8  422.70   54.10
   0  17   0   -5.93   25.62
   0  17   0   25.12   24.80
   0 -17   0    3.95   22.00
   0  17   1  113.61   31.53
   0  17   1   89.13   26.72
   0  17   1   97.44   22.97
   0  17  -1   77.66   22.48
   0 -17   1   70.62   23.37
   0  17  -1   88.59   37.86
   0 -17  -1  122.62   27.82
   0  17   2 3097.59  180.06
   0  17   2 3006.18  167.41
   0  17  -2 3315.03  191.23
   0  17  -2 3078.40  194.23
   0  17  -2 3030.57  166.40
   0 -17  -2 3142.90  169.90
   0 -17   2 3372.82  171.01
   0  17   3 3762.67  228.14
   0  17   3 3685.99  231.52
   0  17   3 3744.48  202.48
   0  17  -3 3484.17  181.95
   0  17  -3 3998.69  274.11
   0 -17  -3 3226.20  194.59
   0 -17   3 3572.77  246.57
   0  17  -3 3631.92  214.45
   0  17   4  131.16   57.63
   0  17  -4   -7.31   19.61
   0  17  -4   29.19   27.16
   0  17  -4   45.90   22.65
   0 -17  -4   29.74   27.30
   0 -17   4   -7.41   26.75
   0  17   4   20.70   24.70
   0  17   5   51.23   26.47
   0  17   5   20.85   28.65
   0  17  -5   -0.08   20.93
   0  17  -5   22.64   26.63
   0  17  -5   20.70   24.30
   0 -17  -5   38.18   23.88
   0 -17   5   48.65   33.55
   0  17   6 1363.25  104.16
   0  17  -6 1631.90  130.38
   0  17  -6 1429.92  121.56
   0 -17   6 1560.61  139.09
   0  17   7 1368.53  133.71
   0  17  -7 1442.18  121.44
   0  17  -7 1372.06  116.33
   0 -17  -7 1176.41  109.50
   0 -17   7 1262.26  139.58
   0  18   0 5405.48  290.47
   0  18   0 5426.46  280.58
   0 -18   0 5396.14  329.35
   0  18   1    0.04   23.68
   0  18   1   -0.92   25.61
   0  18  -1   23.96   20.48
   0  18  -1  -32.27   31.91
   0 -18  -1   24.83   22.51
   0 -18   1   19.49   22.41
   0  18   2    3.04   25.06
   0  18   2   19.53   28.13
   0  18   2  -13.56   18.82
   0  18  -2   14.40   21.48
   0  18  -2   23.78   25.18
   0 -18   2   19.09   21.96
   0  18   3    1.16   22.57
   0  18   3  -15.18   22.59
   0  18   3    1.88   22.61
   0  18  -3    3.83   22.53
   0  18  -3  -20.22   22.53
   0 -18   3   -3.99   22.50
   0 -18   4 2779.73  221.48
   0  18   4 2787.85  196.01
   0  18   4 2674.78  182.84
   0  18  -4 2703.40  198.23
   0  18  -4 2816.57  190.79
   0 -18  -4 2880.23  178.73
   0  18  -5 1160.05  101.47
   0  18  -5  888.39   80.12
   0  18   5  970.90   80.28
   0  18   5 1143.14  108.63
   0 -18  -5  928.09   93.10
   0 -18   5 1146.50  128.66
   0  18   6 1342.65  137.74
   0  18   6 1468.00  139.20
   0  18  -6 1491.52  128.92
   0  18  -6 1445.05  124.96
   0 -18   6 1486.59  140.76
   0  18   7   -6.93   34.92
   0  18   7   -3.52   34.84
   0  18  -7  -10.68   34.88
   0 -19   0  -19.48   20.28
   0  19   0    4.29   20.37
   0  19   0   17.37   20.33
   0  19   1    4.21   24.09
   0  19   1  -38.78   24.05
   0  19  -1   10.42   24.08
   0  19  -1  -15.64   24.04
   0 -19  -1    5.55   23.99
   0 -19   1   29.28   24.01
   0  19   2 1352.17  103.48
   0  19   2 1321.65  106.78
   0  19   2 1299.74  106.82
   0  19  -2 1219.61  101.44
   0  19  -2 1446.23  132.48
   0 -19   2 1272.28  136.20
   0  19   3  553.04   67.43
   0  19   3  429.90   59.80
   0  19  -3  468.72   58.72
   0  19  -3  443.24   56.39
   0 -19   3  423.27   57.10
   0  19   4   38.11   33.42
   0  19   4   41.52   25.46
   0  19   4   59.30   25.04
   0  19  -4   -8.27   29.48
   0 -19   4   50.86   32.56
   0  19   5  297.40   52.15
   0  19   5  291.52   51.52
   0  19  -5  277.98   52.82
   0 -19   5  313.20   57.08
   0  19   6 1419.13  139.39
   0  19   6 1496.90  134.99
   0  19  -6 1653.54  135.60
   0 -19   6 1663.65  174.26
   0  20   0 5013.94  291.06
   0  20   0 5193.72  290.35
   0 -20   0 5201.97  344.84
   0  20  -1   37.85   40.49
   0  20   1   41.42   29.63
   0  20   1   31.98   32.70
   0  20  -1   29.97   23.28
   0 -20  -1   44.19   19.56
   0 -20   1   32.16   31.24
   0 -20   2  421.22   62.15
   0  20  -2  464.45   65.87
   0  20   2  293.35   58.23
   0  20   2  418.69   69.15
   0  20  -2  418.57   55.30
   0  20   3  756.26   75.04
   0  20   3  781.02   73.28
   0  20  -3  778.44   89.26
   0 -20   3  855.34  106.98
   0  20  -4  812.96   96.07
   0  20   4  574.04   73.21
   0 -20   4  648.98   82.79
   0  20   4  662.08   91.70
   0  20   5  815.77   85.06
   0  20  -5  928.45  112.59
   0 -20   5 1085.98  119.66
   0  21   0    5.33   24.67
   0  21   0   -0.68   28.90
   0 -21   0   11.54   24.04
   0  21   1   11.27   26.23
   0  21   1   22.78   26.86
   0  21  -1    3.24   36.58
   0 -21  -1   50.46   25.79
   0 -21   1   13.66   26.61
   0  21   2 1804.72  171.11
   0  21   2 1547.81  146.65
   0  21  -2 1872.93  157.83
   0 -21   2 1907.02  170.57
   0  21   3   32.18   26.37
   0  21   3   53.31   30.59
   0  21  -3   58.28   40.25
   0 -21   3  122.05   41.46
   0  21   4  320.02   60.63
   0  21  -4  327.36   61.48
   0 -21   4  334.36   63.21
   0  22   0 3786.38  313.66
   0 -22   0 3727.98  241.80
   0  22   1  719.64  108.62
   0  22  -1  740.94   94.32
   0 -22  -1  550.58   84.72
   0 -22   1  554.83   80.19
   0  22   2  261.66   52.77
   0  22   2  255.28   46.54
   0  22  -2  313.51   64.18
   0 -22   2  273.92   45.42
   0  22   3   66.16   34.34
   0  22   3   68.70   28.47
   0  22  -3  136.58   48.38
   0 -22   3   63.08   39.90
   0 -23   0   22.45   28.04
   0  23   0   14.90   29.27
   0  23  -1   -7.13   28.03
   0  23   1   71.23   39.12
   0 -23   1   18.62   30.65
   0  23   2  942.80  107.34
   0 -23   2 1026.72  110.86
   1   0   0   24.78    8.13
   1   0   0   14.51    7.80
   1   0   0   29.09   10.08
   1   0   0    6.40    9.40
   1   0   0    9.04    7.60
  -1   0   0   19.67    8.95
  -1   0   0   15.40    7.56
  -1   0   0   12.06    9.45
  -1   0   0   26.41   10.04
  -1   0   0   17.96   11.25
   1   0   147887.34 1655.76
   1   0   148468.82 1573.09
   1   0   2    2.76    9.42
   1   0   2   36.72   15.66
   1   0   2   10.74   12.54
   1   0   2   -3.67   12.54
  -1   0  -2   -5.63   12.46
  -1   0  -2  -12.22    5.67
  -1   0  -2   15.37    6.35
  -1   0  -2   -6.79    9.91
  -1   0  -2   -4.36   14.55
  -1   0  -2   -7.06   11.73
   1   0   317575.41  690.65
   1   0   318007.50  654.86
   1   0   318307.45  706.96
  -1   0  -317756.93  771.28
  -1   0  -318224.83  621.00
  -1   0  -318101.98  741.51
  -1   0  -317600.72  731.55
  -1   0  -318034.41  591.65
   1   0   317266.42  687.13
   1   0   318048.08  743.89
   1   0   4  -19.74    9.89
   1   0   4  -28.00    9.87
   1   0   4   12.54    9.90
  -1   0  -4   11.21    9.85
  -1   0  -4  -12.44    9.88
   1   0   4   16.60    9.91
  -1   0  -4    1.00    9.90
  -1   0  -4  -27.14    9.87
   1   0   5 5981.19  220.25
   1   0   5 5848.79  292.50
  -1   0  -5 5875.48  302.10
  -1   0  -5 6212.79  241.11
  -1   0  -5 5967.88  271.25
   1   0   6    3.68    9.97
   1   0   6    3.76    9.95
  -1   0  -6   16.80    9.96
  -1   0  -6  -17.61   10.01
  -1   0  -6  -12.17    9.97
   1   0   6   20.75    9.97
   1   0   7 4623.64  250.31
   1   0   7 5067.09  216.11
  -1   0  -7 4771.61  278.64
  -1   0  -7 5060.97  207.76
  -1   0  -7 4695.21  271.17
   1   0   8   17.91   21.11
   1   0   8  -21.36   21.12
  -1   0  -8    6.76   21.11
  -1   0  -8   -3.21   21.18
  -1   0  -8   -5.20   21.11
   1   0   9 1628.47  132.99
   1   0   9 1700.74  122.57
  -1   0  -9 1499.84  120.25
  -1   0  -9 1766.74  121.97
   1   0  10   -4.16   26.34
   1   0  10    4.43   26.33
  -1   0 -10  -35.85   26.31
  -1   0 -10   -9.30   26.29
  -1  -1   042995.10 1423.39
   1   1   1 7863.46  335.22
   1   1   1 7448.08  264.00
   1   1   1 7929.65  350.40
   1   1   1 8061.09  316.29
   1   1   1 8115.86  326.94
  -1   1  -1 7638.50  299.84
  -1   1  -1 7973.85  279.64
  -1   1  -1 7863.04  321.64
  -1   1  -1 7929.64  307.00
  -1   1  -1 8308.66  320.41
  -1  -1  -1 7906.67  295.68
  -1  -1  -1 7626.24  259.80
  -1  -1  -1 7765.30  337.34
  -1  -1  -1 7766.23  307.65
  -1  -1  -1 7972.76  323.89
   1  -1   1 8182.12  314.63
   1  -1   1 7714.57  317.17
   1  -1   1 8489.76  349.82
   1  -1   1 7728.15  285.73
   1  -1   1 7943.84  334.62
   1   1   2   66.57   12.51
   1   1   2   52.41   13.66
   1   1   2   84.57   14.54
   1   1   2   76.67   16.05
  -1   1  -2   74.63   19.83
  -1   1  -2   80.72   11.97
  -1   1  -2   78.18   11.89
  -1   1  -2   84.41   15.69
  -1  -1  -2   77.30   16.03
  -1  -1  -2  100.85    5.94
  -1  -1  -2   61.40    6.83
  -1  -1  -2   67.55   18.34
  -1  -1  -2   92.61   18.87
   1  -1   2   91.18   17.28
   1  -1   2   72.39   16.86
   1  -1   2   65.19   14.73
   1  -1   2   66.02   16.41
  -1   1  -2   55.77   16.36
  -1   1  -2   70.19   22.07
  -1  -1  -2   91.10   12.58
   1   1   3   29.20   13.72
   1   1   3   13.85    5.68
   1   1   3   -0.88   12.07
   1   1   3   12.73   11.53
   1   1   3   20.21   14.84
   1   1   3   10.16   12.75
  -1   1  -3   18.13   16.01
  -1   1  -3   21.84    9.46
  -1   1  -3   24.53    9.75
  -1   1  -3    7.78   11.73
  -1  -1  -3   17.83   15.55
  -1  -1  -3   17.00    6.87
  -1  -1  -3    8.07   10.06
  -1  -1  -3   25.41   18.06
   1  -1   3    8.98   14.33
   1  -1   3   28.08   15.58
   1  -1   3   13.45   12.57
   1  -1   3   13.55   13.91
  -1   1  -3    4.15   18.82
   1  -1   3    2.21   13.68
   1   1   4 5415.33  199.45
   1   1   4 5265.40  222.84
   1   1   4 5077.29  279.01
   1   1   4 5342.75  229.53
  -1   1  -4 5472.55  272.36
  -1   1  -4 5459.31  223.56
  -1   1  -4 5549.95  303.37
  -1   1  -4 5457.56  278.99
  -1  -1  -4 5340.84  292.44
  -1  -1  -4 5573.65  208.09
  -1  -1  -4 5591.22  247.65
  -1  -1  -4 5371.57  233.43
   1  -1   4 5390.46  276.45
   1  -1   4 5554.75  254.71
   1  -1   4 5637.10  310.14
   1   1   5 1566.60   72.26
   1   1   5 1863.55  153.26
   1   1   5 1692.03   98.62
  -1   1  -5 1756.99  109.79
  -1   1  -5 1729.04   91.96
  -1   1  -5 1728.61   95.09
  -1  -1  -5 1650.90   95.29
  -1  -1  -5 1684.37   81.39
  -1  -1  -5 1574.31   85.59
   1  -1   5 1583.48   99.59
   1   1   6 1508.59   84.57
   1   1   6 1590.35  102.69
   1   1   6 1779.65  102.53
  -1   1  -6 1681.12  119.21
  -1   1  -6 1697.95   80.27
  -1   1  -6 1656.21   93.34
  -1  -1  -6 1565.57   94.41
  -1  -1  -6 1748.26   79.91
  -1  -1  -6 1696.18  119.56
   1  -1   6 1715.66  119.78
   1  -1   6 1814.99  115.73
   1   1   7 2176.85  125.94
   1   1   7 2444.31  145.56
  -1   1  -7 2088.38  138.67
  -1   1  -7 2396.81  115.71
  -1   1  -7 2270.70  145.97
  -1  -1  -7 2261.70  135.41
  -1  -1  -7 2254.38  107.63
  -1  -1  -7 2450.76  127.16
   1  -1   7 2269.80  128.95
   1  -1   7 2251.67  107.81
   1   1   8   13.83   24.38
   1   1   8   14.00   27.91
  -1   1  -8   33.69   33.41
  -1   1  -8   16.99   14.02
  -1  -1  -8   14.51   25.39
  -1  -1  -8   17.57   12.41
  -1  -1  -8   21.23   26.34
   1  -1   8    8.16   29.60
   1  -1   8   11.92   27.72
  -1   1  -8  -22.95   26.39
   1   1   9  652.24   73.82
   1   1   9  607.54   69.50
  -1   1  -9  663.15   75.68
  -1   1  -9  686.31   70.04
  -1  -1  -9  633.22   77.88
   1  -1   9  692.41   61.88
   1  -1   9  672.78   69.61
  -1  -1  -9  597.01   62.18
   1   1  10   11.87   27.65
   1   1  10   45.85   30.75
  -1   1 -10   -2.87   39.61
  -1  -1 -10    4.35   26.31
   1  -1  10   15.47   28.98
   1  -1  10   11.31   31.73
  -1   1 -10   27.14   29.69
  -1  -1 -10   57.52   36.86
  -1  -2   013306.61  430.36
   1   2   013053.15  418.19
   1   2   012917.44  470.95
   1   2   012736.53  524.49
   1   2   013602.14  541.82
  -1   2   012612.78  440.64
  -1   2   013174.18  469.05
  -1   2   013177.50  491.46
  -1   2   012803.35  480.74
  -1   2   013145.99  471.23
  -1  -2   013101.75  474.86
  -1  -2   013119.17  536.86
  -1  -2   012561.42  466.76
  -1  -2   013136.68  449.18
  -1  -2   013486.94  482.45
   1  -2   013331.82  459.60
   1  -2   012994.78  494.11
   1  -2   012440.59  462.12
   1  -2   012636.85  444.67
   1  -2   012871.06  496.90
   1   2   2   28.34   12.57
   1   2   2   48.41   13.83
   1   2   2   27.51   16.25
   1   2   2   23.68   11.54
  -1   2  -2   39.23   16.95
  -1   2  -2   33.98   11.65
  -1   2  -2   33.76   10.57
  -1   2  -2   37.03   14.37
  -1   2  -2   43.78   15.80
  -1  -2  -2   43.60   16.28
  -1  -2  -2   19.58   12.59
  -1  -2  -2   21.61   15.65
  -1  -2  -2   15.48   13.77
   1  -2   2   28.28   12.37
   1  -2   2   35.25   14.57
   1  -2   2   27.41   12.42
   1  -2   2   23.91   12.53
   1  -2   2   22.51   12.57
  -1   2  -3 9948.00  366.67
  -1  -2  -3 9633.08  328.76
  -1  -2  -3 8955.27  412.92
   1  -2   3 9802.72  506.66
   1   2   3 9528.92  367.41
   1   2   3 9425.63  305.28
   1   2   3 9316.64  401.71
   1   2   3 9116.60  366.57
   1   2   3 9678.24  476.97
   1   2   3 9355.30  382.59
  -1   2  -3 9133.96  392.51
  -1   2  -3 9895.80  381.07
  -1   2  -3 9758.29  398.11
  -1   2  -3 8931.13  442.53
  -1  -2  -3 9433.23  438.43
  -1  -2  -3 8893.78  355.07
   1  -2   3 9288.23  402.51
   1  -2   3 9189.83  351.32
   1  -2   3 9587.32  403.18
   1  -2   3 9873.26  385.49
  -1   2  -4  109.71   20.83
  -1   2  -4  151.86   18.80
  -1   2  -4  186.63   25.12
   1   2   4  141.33   11.72
   1   2   4  155.26   23.69
   1   2   4  148.20   26.32
  -1   2  -4  129.92   17.12
  -1  -2  -4  121.53   25.53
  -1  -2  -4  150.02   11.26
  -1  -2  -4  121.03   20.06
  -1  -2  -4  141.51   21.86
   1  -2   4  186.72   23.46
   1  -2   4  132.55   21.55
   1  -2   4  174.62   20.84
   1   2   4  141.08   20.89
   1   2   5 2794.13  116.25
   1   2   5 2641.54  147.56
   1   2   5 2668.97  158.22
  -1   2  -5 2790.77  146.46
  -1   2  -5 2731.45  134.03
  -1   2  -5 2761.09  164.68
  -1   2  -5 2800.88  179.68
  -1  -2  -5 2625.44  140.24
  -1  -2  -5 2797.81  110.93
  -1  -2  -5 2905.08  240.81
   1  -2   5 2682.67  170.52
   1  -2   5 2776.20  151.24
   1   2   6 3976.21  175.50
   1   2   6 4272.14  222.68
   1   2   6 4161.39  207.23
  -1   2  -6 4012.76  213.06
  -1   2  -6 4134.41  167.63
  -1   2  -6 3856.49  189.47
  -1   2  -6 4033.59  201.43
  -1  -2  -6 4103.15  212.61
  -1  -2  -6 4215.06  170.23
  -1  -2  -6 4151.49  203.48
   1  -2   6 4093.83  185.18
   1  -2   6 4260.43  200.75
   1   2   7 1615.18  110.61
   1   2   7 1573.77  118.26
  -1   2  -7 1646.82  105.27
  -1   2  -7 1599.22   96.35
  -1   2  -7 1557.37   96.19
  -1  -2  -7 1541.02   92.56
  -1  -2  -7 1596.35   71.19
  -1  -2  -7 1479.91   89.65
   1  -2   7 1670.65  106.30
   1  -2   7 1577.85   92.37
   1   2   8  147.98   30.64
   1   2   8  187.35   35.58
  -1   2  -8  153.43   35.20
  -1   2  -8  176.46   25.38
  -1   2  -8  208.51   46.71
  -1  -2  -8  204.18   38.66
  -1  -2  -8  166.27   36.01
   1  -2   8  160.74   37.69
   1  -2   8  147.09   35.20
   1   2   9 2720.39  165.59
   1   2   9 3157.98  198.89
  -1   2  -9 2807.70  187.95
  -1   2  -9 3044.27  178.27
  -1  -2  -9 2882.85  195.22
  -1  -2  -9 2905.57  172.89
   1  -2   9 3054.25  188.53
   1  -2   9 2986.93  181.24
   1   2  10   59.21   43.68
  -1   2 -10   45.04   30.95
  -1   2 -10   80.95   38.80
  -1  -2 -10  103.37   41.83
  -1  -2 -10   67.00   29.23
   1  -2  10   37.63   23.71
   1  -2  10   86.19   27.86
  -1  -3   012476.50  445.79
   1  -3   012366.80  520.54
  -1   3   012054.84  531.29
  -1   3   012869.48  547.71
  -1   3   012374.04  440.52
   1   3   012881.42  424.07
   1   3   012204.30  476.24
   1   3   013255.56  504.50
   1   3   012238.98  596.36
   1   3   011950.20  430.84
  -1   3   011756.27  438.96
  -1   3   012088.30  458.31
  -1  -3   013073.78  413.99
  -1  -3   012372.82  462.91
  -1  -3   012743.21  524.97
  -1  -3   012250.36  437.77
   1  -3   012959.41  497.88
   1  -3   011673.42  479.36
   1  -3   011441.06  438.66
   1  -3   012837.91  412.93
   1   3   120355.04  698.28
   1   3   122379.83  751.96
   1   3   122845.31  698.03
   1   3   121716.10  753.58
   1   3   120540.31  756.86
   1   3   121951.74  702.57
  -1   3  -121688.74  793.80
  -1   3  -122783.79  714.23
  -1   3  -121657.87  824.23
  -1   3  -121477.75  719.67
  -1   3  -120905.08  769.51
  -1  -3  -121686.32  769.00
  -1  -3  -122669.92  798.71
  -1  -3  -120653.28  757.41
  -1  -3  -121017.01  751.06
   1  -3   122613.80  804.33
   1  -3   121454.15  775.05
   1  -3   120860.01  778.30
   1  -3   121377.32  713.71
   1  -3   122356.08  765.32
  -1  -3  -2  765.98   60.23
  -1  -3  -2  770.58   49.98
   1  -3   2  809.04   57.75
   1   3   2  743.64   53.44
   1   3   2  830.14   37.49
   1   3   2  760.31   57.56
   1   3   2  776.97   59.31
   1   3   2  761.83   42.19
   1  -3   2  815.20   70.00
  -1   3  -2  794.88   48.70
  -1   3  -2  862.16   53.84
  -1   3  -2  811.71   58.55
  -1   3  -2  742.50   60.00
  -1  -3  -2  738.03   54.79
  -1  -3  -2  776.24   31.92
  -1  -3  -2  759.36   47.08
   1  -3   2  739.63   65.60
   1  -3   2  824.84   59.40
   1  -3   2  790.04   49.55
   1  -3   2  746.54   58.63
   1   3   3  347.31   31.47
   1   3   3  329.20   44.23
   1   3   3  330.88   16.14
   1   3   3  287.07   31.57
   1   3   3  332.82   28.04
  -1   3  -3  354.38   27.40
  -1   3  -3  306.53   29.62
  -1  -3  -3  337.44   19.65
  -1   3  -3  326.46   26.68
  -1  -3  -3  333.04   33.50
  -1   3  -3  302.48   31.64
  -1   3  -3  324.51   40.52
  -1  -3  -3  298.72   24.64
   1   3   3  295.04   35.93
  -1  -3  -3  361.43   33.01
   1  -3   3  343.03   36.92
   1  -3   3  288.68   33.54
   1  -3   3  305.13   27.42
   1  -3   3  283.80   23.09
   1  -3   3  338.14   36.16
   1   3   4  671.38   31.99
   1   3   4  699.89   53.40
   1   3   4  655.12   49.87
   1   3   4  613.19   48.28
  -1   3  -4  609.01   44.88
  -1   3  -4  577.33   46.70
  -1   3  -4  673.26   55.44
  -1   3  -4  816.60   86.97
  -1  -3  -4  630.12   57.28
  -1  -3  -4  680.72   36.86
  -1  -3  -4  663.73   55.18
  -1  -3  -4  668.73   45.32
   1  -3   4  673.25   47.77
   1  -3   4  665.57   47.09
   1  -3   4  660.28   35.52
   1   3   5 4501.25  171.11
   1   3   5 4364.47  191.55
   1   3   5 4550.59  209.57
  -1   3  -5 4437.99  222.33
  -1   3  -5 4375.54  225.85
  -1   3  -5 4612.82  202.52
  -1   3  -5 4728.55  234.89
  -1  -3  -5 4389.02  234.26
  -1  -3  -5 4601.10  170.83
  -1  -3  -5 4601.16  257.06
   1  -3   5 4476.23  244.47
   1  -3   5 4402.61  209.72
   1   3   6  866.46   45.52
   1   3   6  877.08   55.15
   1   3   6  952.56   66.59
  -1   3  -6  950.57   70.43
  -1   3  -6  972.87   62.67
  -1   3  -6  895.72   74.47
  -1  -3  -6  901.26   72.15
  -1  -3  -6  848.37   43.96
  -1  -3  -6  932.38   67.05
   1  -3   6  892.12   58.87
   1  -3   6  981.10   70.45
   1   3   7 4649.37  220.33
   1   3   7 4316.43  214.40
  -1   3  -7 4619.90  239.41
  -1   3  -7 4583.49  223.00
  -1   3  -7 4478.03  248.86
  -1  -3  -7 4466.00  252.98
  -1  -3  -7 4710.56  193.10
  -1  -3  -7 4403.40  225.62
   1  -3   7 4636.53  230.78
   1  -3   7 4489.00  232.90
   1   3   8 3912.38  217.06
   1   3   8 3924.13  217.77
  -1   3  -8 3880.74  228.47
  -1   3  -8 3961.54  193.52
  -1   3  -8 3818.83  212.30
  -1  -3  -8 3525.78  250.94
  -1  -3  -8 3792.18  187.99
   1  -3   8 3851.80  212.63
   1  -3   8 3765.50  211.42
   1   3   9  661.67   64.53
   1   3   9  624.63   64.24
  -1   3  -9  678.55   73.51
  -1   3  -9  544.83   61.95
  -1  -3  -9  609.61   76.50
  -1  -3  -9  627.21   62.67
   1  -3   9  587.89   61.99
   1  -3   9  700.80   73.51
   1   3  10   86.39   41.40
  -1   3 -10  128.12   42.81
  -1   3 -10   66.19   44.24
  -1  -3 -10  123.51   41.62
  -1  -3 -10  116.26   28.35
   1  -3  10   86.39   28.08
   1  -3  10  106.80   34.63
   1   4   0  360.77   18.85
   1   4   0  345.72   31.35
   1   4   0  414.04   35.32
   1   4   0  381.75   34.22
   1   4   0  348.37   26.04
  -1   4   0  339.80   35.37
  -1   4   0  352.86   29.09
  -1   4   0  329.54   30.17
  -1   4   0  328.41   22.92
  -1   4   0  368.54   35.27
  -1  -4   0  378.55   22.31
  -1  -4   0  326.65   24.72
  -1  -4   0  373.99   23.67
  -1  -4   0  370.45   34.54
  -1  -4   0  354.64   22.62
   1  -4   0  381.49   36.64
   1  -4   0  394.53   32.28
   1  -4   0  371.36   33.03
   1  -4   0  366.07   22.17
   1  -4   0  380.06   37.46
   1   4   174263.47 2388.75
   1   4   175658.63 2570.69
   1   4   173801.97 2573.32
  -1   4  -172876.93 2500.97
  -1   4  -177687.95 2359.25
   1  -4   174516.35 2463.25
   1  -4   173450.51 2493.26
   1   4   2 3941.69  186.61
   1   4   2 4030.36  147.86
   1   4   2 3874.71  178.22
   1   4   2 3945.39  159.72
   1   4   2 3886.36  136.76
  -1   4  -2 4086.73  189.06
  -1   4  -2 4146.81  193.45
  -1   4  -2 4162.79  178.09
  -1   4  -2 4066.37  192.75
  -1  -4  -2 3993.42  222.72
  -1  -4  -2 4113.36  158.12
  -1  -4  -2 3856.12  208.16
  -1  -4  -2 3928.47  165.03
  -1  -4  -2 3977.53  169.96
   1  -4   2 3981.76  170.34
   1  -4   2 3888.65  182.60
   1  -4   2 4086.59  206.26
   1  -4   2 4046.21  176.53
   1  -4   2 4062.84  150.82
   1  -4   2 4066.16  243.79
   1   4   3 9180.57  375.96
   1   4   3 9187.37  311.92
   1   4   3 8939.92  394.38
   1   4   3 9152.34  426.09
   1   4   3 8837.27  354.10
   1   4   3 9424.91  347.78
  -1   4  -3 8298.41  358.26
  -1   4  -3 8844.83  387.80
  -1   4  -3 9091.90  318.04
  -1   4  -3 9404.71  459.05
  -1   4  -3 9010.31  401.82
  -1  -4  -3 9277.34  433.98
  -1  -4  -3 9168.15  318.70
  -1  -4  -3 8978.12  338.16
  -1  -4  -3 8529.14  362.75
   1  -4   3 9195.87  359.74
   1  -4   3 9008.22  427.05
   1  -4   3 9144.55  381.88
   1  -4   3 9181.19  324.97
   1  -4   3 9556.85  345.29
   1   4   4  872.93   39.91
   1   4   4  839.77   48.08
   1   4   4  920.13   80.08
   1   4   4  819.21   58.57
  -1   4  -4  826.36   78.36
  -1   4  -4  924.24   66.32
  -1   4  -4  898.35   56.16
  -1   4  -4 1029.52  118.44
  -1  -4  -4 1065.70   99.31
  -1  -4  -4  857.08   41.57
  -1  -4  -4  834.84   60.21
  -1  -4  -4  785.75   64.55
   1  -4   4  918.43   64.46
   1  -4   4  857.71   47.26
   1   4   5 6468.22  226.29
   1   4   5 6309.83  302.24
   1   4   5 6335.16  293.83
  -1   4  -5 6271.34  286.81
  -1   4  -5 6441.16  273.05
  -1   4  -5 6404.78  282.37
  -1  -4  -5 6207.83  309.37
  -1  -4  -5 6578.70  245.57
  -1  -4  -5 6382.39  287.73
   1  -4   5 6402.13  314.19
   1  -4   5 6305.02  272.56
   1   4   6  139.75   14.38
   1   4   6  156.31   27.46
   1   4   6  154.91   29.34
  -1   4  -6  167.81   33.59
  -1   4  -6  158.43   25.93
  -1   4  -6  177.57   39.88
  -1  -4  -6  201.20   35.71
  -1  -4  -6  183.30   17.45
  -1  -4  -6  202.93   25.15
   1  -4   6  140.95   36.14
   1  -4   6  190.80   29.33
   1   4   7 1353.22   90.56
   1   4   7 1295.32   91.42
  -1   4  -7 1175.94  105.16
  -1   4  -7 1454.35   91.69
  -1   4  -7 1376.06  100.44
  -1  -4  -7 1366.70  102.57
  -1  -4  -7 1358.06   69.89
  -1  -4  -7 1386.46  100.31
   1  -4   7 1412.44  102.75
   1  -4   7 1381.93  103.76
   1   4   8 2468.82  126.15
   1   4   8 2921.22  179.67
  -1   4  -8 2631.19  158.77
  -1   4  -8 2713.17  159.53
  -1   4  -8 2608.67  155.41
  -1  -4  -8 2790.46  157.19
  -1  -4  -8 2660.53  169.06
   1  -4   8 2582.53  171.85
   1  -4   8 2760.26  167.10
   1   4   9 2136.65  155.62
   1   4   9 2402.84  144.18
  -1   4  -9 2395.20  174.21
  -1   4  -9 2559.76  174.86
  -1  -4  -9 2182.31  158.41
  -1  -4  -9 2457.39  168.45
   1  -4   9 2470.87  156.39
   1  -4   9 2444.02  156.84
   1   4  10  567.36   71.85
  -1   4 -10  758.72   90.88
  -1   4 -10  744.88  104.58
  -1  -4 -10  774.84   91.78
  -1  -4 -10  589.43   71.76
   1  -4  10  651.34   82.01
   1  -4  10  662.82   78.36
   1   5   0 7589.07  292.55
   1   5   0 7778.54  310.03
   1   5   0 7586.96  327.74
   1   5   0 7623.39  336.07
   1   5   0 7865.41  296.62
   1   5   0 8057.01  303.60
  -1   5   0 7612.97  328.88
  -1   5   0 8212.14  303.37
  -1   5   0 7336.98  303.59
  -1   5   0 7349.90  275.31
  -1   5   0 7090.94  290.36
  -1  -5   0 7565.06  319.74
  -1  -5   0 7899.64  330.93
  -1  -5   0 7768.60  271.00
   1  -5   0 8304.97  375.53
   1  -5   0 8150.23  378.62
   1  -5   0 7784.94  304.69
   1  -5   0 7283.86  267.07
   1  -5   0 7900.20  329.32
   1   5   127434.51  881.89
   1   5   125355.80  876.03
   1   5   126275.76  897.70
   1   5   125110.42  956.00
   1   5   127596.05  930.17
   1   5   126233.02  959.63
   1   5   127468.25  867.93
  -1   5  -126363.79  890.67
  -1   5  -128101.05  936.74
  -1   5  -127537.48  988.27
  -1   5  -125755.53  921.66
  -1  -5  -126274.03  907.85
  -1  -5  -125549.43 1009.73
  -1  -5  -125683.74  843.13
   1  -5   125594.60  963.08
   1  -5   125572.99  961.84
   1  -5   126107.05  922.64
   1  -5   125889.31  982.23
   1   5   2  348.21   30.92
   1   5   2  370.09   25.54
   1   5   2  365.61   28.90
   1   5   2  363.98   37.59
   1   5   2  344.12   34.18
   1   5   2  341.77   23.10
  -1   5  -2  390.81   40.01
  -1   5  -2  391.77   36.99
  -1   5  -2  381.17   32.19
  -1   5  -2  355.07   40.02
  -1  -5  -2  350.25   28.32
  -1  -5  -2  341.46   26.88
  -1  -5  -2  354.38   34.03
  -1  -5  -2  332.88   23.73
   1  -5   2  362.76   35.28
   1  -5   2  377.88   46.58
   1  -5   2  304.53   31.52
   1  -5   2  385.14   21.65
   1  -5   2  359.26   19.03
   1  -5   2  316.46   30.48
   1   5   315183.44  617.18
   1   5   315448.96  534.88
   1   5   315628.38  618.62
   1   5   314549.17  618.14
   1   5   315217.00  547.44
  -1   5  -314115.44  557.78
  -1   5  -315195.18  596.91
  -1   5  -315391.41  567.48
  -1   5  -314375.42  582.89
  -1  -5  -314595.93  660.74
  -1  -5  -314900.04  517.88
  -1  -5  -314834.98  549.17
  -1  -5  -315120.43  541.67
   1  -5   315098.75  765.78
   1  -5   313580.50  610.36
   1  -5   314872.55  524.16
   1  -5   315656.89  549.75
   1   5   4  280.01   17.74
   1   5   4  256.18   27.97
   1   5   4  282.84   31.62
   1   5   4  302.71   27.38
  -1   5  -4  332.82   47.13
  -1   5  -4  296.91   32.15
  -1   5  -4  298.60   32.71
  -1   5  -4  357.90   38.34
  -1  -5  -4  356.79   42.87
  -1  -5  -4  300.71   20.33
  -1  -5  -4  297.10   28.96
  -1  -5  -4  299.12   29.57
   1  -5   4  292.32   36.25
   1  -5   4  319.00   26.39
   1  -5   4  335.69   26.08
   1   5   5   25.34    7.72
   1   5   5   35.49   14.83
   1   5   5   33.35   17.62
  -1   5  -5   -8.29   25.44
  -1   5  -5   12.01   18.75
  -1   5  -5   45.81   21.70
  -1  -5  -5   15.99   19.11
  -1  -5  -5   40.05    9.07
  -1  -5  -5   40.81   15.72
   1  -5   5   49.20   18.68
   1  -5   5   28.55   13.39
   1  -5   5   29.54   14.59
   1   5   6 1360.44   62.20
   1   5   6 1327.53   90.15
   1   5   6 1524.10   97.87
  -1   5  -6 1487.43  113.22
  -1   5  -6 1482.42   83.85
  -1   5  -6 1556.25  113.10
  -1  -5  -6 1362.10  108.69
  -1  -5  -6 1443.56   70.69
  -1  -5  -6 1502.83   91.90
   1  -5   6 1445.00  100.40
   1  -5   6 1480.32   94.76
   1   5   7  622.76   56.53
   1   5   7  657.99   70.48
  -1   5  -7  636.65   62.90
  -1   5  -7  660.75   60.68
  -1   5  -7  631.17   69.22
  -1  -5  -7  603.55   64.02
  -1  -5  -7  702.49   39.50
  -1  -5  -7  674.00   59.97
   1  -5   7  586.25   52.26
   1  -5   7  635.35   48.64
   1   5   8 1813.78  124.15
   1   5   8 1612.35  110.00
  -1   5  -8 1761.49  119.19
  -1   5  -8 1894.42  131.03
  -1   5  -8 1752.29  128.72
  -1  -5  -8 1787.38  126.53
  -1  -5  -8 2012.86  127.11
   1  -5   8 1823.42  110.64
   1  -5   8 1703.20  120.54
   1   5   9   65.53   30.31
  -1   5  -9   46.18   30.48
  -1   5  -9   42.86   21.69
  -1   5  -9   49.92   33.85
  -1  -5  -9   68.86   28.62
  -1  -5  -9   63.36   27.85
   1  -5   9   16.77   32.26
   1  -5   9   11.04   26.72
   1   5  10 1579.36  144.77
  -1   5 -10 1595.45  134.75
  -1   5 -10 1505.45  145.37
  -1  -5 -10 1531.64  122.93
  -1  -5 -10 1379.10  107.71
   1  -5  10 1428.25  132.40
   1  -5  10 1506.30  142.19
   1   6   0 2833.20  146.51
   1   6   0 2876.74  130.94
   1   6   0 2564.85  137.22
   1   6   0 2618.16  157.62
   1   6   0 2837.01  146.62
   1   6   0 2741.23  132.99
   1   6   0 2676.84  110.84
  -1   6   0 2729.79  128.63
  -1   6   0 2842.77  126.11
  -1   6   0 2649.09  128.15
  -1   6   0 2697.80  112.29
  -1   6   0 2658.60  125.25
  -1  -6   0 2639.93  138.89
  -1  -6   0 2778.75  116.48
  -1  -6   0 2665.81  122.20
   1  -6   0 2828.23  134.09
   1  -6   0 2919.43  156.54
   1  -6   0 2784.67  136.24
   1  -6   0 2794.99  117.84
   1   6   116288.29  619.87
   1   6   114299.75  570.05
   1   6   115952.04  590.84
   1   6   115655.96  595.35
   1   6   115345.67  609.89
  -1   6  -115536.09  689.13
  -1   6  -116309.18  633.30
  -1   6  -115895.26  698.19
  -1   6  -115269.91  606.74
  -1  -6  -115337.15  581.47
  -1  -6  -114653.91  630.72
  -1  -6  -114865.85  566.58
  -1  -6  -115880.25  498.92
  -1  -6  -115052.55  495.78
   1  -6   116291.74  618.46
   1  -6   115189.89  630.91
   1  -6   115643.89  614.39
   1  -6   115686.49  570.52
   1   6   2 8844.54  378.19
   1   6   2 8784.81  368.14
   1   6   2 9182.49  335.85
   1   6   2 8844.37  395.48
   1   6   2 8483.72  318.33
  -1   6  -2 8900.35  443.01
  -1   6  -2 9687.02  476.33
  -1   6  -2 9378.96  372.23
  -1   6  -2 8021.39  341.43
  -1  -6  -2 8749.54  412.16
  -1  -6  -2 9063.66  339.28
  -1  -6  -2 9181.72  434.32
  -1  -6  -2 8916.71  323.13
   1  -6   2 9791.97  395.35
   1  -6   2 8453.59  363.28
   1  -6   2 9102.51  332.57
   1  -6   2 8853.50  306.66
   1  -6   2 8492.76  291.05
   1  -6   2 9432.26  372.00
   1   6   2 8722.55  370.21
   1   6   3 3323.22  124.17
   1   6   3 3086.72  168.80
   1   6   3 3305.30  149.76
   1   6   3 3345.19  138.52
  -1   6  -3 3208.19  206.94
  -1   6  -3 3203.84  174.92
  -1   6  -3 3342.47  144.08
  -1   6  -3 3207.73  180.54
  -1  -6  -3 3335.60  200.11
  -1  -6  -3 3117.12  134.72
  -1  -6  -3 3117.84  138.94
   1  -6   3 3276.30  175.97
   1  -6   3 3311.67  163.41
   1  -6   3 3265.75  146.01
  -1  -6  -3 2943.28  161.26
   1   6   4 2542.57  103.38
   1   6   4 2543.77  153.72
   1   6   4 2523.28  145.32
   1   6   4 2607.74  121.56
  -1   6  -4 2418.28  144.89
  -1   6  -4 2627.99  156.57
  -1   6  -4 2561.22  130.96
  -1  -6  -4 2483.20  128.36
  -1  -6  -4 2571.56  106.43
  -1  -6  -4 2423.53  121.86
  -1  -6  -4 2623.96  118.51
   1  -6   4 2731.84  169.58
   1  -6   4 2613.59  122.97
   1  -6   4 2617.03  118.08
   1   6   5 2825.77  117.05
   1   6   5 2774.88  151.28
   1   6   5 3016.62  152.72
  -1   6  -5 3189.04  189.78
  -1   6  -5 3012.99  172.73
  -1   6  -5 3043.82  153.97
  -1  -6  -5 2891.66  163.84
  -1  -6  -5 2926.98  115.11
  -1  -6  -5 2905.72  152.37
   1  -6   5 2888.18  143.88
   1  -6   5 2990.09  136.65
   1  -6   5 2686.91  153.93
   1   6   6 4871.04  212.84
   1   6   6 5047.29  238.62
  -1   6  -6 5139.42  257.00
  -1   6  -6 5165.20  220.97
  -1   6  -6 4937.93  281.80
  -1  -6  -6 4959.79  235.16
  -1  -6  -6 4951.18  190.08
  -1  -6  -6 4936.90  255.57
   1  -6   6 4995.02  237.78
   1  -6   6 6311.94  317.33
   1   6   7   15.71   22.29
   1   6   7  130.65   41.95
  -1   6  -7   60.66   27.38
  -1   6  -7   47.17   23.21
  -1   6  -7   78.43   26.34
  -1  -6  -7    0.16   27.23
  -1  -6  -7   34.35   20.79
   1  -6   7   63.94   26.11
   1  -6   7   49.53   22.35
   1   6   8 2965.59  166.13
   1   6   8 2834.56  175.00
  -1   6  -8 3134.80  200.80
  -1   6  -8 3001.04  165.22
  -1   6  -8 3087.13  179.54
  -1  -6  -8 3003.93  193.04
  -1  -6  -8 3025.49  169.76
   1  -6   8 3016.87  177.39
   1  -6   8 2935.04  187.42
   1   6   9  867.96   89.26
  -1   6  -9  801.82   80.95
  -1   6  -9  885.50   82.55
  -1   6  -9  720.55   79.59
  -1  -6  -9  935.58  104.96
  -1  -6  -9  781.53   76.60
   1  -6   9  813.31   81.08
   1  -6   9  860.21   72.98
   1   6  10 2613.53  216.21
  -1   6 -10 2596.64  213.73
  -1   6 -10 2606.37  194.64
  -1  -6 -10 2694.74  218.81
  -1  -6 -10 2263.86  170.28
   1  -6  10 2707.42  204.30
   1  -6  10 2427.53  183.67
  -1  -7   037220.46 1188.55
   1   7   035458.41 1267.50
   1   7   036467.51 1263.96
   1   7   035338.69 1417.19
   1   7   039958.82 1353.19
   1   7   037054.22 1395.47
   1   7   037035.93 1235.68
   1   7   035986.15 1218.12
  -1   7   036354.57 1326.78
  -1   7   037093.39 1325.51
  -1   7   037745.45 1318.15
  -1   7   034947.95 1164.11
  -1   7   036850.59 1193.06
  -1   7   036470.54 1256.35
  -1  -7   037102.45 1316.17
  -1  -7   035801.14 1242.12
   1  -7   035920.43 1287.53
   1  -7   037076.00 1282.30
   1  -7   036554.20 1243.17
   1  -7   036860.86 1241.32
   1  -7   1 6380.92  317.91
  -1  -7  -1 6312.87  281.67
   1   7   1 6671.93  278.53
   1   7   1 6237.57  265.21
   1   7   1 6603.41  270.85
   1   7   1 6562.55  235.56
   1   7   1 6367.66  285.63
  -1   7  -1 6629.54  362.30
  -1   7  -1 6977.81  362.61
  -1   7  -1 6420.02  257.74
  -1   7  -1 6212.96  258.37
  -1  -7  -1 6191.31  303.95
  -1  -7  -1 6265.35  310.03
   1  -7   1 6497.71  279.50
   1  -7   1 6149.84  287.97
   1  -7   1 6469.39  257.72
  -1   7  -237343.18 1457.51
   1   7   237748.58 1496.80
   1   7   237950.47 1319.12
   1   7   236593.24 1384.58
   1   7   237871.39 1359.95
   1   7   236591.46 1363.86
   1   7   237926.86 1196.56
  -1   7  -236538.09 1368.58
  -1   7  -236335.62 1315.16
  -1  -7  -237036.28 1357.26
  -1  -7  -236385.32 1308.88
  -1  -7  -235776.07 1279.79
  -1  -7  -238083.79 1182.26
   1  -7   239205.06 1371.85
   1  -7   237122.83 1291.57
   1  -7   236479.93 1407.88
   1  -7   237765.18 1296.40
   1   7   3  630.15   38.99
   1   7   3  569.67   41.44
   1   7   3  629.61   38.43
   1   7   3  594.11   66.75
   1   7   3  572.10   33.37
  -1   7  -3  562.02   47.05
  -1   7  -3  601.34   44.78
  -1   7  -3  648.93   54.88
  -1  -7  -3  580.73   44.26
  -1  -7  -3  667.44   40.00
  -1  -7  -3  593.12   34.14
   1  -7   3  676.89   62.00
   1  -7   3  662.66   33.18
   1  -7   3  621.99   31.37
   1   7   423685.34  792.11
   1   7   422440.64  830.43
   1   7   422757.10  895.59
   1   7   422293.94  768.30
  -1   7  -423711.71  857.05
  -1   7  -423309.93  899.80
  -1   7  -422475.68  884.68
  -1  -7  -423536.66  922.09
  -1  -7  -423106.44  821.96
  -1  -7  -422080.77  802.53
  -1  -7  -422226.65  784.40
   1  -7   423834.08  901.85
   1  -7   423349.61  802.76
   1  -7   424317.55  846.95
   1   7   5 3635.48  161.10
   1   7   5 3666.74  192.32
   1   7   5 3806.68  198.62
   1   7   5 3534.55  175.59
  -1   7  -5 3825.03  190.24
  -1   7  -5 3898.52  210.02
  -1   7  -5 3750.68  182.12
  -1  -7  -5 3726.58  171.71
  -1  -7  -5 3724.81  140.93
  -1  -7  -5 3806.51  204.63
   1  -7   5 3800.17  231.78
   1  -7   5 3860.22  180.24
   1  -7   5 3609.34  184.37
   1   7   6  279.85   33.23
   1   7   6  315.48   35.61
  -1   7  -6  302.52   31.04
  -1   7  -6  354.79   42.15
  -1   7  -6  271.89   53.04
  -1  -7  -6  277.23   38.84
  -1  -7  -6  326.15   23.87
  -1  -7  -6  305.51   33.66
   1  -7   6  313.08   40.50
   1  -7   6  385.08   41.74
   1   7   7  497.79   46.26
   1   7   7  461.13   59.90
  -1   7  -7  373.63   49.65
  -1   7  -7  481.86   47.51
  -1   7  -7  431.42   49.98
  -1  -7  -7  394.24   48.09
  -1  -7  -7  520.37   46.21
   1  -7   7  432.03   58.26
   1  -7   7  482.76   56.20
   1   7   8 4411.77  246.67
   1   7   8 4880.30  243.25
  -1   7  -8 4504.54  269.54
  -1   7  -8 4672.92  268.95
  -1   7  -8 4819.57  288.18
  -1  -7  -8 4647.58  272.35
  -1  -7  -8 4518.98  250.10
   1  -7   8 4643.26  274.77
   1  -7   8 4639.23  259.78
  -1   7  -9  169.38   46.53
   1   7   9  198.74   47.04
  -1   7  -9  238.97   47.95
  -1   7  -9  188.50   37.50
  -1  -7  -9  265.84   54.33
  -1  -7  -9  181.78   32.70
   1  -7   9  253.69   50.32
   1  -7   9  287.31   41.33
  -1   7 -10   70.39   39.45
  -1  -7 -10   68.95   36.21
   1   7  10   70.64   38.63
  -1   7 -10  100.08   39.42
  -1  -7 -10   29.17   30.24
   1  -7  10   14.88   32.77
   1   8   0 9869.78  404.08
   1   8   010224.65  357.49
   1   8   0 9453.74  395.09
   1   8   010169.29  528.03
   1   8   0 9981.02  517.23
   1   8   0 9792.85  409.61
   1   8   0 9649.63  366.81
  -1   8   0 9263.93  423.66
  -1   8   010191.15  491.65
  -1   8   010483.37  396.60
  -1   8   0 9332.49  360.88
  -1   8   0 9891.32  346.71
  -1   8   0 9967.78  356.57
  -1  -8   0 9571.24  499.72
  -1  -8   010078.08  398.46
  -1  -8   0 9999.00  374.66
   1  -8   0 9945.42  411.19
   1  -8   0 9745.29  429.04
   1  -8   0 9752.72  441.18
   1  -8   0 9962.82  360.34
   1   8   110463.28  404.51
   1   8   110599.99  425.02
   1   8   111172.59  469.83
   1   8   110208.33  419.30
  -1   8  -110097.84  464.64
  -1   8  -110717.79  438.41
  -1   8  -1 9753.64  437.44
  -1  -8  -110262.00  418.62
  -1  -8  -110321.98  443.25
  -1  -8  -110482.06  406.58
   1  -8   110915.74  490.64
   1  -8   110133.86  582.75
   1  -8   1 9658.21  451.41
   1  -8   110937.40  406.25
   1   8   2   94.84   15.38
   1   8   2   94.56   15.92
   1   8   2   93.11   20.87
   1   8   2  105.20   19.19
  -1   8  -2  115.55   22.09
  -1   8  -2  148.31   23.73
  -1  -8  -2   71.17   14.08
  -1  -8  -2   57.06   18.22
  -1  -8  -2   88.76   19.61
   1  -8   2  124.10   17.66
   1  -8   2  128.90   24.03
   1  -8   2  131.83   22.76
   1   8   3  120.84   14.65
   1   8   3  113.57   18.60
   1   8   3  123.27   19.76
   1   8   3  125.77   24.16
   1   8   3  114.96   12.57
  -1   8  -3  128.72   22.19
  -1   8  -3   72.52   22.10
  -1  -8  -3  137.97   21.40
  -1  -8  -3   99.62   16.68
  -1  -8  -3  117.04   14.33
   1  -8   3  132.44   25.59
   1  -8   3  147.16   12.11
   1  -8   3  123.84    9.06
  -1   8  -4 2016.41  120.50
  -1   8  -4 1938.74  139.14
  -1  -8  -4 1949.30   99.89
  -1  -8  -4 1898.48   96.03
  -1  -8  -4 1913.73  100.66
   1  -8   4 1837.17  133.98
   1  -8   4 1895.03   89.81
   1  -8   4 1975.14   96.04
   1   8   4 1822.15   99.70
   1   8   4 1824.34   97.82
   1   8   4 1729.48  114.55
   1   8   4 1823.58   97.35
   1   8   4 1834.30   98.20
  -1   8  -4 1916.59  125.99
   1   8   5  416.92   30.37
   1   8   5  502.47   45.20
   1   8   5  446.25   44.98
   1   8   5  384.24   39.33
  -1   8  -5  510.97   44.71
  -1   8  -5  430.96   41.24
  -1   8  -5  519.12   38.92
  -1  -8  -5  437.59   49.45
  -1  -8  -5  490.62   31.78
  -1  -8  -5  483.22   37.58
   1  -8   5  501.70   49.01
   1  -8   5  476.69   36.99
   1  -8   5  396.01   39.62
   1   8   6 4431.45  224.16
  -1   8  -6 4560.76  246.39
  -1   8  -6 4454.00  248.20
  -1  -8  -6 4354.03  247.66
  -1  -8  -6 4548.59  202.04
  -1  -8  -6 4941.87  252.31
   1  -8   6 4610.58  215.24
   1  -8   6 4564.30  207.42
   1   8   6 4409.15  212.51
  -1   8  -6 4622.82  260.02
   1   8   7  -14.60   18.10
   1   8   7    7.36   24.71
  -1   8  -7   40.80   29.62
  -1   8  -7   -3.79   21.87
  -1   8  -7   36.69   30.04
  -1  -8  -7    3.63   22.81
  -1  -8  -7   -8.43   21.05
   1  -8   7  -16.05   30.58
   1  -8   7   19.51   19.35
   1   8   8 3015.55  166.92
  -1   8  -8 3351.34  205.77
  -1   8  -8 3298.86  179.82
  -1   8  -8 3367.05  213.31
  -1  -8  -8 3090.28  224.44
   1  -8   8 3288.05  229.25
   1  -8   8 3287.69  198.87
  -1  -8  -8 3229.31  209.80
   1   8   9   42.57   36.02
  -1   8  -9  -12.75   37.69
  -1   8  -9   -5.39   22.24
  -1   8  -9   -2.16   31.82
  -1  -8  -9   13.12   31.67
  -1  -8  -9   -5.86   25.28
   1  -8   9   10.13   33.11
  -1   8 -10 2048.25  168.97
   1  -8  10 1922.29  194.60
   1   9   0    0.84   10.98
   1   9   0    0.00    9.58
   1   9   0   19.57   16.97
   1   9   0    6.25   10.86
   1   9   0    0.92    7.95
  -1   9   0    1.80   13.82
  -1   9   0   -0.04   13.09
  -1   9   0   15.65    8.04
  -1   9   0   14.67    8.09
  -1   9   0   21.09    9.51
  -1  -9   0   -6.27   16.96
  -1  -9   0    7.65   14.47
  -1  -9   0   18.73    6.75
   1  -9   0   18.44   19.04
   1  -9   0    7.20   14.51
   1  -9   0   -0.24    8.87
   1   9   1  880.26   50.56
   1   9   1  874.15   64.48
   1   9   1  884.75   62.72
   1   9   1  852.98   61.16
   1   9   1  894.62   58.25
  -1   9  -1  909.93   63.63
  -1  -9  -1  876.18   60.10
  -1  -9  -1  910.85   68.44
   1  -9   1  639.90   76.72
   1  -9   1  854.23   55.52
   1  -9   1  839.26   56.12
  -1   9  -1  817.32   67.33
   1   9   2  920.49   63.09
   1   9   2  832.67   64.90
   1   9   2  830.91   61.38
   1   9   2  911.16   49.10
  -1   9  -2  922.16   64.82
  -1   9  -2  918.66   68.19
  -1  -9  -2  890.88   71.17
  -1  -9  -2  908.97   59.52
  -1  -9  -2  905.20   52.75
   1  -9   2  904.79   72.09
   1  -9   2  879.90   70.12
   1   9   3 1754.59   89.61
   1   9   3 1821.78   99.70
   1   9   3 1659.22   72.59
   1   9   3 1843.32  103.85
   1   9   3 1837.07   73.00
  -1   9  -3 1792.79  107.16
  -1   9  -3 1604.20  114.84
  -1   9  -3 1681.59  149.83
  -1  -9  -3 1985.82  144.23
  -1  -9  -3 1644.46   99.97
  -1  -9  -3 1774.49   68.96
   1  -9   3 1752.12  115.73
   1   9   4 3411.00  159.14
   1   9   4 3483.52  188.28
   1   9   4 3461.26  184.64
   1   9   4 3416.60  147.50
  -1   9  -4 3513.17  241.42
  -1   9  -4 3690.14  199.57
  -1   9  -4 3621.90  228.40
  -1  -9  -4 3579.53  225.16
  -1  -9  -4 3398.29  150.04
  -1  -9  -4 3371.25  144.17
   1  -9   4 3583.88  219.13
   1  -9   4 3633.80  138.44
   1  -9   4 3561.46  149.53
   1   9   5  187.84   20.02
   1   9   5  230.22   28.87
   1   9   5  180.55   29.49
   1   9   5  143.81   22.64
  -1   9  -5  216.56   29.60
  -1   9  -5  198.82   28.69
  -1   9  -5  179.77   39.77
  -1  -9  -5  158.08   38.14
  -1  -9  -5  189.79   18.25
  -1  -9  -5  184.48   22.93
   1  -9   5  238.99   35.12
   1  -9   5  258.17   24.32
   1  -9   5  170.00   18.50
   1   9   6 4018.09  202.50
   1   9   6 3990.93  223.69
  -1   9  -6 4258.72  194.77
  -1   9  -6 4123.05  220.79
  -1   9  -6 4068.69  247.45
  -1  -9  -6 4175.26  230.72
  -1  -9  -6 4023.57  176.82
  -1  -9  -6 3969.95  194.28
   1  -9   6 3956.92  241.76
   1  -9   6 4065.03  191.96
   1   9   7  337.01   37.21
   1   9   7  433.24   58.74
  -1   9  -7  437.77   50.04
  -1   9  -7  435.83   41.97
  -1   9  -7  407.42   54.76
  -1  -9  -7  260.97   40.15
  -1  -9  -7  348.95   38.00
   1  -9   7  354.07   49.27
   1  -9   7  399.19   43.80
   1   9   8 3559.11  222.18
  -1   9  -8 3168.93  205.65
  -1   9  -8 3442.86  201.72
  -1   9  -8 3268.82  204.37
  -1  -9  -8 2990.62  191.41
  -1  -9  -8 2982.65  179.05
   1  -9   8 3412.54  222.41
   1   9   9  171.27   47.68
  -1   9  -9  221.77   41.65
  -1   9  -9  203.78   36.65
  -1   9  -9  277.22   50.94
  -1  -9  -9  160.37   34.69
   1  -9   9  238.55   55.28
  -1   9 -10  417.10   67.55
   1  -9  10  410.44   72.50
   1  10   0 2813.03  133.95
   1  10   0 2851.84  137.51
   1  10   0 2778.47  177.83
   1  10   0 2842.38  159.42
   1  10   0 2840.20  105.77
  -1  10   0 2892.10  173.23
  -1  10   0 2991.29  134.03
  -1  10   0 2955.13  119.60
  -1  10   0 2845.15  142.11
  -1 -10   0 2808.13  147.69
  -1 -10   0 2973.10  129.93
  -1 -10   0 2807.05  119.02
   1 -10   0 2900.79  184.96
   1 -10   0 2730.69  150.59
   1 -10   0 2789.52  139.52
  -1  10   0 2776.89  121.53
   1  10   1 4480.81  206.54
   1  10   1 4663.79  201.07
   1  10   1 4395.78  209.05
   1  10   1 4484.68  235.46
  -1  10  -1 4394.85  210.22
  -1  10  -1 4493.12  185.90
  -1 -10  -1 4637.34  215.35
  -1 -10  -1 4680.23  228.46
   1 -10   1 4477.62  249.18
   1 -10   1 4341.36  206.31
   1 -10   1 4496.48  199.11
   1  10   2  976.29   72.62
   1  10   2  843.46   63.78
  -1  10  -2  915.07   58.47
  -1  10  -2  928.92   69.13
  -1 -10  -2  965.43   63.39
  -1 -10  -2  920.74   76.98
   1 -10   2  980.88   77.51
   1  10   3  279.79   27.19
   1  10   3  240.64   26.84
   1  10   3  261.70   30.60
  -1  10  -3  246.38   37.00
  -1  10  -3  288.38   35.03
  -1  10  -3  320.66   33.72
  -1 -10  -3  287.36   34.71
  -1 -10  -3  274.15   23.80
   1 -10   3  339.81   41.98
   1  10   4  689.14   49.03
   1  10   4  663.66   57.38
   1  10   4  811.26   68.35
   1  10   4  645.35   35.48
  -1  10  -4  677.17   55.22
  -1  10  -4  687.43   62.18
  -1  10  -4  668.23   47.70
  -1 -10  -4  723.73   54.83
  -1 -10  -4  724.35   44.43
  -1 -10  -4  721.41   37.66
   1 -10   4  724.80   60.99
   1 -10   4  740.80   36.31
   1 -10   4  657.54   31.81
   1  10   5 1500.23   94.74
   1  10   5 1637.62   94.30
  -1  10  -5 1423.27  101.73
  -1  10  -5 1455.75  100.65
  -1  10  -5 1649.32  118.82
  -1 -10  -5 1628.55  109.36
  -1 -10  -5 1469.96   76.29
  -1 -10  -5 1567.06   77.96
   1 -10   5 1562.42  111.14
   1 -10   5 1646.69   77.29
   1 -10   5 1486.39   79.69
   1  10   6 1339.33   99.51
   1  10   6 1440.01  105.34
  -1  10  -6 1243.49   91.18
  -1  10  -6 1432.91   93.35
  -1  10  -6 1428.73  114.80
  -1 -10  -6 1423.74  103.63
  -1 -10  -6 1262.39   71.27
  -1 -10  -6 1354.99   92.84
   1 -10   6 1393.74  106.72
   1 -10   6 1450.11   85.15
   1  10   7  236.38   30.76
  -1  10  -7  219.58   36.51
  -1  10  -7  236.53   40.51
  -1  10  -7  317.75   58.30
  -1 -10  -7  271.07   48.04
  -1 -10  -7  256.17   39.88
   1 -10   7  227.90   44.13
   1 -10   7  244.81   28.62
   1  10   7  221.20   48.74
   1  10   8 3102.08  201.15
  -1  10  -8 3107.16  221.16
  -1  10  -8 3129.18  203.68
  -1  10  -8 3419.89  234.13
  -1 -10  -8 3089.47  199.52
   1 -10   8 3210.91  231.34
   1  10   9  382.99   67.45
  -1  10  -9  317.02   53.94
  -1  10  -9  308.12   45.81
  -1  10  -9  317.13   57.54
  -1 -10  -9  376.59   63.44
   1 -10   9  350.45   60.87
   1  11   0   88.72   17.20
   1  11   0   83.59   14.28
   1  11   0   30.60   17.46
   1  11   0   95.45   16.36
   1  11   0   61.28    8.47
  -1  11   0   59.54   22.38
  -1  11   0   63.05    9.92
  -1  11   0   75.85   10.63
  -1  11   0   60.16   12.33
  -1 -11   0   33.45   18.20
  -1 -11   0   66.38   14.95
  -1 -11   0   67.54    8.13
   1 -11   0   85.46   26.98
   1 -11   0   58.59   16.63
   1 -11   0   73.72   14.46
   1  11   1 3743.05  176.35
   1  11   1 3537.50  174.81
   1  11   1 4248.05  282.18
  -1  11  -1 3803.50  192.94
  -1  11  -1 3720.36  214.85
  -1 -11  -1 3652.01  175.99
   1 -11   1 3486.66  209.16
   1 -11   1 3966.17  224.63
   1 -11   1 3654.10  174.99
   1  11   2 3804.27  210.71
  -1  11  -2 4168.05  239.65
  -1  11  -2 3926.50  215.36
  -1  11  -2 4136.25  241.73
  -1 -11  -2 4108.91  212.64
  -1 -11  -2 4642.37  265.06
   1 -11   2 3935.34  202.87
   1  11   3  181.32   26.92
   1  11   3  193.33   32.80
  -1  11  -3  179.18   29.93
  -1  11  -3  214.24   33.55
  -1  11  -3  167.93   27.60
  -1 -11  -3  178.03   28.53
  -1 -11  -3  187.58   22.44
   1 -11   3  198.20   26.09
   1  11   4 7947.02  331.05
   1  11   4 7983.54  374.37
   1  11   4 8174.00  287.12
  -1  11  -4 8015.76  409.45
  -1  11  -4 8122.09  358.65
  -1  11  -4 8366.35  401.46
  -1 -11  -4 8030.33  360.29
  -1 -11  -4 8055.95  332.75
  -1 -11  -4 8051.08  260.53
   1 -11   4 8314.05  433.41
   1  11   5  177.19   25.43
   1  11   5  148.88   35.45
  -1  11  -5  130.10   27.35
  -1  11  -5  128.88   26.78
  -1  11  -5   92.60   31.17
  -1 -11  -5  139.11   29.54
  -1 -11  -5  140.12   22.89
  -1 -11  -5  149.04   15.61
   1 -11   5  155.26   35.45
   1 -11   5  141.37   16.93
   1  11   6 2452.23  136.23
   1  11   6 2598.75  167.71
  -1  11  -6 2714.45  164.07
  -1  11  -6 2610.85  150.23
  -1  11  -6 2716.55  157.94
  -1 -11  -6 2526.62  147.25
  -1 -11  -6 2412.57  117.82
  -1 -11  -6 2426.11  122.89
   1 -11   6 2593.53  149.19
   1  11   7  635.73   69.60
  -1  11  -7  617.86   71.01
  -1  11  -7  626.12   69.18
  -1  11  -7  578.59   68.09
  -1 -11  -7  629.42   70.98
   1 -11   7  528.40   59.27
   1  11   8 2157.45  172.75
  -1  11  -8 1887.41  158.39
  -1  11  -8 2044.22  144.62
  -1  11  -8 2111.43  188.81
  -1 -11  -8 2013.13  133.49
   1 -11   8 2024.19  159.67
   1  11   9  727.72   96.76
  -1  11  -9  560.54   74.79
  -1  11  -9  592.10   75.92
  -1  11  -9  666.45   90.81
  -1 -11  -9  626.23   81.36
   1 -11   9  621.49   91.75
   1  12   0  245.75   26.71
   1  12   0  263.80   27.77
   1  12   0  277.20   33.17
   1  12   0  267.92   30.72
   1  12   0  269.91   17.43
  -1  12   0  252.28   31.71
  -1  12   0  248.56   20.24
  -1  12   0  239.87   19.06
  -1  12   0  295.01   21.80
  -1 -12   0  265.77   35.41
  -1 -12   0  259.70   25.85
  -1 -12   0  242.73   16.67
   1 -12   0  276.50   37.25
   1 -12   0  326.60   45.80
   1 -12   0  228.99   24.63
   1  12   1 2983.53  154.35
   1  12   1 2931.20  179.19
  -1  12  -1 3296.30  176.87
  -1  12  -1 2903.01  152.58
  -1 -12  -1 3044.07  167.85
  -1 -12  -1 3142.70  154.34
   1 -12   1 3022.97  180.54
   1 -12   1 2990.63  183.41
   1 -12   1 2821.69  133.31
  -1  12  -2  192.82   32.22
   1  12   2  167.87   25.40
   1  12   2  172.99   26.84
   1  12   2  155.35   27.75
  -1  12  -2  178.96   28.23
  -1  12  -2  195.26   29.03
   1 -12   2  215.99   39.33
   1  12   3   68.61   21.19
   1  12   3   47.33   24.73
  -1  12  -3   90.97   27.73
  -1  12  -3  152.61   27.72
  -1  12  -3   75.38   22.28
  -1 -12  -3   70.99   21.55
  -1 -12  -3   51.97   20.29
   1 -12   3  108.18   26.29
   1  12   4 4548.07  243.73
   1  12   4 4406.35  225.00
  -1  12  -4 4567.98  249.40
  -1  12  -4 4642.97  234.79
  -1  12  -4 4406.29  224.06
  -1 -12  -4 4553.99  200.58
  -1 -12  -4 4500.25  199.70
   1 -12   4 4770.20  236.73
  -1  12  -5  134.49   29.82
   1  12   5  152.61   26.44
   1  12   5  130.46   31.57
  -1  12  -5  137.78   30.28
  -1  12  -5  122.26   31.93
  -1 -12  -5  179.65   31.91
  -1 -12  -5  148.00   21.81
   1 -12   5  163.70   44.10
   1  12   6 2094.14  123.65
   1  12   6 2384.22  134.06
  -1  12  -6 2427.68  179.35
  -1  12  -6 2298.44  156.74
  -1  12  -6 2440.48  187.44
  -1 -12  -6 2249.51  130.83
   1 -12   6 2265.36  161.20
   1  12   7  914.94   86.83
  -1  12  -7  803.14   82.51
  -1  12  -7  853.85   78.72
  -1  12  -7  892.78   87.94
  -1 -12  -7  803.94   77.87
   1 -12   7  942.37   86.11
   1  12   8 2153.64  153.88
  -1  12  -8 1982.41  151.42
  -1  12  -8 2174.17  148.92
  -1  12  -8 2144.11  161.14
  -1 -12  -8 2087.12  164.23
   1 -12   8 2068.43  161.06
   1  12   9   -2.84   42.77
  -1  12  -9   -3.88   26.40
  -1  12  -9   11.31   26.06
  -1  12  -9   11.20   33.31
  -1 -12  -9  -28.12   31.91
   1 -12   9   32.88   37.04
   1  13   0  178.15   24.75
   1  13   0  209.49   23.02
   1  13   0  198.61   34.42
   1  13   0  198.15   12.28
  -1  13   0  172.96   27.99
  -1  13   0  192.39   18.07
  -1  13   0  184.95   13.28
  -1  13   0  210.51   21.85
  -1 -13   0  205.38   27.35
  -1 -13   0  195.59   25.99
  -1 -13   0  166.12   11.11
   1 -13   0  193.92   32.26
   1 -13   0  180.32   27.10
   1 -13   0  167.36   21.57
   1  13   1   -2.76   15.06
   1  13   1    1.32   15.04
  -1  13  -1  -14.10   15.06
  -1  13  -1    2.57   15.08
  -1 -13  -1  -22.57   15.02
  -1 -13  -1   23.38   15.03
   1 -13   1    0.92   15.00
   1 -13   1   39.45   15.03
   1 -13   1   -5.11   15.02
   1  13   2 4609.00  190.83
   1  13   2 4601.81  205.86
   1  13   2 4874.63  209.97
   1  13   2 4587.59  254.74
  -1  13  -2 4674.00  219.35
  -1  13  -2 4620.61  239.33
  -1  13  -2 4634.85  216.92
   1 -13   2 4546.84  260.60
   1  13   3 1346.20   78.30
   1  13   3 1233.42   92.39
   1  13   3 1353.40   82.70
  -1  13  -3 1247.11   93.55
  -1  13  -3 1455.95  101.34
  -1  13  -3 1410.51   93.75
  -1 -13  -3 1345.15   87.37
   1 -13   3 1238.63  105.80
   1  13   4 6552.94  267.08
   1  13   4 6268.78  312.02
  -1  13  -4 6296.05  309.56
  -1  13  -4 6395.63  354.26
  -1  13  -4 6340.58  338.54
  -1 -13  -4 6378.88  288.57
  -1 -13  -4 6349.39  267.20
   1 -13   4 6560.46  297.72
   1  13   5  418.45   41.78
   1  13   5  387.45   53.05
  -1  13  -5  465.44   48.49
  -1  13  -5  563.03   51.82
  -1  13  -5  478.62   58.05
  -1 -13  -5  481.39   54.44
  -1 -13  -5  359.33   39.17
   1 -13   5  477.04   59.40
   1  13   6 2612.41  198.46
  -1  13  -6 2324.88  155.52
  -1  13  -6 2519.33  178.99
  -1  13  -6 2558.68  166.75
  -1 -13  -6 2503.42  181.00
   1 -13   6 2472.12  176.06
   1  13   7    6.27   30.49
  -1  13  -7   23.39   28.39
  -1  13  -7  -32.82   25.87
  -1  13  -7   42.93   32.03
  -1 -13  -7    5.55   34.96
   1 -13   7   -4.83   24.29
   1  13   8  912.35   92.52
  -1  13  -8  824.91   93.33
  -1  13  -8  781.00   81.33
  -1  13  -8  842.60   92.62
  -1 -13  -8  846.05   86.80
   1 -13   8  834.41  105.32
  -1  13  -9  149.07   42.40
  -1  13  -9  112.01   30.99
   1  14   0 1063.20   76.42
   1  14   0  977.42   66.48
  -1  14   0 1078.71   96.79
  -1  14   0  934.26   45.25
  -1  14   0  877.42   45.97
  -1  14   0  966.39   60.65
  -1 -14   0  963.77   59.98
  -1 -14   0  998.96   54.93
  -1 -14   0 1025.12   35.53
   1 -14   0  840.92   64.18
   1 -14   0  928.09   61.60
   1  14   1 2996.16  157.20
   1  14   1 2803.68  162.31
  -1  14  -1 2852.66  166.12
  -1  14  -1 2834.63  166.24
  -1 -14  -1 2833.36  156.60
  -1 -14  -1 3449.06  213.34
   1 -14   1 2898.31  201.51
   1 -14   1 2909.66  141.16
   1 -14   1 2599.77  131.95
   1  14   2  841.63   73.25
   1  14   2  855.46   65.20
   1  14   2  737.86   53.22
   1  14   2  753.39   60.96
  -1  14  -2  736.56   63.28
  -1  14  -2  787.20   57.49
  -1  14  -2  768.72   60.72
   1 -14   2  818.48   66.46
   1  14   3 1383.75  100.52
   1  14   3 1354.51   95.72
   1  14   3 1364.38   90.04
  -1  14  -3 1241.46   76.38
  -1  14  -3 1304.80   91.53
  -1  14  -3 1361.35   75.78
  -1 -14  -3 1357.16   82.01
   1 -14   3 1438.97  128.46
   1  14   4 2686.35  135.93
   1  14   4 2626.19  159.60
   1  14   4 2769.21  187.82
  -1  14  -4 2802.50  145.28
  -1  14  -4 2853.12  171.67
  -1  14  -4 3114.57  170.64
  -1 -14  -4 2634.25  148.22
   1 -14   4 2813.73  154.76
   1  14   5 1299.35   90.53
   1  14   5 1319.70   91.95
   1  14   5 1327.48   93.55
  -1  14  -5 1329.88   88.24
  -1  14  -5 1485.44  122.60
  -1  14  -5 1416.47  121.67
  -1 -14  -5 1509.38   89.58
   1 -14   5 1469.32  122.52
   1  14   6  365.94   48.94
  -1  14  -6  411.65   57.83
  -1  14  -6  398.15   56.63
  -1  14  -6  350.50   40.17
  -1 -14  -6  435.57   49.84
   1 -14   6  457.02   50.64
   1  14   7  432.07   65.18
  -1  14  -7  438.00   58.58
  -1  14  -7  520.37   58.21
  -1  14  -7  507.72   67.07
  -1 -14  -7  447.60   68.70
   1 -14   7  339.39   65.02
  -1 -14  -8 2297.62  178.03
   1  14   8 2665.91  214.56
  -1  14  -8 2542.80  202.19
  -1  14  -8 2511.09  189.00
  -1  14  -8 2594.07  199.40
   1 -14   8 2751.55  221.78
   1  15   0  488.28   40.80
   1  15   0  481.77   61.09
  -1  15   0  487.28   50.58
  -1  15   0  524.31   40.02
  -1  15   0  513.48   39.79
  -1 -15   0  540.91   45.32
  -1 -15   0  457.51   38.65
   1 -15   0  457.52   48.01
   1 -15   0  567.24   52.67
   1  15   1 3125.75  177.78
   1  15   1 3013.62  189.02
   1  15   1 3164.67  168.60
  -1  15  -1 3221.38  191.93
  -1  15  -1 3205.94  172.92
  -1 -15  -1 2888.47  164.11
   1 -15   1 3084.05  152.77
   1  15   2 4434.33  203.62
   1  15   2 4707.98  245.66
   1  15   2 4681.95  257.17
   1  15   2 4839.40  265.25
  -1  15  -2 4527.11  227.58
  -1  15  -2 4877.27  248.61
  -1  15  -2 4952.26  236.47
   1 -15   2 4525.69  213.84
   1  15   3  868.41   68.93
   1  15   3  832.27   67.54
   1  15   3  841.56   70.56
   1  15   3  853.84   63.75
  -1  15  -3  986.68   87.57
  -1  15  -3  985.14   67.52
  -1  15  -3  979.29   61.67
   1 -15   3  942.14   79.39
  -1 -15  -4 3174.77  169.51
   1  15   4 3115.75  173.80
   1  15   4 2955.23  181.93
   1  15   4 3045.46  200.26
  -1  15  -4 3007.02  166.88
  -1  15  -4 3042.27  192.62
  -1  15  -4 3123.81  212.07
   1 -15   4 3130.40  197.59
  -1  15  -5 1647.24  114.65
   1  15   5 1709.77  110.39
   1  15   5 1817.42  117.85
  -1  15  -5 1911.78  125.62
  -1  15  -5 1681.57  127.18
  -1 -15  -5 1676.00  147.92
   1 -15   5 1747.32  125.61
   1  15   6 2672.47  171.49
  -1  15  -6 2735.53  178.54
  -1  15  -6 2663.32  190.46
  -1  15  -6 2651.87  200.82
  -1 -15  -6 2469.13  181.09
   1 -15   6 2885.06  164.93
   1  15   7 1610.39  128.13
  -1  15  -7 1572.92  132.44
  -1  15  -7 2015.60  171.98
  -1  15  -7 1849.97  161.57
  -1 -15  -7 1749.56  134.52
   1 -15   7 1897.05  164.82
   1  15   8  725.46   84.31
  -1  15  -8  728.75   88.80
  -1  15  -8  625.02   89.85
  -1  15  -8  705.14   89.06
  -1 -15  -8  625.34   72.25
   1 -15   8  631.38   85.70
   1  16   0  157.77   26.76
   1  16   0  132.82   42.30
  -1  16   0  228.52   37.93
  -1 -16   0  195.05   32.50
   1 -16   0  230.39   37.87
   1 -16   0  167.61   29.61
   1  16   1 3634.32  197.15
   1  16   1 3865.78  244.97
   1  16   1 3814.59  207.13
  -1  16  -1 3853.20  198.89
  -1  16  -1 4161.67  236.10
  -1  16  -1 3771.52  188.13
  -1 -16  -1 3740.48  198.33
   1 -16   1 3750.34  256.69
   1  16   2  616.04   60.24
   1  16   2  673.56   65.31
   1  16   2  695.93   63.13
   1  16   2  714.62   53.77
  -1  16  -2  655.95   62.71
  -1  16  -2  802.79   69.68
  -1  16  -2  642.16   60.37
   1 -16   2  740.40   64.75
  -1  16  -3 1257.99  104.16
   1  16   3 1297.40   98.97
   1  16   3 1173.31   85.69
   1  16   3 1240.18   99.76
   1  16   3 1158.05   90.37
  -1  16  -3 1209.26   87.85
  -1  16  -3 1273.83  102.72
   1 -16   3 1249.55   87.23
  -1  16  -4 1244.26  120.27
   1  16   4 1274.31  109.99
   1  16   4 1270.56   96.88
   1  16   4 1313.66   83.39
   1  16   4 1232.54  103.26
  -1  16  -4 1262.58  113.12
  -1  16  -4 1120.83   98.74
   1 -16   4 1173.07  125.48
   1  16   5  622.17   68.94
  -1  16  -5  517.53   68.36
  -1  16  -5  548.89   54.70
  -1  16  -5  584.78   61.54
  -1 -16  -5  548.05   61.73
   1 -16   5  630.01   74.09
  -1  16  -6   99.62   38.83
  -1 -16  -6   82.03   34.73
   1  16   6  124.29   43.70
  -1  16  -6  103.52   33.11
  -1  16  -6  135.06   35.66
   1 -16   6   96.45   38.00
  -1  16  -7  230.66   41.00
   1  16   7  122.06   51.46
  -1  16  -7  346.18   50.17
  -1  16  -7  272.33   48.15
  -1 -16  -7  316.06   52.76
   1 -16   7  175.42   42.42
   1  17   0  358.75   42.93
   1  17   0  312.47   45.28
   1  17   0  369.35   37.41
  -1  17   0  332.25   44.18
  -1 -17   0  306.40   40.01
   1 -17   0  316.76   52.74
   1 -17   0  372.22   50.86
   1  17   1  865.63   62.79
   1  17   1  770.23   76.29
   1  17   1  766.83   65.56
  -1  17  -1  771.76   75.17
  -1  17  -1  804.40   68.61
  -1 -17  -1  797.31   65.97
   1 -17   1  789.24   68.96
   1 -17   2 1249.39   99.84
   1  17   2 1164.29   94.52
   1  17   2 1206.00  100.45
   1  17   2 1184.25  109.69
   1  17   2 1284.78  100.55
  -1  17  -2 1221.22  100.67
  -1  17  -2 1267.46  110.26
  -1  17  -2 1206.06   97.18
   1  17   3 2129.25  146.52
   1  17   3 2099.95  157.06
   1  17   3 2226.36  161.30
   1  17   3 2262.03  148.51
  -1  17  -3 2282.76  170.19
  -1  17  -3 2169.39  147.21
  -1  17  -3 2328.80  147.13
   1 -17   3 2233.84  136.10
   1 -17   4 2659.32  173.60
   1  17   4 2532.43  173.85
   1  17   4 2368.97  144.26
   1  17   4 2359.93  151.13
   1  17   4 2394.04  163.55
  -1  17  -4 2640.70  172.00
  -1  17  -4 2839.56  247.44
  -1  17  -4 2230.25  187.63
   1  17   5  926.62   95.51
  -1  17  -5  908.42   88.99
  -1  17  -5  980.60   91.23
  -1  17  -5 1000.24   86.56
   1 -17   5  942.75   91.50
   1  17   6   46.77   26.23
  -1  17  -6   15.23   26.87
  -1  17  -6   40.41   36.82
  -1  17  -6   22.22   20.93
  -1 -17  -6   13.45   34.23
   1 -17   6   33.96   32.92
   1  17   7 1006.84  110.47
  -1  17  -7  783.38   80.82
  -1  17  -7  906.14   85.98
  -1  17  -7  786.69   87.44
  -1 -17  -7  739.43   77.89
   1 -17   7  896.96  118.09
   1  18   0  461.90   49.10
   1  18   0  501.76   62.43
  -1  18   0  543.23   63.06
  -1  18   0  479.50   63.34
  -1 -18   0  543.21   54.54
   1 -18   0  410.57   55.77
   1  18   1 8131.59  395.17
   1  18   1 8177.34  387.67
   1  18   1 7586.20  378.13
  -1  18  -1 8256.11  481.70
  -1  18  -1 8475.98  410.51
  -1 -18  -1 8019.19  413.60
   1 -18   1 8301.77  387.94
   1  18   2    6.05   18.91
   1  18   2    4.01   26.35
   1  18   2  -10.56   23.32
   1  18   2  -29.95   21.97
  -1  18  -2    3.36   26.46
  -1  18  -2   21.68   31.50
   1 -18   2   70.18   28.44
   1  18   3 1337.19  103.32
   1  18   3 1286.12  104.37
   1  18   3 1347.46  105.28
   1  18   3 1358.38  124.17
  -1  18  -3 1365.94  119.79
  -1  18  -3 1270.84   96.50
   1 -18   3 1397.62  116.60
   1  18   4  211.71   44.08
   1  18   4  228.87   38.75
   1  18   4  269.69   39.12
  -1  18  -4  213.45   40.63
  -1  18  -4  379.01   57.12
  -1  18  -4  176.36   32.44
   1 -18   4  266.44   57.94
   1  18   5 3837.51  258.66
   1  18   5 4096.31  272.99
  -1  18  -5 3912.72  239.58
  -1  18  -5 4146.56  251.68
  -1  18  -5 3898.85  259.57
   1 -18   5 4211.41  299.44
   1  18   6   45.93   31.34
  -1  18  -6   23.98   29.78
  -1  18  -6   11.18   28.19
  -1  18  -6   30.90   29.94
   1 -18   6   68.18   41.80
   1  19   0  863.07   72.37
   1  19   0  847.81   91.09
  -1  19   0  908.94   82.11
  -1  19   0  880.84   92.25
  -1 -19   0  845.30   89.13
   1 -19   0  812.28   68.63
   1  19   1 2279.13  172.63
   1  19   1 2406.10  163.45
  -1  19  -1 2154.37  149.25
  -1  19  -1 2365.62  194.88
  -1 -19  -1 2289.62  161.67
   1 -19   1 2262.43  177.63
   1  19   2  124.33   31.14
   1  19   2  189.46   34.37
   1  19   2  113.25   31.71
  -1  19  -2  177.03   35.39
  -1  19  -2  198.72   47.44
   1 -19   2  201.14   38.39
   1  19   3 7006.45  387.61
   1  19   3 6862.25  365.16
   1  19   3 6866.29  364.78
   1  19   3 6866.54  404.24
  -1  19  -3 7334.53  439.79
  -1  19  -3 7766.39  410.20
   1 -19   3 7700.94  427.00
   1  19   4   38.35   25.30
   1  19   4  -15.02   24.31
  -1  19  -4   16.47   23.19
  -1  19  -4   -1.20   32.69
   1 -19   4   12.51   31.96
   1  19   5   25.11   30.35
   1  19   5    0.28   25.49
  -1  19  -5    4.00   23.62
  -1  19  -5    5.63   31.33
   1 -19   5   -2.27   30.15
   1  19   6  132.50   33.81
   1  19   6  126.41   39.50
  -1  19  -6  145.03   44.27
   1 -19   6   67.45   40.84
   1  20   0   18.67   26.76
  -1  20   0    9.70   21.80
  -1  20   0   -3.28   30.74
  -1 -20   0   56.46   35.02
   1 -20   0   44.17   30.23
   1  20   1 6182.17  315.32
  -1  20  -1 6011.01  341.25
  -1  20  -1 6451.57  380.51
  -1 -20  -1 6267.70  352.89
   1 -20   1 6422.62  339.16
   1  20   2  139.31   32.55
   1  20   2  104.51   31.81
   1  20   2  124.84   31.39
  -1  20  -2  150.33   35.31
  -1  20  -2  179.40   42.62
   1 -20   2  105.31   29.68
   1  20   3  166.01   33.32
   1  20   3  185.36   46.93
  -1  20  -3  151.67   43.72
  -1  20  -3  177.94   46.52
   1 -20   3  117.75   41.62
   1  20   4   24.02   27.42
  -1  20  -4   48.81   28.78
  -1  20  -4   47.39   32.50
   1 -20   4   48.98   39.69
   1  20   5 1103.77  120.41
   1  20   5 1155.53  105.86
  -1  20  -5 1405.71  112.30
   1 -20   5 1282.11  133.01
   1  21   0    9.34   39.59
  -1  21   0    6.77   27.98
  -1  21   0  -29.63   31.63
  -1 -21   0   41.34   32.83
   1 -21   0   10.78   25.68
   1  21   1  366.40   58.99
  -1  21  -1  348.66   53.10
  -1  21  -1  458.55   67.56
  -1 -21  -1  324.06   50.94
   1 -21   1  349.69   52.88
   1  21   2    9.17   28.52
   1  21   2    0.68   28.47
  -1  21  -2   -4.52   28.50
  -1  21  -2    4.08   28.45
   1 -21   2  -25.01   28.45
   1  21   3  100.22   34.60
  -1  21  -3  121.59   34.84
  -1  21  -3  163.64   57.52
   1 -21   3  126.14   43.22
  -1  21  -4   45.36   45.00
   1 -21   4   53.20   33.00
   1  22   0  286.44   52.02
  -1  22   0  196.57   47.82
  -1  22   0  268.08   60.78
  -1 -22   0  193.10   48.22
   1 -22   0  231.15   43.57
   1  22   1 2984.92  212.60
   1  22   1 2584.70  187.59
  -1  22  -1 2852.29  235.66
  -1  22  -1 2788.03  217.43
   1 -22   1 2547.70  179.31
   1  22   2   96.74   36.85
  -1  22  -2   51.80   38.85
   1 -22   2   34.56   27.13
   1 -22   3  101.24   41.26
   1  23   0   56.51   33.34
  -1  23   0   45.59   38.16
  -1 -23   0   57.18   30.85
   1  23   1  216.31   46.20
  -1  23  -1  185.83   55.99
   1 -23   1  193.80   47.32
   2   0   069516.59 2222.11
   2   0   069010.74 2323.83
   2   0   068513.86 2383.73
  -2   0   064138.89 2300.83
   2   0   1    2.59   10.24
   2   0   1  -17.10   10.29
   2   0   1    1.12   10.26
   2   0   1   -6.37   10.29
   2   0   1  -12.92   10.28
  -2   0  -1   -6.62   10.26
  -2   0  -1   -7.63   10.27
  -2   0  -1   -3.68   10.27
  -2   0  -1   24.93   10.30
  -2   0  -1   -8.32   10.28
   2   0   299999.00 3145.41
   2   0   295222.35 3093.45
   2   0   297367.07 3189.41
  -2   0  -299862.94 3314.55
  -2   0  -293741.65 3268.86
   2   0   3    1.00   13.69
   2   0   3  -14.46   13.70
   2   0   3   -1.80   13.68
   2   0   3   -4.23   13.69
  -2   0  -3  -11.43   13.70
  -2   0  -3    3.27   13.68
  -2   0  -3    4.28   13.73
  -2   0  -3   -7.03   13.70
  -2   0  -3   14.81   13.69
  -2   0  -3   -1.76   13.68
   2   0   4   44.05   17.81
   2   0   4   71.64   16.23
  -2   0  -4   97.78   19.34
  -2   0  -4   86.71    9.83
  -2   0  -4   96.72    9.49
  -2   0  -4   85.51   21.16
   2   0   5   18.45   24.24
   2   0   5   -9.81   26.65
  -2   0  -5  -29.74   26.30
  -2   0  -5   13.37    9.23
  -2   0  -5    7.60    7.16
  -2   0  -5    1.48   20.94
   2   0   6 4894.74  211.83
   2   0   6 4909.26  227.88
  -2   0  -6 4717.90  238.69
  -2   0  -6 4927.26  212.31
  -2   0  -6 4818.96  199.48
  -2   0  -6 4812.20  266.84
   2   0   7   13.57   25.91
   2   0   7    1.24   24.36
  -2   0  -7   15.35   26.19
  -2   0  -7    5.46    8.55
  -2   0  -7    4.40   27.10
   2   0   8  203.15   37.57
   2   0   8  294.47   39.89
  -2   0  -8  318.30   52.77
  -2   0  -8  247.55   33.14
   2   0   9  -24.35   29.03
   2   0   9  -35.51   29.04
  -2   0  -9  -25.14   29.05
  -2   0  -9  -20.52   29.07
   2   0  10 1738.20  140.20
   2   0  10 1886.65  149.90
  -2   0 -10 2001.49  166.56
  -2   0 -10 1733.89  151.14
   2   1   0 3160.40  144.81
   2   1   0 3105.38  152.17
   2   1   0 3143.51  148.10
   2   1   0 3139.48  175.20
   2   1   0 3030.78  176.05
  -2   1   0 2974.66  163.05
  -2   1   0 3175.95  149.97
  -2   1   0 3194.17  152.35
  -2   1   0 2986.59  161.12
  -2   1   0 3100.04  165.08
  -2  -1   0 3001.92  148.59
  -2  -1   0 3329.40  154.43
  -2  -1   0 3198.87  140.16
  -2  -1   0 3161.64  161.30
  -2  -1   0 3192.85  186.04
   2  -1   0 3117.46  151.84
   2  -1   0 3080.01  136.56
   2  -1   0 3154.64  175.09
   2  -1   0 2992.11  154.83
   2  -1   0 3307.51  162.49
   2   1   1  107.06   16.17
   2   1   1  104.67   13.11
   2   1   1  137.12   19.32
   2   1   1  103.66   17.50
   2   1   1  141.39   20.47
  -2   1  -1  134.43   17.51
  -2   1  -1  118.68   15.38
  -2   1  -1  136.10   17.09
  -2   1  -1  129.16   19.21
  -2   1  -1  145.03   21.22
  -2  -1  -1  130.80   18.95
  -2  -1  -1  115.03   12.41
  -2  -1  -1  115.95   13.88
  -2  -1  -1  138.17   21.76
  -2  -1  -1  120.13   21.69
   2  -1   1  154.53   18.47
   2  -1   1  120.00   15.93
   2  -1   1  115.61   24.08
   2  -1   1  121.11   19.42
   2  -1   1  157.80   19.26
   2   1   2 6414.31  293.14
   2   1   2 5996.87  219.72
   2   1   2 6128.81  262.19
   2   1   2 6002.06  255.98
   2   1   2 6128.53  251.18
  -2   1  -2 6031.40  281.10
  -2   1  -2 6355.50  254.29
  -2   1  -2 6226.05  253.16
  -2   1  -2 5851.99  249.89
  -2   1  -2 5895.41  244.96
  -2  -1  -2 6288.98  274.15
  -2  -1  -2 5980.73  221.72
  -2  -1  -2 6453.58  255.45
  -2  -1  -2 6146.98  288.98
  -2  -1  -2 5960.18  279.34
   2  -1   2 6326.50  265.26
   2  -1   2 6098.75  250.54
   2  -1   2 6407.74  352.19
   2  -1   2 6436.52  270.46
   2  -1   2 6412.29  317.69
   2   1   3  -15.70   12.39
   2   1   3    0.40   14.95
   2   1   3   -7.02   13.65
   2   1   3   -3.83    7.90
  -2   1  -3   11.54   16.89
  -2   1  -3    0.36    8.14
  -2   1  -3    3.28    8.24
  -2   1  -3    3.67   12.06
  -2   1  -3    3.31   13.49
  -2   1  -3   -4.35   14.28
  -2  -1  -3   -3.92   19.47
  -2  -1  -3   10.95    4.16
  -2  -1  -3   14.19    3.28
  -2  -1  -3   24.93   15.10
  -2  -1  -3   -9.94   14.41
  -2  -1  -3   -4.71   19.83
   2  -1   3    1.00   12.33
   2  -1   3   -3.16   15.38
   2  -1   3   22.50   13.24
   2  -1   3   26.73   12.89
   2   1   4 9526.32  498.47
   2   1   4 8529.89  339.53
  -2   1  -4 8047.05  382.07
  -2   1  -4 8817.19  343.09
  -2   1  -4 8849.99  325.31
  -2  -1  -411467.46  655.86
  -2  -1  -4 8904.36  282.53
  -2  -1  -4 8136.20  282.33
  -2  -1  -4 8474.13  348.64
   2  -1   4 9945.14  519.08
   2  -1   4 8890.69  382.22
   2   1   5  891.63   62.56
   2   1   5  812.80   56.02
  -2   1  -5  868.04   70.14
  -2   1  -5  875.92   52.39
  -2   1  -5  863.30   47.22
  -2   1  -5  819.19   55.04
  -2  -1  -5  796.00   62.61
  -2  -1  -5  876.01   36.62
  -2  -1  -5  780.01   35.31
  -2  -1  -5  872.93   70.56
   2  -1   5  820.42   67.64
   2  -1   5  863.38   64.67
   2   1   6 2009.65  132.70
   2   1   6 2169.77  129.88
  -2   1  -6 2062.40  146.32
  -2   1  -6 2037.57   91.91
  -2   1  -6 1876.73   92.46
  -2   1  -6 2007.14  112.24
  -2  -1  -6 1849.82  130.77
  -2  -1  -6 1987.61   76.11
  -2  -1  -6 1813.39   82.51
  -2  -1  -6 2016.93  129.13
   2  -1   6 2084.60  109.48
   2  -1   6 2003.32  100.33
   2   1   7   24.07   29.65
   2   1   7   62.67   28.28
  -2   1  -7  110.48   30.45
  -2   1  -7   66.62   14.71
  -2   1  -7   91.81   33.10
  -2  -1  -7   72.89   35.24
  -2  -1  -7   77.19   10.26
  -2  -1  -7   20.09   21.65
   2  -1   7   51.43   24.87
   2  -1   7  117.31   26.09
   2   1   8 1997.47  141.91
   2   1   8 1951.79  110.47
  -2   1  -8 1969.75  142.66
  -2   1  -8 2023.53  108.95
  -2  -1  -8 1919.08  138.94
  -2  -1  -8 1980.93  119.68
   2  -1   8 1985.06  142.40
   2  -1   8 1986.08  136.04
   2   1   9  -10.62   22.99
   2   1   9    7.07   23.68
  -2   1  -9   18.50   30.37
  -2   1  -9   32.24   30.88
  -2  -1  -9    0.60   37.01
  -2  -1  -9  -38.82   26.31
   2  -1   9   13.02   23.72
   2  -1   9   -5.67   22.41
   2   1  10  838.32   76.00
   2   1  10  899.91   79.68
  -2   1 -10  886.16   94.36
  -2   1 -10  914.66   85.38
  -2  -1 -10  835.59   99.19
  -2  -1 -10  702.13   71.07
   2  -1  10  908.12  107.24
   2  -1  10  904.61   87.02
   2   2   0 6513.38  241.73
   2   2   0 6599.55  274.84
   2   2   0 6147.62  300.78
   2   2   0 6783.97  269.89
   2   2   0 6369.99  259.17
   2   2   0 6276.44  303.48
  -2   2   0 6532.02  297.90
  -2   2   0 6991.96  273.87
  -2   2   0 6301.37  281.64
  -2   2   0 6464.23  258.27
  -2   2   0 6358.31  296.89
  -2  -2   0 6434.90  250.68
  -2  -2   0 6351.75  225.35
  -2  -2   0 6354.34  323.15
  -2  -2   0 6321.02  296.09
   2  -2   0 6417.17  279.37
   2  -2   0 6406.84  302.76
   2  -2   0 6609.22  298.34
   2  -2   0 6603.22  265.42
   2  -2   0 6397.90  313.11
   2   2   1 1094.41   59.99
   2   2   1 1129.45   65.83
   2   2   1 1097.53   81.03
   2   2   1 1128.44   82.44
   2   2   1 1106.14   63.67
  -2   2  -1 1093.85   67.00
  -2   2  -1 1214.89   80.76
  -2   2  -1 1123.53   79.19
  -2   2  -1 1098.99   60.05
  -2   2  -1 1189.34   77.07
  -2  -2  -1 1120.14   63.06
  -2  -2  -1 1049.06   61.95
  -2  -2  -1 1090.37   91.14
  -2  -2  -1 1058.61   72.85
  -2  -2  -1 1119.82   68.91
   2  -2   1 1246.16   77.54
   2  -2   1 1106.34   71.06
   2  -2   1 1110.40   76.91
   2  -2   1 1196.16   60.18
   2  -2   1 1211.61   76.12
   2   2   2 5750.58  290.16
   2   2   2 5441.54  192.58
   2   2   2 5612.33  259.60
   2   2   2 5739.13  254.81
   2   2   2 5878.96  308.24
  -2   2  -2 5821.95  227.53
  -2   2  -2 5991.13  256.61
  -2   2  -2 5854.63  255.30
  -2   2  -2 5840.76  248.20
  -2   2  -2 5863.51  304.26
  -2  -2  -2 5635.72  237.16
  -2  -2  -2 5361.16  193.13
  -2  -2  -2 6022.69  275.94
  -2  -2  -2 5873.70  216.10
  -2  -2  -2 5358.08  247.51
   2  -2   2 5901.29  270.32
   2  -2   2 5869.24  228.15
   2  -2   2 6174.01  258.07
   2  -2   2 5831.89  282.93
   2  -2   2 5644.89  250.29
   2   2   3 2726.75  163.17
   2   2   3 2927.68  173.99
   2   2   3 2985.89  144.45
   2   2   3 2804.10  193.40
  -2   2  -3 2674.40  142.59
  -2   2  -3 3161.81  152.06
  -2   2  -3 3071.01  139.33
  -2   2  -3 3002.40  166.88
  -2  -2  -3 3029.01  179.19
  -2  -2  -3 2850.58  172.71
  -2  -2  -3 2906.85  145.90
  -2  -2  -3 2879.93  163.23
   2  -2   3 3024.78  171.50
   2  -2   3 2984.00  152.65
   2   2   423725.12 1126.96
  -2   2  -420123.09  740.88
  -2   2  -420396.46  752.54
  -2   2  -420114.09  749.16
  -2   2  -420090.05  864.20
  -2  -2  -424874.74 1167.55
  -2  -2  -420450.59  768.08
   2  -2   419307.72  759.43
   2  -2   421365.25  790.72
   2  -2   420541.81  752.00
   2   2   5   -0.76   21.18
   2   2   5   -0.48   19.04
  -2   2  -5    4.83   18.32
  -2   2  -5    4.87   12.05
  -2   2  -5   -3.60   10.92
  -2   2  -5   18.70   19.22
  -2  -2  -5   47.51   20.09
  -2  -2  -5   -7.60   19.67
   2  -2   5    8.90   21.96
   2  -2   5   14.94   17.99
   2   2   612285.93  566.85
   2   2   612149.32  519.52
  -2   2  -612227.65  551.33
  -2   2  -612805.39  511.35
  -2   2  -611961.19  447.95
  -2   2  -612508.09  497.70
  -2  -2  -612335.73  592.33
  -2  -2  -611769.86  452.71
   2  -2   613003.65  542.06
   2  -2   612630.53  466.07
   2   2   7   50.52   24.86
   2   2   7   78.18   27.99
  -2   2  -7   -8.55   29.67
  -2   2  -7   30.47   13.79
  -2   2  -7   81.17   29.10
  -2  -2  -7   64.43   31.98
  -2  -2  -7   73.31   23.89
   2  -2   7   16.54   29.96
   2  -2   7   28.45   20.89
   2   2   8   -4.95   23.30
   2   2   8   26.50   34.41
  -2   2  -8   16.62   29.00
  -2   2  -8   -1.80   34.74
  -2  -2  -8   13.52   28.88
  -2  -2  -8   14.72   27.08
   2  -2   8   36.43   28.68
   2  -2   8   28.19   29.19
   2   2   9  261.83   46.92
   2   2   9  207.21   46.60
  -2   2  -9  296.21   49.94
  -2   2  -9  314.33   46.17
  -2  -2  -9  271.10   47.50
  -2  -2  -9  299.48   45.49
   2  -2   9  277.16   45.99
   2  -2   9  259.31   44.07
   2   2  10  899.06  104.39
   2   2  10  998.05  119.85
  -2   2 -10  945.81   97.68
  -2   2 -10  794.44   84.12
  -2  -2 -10 1007.40  110.14
  -2  -2 -10  805.91   77.75
   2  -2  10  914.43   94.89
   2  -2  10  988.47   94.68
   2   3   0 1515.87   70.27
   2   3   0 1439.34   73.84
   2   3   0 1455.41   84.77
   2   3   0 1509.10   99.61
   2   3   0 1531.62   90.53
  -2   3   0 1415.19   83.03
  -2   3   0 1588.70   78.54
  -2   3   0 1588.32   79.77
  -2   3   0 1440.52   76.35
  -2   3   0 1444.78   89.60
  -2  -3   0 1519.41   67.32
  -2  -3   0 1519.54   83.49
  -2  -3   0 1495.35  106.09
  -2  -3   0 1462.13   89.86
  -2  -3   0 1559.10   86.48
   2  -3   0 1419.93   92.97
   2  -3   0 1555.40   96.61
   2  -3   0 1576.78   84.72
   2  -3   0 1490.36   79.06
   2  -3   0 1523.71  104.55
   2   3   1 3451.51  154.33
   2   3   1 3392.01  155.53
   2   3   1 3364.33  179.59
   2   3   1 3346.50  155.89
   2   3   1 3417.57  164.68
  -2   3  -1 3484.14  172.24
  -2   3  -1 3630.63  171.47
  -2   3  -1 3439.44  172.31
  -2   3  -1 3476.28  148.37
  -2   3  -1 3420.58  159.61
  -2  -3  -1 3313.25  140.26
  -2  -3  -1 3262.93  144.79
  -2  -3  -1 3415.11  189.68
  -2  -3  -1 3497.99  199.19
  -2  -3  -1 3230.57  149.08
   2  -3   1 3533.50  184.78
   2  -3   1 3444.93  182.55
   2  -3   1 3334.82  166.23
   2  -3   1 3375.48  159.19
   2  -3   1 3565.98  164.17
   2   3   2  344.45   29.01
   2   3   2  354.84   17.92
   2   3   2  323.02   31.95
   2   3   2  356.56   32.78
   2   3   2  383.05   37.64
  -2   3  -2  332.50   38.66
  -2   3  -2  385.61   33.75
  -2   3  -2  340.59   38.96
  -2   3  -2  399.00   32.93
  -2   3  -2  318.92   38.95
  -2  -3  -2  385.75   34.10
  -2  -3  -2  364.20   20.42
  -2  -3  -2  361.00   31.40
  -2  -3  -2  366.53   36.21
  -2  -3  -2  357.11   26.95
   2  -3   2  365.78   34.18
   2  -3   2  343.59   28.34
   2  -3   2  353.10   34.66
   2  -3   2  353.88   24.95
   2  -3   2  345.24   37.67
   2   3   3  353.68   44.00
   2   3   3  401.62   48.20
   2   3   3  305.82   33.45
  -2   3  -3  383.87   36.70
  -2   3  -3  288.30   33.30
  -2   3  -3  395.51   31.90
  -2   3  -3  373.83   39.36
  -2  -3  -3  369.10   39.19
  -2  -3  -3  335.43   40.04
  -2  -3  -3  340.45   37.17
  -2  -3  -3  331.38   36.76
   2  -3   3  350.13   29.89
   2  -3   3  333.51   39.41
   2  -3   3  324.71   31.16
   2   3   4   60.31   19.97
  -2   3  -4   -8.50   21.50
  -2   3  -4   48.03   14.73
  -2   3  -4   29.34   12.59
  -2   3  -4   46.26   21.87
  -2  -3  -4   46.04   19.42
  -2  -3  -4   21.70   16.78
  -2  -3  -4    5.87   18.09
   2  -3   4   35.01   20.84
   2  -3   4   40.74   17.27
   2  -3   4   16.56   14.01
   2   3   5 4455.68  215.74
   2   3   5 4520.28  212.06
  -2   3  -5 4778.94  282.11
  -2   3  -5 4486.90  183.41
  -2   3  -5 4587.49  205.13
  -2   3  -5 4632.57  236.60
  -2  -3  -5 4635.34  211.74
  -2  -3  -5 4304.57  239.16
   2  -3   5 4544.77  199.74
   2  -3   5 4771.25  236.51
   2   3   6 8318.67  393.88
   2   3   6 8284.26  356.41
  -2   3  -6 8616.43  456.11
  -2   3  -6 8432.29  333.60
  -2   3  -6 7846.09  340.14
  -2   3  -6 8451.41  358.69
  -2  -3  -6 7890.33  333.80
  -2  -3  -6 7900.43  325.04
   2  -3   6 8583.83  419.30
   2  -3   6 8203.09  353.67
   2   3   7  946.80   83.07
   2   3   7  917.64   82.55
  -2   3  -7  874.54   82.00
  -2   3  -7  939.15   66.69
  -2   3  -7  933.61   61.57
  -2  -3  -7  787.90   64.10
  -2  -3  -7  912.91   61.92
   2  -3   7  909.06   77.05
   2  -3   7  874.56   67.80
   2   3   8 1778.03  127.12
   2   3   8 1928.73  115.56
  -2   3  -8 2028.01  153.69
  -2   3  -8 2064.23  153.81
  -2  -3  -8 1943.28  139.59
  -2  -3  -8 1942.52  147.89
   2  -3   8 1845.74  139.07
   2  -3   8 2064.91  135.86
   2   3   9  232.88   41.28
   2   3   9  214.62   52.47
  -2   3  -9  245.93   47.01
  -2   3  -9  233.01   42.53
  -2  -3  -9  242.88   43.30
  -2  -3  -9  200.00   40.35
   2  -3   9  151.72   43.57
   2  -3   9  304.70   44.60
   2   3  10 1145.63  122.04
  -2   3 -10  984.40  114.42
  -2   3 -10 1236.62   92.53
  -2  -3 -10 1116.23  114.89
  -2  -3 -10 1032.61   99.62
   2  -3  10 1103.14  122.05
   2  -3  10 1027.64  112.16
   2   4   0 9983.69  346.50
   2   4   0 9667.34  395.45
   2   4   010077.77  471.25
   2   4   010251.55  373.27
   2   4   010529.21  452.91
  -2   4   0 9946.86  385.76
  -2   4   010248.32  419.64
  -2   4   010290.60  388.47
  -2   4   0 9446.52  365.50
  -2   4   010403.41  418.65
  -2  -4   010330.51  334.53
  -2  -4   0 9969.04  407.95
  -2  -4   010342.84  400.08
  -2  -4   010270.94  422.56
  -2  -4   010241.95  408.30
   2  -4   010777.09  447.71
   2  -4   0 9644.06  401.19
   2  -4   010425.93  392.85
   2  -4   010135.78  395.47
   2  -4   010239.69  440.71
   2   4   110093.84  440.22
   2   4   110115.83  412.83
   2   4   110422.63  427.68
   2   4   110810.16  453.19
   2   4   110727.10  437.00
   2   4   110910.64  402.73
  -2   4  -110492.63  469.08
  -2   4  -110149.27  450.47
  -2   4  -110949.43  460.73
  -2   4  -110562.42  396.04
  -2   4  -110531.69  424.31
  -2  -4  -110210.16  384.33
  -2  -4  -110191.96  386.46
  -2  -4  -110727.76  450.92
  -2  -4  -1 9591.65  378.65
   2  -4   110781.19  418.96
   2  -4   110577.33  482.76
   2  -4   110810.56  514.68
   2  -4   110804.52  398.58
   2  -4   110847.48  409.52
   2   4   211179.30  436.67
   2   4   210319.90  368.63
   2   4   211175.03  388.28
   2   4   211013.39  452.58
   2   4   211176.49  452.51
   2   4   210844.44  409.52
  -2   4  -210868.12  511.25
  -2   4  -211408.31  462.17
  -2   4  -211410.11  520.14
  -2   4  -210596.70  379.73
  -2   4  -210350.58  416.35
  -2  -4  -210705.21  456.50
  -2  -4  -210794.73  424.73
  -2  -4  -210702.75  472.07
  -2  -4  -210851.62  415.63
   2  -4   211230.08  375.57
   2  -4   211227.06  447.53
   2  -4   211042.78  435.83
   2  -4   210973.46  413.68
   2  -4   211481.41  469.85
   2   4   3  -10.54   11.34
   2   4   3   12.42   11.34
   2   4   3   -3.95   11.30
  -2   4  -3  -19.95   11.29
  -2   4  -3   -4.71   11.31
  -2   4  -3    4.94   11.29
  -2  -4  -3   -5.96   11.33
  -2  -4  -3    8.52   11.32
  -2  -4  -3   -3.07   11.30
  -2  -4  -3  -14.05   11.29
   2  -4   3    6.86   11.29
   2  -4   3   23.91   11.30
   2  -4   3   -2.36   11.33
   2  -4   3   11.05   11.29
   2   4   4 6617.20  367.31
   2   4   4 6740.64  317.09
  -2   4  -4 6989.39  348.99
  -2   4  -4 6842.17  273.71
  -2   4  -4 6965.47  295.40
  -2   4  -4 6913.36  296.70
  -2  -4  -4 6843.02  289.02
  -2  -4  -4 7001.25  363.49
  -2  -4  -4 6884.19  281.64
   2  -4   4 6792.64  343.73
   2  -4   4 6921.37  283.75
   2  -4   4 7100.18  268.11
   2   4   5 3564.82  205.74
   2   4   5 3782.12  185.65
  -2   4  -5 3560.64  205.36
  -2   4  -5 3879.04  186.64
  -2   4  -5 3805.65  164.34
  -2   4  -5 3796.03  191.39
  -2  -4  -5 3790.48  186.36
  -2  -4  -5 4033.55  214.68
   2  -4   5 3879.26  214.53
   2  -4   5 3647.06  192.59
   2   4   6 1627.66  107.08
   2   4   6 1557.36   83.39
  -2   4  -6 1434.31  118.05
  -2   4  -6 1534.76   90.62
  -2   4  -6 1551.64  124.17
  -2  -4  -6 1581.26  108.81
  -2  -4  -6 1481.20   87.91
   2  -4   6 1612.44   89.50
   2  -4   6 1557.22   82.69
   2   4   7  280.16   36.09
   2   4   7  297.56   48.47
  -2   4  -7  200.32   38.35
  -2   4  -7  263.81   32.65
  -2   4  -7  240.33   42.42
  -2  -4  -7  262.82   39.11
  -2  -4  -7  248.72   36.89
   2  -4   7  279.79   38.01
   2  -4   7  303.87   36.57
   2   4   8 1588.67  121.24
   2   4   8 1645.49  130.22
  -2   4  -8 1688.40  127.75
  -2   4  -8 1565.36  117.66
  -2   4  -8 1674.11  118.10
  -2  -4  -8 1617.06  111.38
  -2  -4  -8 1703.08  118.18
   2  -4   8 1732.28  134.12
   2  -4   8 1677.77  113.85
   2   4   9 4497.17  258.16
   2   4   9 4636.32  289.30
  -2   4  -9 4649.22  320.64
  -2   4  -9 4872.26  279.48
  -2  -4  -9 4781.12  296.35
  -2  -4  -9 4268.82  256.15
   2  -4   9 4612.97  277.51
   2  -4   9 4841.54  274.09
   2   4  10 3801.27  262.18
  -2   4 -10 4217.15  271.14
  -2   4 -10 3910.32  264.82
  -2  -4 -10 3685.73  257.42
  -2  -4 -10 3604.87  229.09
   2  -4  10 3665.23  232.38
   2  -4  10 3761.67  253.97
   2   5   0 3613.67  134.25
   2   5   0 3515.74  204.87
   2   5   0 3883.86  180.84
   2   5   0 3525.00  168.75
  -2   5   0 3665.84  196.45
  -2   5   0 3749.79  230.47
  -2   5   0 3615.27  173.27
  -2   5   0 3627.15  169.82
  -2   5   0 3559.83  158.09
  -2  -5   0 3863.92  140.39
  -2  -5   0 3744.56  158.52
  -2  -5   0 3520.05  178.37
  -2  -5   0 3475.49  177.22
  -2  -5   0 3679.23  170.72
  -2  -5   0 3702.92  160.92
   2  -5   0 3803.91  178.12
   2  -5   0 3737.13  172.03
   2  -5   0 3586.42  161.35
   2  -5   0 3449.32  156.83
   2  -5   0 3549.64  169.95
   2   5   1 8930.36  342.61
   2   5   1 8745.48  364.21
   2   5   1 9037.73  396.44
   2   5   1 9224.48  390.22
   2   5   1 8992.78  430.68
   2   5   1 8904.92  377.56
  -2   5  -1 8963.98  465.49
  -2   5  -1 9518.65  327.46
  -2   5  -1 9058.95  364.79
  -2   5  -1 8795.84  308.09
  -2   5  -1 9096.66  473.98
  -2  -5  -1 9174.25  347.03
  -2  -5  -1 8723.48  369.90
  -2  -5  -1 8456.27  351.83
  -2  -5  -1 8854.18  346.68
   2  -5   1 9061.47  390.40
   2  -5   1 8500.73  387.32
   2  -5   1 9014.14  375.79
   2  -5   1 8955.65  348.41
   2  -5   1 8814.54  372.54
   2   5   2 7905.60  358.54
   2   5   2 7470.92  270.78
   2   5   2 7862.66  290.02
   2   5   2 7948.20  416.43
   2   5   2 7581.02  350.80
   2   5   2 7665.84  366.70
  -2   5  -2 7797.44  348.93
  -2   5  -2 8451.58  353.99
  -2   5  -2 7934.56  443.46
  -2   5  -2 7418.16  308.97
  -2   5  -2 7826.68  319.22
  -2  -5  -2 7559.80  348.15
  -2  -5  -2 7518.97  330.48
  -2  -5  -2 7215.33  333.71
  -2  -5  -2 7293.55  306.96
   2  -5   2 8110.93  365.59
   2  -5   2 7743.93  303.80
   2  -5   2 7494.34  332.32
   2  -5   2 7824.43  285.35
   2  -5   2 7357.85  353.07
   2   5   3 4149.00  211.09
   2   5   3 3778.26  135.11
   2   5   3 4701.54  137.30
   2   5   3 4347.98  193.53
   2   5   3 4266.99  170.96
  -2   5  -3 5011.33  379.59
  -2   5  -3 4552.56  214.51
  -2   5  -3 4885.93  300.53
  -2  -5  -3 4307.75  197.93
  -2  -5  -3 4379.93  202.89
   2  -5   3 4404.66  234.37
   2  -5   3 3772.13  251.58
   2  -5   3 4233.11  196.19
   2  -5   3 4290.22  193.02
   2   5   4  497.70   55.75
   2   5   4  547.76   38.26
  -2   5  -4  632.39   53.27
  -2   5  -4  573.89   46.14
  -2   5  -4  660.22   44.55
  -2   5  -4  583.10   59.68
  -2  -5  -4  610.51   56.32
  -2  -5  -4  584.87   56.21
  -2  -5  -4  606.32   37.01
   2  -5   4  620.30   50.20
   2  -5   4  621.58   38.47
   2  -5   4  613.09   40.56
   2   5   5 6077.78  256.66
   2   5   5 6085.16  285.90
  -2   5  -5 6295.73  274.69
  -2   5  -5 6294.33  298.24
  -2   5  -5 6208.78  269.58
  -2  -5  -5 5824.54  253.14
  -2  -5  -5 5921.65  283.83
   2  -5   5 5868.65  310.31
   2  -5   5 6255.41  262.49
   2   5   6 4749.85  225.63
   2   5   6 4850.93  214.61
  -2   5  -6 4685.02  235.75
  -2   5  -6 4963.38  253.70
  -2   5  -6 4775.45  273.06
  -2  -5  -6 4718.74  243.20
  -2  -5  -6 4570.57  209.94
   2  -5   6 4656.78  219.31
   2  -5   6 4752.18  221.09
   2   5   7 7847.80  366.69
   2   5   7 7854.26  346.15
  -2   5  -7 8039.53  428.31
  -2   5  -7 8161.87  384.43
  -2   5  -7 8211.10  395.80
  -2  -5  -7 7161.32  367.95
  -2  -5  -7 7831.47  365.08
   2  -5   7 8325.23  406.00
   2  -5   7 7992.93  361.23
   2   5   8 3668.67  232.81
   2   5   8 3796.70  218.80
  -2   5  -8 3801.04  243.93
  -2   5  -8 3558.30  199.32
  -2   5  -8 3923.48  257.41
  -2  -5  -8 3569.51  254.70
  -2  -5  -8 3740.00  222.58
   2  -5   8 4013.74  240.03
   2  -5   8 3946.55  211.20
   2   5   9  886.93   94.25
   2   5   9  949.18   86.51
  -2   5  -9 1017.13  104.63
  -2   5  -9  959.30  107.47
  -2  -5  -9  883.57   99.42
  -2  -5  -9  939.01   79.42
   2  -5   9  915.16   82.51
   2  -5   9  933.93   92.29
   2   5  10  256.15   50.88
  -2   5 -10  296.19   56.51
  -2   5 -10  203.18   53.77
  -2  -5 -10  299.09   59.19
  -2  -5 -10  212.52   45.18
   2  -5  10  339.38   49.90
   2  -5  10  156.14   45.48
   2   6   046637.49 1506.06
   2   6   044928.83 1528.65
   2   6   046006.11 1543.47
   2   6   046634.85 1586.46
  -2   6   044895.94 1771.74
  -2   6   047010.28 1604.67
  -2   6   047396.00 1550.66
  -2   6   044495.29 1516.27
  -2   6   045296.67 1594.97
  -2  -6   046871.54 1490.26
  -2  -6   045741.69 1553.23
  -2  -6   043396.42 1489.87
  -2  -6   045015.39 1639.63
  -2  -6   044165.17 1542.20
  -2  -6   045243.54 1569.22
   2  -6   044909.00 1493.20
   2  -6   044657.67 1625.10
   2  -6   044907.42 1579.76
   2  -6   045748.08 1518.12
   2  -6   045555.00 1617.52
   2   6   1 4376.47  172.18
   2   6   1 4117.36  197.03
   2   6   1 4175.86  190.23
   2   6   1 4213.39  252.99
   2   6   1 4278.54  216.61
  -2   6  -1 4086.40  229.43
  -2   6  -1 4360.61  192.98
  -2   6  -1 4394.08  209.06
  -2   6  -1 4105.29  148.42
  -2   6  -1 4241.88  246.30
  -2  -6  -1 4297.77  203.72
  -2  -6  -1 4070.77  225.16
  -2  -6  -1 4052.70  175.60
  -2  -6  -1 4138.95  185.83
   2  -6   1 4332.83  221.19
   2  -6   1 4028.53  177.24
   2  -6   1 4255.23  222.55
   2  -6   1 4120.18  172.90
   2  -6   1 4234.13  183.02
   2   6   221544.51  840.14
   2   6   220159.16  741.01
   2   6   222524.34  746.15
   2   6   221158.32  906.61
   2   6   222072.26  810.99
   2   6   221799.40  795.44
  -2   6  -222475.81  873.46
  -2   6  -222462.97  922.56
  -2   6  -222177.86  735.36
  -2   6  -221282.47  887.35
  -2  -6  -223006.71  816.99
  -2  -6  -221607.30  869.44
  -2  -6  -221209.11  739.44
   2  -6   221788.73  832.56
   2  -6   220515.17  918.46
   2  -6   222030.75  731.74
   2   6   3 2586.15  100.65
   2   6   3 2710.46  103.75
   2   6   3 2524.26  137.32
   2   6   3 2727.61  122.59
  -2   6  -3 2665.03  158.64
  -2   6  -3 2640.20  160.98
  -2  -6  -3 2643.17  150.41
  -2  -6  -3 2686.44  147.02
  -2  -6  -3 2540.23  128.23
   2  -6   3 2842.44  148.31
   2  -6   3 2772.68  151.07
   2  -6   3 2775.02  114.16
   2  -6   3 2745.37  118.98
   2   6   4 5531.47  276.90
   2   6   4 5482.39  244.89
  -2   6  -4 5608.56  278.03
  -2   6  -4 5721.24  273.53
  -2   6  -4 5889.15  307.55
  -2  -6  -4 5702.74  268.08
  -2  -6  -4 5523.50  262.23
  -2  -6  -4 5546.77  223.80
   2  -6   4 5576.42  242.22
   2  -6   4 5681.89  240.51
   2  -6   4 5754.28  205.89
   2   6   5 6671.74  292.81
   2   6   5 6809.91  311.11
  -2   6  -5 6538.80  296.47
  -2   6  -5 7711.53  452.95
  -2   6  -5 6765.42  340.95
  -2  -6  -5 6976.05  361.43
  -2  -6  -5 6763.92  307.41
   2  -6   5 6736.12  340.51
   2  -6   5 6823.95  272.22
   2  -6   5 6269.03  281.43
   2   6   6 4443.07  211.71
   2   6   6 4495.56  249.17
  -2   6  -6 4279.44  224.98
  -2   6  -6 4480.14  211.51
  -2   6  -6 4224.48  216.60
  -2  -6  -6 4323.83  230.28
  -2  -6  -6 4184.95  203.28
   2  -6   6 4229.32  230.33
   2  -6   6 4391.62  223.18
   2   6   7 2149.27  136.82
   2   6   7 2225.51  130.94
  -2   6  -7 2224.81  156.33
  -2   6  -7 2318.03  134.42
  -2   6  -7 2352.67  158.39
  -2  -6  -7 2118.76  151.75
  -2  -6  -7 2223.99  126.39
   2  -6   7 2197.42  144.86
   2  -6   7 2291.67  138.73
   2   6   8  988.34   85.17
   2   6   8 1110.97   88.83
  -2   6  -8  931.79   94.64
  -2   6  -8 1015.51   75.04
  -2   6  -8  912.96   90.46
  -2  -6  -8 1061.16   87.70
  -2  -6  -8  977.02   75.42
   2  -6   8  818.36   79.25
   2  -6   8 1056.02   83.71
   2   6   9 3008.49  185.29
   2   6   9 3306.79  209.42
  -2   6  -9 3570.46  254.81
  -2   6  -9 3473.97  221.48
  -2  -6  -9 3873.93  281.73
  -2  -6  -9 3066.04  183.78
   2  -6   9 3383.04  181.47
   2  -6   9 3694.08  238.32
   2   6  10   85.45   36.36
  -2   6 -10   48.05   34.38
  -2   6 -10   33.42   34.02
  -2  -6 -10   46.64   46.40
  -2  -6 -10   33.48   28.38
   2  -6  10   42.10   37.83
   2   7   0 5351.32  209.27
   2   7   0 5511.37  202.14
   2   7   0 5271.46  225.13
   2   7   0 5288.65  256.93
  -2   7   0 5215.07  256.23
  -2   7   0 5476.33  225.56
  -2   7   0 5354.26  212.84
  -2   7   0 5324.56  252.93
  -2  -7   0 5458.06  207.67
  -2  -7   0 5468.58  257.75
  -2  -7   0 5143.74  251.15
  -2  -7   0 5404.16  235.59
  -2  -7   0 5411.16  214.18
   2  -7   0 5470.43  294.46
   2  -7   0 5382.51  245.77
   2  -7   0 5418.54  223.74
   2  -7   0 5457.46  205.11
   2   7   1 4952.69  218.72
   2   7   1 4842.95  201.70
   2   7   1 5099.66  211.03
   2   7   1 4928.02  243.72
   2   7   1 4990.76  233.31
  -2   7  -1 4808.68  227.22
  -2   7  -1 5130.14  250.39
  -2   7  -1 4780.88  185.25
  -2   7  -1 4814.81  204.27
  -2  -7  -1 4785.29  217.80
  -2  -7  -1 4919.40  241.78
  -2  -7  -1 4948.79  190.63
  -2  -7  -1 4922.15  196.88
   2  -7   1 4877.03  225.05
   2  -7   1 4934.28  233.85
   2  -7   1 4803.72  174.45
   2  -7   1 4960.04  216.33
   2   7   2 3391.94  190.08
   2   7   2 3307.68  162.29
   2   7   2 3534.19  155.05
   2   7   2 3602.06  161.64
   2   7   2 3447.03  158.20
  -2   7  -2 4138.99  314.02
  -2   7  -2 3317.39  182.92
  -2  -7  -2 3546.05  188.42
  -2  -7  -2 3304.23  198.41
  -2  -7  -2 3394.04  136.90
   2  -7   2 3597.24  203.33
   2  -7   2 3480.06  207.53
   2  -7   2 3707.54  123.82
   2  -7   2 3352.08  130.23
   2   7   3 2160.87   91.65
   2   7   3 2240.14   93.44
   2   7   3 2149.63  133.54
   2   7   3 2046.90   96.47
  -2   7  -3 2169.81  102.16
  -2   7  -3 2411.31  147.14
  -2  -7  -3 2218.58  135.13
  -2  -7  -3 2334.69  139.12
  -2  -7  -3 2233.22  119.24
   2  -7   3 2412.10  163.77
   2  -7   3 2299.51  137.24
   2  -7   3 2298.35   91.54
   2  -7   3 2221.04   99.52
   2   7   4   15.02    4.37
   2   7   4   17.79    5.12
   2   7   4    8.94   14.35
   2   7   4   10.71   10.91
  -2   7  -4   22.65   18.33
  -2   7  -4   -0.40   21.56
  -2   7  -4   14.18   16.49
  -2  -7  -4    8.91   22.19
  -2  -7  -4  -10.87   22.39
  -2  -7  -4    6.72   10.13
   2  -7   4   84.66   28.95
   2  -7   4   23.51   12.08
   2  -7   4   18.81    9.82
   2   7   5 1935.72  118.66
   2   7   5 2036.74  100.33
  -2   7  -5 2112.60  129.97
  -2   7  -5 2021.14  121.77
  -2   7  -5 2127.46  166.64
  -2  -7  -5 2176.59  144.62
  -2  -7  -5 1939.33  108.23
   2  -7   5 1972.65  126.36
   2  -7   5 1965.55   99.69
   2  -7   5 1843.26  108.50
   2   7   6  445.17   48.93
   2   7   6  471.82   45.94
  -2   7  -6  432.97   46.55
  -2   7  -6  440.78   39.09
  -2   7  -6  444.34   53.89
  -2  -7  -6  437.89   55.01
  -2  -7  -6  408.29   41.89
   2  -7   6  519.71   64.90
   2  -7   6  440.55   39.13
   2   7   713500.19  575.94
   2   7   713887.32  568.12
  -2   7  -713521.66  598.56
  -2   7  -713904.30  552.99
  -2   7  -713834.03  575.76
  -2  -7  -713781.65  649.09
  -2  -7  -713217.43  568.28
   2  -7   713533.53  627.25
   2  -7   713743.69  600.17
   2   7   8   -1.83   23.58
   2   7   8   14.39   23.63
  -2   7  -8  -17.01   23.60
  -2   7  -8   -3.51   23.58
  -2   7  -8  -17.37   23.65
  -2  -7  -8  -56.43   23.62
  -2  -7  -8   24.77   23.61
   2  -7   8   -3.16   23.64
   2  -7   8   -9.07   23.62
   2   7   9 2027.98  172.59
  -2   7  -9 2275.93  193.50
  -2   7  -9 2073.19  169.39
  -2  -7  -9 2042.37  169.50
  -2  -7  -9 1843.74  146.49
   2  -7   9 1825.45  165.80
  -2   7 -10  105.56   41.47
   2  -7  10  146.20   47.43
   2   8   0 1128.60   55.09
   2   8   0 1242.01   57.92
   2   8   0 1161.79   84.43
   2   8   0 1156.27   92.27
   2   8   0 1063.04   72.37
  -2   8   0 1187.39   83.19
  -2   8   0 1277.16   69.10
  -2   8   0 1110.84   62.30
  -2   8   0 1082.36   70.89
  -2  -8   0 1140.06   84.03
  -2  -8   0 1181.13   77.07
  -2  -8   0 1088.81   60.20
  -2  -8   0 1191.07   60.59
   2  -8   0 1250.25   73.70
   2  -8   0 1211.39   86.48
   2  -8   0 1156.68   56.19
   2  -8   0 1124.41   68.12
   2   8   1 1920.97   95.71
   2   8   1 1843.28  109.05
   2   8   1 1995.68   99.87
   2   8   1 1891.25  116.03
  -2   8  -1 2215.87  156.59
  -2   8  -1 1931.33   95.22
  -2   8  -1 1771.24   66.22
  -2   8  -1 1966.70  109.26
  -2  -8  -1 1989.84  109.62
  -2  -8  -1 1854.33  111.57
  -2  -8  -1 1912.76   75.48
  -2  -8  -1 1861.95   81.37
   2  -8   1 1488.45  125.92
   2  -8   1 1780.23  107.82
   2  -8   1 1765.64   62.25
   2  -8   1 1917.91   78.61
   2   8   2   11.18   14.15
   2   8   2    9.34   13.79
   2   8   2    5.71   10.14
   2   8   2    8.52   18.63
  -2   8  -2    8.44   18.88
  -2   8  -2  -10.49   17.79
  -2  -8  -2   -4.35   14.21
  -2  -8  -2   -9.38   15.64
  -2  -8  -2   -8.57    6.98
   2  -8   2   18.33   17.49
   2  -8   2    5.62   12.92
   2   8   3   16.76    9.74
   2   8   3   -6.20    8.28
   2   8   3  -10.97   17.34
   2   8   3   -1.52    9.02
  -2   8  -3   12.31   15.31
  -2   8  -3   19.44   24.31
  -2  -8  -3    5.67   18.85
  -2  -8  -3   24.73   20.85
  -2  -8  -3   -8.16    7.76
   2  -8   3    2.99   16.86
   2  -8   3   10.41   21.07
   2  -8   3   -2.67    5.10
   2  -8   3   12.67    4.88
   2   8   4 2148.30   95.01
   2   8   4 2284.52  102.71
   2   8   4 2386.42  124.15
   2   8   4 2323.81  103.15
  -2   8  -4 2442.18  134.48
  -2   8  -4 2470.74  155.25
  -2   8  -4 2519.97  150.89
  -2  -8  -4 2452.26  120.89
  -2  -8  -4 2445.90  112.39
   2  -8   4 2464.64  148.92
   2  -8   4 2534.86  108.73
   2  -8   4 2472.02  105.25
   2   8   5 2768.05  142.71
   2   8   5 2698.44  160.76
  -2   8  -5 2713.94  175.60
  -2   8  -5 2866.37  146.94
  -2   8  -5 2722.73  132.13
  -2  -8  -5 2746.16  159.59
  -2  -8  -5 2750.21  123.81
   2  -8   5 2604.82  139.41
   2  -8   5 2869.28  135.15
   2  -8   5 2527.39  102.15
   2   8   6  383.45   39.38
   2   8   6  309.39   43.46
  -2   8  -6  412.24   55.16
  -2   8  -6  451.58   42.79
  -2   8  -6  388.17   48.14
  -2  -8  -6  390.08   47.82
  -2  -8  -6  427.81   37.92
   2  -8   6  456.71   44.79
   2  -8   6  434.09   43.27
   2   8   7  183.52   33.94
   2   8   7  199.62   41.32
  -2   8  -7  101.65   31.11
  -2   8  -7  190.93   30.13
  -2   8  -7  251.32   44.39
  -2  -8  -7  173.44   42.10
  -2  -8  -7  164.65   30.47
   2  -8   7  155.13   37.16
   2  -8   7  173.64   28.41
   2   8   8  147.14   30.60
   2   8   8  133.46   36.86
  -2   8  -8  144.27   45.87
  -2   8  -8  210.26   39.88
  -2   8  -8  218.98   52.27
  -2  -8  -8  160.77   36.55
  -2  -8  -8  191.22   37.62
   2  -8   8  189.92   39.29
   2   8   9 9113.52  475.38
  -2   8  -9 9598.22  607.53
  -2   8  -9 9333.51  529.30
  -2  -8  -9 8827.56  502.83
   2  -8   9 9748.67  487.52
   2   9   0 1389.22   72.75
   2   9   0 1526.44   74.31
   2   9   0 1335.34   92.27
   2   9   0 1479.24   99.77
  -2   9   0 1389.07   98.52
  -2   9   0 1430.07   84.27
  -2   9   0 1418.45   74.33
  -2   9   0 1490.18  102.05
  -2  -9   0 1545.25  120.16
  -2  -9   0 1451.60   92.33
  -2  -9   0 1469.08   70.67
  -2  -9   0 1339.95   79.07
   2  -9   0 1454.06   86.67
   2  -9   0 1475.26   82.50
   2  -9   0 1456.17   73.16
   2  -9   0 1450.61   88.03
   2   9   1 5229.50  217.99
   2   9   1 5072.53  252.11
   2   9   1 5126.22  292.87
   2   9   1 5397.20  282.57
  -2   9  -1 5037.53  254.13
  -2   9  -1 5194.62  238.24
  -2  -9  -1 5379.68  237.38
  -2  -9  -1 5278.49  257.68
  -2  -9  -1 5069.91  193.85
  -2  -9  -1 4848.95  183.31
   2  -9   1 5131.40  262.47
   2  -9   1 5483.46  251.98
   2  -9   1 5164.44  238.57
   2   9   2  455.61   40.98
   2   9   2  539.58   43.31
   2   9   2  471.74   29.75
   2   9   2  497.04   39.47
  -2   9  -2  497.45   44.05
  -2  -9  -2  460.92   44.26
  -2  -9  -2  517.71   49.37
  -2  -9  -2  499.93   25.88
  -2  -9  -2  471.24   26.55
   2  -9   2  459.99   43.92
   2  -9   2  479.80   41.37
   2   9   3 2778.33  125.32
   2   9   3 3019.58  147.95
   2   9   3 3064.40  167.15
   2   9   3 3029.55  131.51
  -2   9  -3 2802.86  169.56
  -2   9  -3 2821.84  153.91
  -2  -9  -3 3466.38  181.45
  -2  -9  -3 2904.05  154.61
  -2  -9  -3 2929.21  127.22
   2  -9   3 2835.49  174.37
   2  -9   3 2807.89  146.74
   2   9   4  506.20   31.96
   2   9   4  497.76   34.72
   2   9   4  551.03   49.29
   2   9   4  515.31   52.35
   2   9   4  506.57   36.70
  -2   9  -4  528.02   52.34
  -2   9  -4  525.74   45.94
  -2   9  -4  583.64   63.19
  -2  -9  -4  620.14   49.20
  -2  -9  -4  536.19   35.58
   2  -9   4  519.18   53.95
   2  -9   4  513.92   31.44
   2  -9   4  543.07   28.55
   2   9   5 1736.36   69.97
   2   9   5 1763.81  113.48
   2   9   5 1750.38  118.02
  -2   9  -5 1799.91  119.00
  -2   9  -5 1878.74  116.32
  -2   9  -5 1920.11  112.35
  -2  -9  -5 1905.36  116.88
  -2  -9  -5 1921.25  107.60
   2  -9   5 1925.37  122.51
   2  -9   5 1909.26  108.87
   2  -9   5 1782.25   84.86
   2   9   6   51.44   24.28
   2   9   6   79.19   32.33
  -2   9  -6   34.89   28.62
  -2   9  -6   56.80   27.24
  -2   9  -6   89.33   32.10
  -2  -9  -6  129.06   25.59
  -2  -9  -6   31.17   17.24
   2  -9   6   68.42   29.59
   2  -9   6  100.18   18.06
   2   9   7 4991.60  290.86
   2   9   7 5485.66  329.64
  -2   9  -7 5386.60  319.87
  -2   9  -7 5430.87  303.65
  -2   9  -7 5274.32  300.44
  -2  -9  -7 5280.14  321.75
  -2  -9  -7 4749.26  238.57
   2  -9   7 5114.45  266.90
   2  -9   7 5266.68  245.08
   2   9   8 1302.71  114.95
   2   9   8 1523.43  127.93
  -2   9  -8 1426.07  117.93
  -2   9  -8 1487.13  113.83
  -2   9  -8 1484.56  129.24
  -2  -9  -8 1570.25  109.00
  -2  -9  -8 1204.05   91.09
   2  -9   8 1442.36  123.29
   2   9   9  -32.41   41.72
  -2   9  -9   -1.28   41.75
  -2   9  -9  -34.39   41.75
  -2  -9  -9  -11.22   41.68
   2  -9   9   23.36   41.76
   2  10   0 1644.60   86.15
   2  10   0 1632.24   94.74
  -2  10   0 1653.52   93.39
  -2  10   0 1756.64   86.94
  -2  10   0 1624.96   79.86
  -2  10   0 1827.55   81.54
  -2  10   0 1590.35  100.09
  -2 -10   0 1675.86  130.89
  -2 -10   0 1636.73   92.63
  -2 -10   0 1717.03   75.77
  -2 -10   0 1683.85   80.29
   2 -10   0 1673.19   91.63
   2 -10   0 1591.49  101.12
   2 -10   0 1587.74  124.52
   2  10   1   95.71   14.81
   2  10   1  103.43   19.77
   2  10   1  161.63   30.32
  -2  10  -1  142.87   23.59
  -2  10  -1   84.81   20.71
  -2 -10  -1  114.35   15.89
  -2 -10  -1  101.49   24.72
  -2 -10  -1  115.92    9.03
  -2 -10  -1  122.94    9.16
   2 -10   1   70.31   23.77
   2 -10   1  113.07   22.93
   2  10   2  867.68   67.23
   2  10   2  994.29   69.46
   2  10   2  927.90   46.85
   2  10   2  922.47   66.83
  -2  10  -2  907.80   61.88
  -2  10  -2  929.04   68.61
  -2 -10  -2  958.25   61.25
  -2 -10  -2  957.37   77.42
   2 -10   2  823.52   85.65
   2 -10   2  870.28   63.73
   2  10   3  516.81   37.24
   2  10   3  487.15   39.83
   2  10   3  532.95   39.91
  -2  10  -3  473.27   50.13
  -2  10  -3  593.55   53.43
  -2 -10  -3  525.80   44.32
  -2 -10  -3  577.43   56.26
  -2 -10  -3  493.65   26.42
   2 -10   3  475.89   56.00
   2 -10   3  464.86   47.32
   2  10   4   82.66   14.27
   2  10   4   84.23   14.35
   2  10   4  142.50   21.91
   2  10   4   73.78   28.11
   2  10   4   74.47   14.55
  -2  10  -4  101.44   30.16
  -2  10  -4  108.57   31.52
  -2  10  -4   77.98   29.87
  -2 -10  -4  150.40   22.91
  -2 -10  -4  111.60   15.30
   2 -10   4  103.67   29.98
   2  10   5 6021.63  234.22
   2  10   5 6765.04  345.13
   2  10   5 6728.54  289.86
  -2  10  -5 6474.01  351.85
  -2  10  -5 6834.78  320.45
  -2  10  -5 6921.24  369.03
  -2 -10  -5 6379.02  303.14
  -2 -10  -5 6675.08  264.26
   2 -10   5 6821.27  431.08
   2 -10   5 6826.85  256.70
   2  10   6  136.73   27.28
   2  10   6  152.98   37.22
  -2  10  -6  210.02   39.23
  -2  10  -6  109.33   28.16
  -2  10  -6  175.72   32.39
  -2 -10  -6  190.18   34.08
  -2 -10  -6  154.91   23.77
   2 -10   6  154.88   32.82
   2 -10   6  144.04   19.89
   2  10   7  713.92   71.16
   2  10   7  683.77   68.06
  -2  10  -7  804.81   77.37
  -2  10  -7  768.58   69.45
  -2  10  -7  710.05   88.37
  -2 -10  -7  827.59   74.92
  -2 -10  -7  708.72   64.20
   2 -10   7  688.71   82.44
   2  10   8  931.99   99.98
  -2  10  -8  773.41   90.22
  -2  10  -8  876.18   76.72
  -2  10  -8  805.75   85.49
  -2 -10  -8  802.30   90.62
   2 -10   8  864.65   99.26
   2  10   9 1783.14  150.84
  -2  10  -9 1751.77  165.32
  -2  10  -9 1846.69  177.51
  -2 -10  -9 1854.83  143.80
   2 -10   9 1839.54  159.51
   2  11   0    9.55   10.87
   2  11   0   21.45   11.50
   2  11   0   51.28   22.16
  -2  11   0    3.68   23.78
  -2  11   0   35.11    9.69
  -2  11   0   32.70    8.58
  -2  11   0   25.86   14.85
  -2 -11   0   31.69   19.40
  -2 -11   0   34.30   18.73
  -2 -11   0   30.30    9.30
  -2 -11   0   24.99    8.46
   2 -11   0   16.01   18.16
   2 -11   0   24.88   16.32
   2 -11   0   17.20   13.02
   2  11   1 4958.97  235.24
   2  11   1 4774.09  232.10
   2  11   1 4175.84  295.43
  -2  11  -1 5004.77  262.49
  -2  11  -1 5147.46  219.60
  -2 -11  -1 4856.55  242.70
   2 -11   1 4984.86  246.20
   2 -11   1 4997.31  284.61
   2  11   2  254.32   28.67
   2  11   2  264.69   36.00
  -2  11  -2  241.23   37.98
  -2  11  -2  252.47   32.76
  -2 -11  -2  304.49   32.41
  -2 -11  -2  220.03   33.92
   2 -11   2  278.01   38.66
   2 -11   2  335.19   45.69
   2  11   311858.40  445.16
   2  11   311486.14  454.91
   2  11   311427.97  546.23
  -2  11  -312022.39  547.18
  -2  11  -311938.93  498.64
  -2  11  -312262.92  556.85
  -2 -11  -312041.02  493.88
  -2 -11  -311592.61  539.80
   2 -11   312143.25  520.05
   2  11   4  713.17   50.68
   2  11   4  737.73   59.45
   2  11   4  796.64   69.55
  -2  11  -4  785.48   59.59
  -2  11  -4  804.21   71.26
  -2  11  -4  781.35   70.15
  -2 -11  -4  736.24   62.21
  -2 -11  -4  786.31   37.78
   2 -11   4  849.08   64.91
   2  11   5 4516.38  242.41
   2  11   5 4905.44  256.02
  -2  11  -5 4779.55  243.69
  -2  11  -5 5007.32  264.58
  -2  11  -5 4710.36  237.46
  -2 -11  -5 4638.98  245.30
  -2 -11  -5 4608.41  203.14
   2 -11   5 4688.96  224.98
   2  11   6   -8.37   18.31
   2  11   6    5.56   27.77
  -2  11  -6   33.85   31.13
  -2  11  -6    0.96   25.48
  -2  11  -6   24.71   26.19
  -2 -11  -6   14.01   27.25
   2 -11   6   10.67   27.22
   2  11   7 1836.08  150.92
   2  11   7 2131.91  144.94
  -2  11  -7 1980.68  160.70
  -2  11  -7 2164.25  146.80
  -2  11  -7 2147.50  146.32
  -2 -11  -7 2006.38  136.86
   2 -11   7 2325.99  175.27
   2  11   8   -2.12   29.03
  -2  11  -8   22.24   33.80
  -2  11  -8    0.36   20.60
  -2  11  -8   19.29   34.50
  -2 -11  -8  -32.41   40.79
   2 -11   8   61.64   43.20
   2  11   9  205.46   57.47
  -2  11  -9  205.00   45.58
  -2  11  -9  264.11   67.35
  -2 -11  -9  129.74   46.71
   2 -11   9  213.89   53.07
   2  12   0   17.85   13.52
   2  12   0    4.64   21.56
  -2  12   0   24.37   22.41
  -2  12   0   19.41    8.05
  -2  12   0   20.15    7.66
  -2  12   0    2.28   10.74
  -2 -12   0   13.21   27.22
  -2 -12   0   -3.70   15.34
  -2 -12   0   30.94   11.66
  -2 -12   0   23.96    9.28
   2 -12   0   10.46   20.48
   2 -12   0   52.80   19.88
   2 -12   0   12.05   10.61
   2  12   1 6298.18  280.14
   2  12   1 5829.46  231.64
   2  12   1 6083.37  313.47
  -2  12  -1 6395.35  364.54
  -2  12  -1 6652.25  348.70
  -2 -12  -1 5923.81  336.94
  -2 -12  -1 6005.27  251.87
   2 -12   1 6145.98  289.32
   2 -12   1 6143.04  286.79
   2  12   2  119.82   21.67
   2  12   2  182.34   32.57
  -2  12  -2  193.22   38.71
  -2  12  -2  208.90   28.79
  -2 -12  -2  204.76   26.00
  -2 -12  -2  253.94   28.14
   2 -12   2  185.21   35.27
   2 -12   2  185.02   32.21
   2  12   3  287.74   31.74
   2  12   3  316.08   38.04
  -2  12  -3  396.22   40.58
  -2  12  -3  280.81   41.85
  -2  12  -3  332.66   42.70
  -2 -12  -3  357.05   33.88
  -2 -12  -3  293.70   36.92
   2 -12   3  377.60   50.26
   2  12   4    0.44   13.59
   2  12   4   44.33   24.27
   2  12   4   14.48   24.83
  -2  12  -4   16.09   23.41
  -2  12  -4   21.74   19.94
  -2  12  -4   16.14   25.67
  -2 -12  -4   33.19   24.28
   2 -12   4   56.93   30.00
   2  12   5 1045.22   81.06
   2  12   5 1237.52   93.60
  -2  12  -5 1088.87   85.84
  -2  12  -5 1103.85   97.68
  -2  12  -5 1132.35   83.86
  -2 -12  -5 1070.82   76.59
   2 -12   5 1191.36   94.56
   2  12   6  461.88   55.29
   2  12   6  609.86   75.79
  -2  12  -6  539.66   56.28
  -2  12  -6  583.38   60.12
  -2  12  -6  520.84   67.23
  -2 -12  -6  514.75   55.56
   2 -12   6  685.45   52.91
   2  12   7   -0.84   33.44
  -2  12  -7   20.49   33.45
  -2  12  -7  -28.93   33.46
  -2  12  -7   -0.80   33.49
  -2 -12  -7  -30.65   33.36
   2 -12   7   23.75   33.42
   2  12   8   54.30   35.27
  -2  12  -8   70.94   39.05
  -2  12  -8   38.21   28.33
  -2  12  -8   71.09   30.70
  -2 -12  -8   92.76   43.43
   2 -12   8    3.32   29.11
  -2  12  -9 1930.28  161.89
  -2 -12  -9 2132.47  168.22
   2  13   0   19.25   13.52
   2  13   0   15.84   16.52
  -2  13   0    8.48   23.25
  -2  13   0   32.21    8.20
  -2  13   0   24.80    7.36
  -2  13   0   22.90   15.34
  -2 -13   0   13.97   23.12
  -2 -13   0   10.68   15.74
  -2 -13   0   28.71    8.06
  -2 -13   0   20.07    7.14
   2 -13   0   11.34   23.39
   2 -13   0   33.68   19.84
   2 -13   0   38.20   15.58
   2  13   1 2798.43  173.33
   2  13   1 3005.95  147.53
  -2  13  -1 3049.97  150.74
  -2  13  -1 3112.60  154.89
  -2 -13  -1 2912.18  152.10
  -2 -13  -1 3070.08  147.72
   2 -13   1 2829.74  147.99
   2 -13   1 3020.34  162.97
   2  13   2  329.74   36.53
   2  13   2  349.21   41.99
  -2  13  -2  327.69   37.47
  -2  13  -2  346.06   43.82
  -2 -13  -2  356.81   40.04
   2 -13   2  284.49   51.02
   2 -13   2  275.49   37.72
   2  13   3 5252.73  260.35
   2  13   3 5062.54  280.58
  -2  13  -3 5348.79  278.72
  -2  13  -3 5065.06  262.52
  -2  13  -3 5232.67  237.60
  -2 -13  -3 5261.80  275.55
  -2 -13  -3 5404.50  238.20
   2 -13   3 5593.33  287.99
   2  13   4 1027.99   75.35
   2  13   4 1061.69   75.47
   2  13   4 1071.71   82.68
  -2  13  -4 1174.65   75.04
  -2  13  -4 1149.34   87.32
  -2  13  -4 1223.43   91.33
  -2 -13  -4 1126.92   90.08
   2 -13   4 1334.17   96.39
   2  13   5  102.83   27.16
   2  13   5  188.94   40.25
  -2  13  -5  128.87   30.03
  -2  13  -5  130.39   25.88
  -2  13  -5  166.73   31.06
  -2 -13  -5  143.19   37.82
   2 -13   5  132.74   33.05
   2  13   6  221.58   32.57
   2  13   6  163.95   39.17
  -2  13  -6  273.34   39.63
  -2  13  -6  174.30   40.31
  -2  13  -6  210.54   37.48
  -2 -13  -6  214.29   40.73
   2 -13   6  206.08   42.46
   2  13   7 2752.41  208.96
  -2  13  -7 2637.84  194.16
  -2  13  -7 2700.13  189.48
  -2  13  -7 2672.58  174.13
  -2 -13  -7 2599.78  182.77
   2 -13   7 2680.29  199.71
   2  13   8  188.75   42.90
  -2  13  -8  163.33   41.38
  -2  13  -8   60.51   36.94
  -2  13  -8   96.48   39.75
  -2 -13  -8   58.69   39.09
   2 -13   8   98.63   44.82
   2  14   0 1693.08  101.53
   2  14   0 1722.07  122.22
  -2  14   0 1656.28  111.46
  -2  14   0 1636.50   69.64
  -2  14   0 1722.73   93.16
  -2 -14   0 1676.25  116.78
  -2 -14   0 1815.28  106.91
  -2 -14   0 1756.48   65.34
  -2 -14   0 1587.05   67.92
   2 -14   0 1722.17  105.81
   2 -14   0 1780.51  106.91
   2  14   1   96.74   21.19
   2  14   1  120.30   24.66
  -2  14  -1   67.54   24.46
  -2  14  -1  106.19   20.13
  -2 -14  -1   50.78   25.27
  -2 -14  -1   98.44   25.09
   2 -14   1  128.69   26.13
   2 -14   1   96.91   26.51
   2  14   2 1913.31  112.63
   2  14   2 1969.18  117.93
   2  14   2 2018.16  127.10
  -2  14  -2 1962.51  136.93
  -2  14  -2 2031.15  137.23
  -2 -14  -2 2143.70  106.51
   2 -14   2 2043.17  140.28
   2 -14   2 1958.78  118.07
   2  14   3 3238.19  169.06
   2  14   3 3546.87  207.86
   2  14   3 3553.48  209.35
  -2  14  -3 3651.92  192.57
  -2  14  -3 3569.43  198.10
  -2  14  -3 3500.43  198.24
  -2 -14  -3 3391.69  199.06
   2 -14   3 3444.03  178.44
   2  14   4  547.28   48.04
   2  14   4  568.56   49.99
   2  14   4  654.09   63.75
  -2  14  -4  640.38   65.46
  -2  14  -4  721.96   68.09
  -2  14  -4  623.22   64.92
  -2 -14  -4  525.67   52.30
   2 -14   4  611.47   68.11
   2  14   5 3275.73  186.55
   2  14   5 3724.00  208.62
  -2  14  -5 3661.52  192.05
  -2  14  -5 3724.32  242.39
  -2  14  -5 3867.32  222.57
  -2 -14  -5 3444.42  194.43
   2 -14   5 3339.16  213.04
   2  14   6  386.99   47.03
   2  14   6  458.69   60.45
  -2  14  -6  387.44   53.25
  -2  14  -6  506.21   67.64
  -2  14  -6  468.45   50.52
  -2 -14  -6  469.11   56.78
   2 -14   6  436.88   69.51
   2  14   7   36.11   38.47
  -2  14  -7  -19.25   38.51
  -2  14  -7  -26.05   38.49
  -2  14  -7  -26.29   38.55
  -2 -14  -7   62.67   38.43
   2 -14   7   -7.03   38.43
   2  14   8  196.55   49.01
  -2  14  -8  212.81   55.92
  -2  14  -8  211.69   41.55
  -2  14  -8  287.60   52.09
  -2 -14  -8  219.44   51.78
   2 -14   8  221.17   58.67
   2  15   0  448.59   38.06
   2  15   0  398.02   53.71
  -2  15   0  506.33   55.06
  -2  15   0  443.98   38.58
  -2 -15   0  464.47   48.72
  -2 -15   0  464.76   44.02
   2 -15   0  476.98   52.06
   2 -15   0  428.81   42.40
   2  15   1  788.90   58.45
   2  15   1  872.68   61.88
  -2  15  -1  834.36   65.51
  -2  15  -1  852.29   61.56
  -2 -15  -1  870.84   56.12
  -2 -15  -1  859.52   63.35
   2 -15   1  847.27   70.58
   2 -15   1  894.30   70.63
   2  15   2 2890.00  171.38
   2  15   2 2849.70  163.81
   2  15   2 2807.67  157.48
  -2  15  -2 2784.71  154.09
  -2  15  -2 2897.48  157.80
  -2 -15  -2 2902.46  165.45
   2 -15   2 2907.22  174.30
   2 -15   2 2792.14  143.01
   2  15   3 1665.13  113.59
   2  15   3 1683.49  129.21
   2  15   3 1880.49  115.37
  -2  15  -3 1843.48  105.45
  -2  15  -3 1684.81  138.28
  -2  15  -3 1764.28  120.73
   2 -15   3 1793.63  124.76
   2  15   4  945.66   69.26
   2  15   4 1032.59   87.77
   2  15   4 1086.18   80.01
  -2  15  -4 1137.27  100.01
  -2  15  -4 1211.08   91.35
  -2  15  -4 1118.74   86.06
  -2 -15  -4  993.37   86.02
   2 -15   4 1174.59  102.40
   2  15   5  100.25   29.68
   2  15   5  131.08   39.28
  -2  15  -5  123.99   35.87
  -2  15  -5  142.56   37.45
  -2  15  -5  143.29   32.01
  -2 -15  -5  165.40   37.75
   2 -15   5  195.37   40.40
   2  15   6 1386.90  132.48
  -2  15  -6 1246.60  109.76
  -2  15  -6 1248.02  118.03
  -2  15  -6 1258.95   99.96
  -2 -15  -6 1302.66  100.25
   2 -15   6 1467.32  138.46
   2  15   7 1815.11  168.75
  -2  15  -7 1528.59  123.64
  -2  15  -7 1619.23  127.42
  -2  15  -7 1555.14  143.15
  -2 -15  -7 1359.47  123.93
   2 -15   7 1714.02  164.20
  -2  15  -8  508.06   69.57
  -2  15  -8  558.17   75.00
  -2  15  -8  440.06   66.59
  -2 -15  -8  387.01   65.16
   2  16   0 2804.66  158.27
   2  16   0 3033.01  172.39
  -2  16   0 2821.95  155.26
  -2  16   0 2740.15  158.15
  -2 -16   0 2692.07  167.47
  -2 -16   0 2882.72  163.65
   2 -16   0 2853.96  178.02
   2 -16   0 2785.27  173.57
   2  16   1 1533.60  105.12
   2  16   1 1550.27  115.42
  -2  16  -1 1530.88   99.75
  -2  16  -1 1487.65   91.99
  -2 -16  -1 1569.20   99.71
   2 -16   1 1643.07  136.56
   2 -16   1 1641.83  104.77
   2  16   2  745.86   67.00
   2  16   2  795.34   60.08
   2  16   2  823.82   71.56
  -2  16  -2  793.95   71.50
  -2  16  -2  811.29   82.68
  -2  16  -2  731.56   75.47
  -2 -16  -2  811.13   64.08
   2 -16   2  792.45   87.91
   2  16   3   72.23   19.98
   2  16   3   27.86   25.98
   2  16   3   59.69   26.36
   2  16   3   27.91   19.99
  -2  16  -3   44.66   29.78
  -2  16  -3   89.00   35.69
  -2  16  -3   59.65   22.10
   2 -16   3   54.40   35.14
   2  16   4 6058.18  288.71
   2  16   4 6159.01  330.34
  -2  16  -4 6224.66  320.47
  -2  16  -4 6370.16  313.56
  -2  16  -4 6252.08  358.25
  -2 -16  -4 5571.48  286.94
   2 -16   4 6237.59  330.17
   2  16   5  196.12   34.84
   2  16   5  111.39   33.60
  -2  16  -5  156.13   40.92
  -2  16  -5  182.54   45.23
  -2  16  -5  148.75   35.23
  -2 -16  -5  104.99   30.29
   2 -16   5   85.44   37.12
   2  16   6 2125.59  158.95
  -2  16  -6 2228.76  177.95
  -2  16  -6 2184.43  155.86
  -2  16  -6 1909.49  130.49
  -2 -16  -6 1898.34  136.65
   2 -16   6 2218.46  192.65
   2  16   7  346.49   70.79
  -2  16  -7  319.44   58.20
  -2  16  -7  290.24   50.71
  -2  16  -7  365.67   54.60
  -2 -16  -7  245.01   59.84
   2 -16   7  405.40   66.59
   2  17   0 1913.24  125.37
   2  17   0 2105.62  139.82
  -2  17   0 2049.74  135.63
  -2 -17   0 1972.55  125.97
  -2 -17   0 2199.18  139.06
   2 -17   0 2071.41  134.94
   2 -17   0 2142.96  134.46
   2  17   1  300.02   36.69
   2  17   1  277.30   38.62
   2  17   1  333.82   47.06
  -2  17  -1  300.88   44.12
  -2  17  -1  292.98   32.23
  -2 -17  -1  283.34   34.45
   2 -17   1  272.11   40.98
   2 -17   1  379.75   46.67
   2  17   2 3326.77  198.59
   2  17   2 3401.35  211.41
   2  17   2 3452.86  174.52
   2  17   2 3496.22  212.45
  -2  17  -2 3471.92  193.58
  -2  17  -2 3625.01  256.23
  -2  17  -2 3422.78  208.98
   2 -17   2 3573.16  222.24
   2  17   3 2512.45  174.74
   2  17   3 2487.56  162.26
   2  17   3 2724.39  194.46
   2  17   3 2616.00  170.66
  -2  17  -3 2919.86  192.74
  -2  17  -3 2947.27  205.77
  -2  17  -3 2627.26  185.70
   2 -17   3 2825.35  158.62
   2  17   4  644.49   68.82
   2  17   4  655.90   64.50
   2  17   4  687.90   74.37
  -2  17  -4  683.45   69.53
  -2  17  -4  694.09   80.03
  -2  17  -4  719.24   80.36
   2 -17   4  664.75   86.18
   2  17   5  146.99   42.96
  -2  17  -5  236.65   51.40
  -2  17  -5  199.58   52.53
  -2  17  -5  194.96   37.93
  -2 -17  -5  274.69   41.23
   2 -17   5  216.51   45.24
   2  17   6 1767.83  165.31
  -2  17  -6 1782.96  143.78
  -2  17  -6 1854.33  169.40
  -2  17  -6 1812.13  154.55
  -2 -17  -6 1563.31  117.78
   2 -17   6 1977.98  172.04
   2  17   7  125.45   53.71
  -2  17  -7  174.84   39.70
  -2  17  -7  169.31   44.58
  -2  17  -7  161.13   45.69
  -2 -17  -7  235.29   56.00
   2  18   0 6793.62  395.19
  -2  18   0 7224.31  348.68
  -2 -18   0 6870.70  360.00
  -2 -18   0 6990.89  343.39
   2 -18   0 6905.19  342.94
   2 -18   0 6936.83  342.77
   2  18   1 1005.12   94.62
   2  18   1 1090.51  109.93
  -2  18  -1 1126.53   85.77
   2 -18   1 1185.21   96.84
   2 -18   1 1058.95   98.88
   2  18   2 4026.67  249.07
   2  18   2 4600.86  271.99
   2  18   2 4269.73  247.44
   2  18   2 4350.67  242.89
  -2  18  -2 4663.82  296.82
  -2  18  -2 4582.38  247.00
   2 -18   2 4666.47  261.37
   2  18   3    8.65   25.40
   2  18   3   -1.96   21.69
   2  18   3   34.01   28.56
   2  18   3  -14.33   24.69
  -2  18  -3  -17.45   26.77
  -2  18  -3   54.37   43.56
  -2  18  -3    6.26   20.67
   2 -18   3   11.05   35.14
   2  18   4 2174.61  172.10
   2  18   4 2032.72  143.67
   2  18   4 2342.18  175.41
  -2  18  -4 2156.20  182.60
  -2  18  -4 2424.66  172.17
  -2  18  -4 2117.43  167.89
   2 -18   4 2156.13  179.41
   2  18   5   55.89   32.71
   2  18   5  105.71   40.80
  -2  18  -5   67.24   36.42
  -2  18  -5  128.45   36.60
  -2  18  -5   71.31   28.81
   2 -18   5   17.37   39.29
   2  18   6  414.89   68.56
  -2  18  -6  459.83   72.68
  -2  18  -6  481.98   65.19
  -2  18  -6  547.07   69.19
  -2 -18  -6  395.69   57.14
   2 -18   6  502.47   86.68
   2  19   0 1175.94  121.75
  -2  19   0 1255.09  137.71
  -2 -19   0 1329.65  106.72
   2 -19   0 1422.27   97.69
   2 -19   0 1249.50   95.82
   2  19   1   19.32   22.88
   2  19   1   25.19   32.66
  -2  19  -1  -11.89   31.15
  -2  19  -1   15.33   24.67
   2 -19   1   20.80   26.31
   2  19   2 2271.16  169.80
   2  19   2 2031.82  153.33
   2  19   2 2036.35  157.01
  -2  19  -2 2236.98  180.93
  -2  19  -2 2146.03  169.04
   2 -19   2 2280.09  169.56
   2  19   3   37.09   27.27
   2  19   3   12.89   24.38
  -2  19  -3   12.09   27.97
  -2  19  -3   54.39   29.33
   2 -19   3   63.59   29.80
   2  19   4   31.41   25.93
  -2  19  -4   43.26   24.73
  -2  19  -4   54.00   42.42
   2 -19   4  -18.13   34.59
   2  19   5   -9.29   27.26
   2  19   5   15.92   35.52
  -2  19  -5    8.28   24.97
  -2  19  -5    4.63   38.40
   2 -19   5   52.64   37.85
   2  20   0 1590.89  137.89
  -2  20   0 1495.09  108.72
  -2 -20   0 1556.24  123.28
   2 -20   0 1438.27  107.84
   2 -20   0 1344.43   99.52
   2  20   1 1586.36  141.91
   2  20   1 1494.95  124.49
  -2  20  -1 1575.00  148.87
  -2  20  -1 1566.48  127.11
   2 -20   1 1509.83  121.72
   2  20   2  966.52   96.86
   2  20   2  863.27   80.53
  -2  20  -2  980.59   95.09
  -2  20  -2  999.90  124.11
   2 -20   2  974.98   84.74
   2  20   3   86.69   32.31
   2  20   3  109.16   35.08
  -2  20  -3  142.23   33.26
  -2  20  -3   66.58   40.67
   2 -20   3  159.09   30.33
   2  20   4 2055.35  149.16
  -2  20  -4 1987.40  171.18
  -2  20  -4 2420.58  208.40
   2 -20   4 2104.72  214.89
   2  20   5  250.07   52.12
  -2  20  -5  282.18   51.62
   2 -20   5  257.03   53.87
   2  21   0  945.37   99.07
  -2  21   0  937.09   99.59
  -2  21   0 1123.52  135.80
  -2 -21   0  885.32   88.24
   2 -21   0 1002.71   89.50
   2  21   1  -13.59   25.29
   2  21   1  -28.31   25.23
  -2  21  -1  -41.36   25.26
  -2  21  -1   -8.87   25.20
   2 -21   1   17.35   25.23
   2  21   2 1543.84  154.26
   2  21   2 1684.14  131.71
  -2  21  -2 1721.58  134.78
  -2  21  -2 1816.75  166.96
   2 -21   2 1882.71  158.74
  -2  21  -3   19.05   29.10
  -2  21  -3   -3.47   36.33
   2 -21   3  -11.53   28.38
  -2  21  -4  176.56   42.90
   2 -21   4  134.69   40.82
   2  22   0 1915.53  172.15
  -2  22   0 1962.26  189.49
  -2  22   0 1984.56  166.03
  -2 -22   0 2070.29  194.70
   2  22   1   30.54   26.25
   2  22   1   20.91   27.55
  -2  22  -1   54.78   37.36
  -2  22  -1  -27.80   36.83
   2 -22   1  -29.27   22.95
   2  22   2 1066.97  111.68
  -2  22  -2 1237.70  116.77
  -2  22  -2 1138.86  141.11
   2 -22   2 1285.02  127.16
  -2  22  -3   28.70   32.94
   2 -22   3   35.56   34.09
   3   0   0   -8.22   13.43
   3   0   0    5.48   13.39
   3   0   0    9.52   13.39
   3   0   0   13.87   13.39
   3   0   0   -5.90   13.45
  -3   0   0    1.08   13.38
  -3   0   0  -21.63   13.42
  -3   0   0  -13.30   13.42
  -3   0   0   -5.76   13.41
  -3   0   0    0.28   13.45
   3   0   113645.32  565.84
   3   0   112686.23  526.43
   3   0   113649.08  550.52
   3   0   113729.32  569.04
   3   0   114016.26  758.05
  -3   0  -113350.79  537.91
  -3   0  -113168.06  530.86
  -3   0  -113154.62  525.19
  -3   0  -112965.90  569.76
  -3   0  -113566.50  536.42
   3   0   2  -10.60   13.39
   3   0   2   -0.32   13.46
   3   0   2  -29.97   13.42
   3   0   2   -2.56   13.44
   3   0   2    7.39   13.42
  -3   0  -2   -1.68   13.42
  -3   0  -2   -3.28   13.44
  -3   0  -2   -1.08   13.44
  -3   0  -2    8.35   13.42
   3   0   310025.77  379.51
   3   0   310764.59  526.08
  -3   0  -310528.82  428.09
  -3   0  -310499.46  415.00
  -3   0  -310141.25  416.39
  -3   0  -310454.19  499.07
   3   0   4    5.71   20.70
  -3   0  -4   12.19   21.27
  -3   0  -4   -8.42    7.90
  -3   0  -4    5.31    6.39
  -3   0  -4   -2.71   18.33
  -3   0  -4    2.51   21.08
   3   0   521376.03  782.14
   3   0   520989.45  800.65
  -3   0  -519934.44  800.32
  -3   0  -520666.69  659.24
  -3   0  -519101.08  674.99
  -3   0  -520852.82  843.65
   3   0   6   -6.63   25.44
   3   0   6    3.88   25.47
  -3   0  -6  -14.27   25.47
  -3   0  -6   -3.85   25.56
  -3   0  -6    9.69   25.40
  -3   0  -6  -27.78   25.46
   3   0   7   11.22   35.54
   3   0   7   30.15   24.31
  -3   0  -7   42.11   23.31
  -3   0  -7   -0.04   24.65
   3   0   8    0.36   26.87
   3   0   8   27.90   31.10
  -3   0  -8   43.91   37.47
  -3   0  -8   16.70   31.27
   3   0   9 2094.40  175.23
   3   0   9 2075.87  153.61
  -3   0  -9 2100.75  183.36
  -3   0  -9 2150.81  154.98
   3   0  10  -33.42   25.87
   3   0  10  -17.61   25.88
  -3   0 -10  -42.41   25.90
  -3   0 -10   41.98   25.93
   3   1   018227.68  702.53
   3   1   018606.40  689.19
   3   1   019158.74  717.71
   3   1   019350.93  740.46
   3   1   019282.30  858.32
  -3   1   018332.49  700.25
  -3   1   018794.12  682.03
  -3   1   018797.60  740.02
  -3   1   018750.40  815.48
  -3   1   019411.33  783.71
  -3  -1   018154.91  673.62
  -3  -1   019282.20  699.46
  -3  -1   018371.42  729.89
  -3  -1   017134.54  705.00
  -3  -1   018399.04  717.72
   3  -1   019578.96  685.23
   3  -1   017906.90  675.04
   3  -1   018535.80  668.44
   3  -1   017911.49  726.48
   3  -1   019870.89  903.66
   3   1   123155.06  949.81
   3   1   122283.05  923.12
   3   1   123972.34  887.62
   3   1   122222.24  861.37
   3   1   122586.59  836.79
  -3   1  -123577.74  869.61
  -3   1  -123471.72  894.02
  -3   1  -123668.61  962.22
  -3   1  -121578.11  801.80
  -3   1  -123057.55  811.31
  -3  -1  -122771.34  822.10
  -3  -1  -122455.46  820.59
  -3  -1  -122626.35  795.75
  -3  -1  -121804.54  783.32
  -3  -1  -122525.91  941.28
   3  -1   123392.08  938.27
   3  -1   122024.54  851.22
   3  -1   122848.79  885.93
   3  -1   124442.83  844.10
   3  -1   122692.44  941.08
   3   1   2 5927.85  281.94
   3   1   2 6302.63  248.00
   3   1   2 6001.68  285.57
   3   1   2 6056.84  264.41
   3   1   2 6141.78  290.39
  -3   1  -2 5660.31  291.60
  -3   1  -2 6018.26  255.39
  -3   1  -2 5943.09  260.68
  -3   1  -2 5955.09  279.69
  -3  -1  -2 6024.09  305.60
  -3  -1  -2 5722.51  241.24
  -3  -1  -2 6117.24  284.17
  -3  -1  -2 5916.31  283.55
   3  -1   2 5916.46  281.13
   3  -1   2 5491.90  270.87
   3  -1   2 6219.64  279.23
   3  -1   2 5787.83  287.56
   3   1   3 9659.03  336.72
   3   1   3 9941.23  449.55
  -3   1  -310014.45  475.95
  -3   1  -310477.03  436.82
  -3   1  -3 9607.27  443.40
  -3  -1  -3 9765.68  405.94
  -3  -1  -3 9713.30  347.90
  -3  -1  -3 9808.13  459.77
  -3  -1  -3 9934.59  375.53
   3  -1   3 9694.50  378.44
   3  -1   3 9748.99  374.26
   3  -1   3 9942.19  426.37
   3   1   4   66.11   19.72
  -3   1  -4   94.11   26.64
  -3   1  -4   83.01   12.02
  -3   1  -4   87.82   12.04
  -3   1  -4   76.37   26.31
  -3   1  -4   68.96   21.35
  -3  -1  -4   59.77   17.88
  -3  -1  -4   91.68   22.28
  -3  -1  -4  133.52   24.24
   3  -1   4   62.54   22.96
   3   1   5  406.96   44.47
   3   1   5  446.23   48.12
  -3   1  -5  440.04   51.61
  -3   1  -5  417.54   29.31
  -3   1  -5  366.47   25.64
  -3   1  -5  437.03   48.80
  -3  -1  -5  416.54   41.46
  -3  -1  -5  448.40   47.58
   3  -1   5  414.37   42.29
   3  -1   5  419.55   38.89
   3   1   6  239.79   31.13
   3   1   6  187.64   30.51
  -3   1  -6  284.66   43.95
  -3   1  -6  232.01   19.32
  -3   1  -6  180.86   16.39
  -3   1  -6  236.54   42.89
  -3  -1  -6  181.32   30.98
  -3  -1  -6  179.31   33.02
   3  -1   6  168.78   37.65
   3  -1   6  186.19   31.12
   3   1   7 7784.83  396.22
   3   1   7 7579.21  351.87
  -3   1  -7 8008.79  414.95
  -3   1  -7 8025.82  372.21
  -3  -1  -7 7580.10  324.47
  -3  -1  -7 7668.33  365.77
   3  -1   7 8041.55  436.56
   3  -1   7 7889.18  358.74
   3   1   8  319.35   47.00
   3   1   8  330.32   50.33
  -3   1  -8  439.08   56.16
  -3   1  -8  381.36   57.30
  -3  -1  -8  324.91   53.46
  -3  -1  -8  306.54   54.29
   3  -1   8  318.99   58.69
   3  -1   8  379.29   60.65
   3   1   9  270.87   51.38
   3   1   9  260.66   49.14
  -3   1  -9  287.78   51.04
  -3   1  -9  207.26   48.77
  -3  -1  -9  255.08   48.72
  -3  -1  -9  243.69   39.87
   3  -1   9  239.43   43.77
   3  -1   9  254.12   49.67
   3   1  10   20.60   32.42
   3   1  10   10.98   28.99
  -3   1 -10   23.30   37.77
  -3   1 -10   -0.76   31.94
  -3  -1 -10   -4.16   28.54
  -3  -1 -10   -7.04   25.52
   3  -1  10   62.10   29.79
   3  -1  10    2.48   30.28
   3   2   0  775.74   48.33
   3   2   0  820.57   58.01
   3   2   0  779.78   59.72
   3   2   0  801.26   56.45
   3   2   0  739.18   72.36
  -3   2   0  727.28   50.77
  -3   2   0  732.62   52.81
  -3   2   0  733.28   51.63
  -3   2   0  677.37   53.79
  -3   2   0  782.49   67.49
  -3  -2   0  778.49   49.51
  -3  -2   0  772.25   49.70
  -3  -2   0  716.51   68.25
  -3  -2   0  796.98   59.37
   3  -2   0  742.39   49.69
   3  -2   0  756.34   62.18
   3  -2   0  783.97   52.43
   3  -2   0  803.17   66.63
   3  -2   0  763.33   71.38
   3   2   124391.52  855.84
   3   2   125144.12 1005.66
   3   2   124556.19  873.92
   3   2   125611.68 1005.32
   3   2   124587.09  915.16
  -3   2  -124558.45  943.15
  -3   2  -125260.54  843.17
  -3   2  -124705.60  816.25
  -3   2  -124038.69  945.15
  -3   2  -125656.89 1022.05
  -3  -2  -124667.05  885.71
  -3  -2  -125361.71  947.97
  -3  -2  -125272.86 1002.46
  -3  -2  -123977.74  874.53
  -3  -2  -123561.39  918.53
   3  -2   124718.72  963.42
   3  -2   124256.74 1001.52
   3  -2   125665.41  941.38
   3  -2   125649.92  907.53
   3  -2   124800.22  884.52
   3   2   2 4620.62  249.49
   3   2   2 4651.68  196.30
   3   2   2 4660.41  269.70
   3   2   2 4780.20  229.58
  -3   2  -2 4622.95  260.24
  -3   2  -2 4759.60  210.27
  -3   2  -2 4743.65  234.85
  -3   2  -2 4541.65  211.21
  -3  -2  -2 4672.79  225.87
  -3  -2  -2 4592.27  207.13
  -3  -2  -2 4547.57  207.63
  -3  -2  -2 4416.53  226.17
   3  -2   2 4665.23  216.28
   3  -2   2 4576.27  216.68
   3  -2   2 4527.58  207.74
   3   2   3 9261.03  326.10
   3   2   3 9914.10  430.12
  -3   2  -311575.57  679.25
  -3   2  -310260.11  378.53
  -3   2  -3 9739.12  426.96
  -3   2  -310260.51  457.61
  -3  -2  -3 9973.78  381.56
  -3  -2  -3 9113.17  320.05
  -3  -2  -310141.13  547.86
  -3  -2  -3 9842.81  377.88
   3  -2   3 9656.11  392.22
   3  -2   310053.49  387.90
   3  -2   3 9946.31  449.10
   3   2   4  294.61   38.02
  -3   2  -4  405.73   52.62
  -3   2  -4  329.78   30.40
  -3   2  -4  339.26   27.39
  -3   2  -4  291.52   30.59
  -3   2  -4  303.39   43.93
  -3  -2  -4  291.48   28.84
  -3  -2  -4  344.61   35.67
  -3  -2  -4  326.98   46.01
   3  -2   4  344.35   41.08
   3   2   518609.47  840.11
  -3   2  -517374.26  769.77
  -3   2  -518580.04  643.90
  -3   2  -518667.49  651.53
  -3   2  -519148.92  720.71
  -3  -2  -517564.77  789.61
  -3  -2  -518476.75  717.63
   3  -2   518625.39  738.15
   3  -2   518990.99  759.24
   3   2   6  296.84   37.52
   3   2   6  312.35   39.99
  -3   2  -6  283.04   50.39
  -3   2  -6  267.32   24.37
  -3   2  -6  250.68   36.77
  -3  -2  -6  275.27   41.22
  -3  -2  -6  228.25   35.70
   3  -2   6  228.84   38.79
   3  -2   6  307.72   36.13
   3   2   7  110.62   28.10
   3   2   7   19.35   20.03
  -3   2  -7   11.94   33.63
  -3   2  -7   16.68   27.88
  -3  -2  -7    0.76   22.67
  -3  -2  -7   24.29   22.13
   3  -2   7   20.92   25.08
   3   2   8  586.51   63.79
   3   2   8  593.69   53.85
  -3   2  -8  570.31   81.58
  -3   2  -8  665.58   72.23
  -3  -2  -8  602.37   84.24
  -3  -2  -8  695.35   73.98
   3  -2   8  550.35   66.68
   3  -2   8  574.41   66.30
   3   2   9 1908.47  146.22
   3   2   9 1843.28  129.26
  -3   2  -9 1976.78  169.66
  -3   2  -9 1952.69  158.44
  -3  -2  -9 1793.08  160.80
  -3  -2  -9 2064.96  149.14
   3  -2   9 1930.33  167.57
   3  -2   9 1986.59  155.51
   3   2  10  280.75   54.72
   3   2  10  401.80   64.64
  -3   2 -10  337.55   64.82
  -3   2 -10  339.89   56.32
  -3  -2 -10  343.33   70.69
  -3  -2 -10  343.41   68.77
   3  -2  10  367.35   65.67
   3  -2  10  406.26   63.80
   3   3   0  198.54   17.60
   3   3   0  215.92   25.49
   3   3   0  195.86   24.89
   3   3   0  201.19   28.06
   3   3   0  229.85   28.36
  -3   3   0  250.44   27.35
  -3   3   0  224.95   26.00
  -3   3   0  184.64   21.74
  -3   3   0  198.90   25.85
  -3   3   0  164.09   28.02
  -3  -3   0  214.03   18.71
  -3  -3   0  204.03   24.42
  -3  -3   0  215.10   26.59
  -3  -3   0  214.97   27.37
  -3  -3   0  204.49   24.32
   3  -3   0  205.07   23.25
   3  -3   0  245.39   29.32
   3  -3   0  220.60   23.92
   3  -3   0  213.18   24.68
   3  -3   0  184.26   28.82
   3   3   1 1865.07   96.08
   3   3   1 1970.74  103.02
   3   3   1 1801.16  105.24
   3   3   1 1877.74  144.99
   3   3   1 1979.57  133.36
  -3   3  -1 1923.15  138.12
  -3   3  -1 1884.63  130.67
  -3   3  -1 1929.00  117.65
  -3   3  -1 1806.54  101.38
  -3   3  -1 1908.64  127.44
  -3  -3  -1 1982.69  103.51
  -3  -3  -1 1855.11   93.54
  -3  -3  -1 1982.71  130.23
  -3  -3  -1 1815.39  116.43
   3  -3   1 1838.36  104.66
   3  -3   1 1862.49   90.77
   3  -3   1 2029.78  121.40
   3  -3   1 1986.01  113.19
   3  -3   1 1825.52  144.91
   3   3   2 1656.52  116.79
   3   3   2 1711.22   91.84
   3   3   2 1769.21  121.15
   3   3   2 1718.88  135.37
  -3   3  -2 1634.44  126.90
  -3   3  -2 1755.19   96.94
  -3   3  -2 1764.40   94.45
  -3   3  -2 1746.56   97.74
  -3  -3  -2 1823.04  103.31
  -3  -3  -2 1681.74   73.31
  -3  -3  -2 1564.26   92.35
  -3  -3  -2 1675.14   84.41
   3  -3   2 1593.58   79.05
   3  -3   2 1750.46  132.29
   3  -3   2 1765.94  101.61
   3   3   317799.01  701.37
  -3   3  -318009.75  731.79
  -3   3  -319221.11  758.66
  -3   3  -317503.82  712.36
  -3   3  -318226.66  799.82
  -3  -3  -318875.25  721.77
  -3  -3  -317798.97  673.81
  -3  -3  -318277.90  694.56
   3  -3   318814.27  649.59
   3  -3   319091.14  751.77
   3  -3   319909.31  679.06
   3   3   4 5179.38  240.41
  -3   3  -4 5488.65  249.90
  -3   3  -4 5463.81  231.44
  -3   3  -4 5349.58  230.47
  -3   3  -4 5542.88  247.91
  -3   3  -4 5193.56  275.41
  -3  -3  -4 5376.66  280.03
  -3  -3  -4 5534.93  247.56
  -3  -3  -4 6293.93  321.87
   3  -3   4 5504.07  272.19
   3   3   5  157.84   29.76
  -3   3  -5  225.33   41.47
  -3   3  -5  195.75   22.53
  -3   3  -5  144.49   16.42
  -3   3  -5  223.27   36.04
  -3  -3  -5  193.33   36.03
  -3  -3  -5  179.39   32.42
  -3  -3  -5  158.46   25.21
   3  -3   5  174.74   34.88
   3  -3   5  164.86   26.72
   3   3   6   34.22   31.62
   3   3   6   16.00   32.15
  -3   3  -6   85.33   29.18
  -3   3  -6   27.62   14.21
  -3   3  -6   16.22   23.37
  -3  -3  -6   32.82   28.17
  -3  -3  -6   37.38   21.67
   3  -3   6   78.94   29.05
   3  -3   6   43.39   22.45
   3   3   710436.23  528.96
   3   3   710388.01  478.57
  -3   3  -710419.63  493.33
  -3   3  -710302.68  436.25
  -3   3  -710540.75  455.65
  -3  -3  -710300.16  502.62
  -3  -3  -710450.75  449.32
   3  -3   710076.42  485.68
   3  -3   710620.25  456.30
   3   3   8  182.00   35.95
   3   3   8  218.98   45.89
  -3   3  -8  242.77   51.60
  -3   3  -8  257.07   46.64
  -3  -3  -8  231.82   45.14
  -3  -3  -8  314.29   46.90
   3  -3   8  241.99   49.32
   3  -3   8  248.15   39.47
   3   3   9  592.15   69.91
   3   3   9  521.01   64.84
  -3   3  -9  717.49   75.80
  -3   3  -9  681.71   75.16
  -3  -3  -9  631.51   66.61
  -3  -3  -9  690.60   76.49
   3  -3   9  622.75   80.02
   3  -3   9  679.03   68.10
   3   3  10  573.21   67.53
   3   3  10  888.68  100.26
  -3   3 -10  685.51   77.50
  -3  -3 -10  478.80   59.03
   3  -3  10  783.58   90.70
   3  -3  10  618.65   74.55
   3   4   0   33.98    8.41
   3   4   0   42.27   14.42
   3   4   0    9.82   15.05
   3   4   0   27.67   15.21
  -3   4   0   59.49   21.40
  -3   4   0   55.22   15.62
  -3   4   0   41.27   11.99
  -3   4   0   27.93   15.28
  -3   4   0   32.99   19.50
  -3  -4   0   59.65    9.57
  -3  -4   0   48.11   13.82
  -3  -4   0   43.69   18.14
  -3  -4   0   28.45   16.94
  -3  -4   0   17.92   11.16
   3  -4   0   41.40   14.71
   3  -4   0   48.87   15.24
   3  -4   0   66.15   15.80
   3  -4   0   44.71   12.74
   3  -4   0   35.76   15.73
   3   4   120356.46  743.33
   3   4   120312.55  737.11
   3   4   120957.05  846.31
   3   4   120860.29  795.10
  -3   4  -120400.64  786.47
  -3   4  -120877.85  860.61
  -3   4  -121597.37  751.05
  -3   4  -118994.09  780.53
  -3   4  -120557.80  765.21
  -3  -4  -121190.39  754.73
  -3  -4  -119720.29  738.33
  -3  -4  -120370.42  789.41
  -3  -4  -120669.48  805.81
   3  -4   120997.94  735.72
   3  -4   120878.58  774.21
   3  -4   121025.05  767.67
   3   4   2  612.10   55.43
   3   4   2  570.65   36.04
   3   4   2  676.22   69.48
   3   4   2  596.73   48.88
  -3   4  -2  619.09   47.85
  -3   4  -2  640.32   48.85
  -3   4  -2  570.64   38.66
  -3   4  -2  662.13   60.89
  -3  -4  -2  703.98   57.79
  -3  -4  -2  576.90   39.30
  -3  -4  -2  654.56   79.70
  -3  -4  -2  605.20   46.28
   3  -4   2  614.70   49.64
   3  -4   2  632.25   55.84
   3  -4   2  609.84   49.58
   3   4   3 1852.30  107.99
   3   4   3 1899.76  141.58
  -3   4  -3 1930.56  111.37
  -3   4  -3 1965.99  113.61
  -3   4  -3 1945.39  102.69
  -3   4  -3 1864.38   99.35
  -3  -4  -3 1872.71  157.15
  -3  -4  -3 1956.29  124.25
  -3  -4  -3 1878.17  103.87
   3  -4   3 2027.29  106.55
   3  -4   3 1974.12  132.41
   3  -4   3 1844.66  102.36
   3   4   4  289.90   34.78
  -3   4  -4  276.05   36.04
  -3   4  -4  295.11   24.97
  -3   4  -4  314.52   25.91
  -3   4  -4  319.34   35.46
  -3  -4  -4  256.65   40.57
  -3  -4  -4  329.04   42.72
  -3  -4  -4  337.38   32.47
   3  -4   4  295.04   37.56
   3  -4   4  247.38   24.66
   3   4   523277.27  964.62
  -3   4  -521407.08  859.99
  -3   4  -523209.86  811.22
  -3   4  -522963.71  860.16
  -3   4  -523745.44  940.06
  -3  -4  -523436.38  958.00
  -3  -4  -521842.75  858.74
  -3  -4  -523029.71  860.98
   3  -4   523524.79  925.35
   3  -4   523206.16  911.64
   3   4   6  394.93   44.67
   3   4   6  363.96   44.44
  -3   4  -6  424.66   48.25
  -3   4  -6  437.17   33.35
  -3   4  -6  443.13   60.52
  -3  -4  -6  491.69   57.58
  -3  -4  -6  419.30   46.22
   3  -4   6  471.40   55.92
   3  -4   6  344.03   36.68
   3   4   7 3957.07  224.24
   3   4   7 4117.18  205.11
  -3   4  -7 4253.23  201.24
  -3   4  -7 3963.41  201.75
  -3   4  -7 4342.29  205.65
  -3  -4  -7 4103.55  243.82
  -3  -4  -7 3992.99  232.25
   3  -4   7 3863.82  242.30
   3  -4   7 4056.10  231.04
   3   4   8 3505.61  211.75
   3   4   8 4067.92  246.15
  -3   4  -8 4098.14  274.45
  -3   4  -8 3895.62  222.68
  -3  -4  -8 3781.76  233.42
  -3  -4  -8 3866.61  210.26
   3  -4   8 3787.89  260.15
   3  -4   8 3674.17  214.94
   3   4   9    4.71   27.90
   3   4   9   40.79   30.64
  -3   4  -9   39.75   33.28
  -3   4  -9   19.66   34.79
  -3  -4  -9   -2.44   36.71
  -3  -4  -9   31.46   29.58
   3  -4   9   41.07   22.37
   3  -4   9  -25.85   22.06
   3   4  10  929.15  122.10
   3   4  10 1228.09  122.75
  -3   4 -10 1133.48  126.17
  -3  -4 -10 1035.94   88.48
   3  -4  10 1108.20  136.16
   3   5   0  514.04   29.47
   3   5   0  539.89   46.16
   3   5   0  566.66   44.41
  -3   5   0  480.30   51.03
  -3   5   0  564.20   42.54
  -3   5   0  542.51   43.10
  -3   5   0  557.67   49.79
  -3  -5   0  579.33   36.52
  -3  -5   0  513.41   48.86
  -3  -5   0  486.61   43.12
  -3  -5   0  510.20   42.03
  -3  -5   0  524.15   42.15
   3  -5   0  615.54   48.63
   3  -5   0  608.21   49.30
   3  -5   0  482.28   39.97
   3  -5   0  510.86   48.01
   3   5   1  511.54   36.17
   3   5   1  537.35   36.32
   3   5   1  534.18   56.61
   3   5   1  504.05   46.88
  -3   5  -1  525.82   48.51
  -3   5  -1  529.43   37.73
  -3   5  -1  569.05   42.34
  -3   5  -1  528.33   37.82
  -3   5  -1  544.96   40.37
  -3  -5  -1  618.07   38.63
  -3  -5  -1  574.00   42.39
  -3  -5  -1  586.34   45.42
  -3  -5  -1  555.51   45.69
   3  -5   1  572.66   38.47
   3  -5   1  606.41   42.94
   3  -5   1  507.16   45.81
   3   5   2 1128.71   63.83
   3   5   2 1188.54   66.30
   3   5   2 1254.21   82.23
   3   5   2 1195.63   63.29
  -3   5  -2 1131.92   71.23
  -3   5  -2 1216.85   76.24
  -3   5  -2 1250.32   76.00
  -3   5  -2 1173.48   78.49
  -3  -5  -2 1192.77   85.77
  -3  -5  -2 1108.87   62.19
  -3  -5  -2 1200.67   81.44
  -3  -5  -2 1105.47   68.40
   3  -5   2 1239.08   77.31
   3  -5   2 1106.18   79.87
   3  -5   2 1243.95   78.50
   3   5   314411.50  593.71
   3   5   314397.36  620.40
  -3   5  -314806.88  587.46
  -3   5  -314907.31  641.65
  -3   5  -314901.55  609.54
  -3   5  -314365.91  569.30
  -3  -5  -315006.79  628.12
  -3  -5  -314158.86  617.03
  -3  -5  -314575.32  569.54
   3  -5   314918.69  589.84
   3  -5   314536.25  644.77
   3  -5   314296.07  515.47
   3   5   4 1951.22  126.05
  -3   5  -4 1939.45  106.18
  -3   5  -4 1929.39  134.73
  -3  -5  -4 2156.30  131.20
  -3  -5  -4 2133.31  145.36
  -3  -5  -4 2105.38  127.71
   3  -5   4 2018.54  139.04
   3  -5   4 2160.62   96.07
   3  -5   4 1950.25  112.15
   3   5   5 1510.90   77.42
  -3   5  -5 1460.77  105.12
  -3   5  -5 1539.20   75.81
  -3   5  -5 1492.55   91.48
  -3  -5  -5 1493.24  110.14
  -3  -5  -5 1455.65  103.75
  -3  -5  -5 1453.60   86.30
   3  -5   5 1339.68   93.70
   3  -5   5 1532.45   88.46
   3   5   6 4215.24  214.26
   3   5   6 4125.54  196.71
  -3   5  -6 3926.87  186.16
  -3   5  -6 3918.57  221.78
  -3   5  -6 4207.82  245.36
  -3  -5  -6 4089.75  255.28
  -3  -5  -6 4036.49  191.34
   3  -5   6 4035.76  261.68
   3  -5   6 4210.23  196.86
   3   5   7  242.82   38.79
   3   5   7  213.18   44.29
  -3   5  -7  197.87   49.02
  -3   5  -7  256.09   36.76
  -3   5  -7  200.56   40.82
  -3  -5  -7  219.62   41.97
  -3  -5  -7  212.04   34.20
   3  -5   7  249.99   39.30
   3  -5   7  230.68   30.93
   3   5   8 6018.92  329.25
   3   5   8 6233.29  326.32
  -3   5  -8 6374.26  345.21
  -3   5  -8 6507.35  398.78
  -3  -5  -8 6142.69  349.66
  -3  -5  -8 5849.57  305.93
   3  -5   8 6677.63  383.49
   3  -5   8 6137.29  342.95
   3   5   9   41.36   29.94
   3   5   9   -8.19   29.13
  -3   5  -9  -32.84   32.80
  -3   5  -9   -2.32   29.18
  -3  -5  -9    8.13   33.31
  -3  -5  -9   11.19   23.74
   3  -5   9   11.35   39.44
   3  -5   9   14.86   29.61
  -3  -5 -10    8.18   26.54
   3  -5  10   18.50   34.37
   3   6   0 2277.07   96.60
   3   6   0 2254.64  149.73
   3   6   0 2687.86  211.23
  -3   6   0 2217.07  123.34
  -3   6   0 2373.27  112.01
  -3   6   0 2225.15  108.92
  -3   6   0 2409.77  144.79
  -3  -6   0 2443.34   94.01
  -3  -6   0 2402.47  145.88
  -3  -6   0 2257.54  145.12
  -3  -6   0 2448.00  121.99
  -3  -6   0 2218.67  138.73
   3  -6   0 2263.35  118.83
   3  -6   0 2448.00  155.82
   3  -6   0 2167.79  111.59
   3   6   1 4263.36  174.95
   3   6   1 4215.53  192.23
   3   6   1 3635.14  249.67
  -3   6  -1 4487.59  315.26
  -3   6  -1 4295.25  194.91
  -3   6  -1 4258.94  192.77
  -3   6  -1 4296.39  239.02
  -3  -6  -1 4324.91  179.60
  -3  -6  -1 4118.78  194.83
  -3  -6  -1 3988.84  200.08
  -3  -6  -1 4203.15  178.59
   3  -6   1 4239.60  230.09
   3  -6   1 4257.90  197.26
   3  -6   1 4135.94  194.38
   3   6   2  576.33   39.71
   3   6   2  574.07   31.58
   3   6   2  596.17   41.86
   3   6   2  601.02   49.76
  -3   6  -2  563.79   41.26
  -3   6  -2  569.60   43.21
  -3   6  -2  514.02   47.74
  -3  -6  -2  582.11   42.84
  -3  -6  -2  586.24   49.08
  -3  -6  -2  516.48   38.32
   3  -6   2  578.80   40.88
   3  -6   2  579.04   42.79
   3   6   3    4.56    5.48
   3   6   3   11.67    5.48
   3   6   3   12.60   25.21
   3   6   3    0.92   10.50
  -3   6  -3    1.32   19.28
  -3   6  -3   15.22   12.10
  -3   6  -3   29.59   23.29
  -3  -6  -3   -1.16   20.32
  -3  -6  -3   13.75   17.38
  -3  -6  -3   13.98   12.62
   3  -6   3  -11.69   12.80
   3  -6   3   19.00   17.84
   3  -6   3   10.62    9.99
   3   6   4 4673.71  230.52
  -3   6  -4 4711.43  235.20
  -3   6  -4 4449.85  232.12
  -3  -6  -4 4666.49  274.29
  -3  -6  -4 4263.43  219.94
  -3  -6  -4 4483.31  196.61
   3  -6   4 4874.19  262.45
   3  -6   4 4952.28  200.21
   3  -6   4 4475.25  206.42
   3   6   5 5602.20  316.89
  -3   6  -5 5756.37  270.25
  -3   6  -5 5799.21  270.44
  -3   6  -5 5808.67  282.65
  -3  -6  -5 5605.91  288.75
  -3  -6  -5 5584.81  284.34
  -3  -6  -5 5568.53  271.63
   3  -6   5 5927.36  253.40
   3  -6   5 5969.47  253.20
   3   6   610702.84  515.55
   3   6   611114.20  463.41
  -3   6  -610876.66  463.14
  -3   6  -611247.86  477.81
  -3   6  -610958.86  521.22
  -3  -6  -610956.05  474.70
  -3  -6  -611046.90  440.52
   3  -6   610905.78  513.54
   3  -6   610787.24  456.80
   3   6   7  614.57   56.96
   3   6   7  609.44   63.55
  -3   6  -7  700.25   60.94
  -3   6  -7  639.41   53.41
  -3   6  -7  792.33   70.45
  -3  -6  -7  630.40   64.13
  -3  -6  -7  600.80   52.05
   3  -6   7  675.43   65.20
   3  -6   7  597.30   62.11
   3   6   8   28.79   25.07
   3   6   8    3.56   32.12
  -3   6  -8   28.36   32.47
  -3   6  -8  -21.04   34.65
  -3  -6  -8   31.28   26.64
  -3  -6  -8   15.83   23.35
   3  -6   8   29.69   36.76
   3  -6   8   29.37   27.25
   3   6   9   34.97   32.90
   3   6   9   69.47   40.57
  -3   6  -9    4.44   34.81
  -3   6  -9   21.41   32.89
  -3  -6  -9   63.84   36.03
  -3  -6  -9   30.08   23.84
   3  -6   9   38.89   36.41
   3   7   0 3322.24  124.44
   3   7   0 3387.75  185.40
   3   7   0 3423.51  191.94
  -3   7   0 3378.70  174.16
  -3   7   0 3594.94  160.14
  -3   7   0 3348.43  175.25
  -3   7   0 3401.16  164.80
  -3  -7   0 3493.13  124.57
  -3  -7   0 3221.11  190.53
  -3  -7   0 3782.94  255.50
  -3  -7   0 3428.62  160.34
  -3  -7   0 3314.89  165.52
   3  -7   0 3477.40  171.92
   3  -7   0 3473.88  170.02
   3  -7   0 3288.37  148.48
   3   7   1   13.91    9.31
   3   7   1    7.57   11.86
   3   7   1   15.09   17.05
  -3   7  -1  -12.72   16.36
  -3   7  -1    5.98    9.35
  -3   7  -1   22.34   17.55
  -3  -7  -1   -9.43   10.11
  -3  -7  -1   -3.59   10.09
  -3  -7  -1  -34.20   21.70
  -3  -7  -1   -0.52   10.55
  -3  -7  -1   -2.08    8.99
   3  -7   1  -11.91   18.86
   3  -7   1   31.02   20.54
   3  -7   1   11.28    8.11
   3   7   216146.85  573.67
   3   7   216370.90  579.04
   3   7   216884.99  578.80
   3   7   216326.89  667.58
   3   7   216542.97  649.18
  -3   7  -216059.30  686.64
  -3   7  -216774.78  645.25
  -3   7  -216612.22  702.55
  -3  -7  -216567.15  597.75
  -3  -7  -216572.12  709.30
  -3  -7  -216391.56  619.06
   3  -7   216322.99  709.78
   3  -7   215601.82  660.21
   3  -7   216388.21  574.69
   3   7   3  254.27   16.14
   3   7   3  229.83   15.28
   3   7   3  209.72   37.04
   3   7   3  262.27   30.76
  -3   7  -3  197.37   34.35
  -3   7  -3  271.10   36.01
  -3  -7  -3  226.55   31.87
  -3  -7  -3  264.74   32.13
  -3  -7  -3  263.71   22.36
   3  -7   3  262.60   33.82
   3  -7   3  241.48   29.46
   3  -7   3  237.87   23.92
   3   7   426320.39 1032.12
  -3   7  -427121.07 1098.72
  -3   7  -427644.59 1051.72
  -3  -7  -426602.04  998.42
  -3  -7  -425632.91 1043.88
  -3  -7  -426857.78  987.36
   3  -7   425438.29 1015.27
   3  -7   427777.08  955.89
   3  -7   426166.45  896.60
   3   7   5 4248.08  246.29
  -3   7  -5 4398.01  249.19
  -3   7  -5 4533.80  214.33
  -3   7  -5 4374.82  244.44
  -3  -7  -5 4200.04  208.88
  -3  -7  -5 4273.03  199.36
  -3  -7  -5 4591.11  233.07
   3  -7   5 4487.53  227.50
   3  -7   5 4574.48  198.71
   3   7   6 1211.64   73.66
   3   7   6 1210.43   93.39
  -3   7  -6 1309.58   97.68
  -3   7  -6 1377.69   83.47
  -3   7  -6 1195.40  103.98
  -3  -7  -6 1331.01   83.28
  -3  -7  -6 1184.50   92.52
   3  -7   6 1238.70   93.81
   3  -7   6 1133.78   86.99
   3   7   7 2149.58  154.24
   3   7   7 2476.99  161.82
  -3   7  -7 2146.17  151.74
  -3   7  -7 2454.56  145.21
  -3   7  -7 2181.20  171.37
  -3  -7  -7 2104.63  142.82
  -3  -7  -7 2260.16  127.45
   3  -7   7 2263.86  149.92
   3  -7   7 2299.66  147.85
   3   7   8 1523.93  123.28
   3   7   8 1589.70  132.09
  -3   7  -8 1628.20  155.53
  -3   7  -8 1616.29  118.11
  -3  -7  -8 1511.45  140.86
  -3  -7  -8 1433.93  116.66
   3  -7   8 1476.54  114.84
   3   7   9  197.04   43.20
   3   7   9  306.66   64.77
  -3   7  -9  195.16   54.13
  -3   7  -9  240.82   50.09
  -3  -7  -9  239.72   50.95
  -3  -7  -9  195.55   42.84
   3  -7   9  251.27   47.41
   3   8   0 6984.15  239.10
   3   8   0 7334.68  256.24
   3   8   0 7016.64  366.72
   3   8   0 7112.80  365.22
  -3   8   0 7105.26  293.58
  -3   8   0 6935.88  293.53
  -3   8   0 6777.43  270.49
  -3   8   0 7135.02  363.86
  -3  -8   0 6807.18  304.97
  -3  -8   0 7010.76  299.98
  -3  -8   0 6825.73  277.09
   3  -8   0 7119.77  363.51
   3  -8   0 7253.69  292.79
   3  -8   0 7230.74  311.54
   3   8   1 3092.47  154.01
   3   8   1 3129.41  159.26
   3   8   1 3120.62  186.77
  -3   8  -1 3105.29  165.91
  -3   8  -1 3127.38  128.43
  -3   8  -1 3061.82  140.87
  -3  -8  -1 3122.74  136.14
  -3  -8  -1 2817.18  154.63
  -3  -8  -1 2962.45  134.10
  -3  -8  -1 3152.77  131.37
  -3  -8  -1 3053.17  160.17
   3  -8   1 3076.91  149.73
   3  -8   1 3084.83  148.38
   3  -8   1 3055.91  124.05
   3   8   2 1046.58   65.58
   3   8   2 1118.78   63.68
   3   8   2 1106.98   66.28
   3   8   2 1076.15   67.47
  -3   8  -2 1066.75   88.17
  -3   8  -2 1096.90   54.30
  -3   8  -2 1118.53   76.91
  -3  -8  -2 1199.42   62.17
  -3  -8  -2 1127.20   84.42
  -3  -8  -2 1141.87   74.03
   3  -8   2 1098.83   74.36
   3  -8   2 1008.92   77.05
   3  -8   2 1084.45   51.47
   3   8   3   13.08    7.68
   3   8   3   14.91    6.84
   3   8   3   24.07   18.28
   3   8   3    4.45   13.24
  -3   8  -3   24.93   22.65
  -3   8  -3    0.88   21.06
  -3  -8  -3   14.80   19.68
  -3  -8  -3    8.99   22.01
  -3  -8  -3    7.66   13.01
   3  -8   3   -0.68   19.54
   3  -8   3   36.00   19.12
   3  -8   3    3.97    7.61
   3  -8   3    5.60    7.88
   3   8   4 3007.32  179.22
   3   8   4 2718.03  125.64
  -3   8  -4 3044.03  164.14
  -3   8  -4 3037.89  142.93
  -3   8  -4 2875.12  161.74
  -3  -8  -4 2945.61  140.60
  -3  -8  -4 2785.20  180.36
  -3  -8  -4 2996.52  132.51
   3  -8   4 3124.73  136.74
   3  -8   4 2966.32  126.96
   3  -8   4 2820.11  113.66
   3   8   5  351.45   44.54
  -3   8  -5  347.15   48.92
  -3   8  -5  358.03   37.83
  -3   8  -5  309.84   43.86
  -3  -8  -5  335.43   44.99
  -3  -8  -5  348.95   38.46
   3  -8   5  392.12   52.85
   3  -8   5  318.73   30.17
   3   8   6 6815.86  357.91
   3   8   6 7495.94  383.84
  -3   8  -6 6961.12  371.02
  -3   8  -6 7051.93  380.72
  -3   8  -6 7052.19  368.43
  -3  -8  -6 6601.72  316.10
  -3  -8  -6 7011.36  336.71
   3  -8   6 7098.74  358.27
   3  -8   6 7158.77  323.67
   3   8   7  490.54   56.47
   3   8   7  463.71   61.89
  -3   8  -7  487.35   71.50
  -3   8  -7  546.53   51.82
  -3   8  -7  424.15   63.41
  -3  -8  -7  477.48   53.85
  -3  -8  -7  461.25   47.12
   3  -8   7  483.23   58.24
   3  -8   7  557.61   48.83
   3   8   8  282.53   53.84
   3   8   8  330.06   56.75
  -3   8  -8  351.12   51.77
  -3   8  -8  430.26   55.12
  -3  -8  -8  458.91   66.29
  -3  -8  -8  285.75   42.04
   3  -8   8  337.93   53.25
   3   8   9  563.38   80.31
  -3   8  -9  568.45   78.39
  -3   8  -9  700.32   81.21
  -3  -8  -9  605.65   73.79
   3  -8   9  754.11   89.27
   3   9   0 1183.40   51.02
   3   9   0 1262.49   53.82
   3   9   0  765.56   98.35
  -3   9   0 1254.75   91.31
  -3   9   0 1267.84   68.49
  -3   9   0 1230.48   61.01
  -3   9   0  880.13  104.70
  -3  -9   0 1138.36   85.19
  -3  -9   0 1186.77   65.44
  -3  -9   0 1203.66   78.24
   3  -9   0 1282.08   86.52
   3  -9   0 1296.35   80.95
   3  -9   0 1258.96   72.03
   3   9   1  731.77   48.83
   3   9   1  709.44   46.20
   3   9   1  703.31   54.63
   3   9   1  753.73   64.20
  -3   9  -1  707.18   62.27
  -3   9  -1  679.31   34.64
  -3   9  -1  658.77   54.93
  -3  -9  -1  762.75   41.73
  -3  -9  -1  690.08   52.96
  -3  -9  -1  713.50   48.17
  -3  -9  -1  665.84   44.96
   3  -9   1  708.12   54.76
   3  -9   1  863.85   72.10
   3  -9   1  695.62   41.07
   3   9   2 5108.60  233.41
   3   9   2 5494.54  249.37
   3   9   2 5476.82  235.59
   3   9   2 5648.69  322.92
  -3   9  -2 5261.02  246.69
  -3   9  -2 5447.86  183.43
  -3   9  -2 5452.59  267.15
  -3  -9  -2 5536.34  210.60
  -3  -9  -2 5331.05  257.86
  -3  -9  -2 5306.60  242.32
  -3  -9  -2 5292.03  211.28
   3  -9   2 5267.89  270.55
   3  -9   2 5665.41  281.56
   3  -9   2 5228.05  192.43
   3   9   3   13.44    9.20
   3   9   3    5.08    7.84
   3   9   3   23.79   20.63
  -3   9  -3    8.79   27.18
  -3   9  -3   24.17   23.77
  -3  -9  -3  -15.58   14.42
  -3  -9  -3    2.52   23.77
  -3  -9  -3    6.18   10.33
   3  -9   3  -30.02   22.01
   3  -9   3   10.46   19.16
   3  -9   3    0.24    6.01
   3  -9   3    7.91    5.82
   3   9   4 1480.58   62.24
   3   9   4 1757.04  101.81
  -3   9  -4 1625.43  115.12
  -3   9  -4 1588.20   80.35
  -3   9  -4 1681.52  146.11
  -3  -9  -4 1669.40   95.85
  -3  -9  -4 1818.36  119.69
  -3  -9  -4 1742.10   91.38
   3  -9   4 1650.97  116.96
   3  -9   4 1640.13   78.30
   3  -9   4 1600.17   79.95
   3   9   5   14.35   23.88
   3   9   5   39.29   23.85
  -3   9  -5  -25.43   23.83
  -3   9  -5   -3.68   23.82
  -3   9  -5  -11.42   23.79
  -3  -9  -5   -5.88   23.83
  -3  -9  -5  -12.80   23.84
   3  -9   5    9.79   23.81
   3  -9   5    1.52   23.81
   3   9   6 2836.80  165.92
   3   9   6 2616.29  170.67
  -3   9  -6 2943.89  196.22
  -3   9  -6 2888.22  159.87
  -3   9  -6 2830.41  188.82
  -3  -9  -6 2695.71  170.23
  -3  -9  -6 2720.45  131.55
   3  -9   6 2812.42  164.04
   3  -9   6 2775.02  156.71
   3   9   7  652.06   63.29
   3   9   7  588.13   66.11
  -3   9  -7  562.87   70.58
  -3   9  -7  624.29   63.86
  -3   9  -7  594.14   54.94
  -3  -9  -7  579.34   67.54
  -3  -9  -7  510.64   50.64
   3  -9   7  713.81   82.27
   3   9   8 6957.26  388.37
   3   9   8 7352.58  425.69
  -3   9  -8 8099.51  486.89
  -3   9  -8 7432.38  388.28
  -3   9  -8 8149.80  464.64
  -3  -9  -8 7437.50  431.34
   3  -9   8 7857.64  431.54
   3   9   9   43.24   42.48
  -3   9  -9    8.36   42.49
  -3   9  -9    9.64   42.48
  -3  -9  -9  -50.64   42.48
   3  -9   9   15.47   42.46
   3  10   0 6225.65  241.21
   3  10   0 6445.30  233.46
   3  10   0 6415.87  293.92
  -3  10   0 6888.23  343.67
  -3  10   0 6236.04  255.41
  -3  10   0 6313.26  289.25
  -3 -10   0 6429.64  353.49
  -3 -10   0 6698.04  313.64
  -3 -10   0 6543.02  281.41
  -3 -10   0 5957.15  235.71
   3 -10   0 6425.80  311.36
   3 -10   0 6478.99  281.85
   3 -10   0 6176.54  250.81
   3  10   1 1930.22   98.97
   3  10   1 1976.14  130.55
   3  10   1 2098.23  135.41
  -3  10  -1 2182.94  115.14
  -3  10  -1 2017.40   75.36
  -3  10  -1 2151.49  124.27
  -3 -10  -1 2062.02  110.67
  -3 -10  -1 2105.51  129.61
  -3 -10  -1 2006.11   94.50
  -3 -10  -1 1922.15   82.71
   3 -10   1 2040.59  133.76
   3 -10   1 2091.10  130.49
   3 -10   1 2002.46   82.45
   3  10   2  622.45   46.47
   3  10   2  688.47   47.67
   3  10   2  623.64   58.73
   3  10   2  625.98   59.86
  -3  10  -2  641.95   61.07
  -3  10  -2  676.95   57.27
  -3 -10  -2  670.32   47.81
  -3 -10  -2  626.66   53.91
  -3 -10  -2  605.71   33.97
  -3 -10  -2  592.80   42.79
   3 -10   2  657.98   59.22
   3 -10   2  624.54   62.21
   3  10   3    0.12   10.45
   3  10   3   -6.08   10.44
  -3  10  -3  -29.86   10.43
  -3  10  -3    2.95   10.41
  -3 -10  -3  -13.41   10.42
  -3 -10  -3  -26.16   10.42
  -3 -10  -3  -12.52   10.41
   3 -10   3   -6.14   10.41
   3 -10   3  -14.69   10.42
   3  10   4   43.06    9.95
   3  10   4   60.58   25.57
  -3  10  -4   81.66   27.91
  -3  10  -4   67.77   20.90
  -3  10  -4   76.70   26.62
  -3 -10  -4   67.26   23.89
  -3 -10  -4   42.34   29.54
  -3 -10  -4   61.15   14.04
   3 -10   4   87.46   31.99
   3 -10   4   54.29    6.24
   3  10   5  782.95   72.28
   3  10   5  847.33   87.32
  -3  10  -5  806.34   72.78
  -3  10  -5  858.56   66.23
  -3  10  -5  850.89   74.44
  -3 -10  -5  755.83   59.99
  -3 -10  -5  810.70   51.07
   3 -10   5  856.88   62.71
   3  10   6   67.27   27.46
   3  10   6   19.22   29.75
  -3  10  -6   82.45   31.97
  -3  10  -6   81.22   28.78
  -3  10  -6   84.20   41.24
  -3 -10  -6   79.70   33.30
  -3 -10  -6   85.69   20.21
   3 -10   6   81.06   31.42
   3  10   7  277.08   42.00
   3  10   7  326.28   60.10
  -3  10  -7  334.00   56.69
  -3  10  -7  278.82   41.93
  -3  10  -7  395.83   53.63
  -3 -10  -7  393.65   52.38
   3 -10   7  420.21   63.29
   3  10   8 3004.52  223.74
   3  10   8 3696.48  253.81
  -3  10  -8 3742.38  260.09
  -3  10  -8 3270.84  236.83
  -3  10  -8 3479.65  314.63
  -3 -10  -8 3501.46  254.91
   3 -10   8 3494.58  272.76
  -3  10  -9  137.77   52.99
  -3 -10  -9  123.24   47.67
   3 -10   9  183.62   50.61
   3  11   0 2622.55  112.09
   3  11   0 2748.28  114.16
   3  11   0 2741.10  164.86
  -3  11   0 2871.69  179.49
  -3  11   0 2767.19  124.30
  -3  11   0 2870.52  142.24
  -3 -11   0 2943.22  137.55
  -3 -11   0 2887.96  158.78
  -3 -11   0 2765.70  143.60
  -3 -11   0 2697.51  122.63
   3 -11   0 2787.98  141.32
   3 -11   0 2910.82  177.85
   3 -11   0 2700.85  119.52
   3  11   1   53.51   12.10
   3  11   1   47.29   19.96
   3  11   1   38.49   27.14
  -3  11  -1   90.61   27.98
  -3  11  -1   48.95   21.08
  -3 -11  -1  104.08   26.99
  -3 -11  -1   62.79   12.80
  -3 -11  -1   70.91   11.95
   3 -11   1   30.46   24.83
   3 -11   1   80.02   16.49
   3  11   2 4794.99  226.41
   3  11   2 5586.84  239.30
   3  11   2 5520.06  319.40
  -3  11  -2 5373.53  270.17
  -3  11  -2 5432.37  261.73
  -3 -11  -2 5524.47  218.03
  -3 -11  -2 5452.09  290.10
  -3 -11  -2 5409.66  200.42
  -3 -11  -2 4897.51  201.70
   3 -11   2 5383.13  239.99
   3 -11   2 5520.87  269.08
   3  11   3 1741.37  101.24
   3  11   3 1692.35  105.35
  -3  11  -3 1729.30   91.84
  -3  11  -3 1790.42  125.54
  -3 -11  -3 1730.75  105.88
  -3 -11  -3 1832.85  128.92
  -3 -11  -3 1713.81   77.31
  -3 -11  -3 1482.95   71.29
   3 -11   3 1663.99  111.99
   3 -11   3 1681.42  104.25
   3  11   4 2306.34   99.69
   3  11   4 2560.97  162.44
  -3  11  -4 2661.70  140.06
  -3  11  -4 2449.49  150.98
  -3  11  -4 2434.56  164.48
  -3 -11  -4 2459.31  113.21
  -3 -11  -4 2527.23  142.32
  -3 -11  -4 2355.14  111.46
   3 -11   4 2491.08  168.54
   3  11   5  132.27   32.92
   3  11   5  186.12   37.21
  -3  11  -5  154.51   34.58
  -3  11  -5  146.01   34.12
  -3  11  -5  200.14   42.19
  -3 -11  -5  116.78   29.91
  -3 -11  -5  153.68   20.90
   3 -11   5  116.43   32.36
   3  11   6   13.91   24.05
   3  11   6  -41.91   32.47
  -3  11  -6   12.05   22.33
  -3  11  -6   -2.68   26.81
  -3  11  -6   14.15   22.43
  -3 -11  -6    6.83   24.33
   3 -11   6    4.48   36.41
   3  11   7  594.58   75.27
   3  11   7  799.81   78.93
  -3  11  -7  820.28   91.02
  -3  11  -7  740.18   73.87
  -3  11  -7  615.82   70.68
  -3 -11  -7  639.80   59.84
   3 -11   7  628.91   75.45
   3  11   8 1299.59  117.95
  -3  11  -8 1342.50  128.14
  -3  11  -8 1076.30  104.96
  -3  11  -8 1291.80  133.26
  -3 -11  -8 1128.58  108.24
   3 -11   8 1169.73  110.76
   3  12   0 5123.11  197.39
   3  12   0 5136.48  205.14
   3  12   0 5266.43  259.48
  -3  12   0 5552.62  289.92
  -3  12   0 5179.83  201.57
  -3  12   0 5060.22  211.38
  -3  12   0 5255.78  252.64
  -3 -12   0 5366.08  263.94
  -3 -12   0 5041.02  224.97
  -3 -12   0 5306.66  222.51
  -3 -12   0 4784.52  226.22
   3 -12   0 5205.60  275.23
   3  12   1 1068.21   70.98
   3  12   1  975.34   60.91
   3  12   1 1050.22   82.59
   3  12   1 1162.23   94.74
  -3  12  -1 1128.27   71.26
  -3  12  -1 1004.55   62.94
  -3 -12  -1 1160.74   67.89
  -3 -12  -1 1042.03   55.14
  -3 -12  -1  945.40   53.75
   3 -12   1  953.01   85.57
   3 -12   1 1058.30   65.15
   3  12   2   -7.25   13.67
   3  12   2    6.36   22.85
  -3  12  -2  -15.04   20.64
  -3  12  -2   23.63   21.32
  -3 -12  -2   -6.72   14.55
  -3 -12  -2  -16.51   19.10
  -3 -12  -2   12.33    5.82
   3 -12   2   17.59   26.33
   3 -12   2   -2.91   19.44
   3  12   3 1837.62   99.79
   3  12   3 1936.07  114.63
  -3  12  -3 1772.22  112.57
  -3  12  -3 1969.50  128.95
  -3 -12  -3 1891.79  120.21
  -3 -12  -3 1845.58  108.20
  -3 -12  -3 1926.13   71.27
   3 -12   3 1860.69  129.22
   3 -12   3 2160.18  121.11
   3  12   4 1025.54   84.12
  -3  12  -4  888.53   80.47
  -3  12  -4 1050.28   64.56
  -3  12  -4 1080.60   80.94
  -3 -12  -4  985.99   70.36
  -3 -12  -4 1056.68   83.83
   3 -12   4  944.97   82.27
   3  12   5  857.57   76.12
   3  12   5 1070.44   99.39
  -3  12  -5  890.82   74.87
  -3  12  -5  906.22   77.14
  -3  12  -5  876.23   92.74
  -3 -12  -5  920.78   71.69
   3 -12   5 1024.54   83.04
   3  12   6 1158.61   95.58
   3  12   6 1095.79  103.05
  -3  12  -6 1138.26   96.03
  -3  12  -6 1123.93   94.84
  -3  12  -6 1012.50   92.44
  -3 -12  -6 1003.59   92.48
   3 -12   6 1020.68   98.38
   3  12   7  153.35   32.66
   3  12   7  201.45   55.01
  -3  12  -7  216.85   47.65
  -3  12  -7  246.58   37.09
  -3  12  -7  224.36   49.25
  -3 -12  -7  209.58   45.99
   3 -12   7  257.89   47.01
   3  12   8  359.01   65.13
  -3  12  -8  343.31   65.55
  -3  12  -8  413.60   53.52
  -3  12  -8  315.55   55.97
  -3 -12  -8  311.79   49.17
   3 -12   8  386.86   66.13
   3  13   0 1576.95   84.47
   3  13   0 1562.23  108.02
  -3  13   0 1819.46   96.78
  -3  13   0 1582.76   74.77
  -3  13   0 1569.81  110.97
  -3 -13   0 1510.68  109.86
  -3 -13   0 1561.15   99.44
  -3 -13   0 1521.54   77.42
  -3 -13   0 1363.71   73.19
   3 -13   0 1518.51  106.42
   3 -13   0 1696.92   94.23
   3  13   1 4150.22  198.04
   3  13   1 4301.05  239.04
   3  13   1 4252.66  218.61
  -3  13  -1 4174.06  221.92
  -3  13  -1 4075.01  210.53
  -3 -13  -1 4387.07  210.53
  -3 -13  -1 4143.24  150.57
  -3 -13  -1 3911.79  154.99
   3 -13   1 4162.39  229.97
   3 -13   1 4569.58  208.65
   3  13   2 6460.20  274.94
   3  13   2 6510.76  353.72
  -3  13  -2 6572.59  301.01
  -3  13  -2 6399.71  367.76
  -3 -13  -2 6701.42  287.48
  -3 -13  -2 6492.71  300.67
   3 -13   2 6037.07  335.70
   3 -13   2 6676.07  309.33
   3  13   3  721.62   48.82
   3  13   3  649.29   58.93
  -3  13  -3  692.38   62.61
  -3  13  -3  740.26   55.65
  -3 -13  -3  791.99   53.75
  -3 -13  -3  689.97   74.10
   3 -13   3  695.70   61.58
   3 -13   3  657.55   46.67
   3  13   4 1549.46  106.03
  -3  13  -4 1611.01   90.58
  -3  13  -4 1559.63   96.36
  -3  13  -4 1538.34  119.12
  -3 -13  -4 1630.91  115.80
  -3 -13  -4 1623.17  103.11
   3 -13   4 1554.32  122.34
   3  13   5    5.64   20.86
   3  13   5    7.08   20.84
  -3  13  -5   17.34   20.86
  -3  13  -5   11.02   20.81
  -3  13  -5   -7.24   20.84
  -3 -13  -5  -28.60   20.81
   3 -13   5  -10.26   20.81
   3  13   6   12.34   24.44
   3  13   6   -2.20   31.30
  -3  13  -6    7.69   25.87
  -3  13  -6  -13.96   25.48
  -3  13  -6    6.60   24.41
  -3 -13  -6    2.24   25.21
   3 -13   6    9.87   34.21
   3  13   7 1448.97  123.43
   3  13   7 1672.27  140.56
  -3  13  -7 1559.83  157.57
  -3  13  -7 1677.85  128.47
  -3  13  -7 1704.81  155.06
  -3 -13  -7 1459.70  115.20
   3 -13   7 1798.24  148.04
   3  13   8 2876.94  213.68
  -3  13  -8 2797.77  242.26
  -3  13  -8 2405.77  176.19
  -3  13  -8 2511.29  228.36
  -3 -13  -8 2477.80  206.62
   3 -13   8 2826.25  243.12
   3  14   0 6672.79  274.44
   3  14   0 6887.00  326.68
  -3  14   0 7036.40  339.19
  -3  14   0 6983.81  314.58
  -3 -14   0 7185.92  354.21
  -3 -14   0 7088.96  323.32
  -3 -14   0 6840.90  270.52
   3 -14   0 6970.96  366.59
   3 -14   0 7065.45  323.15
   3  14   1 2197.60  125.71
   3  14   1 2152.05  155.45
   3  14   1 2294.10  139.95
  -3  14  -1 2477.75  163.59
  -3  14  -1 2149.14  136.45
  -3 -14  -1 2320.59  139.95
   3 -14   1 2045.30  152.91
   3 -14   1 2389.27  131.01
   3  14   2    6.13   15.63
   3  14   2  -16.91   20.48
   3  14   2   17.74   22.78
  -3  14  -2   29.32   23.56
  -3  14  -2   44.46   23.61
  -3 -14  -2   23.65   28.83
   3 -14   2   -9.93   22.30
   3 -14   2   80.64   27.07
   3  14   3  625.70   52.07
   3  14   3  651.23   69.68
  -3  14  -3  805.92   70.45
  -3  14  -3  733.20   70.43
  -3 -14  -3  767.24   65.11
  -3 -14  -3  699.08   65.64
   3 -14   3  720.39   66.25
   3 -14   3  667.51   61.38
   3  14   4  875.72   71.89
  -3  14  -4  741.14   70.68
  -3  14  -4  823.98   62.76
  -3  14  -4  770.32   79.43
  -3 -14  -4  716.95   70.97
   3 -14   4  819.85   72.97
   3  14   5 2470.68  164.71
   3  14   5 2754.05  164.20
  -3  14  -5 2466.51  141.16
  -3  14  -5 2503.66  158.82
  -3  14  -5 2464.93  163.90
  -3 -14  -5 2437.65  159.38
   3 -14   5 2523.40  178.39
   3  14   6  971.97   85.65
   3  14   6 1149.26  106.57
  -3  14  -6 1075.61  103.11
  -3  14  -6 1227.03  105.07
  -3  14  -6 1072.33   94.97
  -3 -14  -6 1056.27   99.20
   3 -14   6 1173.66  111.72
   3  14   7  -25.81   40.78
  -3  14  -7   -2.92   24.19
  -3  14  -7   43.40   29.71
  -3  14  -7   17.82   29.31
  -3 -14  -7   26.78   30.98
   3 -14   7   27.69   30.85
   3  15   0   -3.52   21.61
  -3  15   0    4.12   24.51
  -3  15   0    3.83   15.93
  -3 -15   0   17.26   26.81
  -3 -15   0   -6.57   19.20
   3 -15   0   14.97   26.87
   3 -15   0    0.48   18.13
   3  15   1  109.48   23.09
   3  15   1  116.08   34.93
   3  15   1   80.87   34.37
  -3  15  -1  143.63   38.97
  -3  15  -1  124.12   26.17
  -3 -15  -1  138.17   29.37
   3 -15   1  123.77   35.64
   3 -15   1   72.09   27.75
   3  15   2 7321.65  366.44
   3  15   2 7383.96  328.87
   3  15   2 7980.89  379.41
  -3  15  -2 7833.10  376.03
  -3  15  -2 7718.18  355.83
  -3 -15  -2 7938.16  358.48
   3 -15   2 7579.28  407.43
   3 -15   2 7563.87  394.17
   3  15   3 4504.16  240.56
   3  15   3 4727.33  276.37
  -3  15  -3 4733.92  234.99
  -3  15  -3 4951.62  277.89
  -3 -15  -3 4602.52  250.28
  -3 -15  -3 4627.04  241.57
   3 -15   3 4947.87  278.05
   3  15   4 1990.68  149.22
   3  15   4 1901.24  145.66
  -3  15  -4 1953.28  117.53
  -3  15  -4 1903.26  129.46
  -3  15  -4 1915.74  138.17
  -3 -15  -4 1793.69  119.22
   3 -15   4 1931.30  126.74
   3  15   5   84.62   30.30
   3  15   5   93.85   37.75
  -3  15  -5   62.30   40.36
  -3  15  -5   63.65   35.70
  -3  15  -5   55.97   28.03
  -3 -15  -5   51.13   29.14
   3 -15   5   40.24   29.46
   3  15   6  105.45   34.32
   3  15   6  163.37   40.12
  -3  15  -6  148.52   40.86
  -3  15  -6  434.01   77.57
  -3  15  -6  123.19   37.09
  -3 -15  -6  124.74   33.39
   3 -15   6  165.67   40.34
   3  15   7  744.28   81.94
  -3  15  -7  864.77   97.07
  -3  15  -7  827.28   92.00
  -3  15  -7  754.25   74.34
  -3 -15  -7  698.32   80.72
   3 -15   7  954.34  101.90
   3  16   0 1484.62  124.14
  -3  16   0 1549.72  114.49
  -3  16   0 1502.27  121.42
  -3 -16   0 1580.37  114.75
  -3 -16   0 1522.47  110.10
   3 -16   0 1387.39  124.88
   3 -16   0 1526.18  103.68
   3  16   1 2324.09  153.27
   3  16   1 2293.40  154.63
  -3  16  -1 2194.84  127.26
  -3  16  -1 2274.07  147.76
  -3 -16  -1 2377.29  150.15
   3 -16   1 2226.98  153.94
   3 -16   1 2214.65  150.08
   3  16   2  117.72   29.26
   3  16   2   94.21   31.96
  -3  16  -2   77.49   37.64
  -3  16  -2  151.76   30.39
  -3 -16  -2   89.93   32.60
   3 -16   2   82.68   37.31
   3 -16   2  105.27   31.55
   3  16   3  -19.78   17.46
   3  16   3    8.01   17.46
  -3  16  -3  -20.32   17.44
  -3  16  -3   36.66   17.39
  -3  16  -3    7.28   17.45
  -3 -16  -3  -13.62   17.41
   3 -16   3  -30.48   17.39
   3  16   4  355.15   53.81
   3  16   4  313.29   50.23
  -3  16  -4  480.84   73.40
  -3  16  -4  389.37   54.35
  -3  16  -4  307.99   48.17
  -3 -16  -4  365.76   53.40
   3 -16   4  387.01   57.37
   3  16   5 3034.62  196.50
   3  16   5 3595.25  238.74
  -3  16  -5 3690.64  228.50
  -3  16  -5 4002.13  254.29
  -3  16  -5 3484.65  223.52
  -3 -16  -5 3143.91  200.43
   3 -16   5 3600.63  282.07
   3  16   6  492.08   62.00
  -3  16  -6  444.48   67.34
  -3  16  -6  490.25   64.89
  -3  16  -6  463.15   62.47
  -3 -16  -6  406.07   54.37
   3 -16   6  551.36   86.65
   3  16   7    5.92   38.51
  -3  16  -7   51.31   35.17
  -3  16  -7    0.04   32.30
  -3  16  -7   -5.09   28.32
  -3 -16  -7   14.69   27.65
   3  17   0  841.01   75.71
  -3  17   0  906.27   77.25
  -3 -17   0  796.28   75.58
  -3 -17   0  761.12   67.79
   3 -17   0  708.90   82.11
   3 -17   0  728.38   65.15
   3  17   1    9.01   24.84
   3  17   1   20.41   33.69
  -3  17  -1    7.64   28.24
  -3  17  -1   19.63   17.75
  -3 -17  -1   -5.78   22.14
   3 -17   1   49.53   30.33
   3 -17   1   51.72   24.60
   3  17   2  443.11   47.34
   3  17   2  527.90   64.06
  -3  17  -2  462.89   59.53
  -3  17  -2  564.85   56.83
  -3 -17  -2  508.14   59.28
   3 -17   2  445.98   60.62
   3 -17   2  524.92   61.52
   3  17   3 2503.13  187.60
  -3  17  -3 2630.65  197.66
  -3  17  -3 2564.78  204.66
  -3  17  -3 2492.19  167.76
   3 -17   3 2662.58  178.64
   3  17   4   79.24   28.75
   3  17   4  105.59   38.49
  -3  17  -4   94.57   39.78
  -3  17  -4  126.32   39.71
  -3  17  -4   97.36   36.18
   3 -17   4  163.77   43.75
   3  17   5  203.18   37.19
   3  17   5  172.51   46.82
  -3  17  -5  241.31   49.45
  -3  17  -5  210.35   57.03
  -3  17  -5  216.74   40.60
  -3 -17  -5  138.47   33.61
   3 -17   5  219.47   54.74
   3  17   6  268.42   53.94
  -3  17  -6  338.99   49.75
  -3  17  -6  230.30   59.80
  -3  17  -6  252.73   36.55
  -3 -17  -6  235.13   43.39
   3 -17   6  253.31   69.94
   3  18   0   11.81   25.18
  -3  18   0   -7.19   30.98
  -3 -18   0   24.02   24.93
   3 -18   0    5.35   33.93
   3 -18   0   10.64   20.40
   3  18   1 5162.31  285.28
   3  18   1 5079.09  256.92
  -3  18  -1 4880.83  292.46
  -3 -18  -1 4700.66  227.08
   3 -18   1 5051.09  263.66
   3 -18   1 5064.37  266.07
   3  18   2  477.83   58.41
   3  18   2  566.40   73.79
  -3  18  -2  603.35   74.73
  -3 -18  -2  531.32   62.66
   3 -18   2  473.93   64.02
   3 -18   2  456.63   53.50
   3  18   3  -37.49   25.52
   3  18   3   59.81   25.45
  -3  18  -3  -34.92   25.48
  -3  18  -3  -14.69   25.42
  -3  18  -3   14.02   25.52
   3 -18   3    3.43   25.42
   3  18   4    4.76   27.23
   3  18   4  -13.19   27.18
  -3  18  -4  -12.41   27.21
  -3  18  -4  -50.22   27.15
  -3  18  -4    4.01   27.26
   3 -18   4  -15.12   27.12
   3  18   5 5087.82  325.54
  -3  18  -5 5301.94  363.55
  -3  18  -5 5431.84  342.22
  -3  18  -5 5054.33  364.89
   3 -18   5 5072.59  327.85
   3  18   6  127.25   44.89
  -3  18  -6   94.59   31.28
  -3  18  -6  114.37   41.37
  -3  18  -6  208.05   36.44
   3  19   0    3.72   22.86
   3  19   0   20.07   38.97
  -3  19   0   -8.23   33.81
  -3 -19   0   10.26   21.44
   3 -19   0   -4.15   28.66
   3 -19   0   10.40   20.07
   3  19   1   19.43   31.53
   3  19   1   -7.12   33.85
  -3  19  -1   18.12   33.55
  -3 -19  -1   41.10   28.68
   3 -19   1   28.38   34.96
   3 -19   1   19.80   23.24
   3  19   2   25.73   27.66
   3  19   2    9.09   33.44
  -3  19  -2   10.08   35.16
  -3  19  -2   20.96   33.01
   3 -19   2   14.31   27.73
   3  19   3 4598.66  292.08
   3  19   3 4965.27  269.31
  -3  19  -3 5340.52  338.23
  -3  19  -3 5134.38  360.25
   3 -19   3 5017.52  300.27
   3  19   4  242.81   39.92
   3  19   4  377.76   63.85
  -3  19  -4  302.19   59.47
  -3  19  -4  275.13   51.27
   3 -19   4  293.13   51.49
   3  19   5  551.94   72.85
  -3  19  -5  675.16   95.93
  -3  19  -5  723.36   98.81
   3 -19   5  590.54   73.83
   3  20   0    8.37   26.19
   3  20   0    1.92   34.74
  -3  20   0    9.75   27.70
   3 -20   0    2.35   26.38
   3  20   1 2270.83  185.12
   3  20   1 2434.22  176.24
  -3  20  -1 2462.05  215.06
  -3 -20  -1 2118.89  153.72
   3 -20   1 2133.71  200.48
   3 -20   1 2166.33  168.03
   3  20   2   -3.08   36.60
   3  20   2   16.19   27.99
  -3  20  -2   99.60   37.60
  -3  20  -2   61.36   38.64
   3 -20   2   -2.80   26.14
   3  20   3  -12.25   24.15
   3  20   3   15.12   24.11
  -3  20  -3   -3.56   24.13
  -3  20  -3  -35.22   24.08
   3 -20   3   26.54   24.07
   3  20   4  357.49   58.11
  -3  20  -4  398.58   52.03
  -3  20  -4  347.46   66.67
   3 -20   4  292.59   56.20
   3  21   0   18.18   33.81
   3  21   0   52.78   28.11
  -3  21   0    9.55   32.50
   3 -21   0   23.67   37.08
   3  21   1   33.54   28.41
   3  21   1   76.35   34.41
  -3  21  -1   65.18   42.27
  -3  21  -1   84.23   46.18
   3 -21   1   95.44   33.12
   3  21   2   64.14   42.08
  -3  21  -2   57.24   33.52
  -3  21  -2    4.95   33.62
   3 -21   2   34.98   21.82
   3  21   3  -15.25   23.98
  -3  21  -3   10.56   23.97
   3 -21   3   -3.83   23.91
   3  22   0  180.58   39.18
   3  22   0  272.33   61.75
  -3  22   0  310.03   63.12
   3  22   1 1870.86  166.74
  -3  22  -1 2014.92  191.18
   4   0   0  109.39   13.76
   4   0   0  108.76   21.10
   4   0   0  101.09   16.35
  -4   0   0  110.90   20.93
  -4   0   0   66.55   17.63
  -4   0   0   97.18   25.07
  -4   0   0   24.34   20.21
   4   0   1  -18.43   12.52
   4   0   1    5.64   14.72
   4   0   1    9.43   16.50
  -4   0  -1    0.28   15.94
  -4   0  -1    3.93   11.26
  -4   0  -1    0.20   19.84
  -4   0  -1   23.51   21.03
   4   0   216678.45  698.08
   4   0   216864.01  658.74
  -4   0  -216226.88  655.18
  -4   0  -215793.18  603.12
  -4   0  -217049.01  607.52
  -4   0  -216134.51  679.10
   4   0   3   12.32    8.44
   4   0   3   -3.40   19.07
  -4   0  -3   23.99   18.60
  -4   0  -3   13.09    7.97
  -4   0  -3   -3.64   14.76
  -4   0  -3   39.18   22.71
   4   0   4 6622.41  241.72
   4   0   4 6701.11  294.09
  -4   0  -4 6347.71  321.84
  -4   0  -4 6489.39  268.54
  -4   0  -4 6678.06  298.21
  -4   0  -4 6593.75  304.15
   4   0   5   -4.48   30.51
  -4   0  -5   20.28   28.56
  -4   0  -5   -1.76    5.40
  -4   0  -5    2.01    4.65
  -4   0  -5    7.40   20.43
  -4   0  -5  -14.39   20.62
   4   0   614548.73  645.62
   4   0   614781.63  575.16
  -4   0  -614528.26  665.40
  -4   0  -614730.05  627.04
   4   0   7  -28.50   21.43
   4   0   7    8.36   21.45
  -4   0  -7   16.84   21.44
  -4   0  -7  -14.01   21.45
   4   0   8   31.82   31.66
   4   0   8   38.09   32.81
  -4   0  -8    5.12   30.01
  -4   0  -8  -22.43   32.08
   4   0   9  -18.67   31.50
   4   0   9   15.44   24.44
  -4   0  -9    5.44   26.97
  -4   0  -9   22.12   25.21
   4   1   0 4517.01  203.61
   4   1   0 4702.18  266.99
   4   1   0 4815.15  225.89
  -4   1   0 4592.66  217.44
  -4   1   0 4552.19  216.05
  -4   1   0 5279.79  306.42
  -4  -1   0 4503.41  180.88
  -4  -1   0 4438.41  231.62
  -4  -1   0 5005.36  322.24
   4  -1   0 4476.52  216.60
   4  -1   0 4777.06  221.04
   4  -1   0 4650.04  195.59
   4   1   1    7.64   13.15
   4   1   1    9.15   15.43
   4   1   1   -1.48   15.79
  -4   1  -1   28.86   14.73
  -4   1  -1   12.20   10.08
  -4   1  -1   23.58   19.04
  -4   1  -1  -12.34   17.50
  -4  -1  -1    5.92   13.67
  -4  -1  -1    9.11    8.71
  -4  -1  -1   -3.21   18.03
  -4  -1  -1   10.94   13.58
   4  -1   1   26.74   15.05
   4  -1   1   -2.68   14.74
   4   1   2  318.61   27.59
   4   1   2  343.44   38.57
  -4   1  -2  377.74   50.53
  -4   1  -2  306.64   24.75
  -4   1  -2  330.99   40.79
  -4   1  -2  360.78   39.89
  -4  -1  -2  345.74   33.06
  -4  -1  -2  250.51   33.37
  -4  -1  -2  299.40   41.42
  -4  -1  -2  297.38   34.41
   4  -1   2  312.52   30.55
   4  -1   2  300.53   38.08
   4   1   3  474.54   32.21
   4   1   3  524.01   38.72
  -4   1  -3  486.94   43.48
  -4   1  -3  442.03   33.09
  -4   1  -3  489.82   46.79
  -4   1  -3  463.05   43.30
  -4  -1  -3  533.18   45.60
  -4  -1  -3  429.08   30.09
  -4  -1  -3  468.64   47.13
  -4  -1  -3  517.56   45.88
   4  -1   3  494.95   47.66
   4  -1   3  448.53   51.31
   4   1   4 8320.01  433.75
  -4   1  -4 8146.08  361.97
  -4   1  -4 7775.10  293.15
  -4   1  -4 8072.91  419.61
  -4   1  -4 7991.37  334.40
  -4  -1  -4 7750.37  383.51
  -4  -1  -4 7672.43  278.94
  -4  -1  -4 7963.98  341.26
  -4  -1  -4 8500.55  419.67
   4  -1   4 8179.51  292.59
   4  -1   4 8161.42  330.11
   4   1   5  224.82   34.74
  -4   1  -5  230.81   37.89
  -4   1  -5  186.03   19.05
  -4   1  -5  162.18   16.20
  -4   1  -5  244.40   32.94
  -4   1  -5  255.66   36.68
  -4  -1  -5  295.05   41.08
  -4  -1  -5  232.16   28.51
  -4  -1  -5  222.72   34.58
   4  -1   5  297.22   46.07
   4   1   6 7305.60  364.01
   4   1   6 7181.04  332.12
  -4   1  -6 7745.31  367.64
  -4   1  -6 7455.84  388.29
  -4  -1  -6 7300.26  424.66
  -4  -1  -6 7287.83  380.14
   4  -1   6 7578.16  376.34
   4  -1   6 7572.54  332.07
   4   1   7  326.22   43.81
   4   1   7  335.73   51.26
  -4   1  -7  293.63   46.30
  -4   1  -7  393.29   47.97
  -4  -1  -7  358.20   48.33
  -4  -1  -7  327.92   43.94
   4  -1   7  360.01   54.34
   4  -1   7  353.01   49.91
   4   1   8 2546.50  199.48
   4   1   8 2699.85  178.53
  -4   1  -8 2824.07  224.89
  -4   1  -8 2535.58  204.25
  -4  -1  -8 2794.92  188.25
  -4  -1  -8 2720.68  172.20
   4  -1   8 2329.15  219.37
   4  -1   8 2534.51  187.84
   4   1   9  163.40   40.38
   4   1   9  131.23   37.20
  -4   1  -9  154.76   44.83
  -4   1  -9   51.86   35.23
  -4  -1  -9  146.22   41.39
  -4  -1  -9   63.11   34.74
   4  -1   9  167.15   42.25
   4  -1   9   56.76   30.16
   4   2   0 8489.02  349.35
   4   2   0 8603.62  388.77
   4   2   0 8799.50  437.82
  -4   2   0 8396.27  344.05
  -4   2   0 8325.69  356.04
  -4   2   0 8324.39  355.51
  -4   2   0 8832.57  370.48
  -4  -2   0 8212.20  377.40
  -4  -2   0 8332.61  358.66
  -4  -2   0 8818.12  407.65
  -4  -2   0 8325.79  418.61
   4  -2   0 7950.03  347.81
   4  -2   0 8659.96  349.60
   4  -2   0 8510.77  330.98
   4   2   1  151.97   21.06
   4   2   1  174.91   21.02
   4   2   1  186.97   36.97
  -4   2  -1  169.95   21.63
  -4   2  -1  181.58   23.82
  -4   2  -1  172.28   24.58
  -4   2  -1  144.02   26.43
  -4  -2  -1  167.68   23.46
  -4  -2  -1  140.96   19.00
  -4  -2  -1  176.19   24.96
  -4  -2  -1  153.43   20.84
   4  -2   1  201.17   22.83
   4  -2   1  185.64   25.33
   4   2   223405.91  897.61
   4   2   225354.74  993.40
  -4   2  -222772.57  934.38
  -4   2  -223478.02  860.46
  -4   2  -223044.92  938.64
  -4   2  -224699.43  913.21
  -4  -2  -224203.03  859.41
  -4  -2  -224127.21  895.36
  -4  -2  -223833.02  829.48
  -4  -2  -226581.48 1060.93
   4  -2   223946.74  917.73
   4  -2   224030.52  989.37
   4   2   3  786.28   46.12
   4   2   3  747.31   70.72
  -4   2  -3  772.65   62.43
  -4   2  -3  704.26   61.69
  -4   2  -3  670.61   61.57
  -4   2  -3  759.03   67.68
  -4  -2  -3  758.78   63.72
  -4  -2  -3  714.35   44.00
  -4  -2  -3  728.78   71.90
  -4  -2  -3  881.80   70.69
   4  -2   3  729.83   54.89
   4  -2   3  705.52   58.13
   4   2   4 2859.22  203.75
  -4   2  -4 2891.28  173.99
  -4   2  -4 2661.70  165.21
  -4   2  -4 2783.22  152.42
  -4   2  -4 2756.76  153.65
  -4  -2  -4 2863.97  171.14
  -4  -2  -4 2827.08  177.42
  -4  -2  -4 2714.09  152.23
   4  -2   4 2822.14  136.67
   4  -2   4 2839.64  159.59
   4   2   5  625.24   64.44
  -4   2  -5  638.36   50.98
  -4   2  -5  583.93   36.90
  -4   2  -5  557.79   42.59
  -4   2  -5  641.26   46.74
  -4   2  -5  662.71   57.68
  -4  -2  -5  609.62   56.43
  -4  -2  -5  632.63   53.43
  -4  -2  -5  691.70   48.94
   4  -2   5  607.33   63.85
   4   2   6 6031.26  303.08
   4   2   6 6583.18  332.98
  -4   2  -6 6163.94  301.85
  -4   2  -6 6126.82  257.93
  -4   2  -6 6206.80  343.08
  -4  -2  -6 6121.71  373.37
  -4  -2  -6 6036.21  252.20
   4  -2   6 6303.68  347.91
   4  -2   6 6634.00  322.59
   4   2   7  341.09   57.77
   4   2   7  339.51   46.94
  -4   2  -7  293.46   40.96
  -4   2  -7  273.84   50.48
  -4  -2  -7  458.84   56.31
  -4  -2  -7  394.07   50.43
   4  -2   7  335.96   49.36
   4  -2   7  305.97   44.67
   4   2   8  831.19   88.27
   4   2   8  850.81   90.19
  -4   2  -8  899.76   90.73
  -4   2  -8  843.71   90.42
  -4  -2  -8  849.18   83.55
  -4  -2  -8  844.60   81.55
   4  -2   8  771.85   86.41
   4  -2   8  822.07   73.49
   4   2   9  297.31   57.31
   4   2   9  379.08   60.84
  -4   2  -9  329.64   63.88
  -4   2  -9  264.18   54.50
  -4  -2  -9  371.48   75.45
  -4  -2  -9  314.48   48.67
   4  -2   9  360.75   55.39
   4  -2   9  424.45   58.09
   4   3   0 1349.29   66.68
   4   3   0 1354.72   91.00
   4   3   0 1277.19  113.77
  -4   3   0 1388.92   84.67
  -4   3   0 1256.89   95.89
  -4   3   0 1365.51   89.77
  -4   3   0 1349.10   95.67
  -4  -3   0 1241.59   70.54
  -4  -3   0 1339.39   81.22
  -4  -3   0 1392.08  107.27
  -4  -3   0 1328.64   98.33
   4  -3   0 1348.87   85.72
   4  -3   0 1384.37   80.18
   4   3   1  324.09   31.08
   4   3   1  355.20   27.91
   4   3   1  395.24   47.44
  -4   3  -1  391.43   42.83
  -4   3  -1  367.27   35.90
  -4   3  -1  343.62   32.96
  -4  -3  -1  350.95   29.88
  -4  -3  -1  375.60   33.29
  -4  -3  -1  309.68   45.54
  -4  -3  -1  378.87   35.75
   4  -3   1  402.72   39.30
   4  -3   1  358.85   33.90
   4  -3   1  349.67   36.32
   4   3   2  474.46   32.57
   4   3   2  468.77   34.28
   4   3   2  439.65   40.73
  -4   3  -2  494.80   41.83
  -4   3  -2  470.78   40.62
  -4   3  -2  484.26   36.90
  -4   3  -2  491.04   47.20
  -4  -3  -2  542.52   36.95
  -4  -3  -2  453.65   32.81
  -4  -3  -2  420.60   38.36
   4  -3   2  484.99   45.50
   4  -3   2  429.62   35.21
   4   3   3 3499.12  144.34
   4   3   3 3558.98  220.53
  -4   3  -3 3493.16  171.15
  -4   3  -3 3362.54  174.57
  -4   3  -3 3208.61  212.36
  -4   3  -3 3614.77  206.71
  -4  -3  -3 3530.89  206.44
  -4  -3  -3 3203.75  132.38
  -4  -3  -3 3461.01  213.62
  -4  -3  -3 3503.46  185.85
   4  -3   3 3646.61  166.53
   4  -3   3 3408.10  184.56
   4   3   4 5132.16  243.48
  -4   3  -4 5355.74  238.03
  -4   3  -4 4946.83  233.86
  -4   3  -4 5321.13  224.65
  -4   3  -4 5391.06  278.19
  -4  -3  -4 5278.44  262.21
  -4  -3  -4 5276.53  250.84
  -4  -3  -4 5151.12  217.02
   4  -3   4 5380.24  211.43
   4  -3   4 5066.35  253.50
   4   3   5 1426.24   92.39
  -4   3  -5 1300.44   90.43
  -4   3  -5 1341.46   81.06
  -4   3  -5 1348.58   94.76
  -4   3  -5 1184.35   83.83
  -4  -3  -5 1321.95   87.04
  -4  -3  -5 1450.66  109.66
  -4  -3  -5 1249.70   76.57
   4  -3   5 1349.88   88.42
   4   3   6 3996.97  227.24
   4   3   6 4243.19  228.92
  -4   3  -6 3736.26  228.65
  -4   3  -6 4037.56  177.28
  -4   3  -6 3679.89  219.08
  -4  -3  -6 3996.21  195.42
  -4  -3  -6 3686.52  205.72
   4  -3   6 3949.09  251.94
   4  -3   6 3999.61  193.59
   4   3   7 2254.00  173.49
   4   3   7 2520.50  166.73
  -4   3  -7 2260.99  164.23
  -4   3  -7 2385.58  193.10
  -4  -3  -7 2187.33  149.73
  -4  -3  -7 2393.49  150.26
   4  -3   7 2157.10  161.00
   4  -3   7 2315.41  139.85
   4   3   8  506.92   70.73
   4   3   8  583.13   71.79
  -4   3  -8  549.37   68.12
  -4   3  -8  561.01   68.86
  -4  -3  -8  540.25   72.57
  -4  -3  -8  472.29   66.47
   4  -3   8  462.65   82.48
   4  -3   8  459.99   49.39
   4   3   9  410.07   62.72
   4   3   9  534.30   69.48
  -4   3  -9  568.24   68.47
  -4   3  -9  489.05   68.71
  -4  -3  -9  510.58   84.38
  -4  -3  -9  409.41   52.58
   4  -3   9  548.34   73.93
   4  -3   9  512.84   67.29
   4   4   0 3639.27  154.80
   4   4   0 3592.07  173.35
   4   4   0 3590.31  188.71
  -4   4   0 2588.28  223.42
  -4   4   0 3744.57  143.77
  -4   4   0 3512.84  167.76
  -4   4   0 3792.08  162.83
  -4  -4   0 3887.13  145.89
  -4  -4   0 3630.57  195.68
  -4  -4   0 3456.30  173.63
  -4  -4   0 3898.98  189.72
   4  -4   0 3643.16  203.04
   4  -4   0 3585.49  227.27
   4  -4   0 3530.37  192.36
   4   4   1 3554.30  140.48
   4   4   1 3568.12  184.45
   4   4   1 3872.00  189.77
  -4   4  -1 3654.28  194.56
  -4   4  -1 3534.09  178.45
  -4   4  -1 3742.31  220.63
  -4  -4  -1 3665.20  162.44
  -4  -4  -1 3408.25  167.65
  -4  -4  -1 3591.75  197.01
  -4  -4  -1 3557.94  197.25
   4  -4   1 3744.32  200.59
   4  -4   1 3712.25  189.51
   4  -4   1 3535.74  184.05
   4   4   210503.80  399.21
   4   4   210297.77  399.96
   4   4   211358.20  476.64
  -4   4  -211311.43  470.39
  -4   4  -211166.26  443.50
  -4   4  -211265.51  496.85
  -4  -4  -210719.59  462.03
  -4  -4  -210629.06  395.97
  -4  -4  -210430.42  452.47
  -4  -4  -210832.88  494.79
   4  -4   210695.54  439.77
   4  -4   210134.17  492.98
   4  -4   210510.44  450.88
   4   4   3 4185.97  164.12
   4   4   3 4100.41  206.87
  -4   4  -3 4180.86  211.82
  -4   4  -3 4301.63  202.64
  -4   4  -3 4563.45  264.88
  -4  -4  -3 4065.14  256.52
  -4  -4  -3 3951.84  154.50
  -4  -4  -3 4080.34  193.99
  -4  -4  -3 4276.27  227.73
   4  -4   3 4162.25  213.66
   4  -4   3 4142.52  200.50
   4   4   4 1808.02   98.06
  -4   4  -4 1885.90  126.99
  -4   4  -4 1820.38  111.84
  -4   4  -4 1797.99  116.34
  -4  -4  -4 1959.27  120.67
  -4  -4  -4 1822.82   99.24
  -4  -4  -4 1695.41   98.92
   4  -4   4 1773.98  100.90
   4  -4   4 1825.69  126.69
   4   4   5 9896.10  406.63
  -4   4  -5 9501.48  449.15
  -4   4  -5 9734.99  374.24
  -4   4  -5 9372.38  460.50
  -4  -4  -5 9870.27  431.65
  -4  -4  -5 9510.79  413.75
  -4  -4  -5 9637.58  404.88
   4  -4   5 9556.41  440.16
   4  -4   5 9904.57  403.08
   4   4   6 7427.95  398.42
   4   4   6 7242.70  385.46
  -4   4  -6 7769.12  362.15
  -4   4  -6 7491.53  314.46
  -4   4  -6 7533.66  351.00
  -4  -4  -6 7627.97  393.22
  -4  -4  -6 7271.48  347.41
   4  -4   6 7616.96  411.23
   4  -4   6 7605.24  400.37
   4   4   7  304.74   51.90
   4   4   7  399.04   55.00
  -4   4  -7  350.24   50.68
  -4   4  -7  333.54   51.62
  -4  -4  -7  293.81   42.62
  -4  -4  -7  324.89   43.05
   4  -4   7  318.11   46.74
   4  -4   7  354.84   41.49
   4   4   8    0.24   24.79
   4   4   8  -11.21   25.73
  -4   4  -8    9.35   30.12
  -4   4  -8    6.88   31.02
  -4  -4  -8   26.19   39.91
  -4  -4  -8   17.09   21.81
   4  -4   8   15.85   24.76
   4  -4   8   -4.20   22.05
   4   4   9  292.58   54.73
   4   4   9  184.94   51.53
  -4   4  -9  172.68   53.99
  -4   4  -9  219.65   55.35
  -4  -4  -9  277.54   50.66
  -4  -4  -9  208.79   46.03
   4  -4   9  249.90   56.42
   4  -4   9  181.50   44.24
   4   5   0  969.18   48.89
   4   5   0  961.58   58.70
   4   5   0 1080.47   79.35
  -4   5   0  953.81   79.81
  -4   5   0 1052.83   66.52
  -4   5   0  953.28   71.23
  -4   5   0  982.12   70.16
  -4  -5   0 1012.31   50.32
  -4  -5   0 1107.08   70.45
  -4  -5   0 1098.81   80.62
   4  -5   0 1026.23   66.92
   4  -5   0 1082.94   61.55
   4  -5   0 1003.88   78.62
   4   5   1  301.45   30.37
   4   5   1  312.98   31.37
   4   5   1  282.33   34.87
  -4   5  -1  302.46   32.07
  -4   5  -1  307.41   26.48
  -4   5  -1  273.47   38.53
  -4  -5  -1  279.69   24.84
  -4  -5  -1  306.13   35.94
  -4  -5  -1  318.62   33.97
  -4  -5  -1  266.61   31.58
   4  -5   1  287.40   28.23
   4  -5   1  447.26   50.39
   4  -5   1  265.60   30.11
   4   5   2  757.23   63.07
   4   5   2  696.36   49.52
   4   5   2  793.44   56.06
  -4   5  -2  797.24   62.90
  -4   5  -2  796.68   55.51
  -4   5  -2  838.48   68.13
  -4  -5  -2  759.76   54.84
  -4  -5  -2  757.09   49.31
  -4  -5  -2  784.07   57.30
  -4  -5  -2  837.72   56.16
   4  -5   2  746.98   66.28
   4  -5   2  762.00   60.46
   4  -5   2  705.51   54.32
   4   5   319290.24  671.38
   4   5   320876.83  833.71
  -4   5  -319976.30  812.32
  -4   5  -320995.36  749.59
  -4   5  -320366.21  899.54
  -4  -5  -316261.59  763.97
  -4  -5  -318842.63  652.32
  -4  -5  -320202.83  888.91
   4  -5   321250.65  745.03
   4  -5   319600.72  717.38
   4   5   4 8365.18  406.65
  -4   5  -4 8176.12  433.09
  -4   5  -4 8609.11  391.92
  -4  -5  -4 8211.65  427.25
  -4  -5  -4 8592.50  420.35
  -4  -5  -4 8733.40  342.47
   4  -5   4 8705.34  340.12
   4  -5   4 8738.96  372.73
   4   5   5 1269.52   98.75
  -4   5  -5 1391.13   94.57
  -4   5  -5 1085.99  100.32
  -4   5  -5 1398.01  107.95
  -4  -5  -5 1464.60   99.07
  -4  -5  -5 1513.02  106.00
  -4  -5  -5 1397.23   94.60
   4  -5   5 1379.73   97.65
   4  -5   5 1459.75  103.89
   4   5   6  -14.24   21.70
   4   5   6  -15.01   29.30
  -4   5  -6   29.39   28.75
  -4   5  -6   13.77   16.93
  -4   5  -6   45.12   31.91
  -4  -5  -6   13.65   24.73
  -4  -5  -6   -6.47   21.90
   4  -5   6  -12.69   22.86
   4  -5   6   -8.93   21.23
   4   5   7   78.38   31.99
   4   5   7  102.18   35.88
  -4   5  -7  105.06   41.65
  -4   5  -7   91.81   39.05
  -4  -5  -7  100.43   27.82
  -4  -5  -7  114.15   29.56
   4  -5   7   65.58   29.18
   4  -5   7   78.59   27.31
   4   5   8  375.07   60.09
   4   5   8  343.52   53.57
  -4   5  -8  338.94   56.85
  -4   5  -8  344.94   61.22
  -4  -5  -8  297.60   55.45
  -4  -5  -8  296.96   44.50
   4  -5   8  289.52   56.35
   4  -5   8  308.35   48.53
   4   5   9  190.12   45.41
   4   5   9  206.95   53.26
  -4   5  -9  175.89   53.28
  -4   5  -9  117.96   48.77
  -4  -5  -9  149.84   44.14
  -4  -5  -9  170.12   39.56
   4  -5   9  192.16   54.54
   4   6   014205.65  483.45
   4   6   014688.11  538.75
   4   6   014976.22  620.81
  -4   6   013979.09  568.07
  -4   6   014017.33  567.01
  -4   6   014977.65  561.31
  -4   6   014147.51  616.83
  -4  -6   014824.68  492.34
  -4  -6   014433.34  615.90
  -4  -6   013953.29  595.05
   4  -6   014835.87  568.48
   4  -6   014456.26  533.44
   4  -6   014030.64  650.17
   4   6   140572.10 1410.48
   4   6   140893.30 1469.59
   4   6   143482.35 1444.42
  -4   6  -143681.68 1658.29
  -4   6  -142507.12 1475.51
  -4   6  -141004.93 1474.78
  -4  -6  -143233.07 1439.30
  -4  -6  -140072.30 1385.23
  -4  -6  -141303.84 1554.67
  -4  -6  -141235.06 1455.23
   4  -6   142189.27 1410.99
   4  -6   137729.01 1707.27
   4  -6   141178.69 1422.06
   4   6   219649.91  786.77
   4   6   220088.20  685.36
   4   6   221575.07  902.90
  -4   6  -219868.74  780.26
  -4   6  -220682.32  736.35
  -4   6  -221160.46  830.12
  -4  -6  -220578.40  795.01
  -4  -6  -219870.94  722.34
  -4  -6  -220427.26  728.32
  -4  -6  -221439.35  832.87
   4  -6   221032.07  894.26
   4  -6   220821.60  859.20
   4  -6   219334.26  708.27
   4   6   3 5118.12  193.94
   4   6   3 5284.98  212.37
   4   6   3 5265.24  266.34
  -4   6  -3 5414.06  315.71
  -4   6  -3 5189.87  248.20
  -4   6  -3 5186.86  283.21
  -4  -6  -3 5029.60  294.61
  -4  -6  -3 4976.68  263.20
  -4  -6  -3 6291.80  402.95
   4  -6   3 5269.71  256.80
   4  -6   3 5359.29  220.99
   4  -6   3 4948.46  241.63
   4   6   4 2575.52  141.72
  -4   6  -4 2780.23  146.50
  -4   6  -4 2616.72  138.61
  -4   6  -4 2628.70  161.80
  -4  -6  -4 2665.95  140.68
  -4  -6  -4 2432.88  148.95
  -4  -6  -4 2622.59  138.41
   4  -6   4 2706.05  129.44
   4  -6   4 2860.17  149.66
   4   6   5  109.77   30.46
  -4   6  -5  108.26   31.91
  -4   6  -5   62.65   22.32
  -4   6  -5   74.51   28.26
  -4  -6  -5   88.59   29.48
  -4  -6  -5   71.77   32.42
  -4  -6  -5  113.27   25.92
   4  -6   5  105.86   32.40
   4  -6   5   82.21   18.54
   4   6   6  850.76   66.00
   4   6   6  849.20   77.86
  -4   6  -6  797.15   74.85
  -4   6  -6  886.82   57.60
  -4   6  -6  821.65   83.86
  -4  -6  -6  747.09   76.55
  -4  -6  -6  934.27   68.87
   4  -6   6  794.83   84.33
   4  -6   6  873.79   68.34
   4   6   7  109.00   32.77
   4   6   7  153.19   35.45
  -4   6  -7  123.90   31.43
  -4   6  -7  129.60   35.37
  -4  -6  -7  132.35   34.48
  -4  -6  -7   97.33   28.83
   4  -6   7  123.10   40.64
   4  -6   7  116.91   29.10
   4   6   8   26.32   25.92
   4   6   8    0.68   22.95
  -4   6  -8   40.55   32.12
  -4   6  -8   -8.76   26.44
  -4  -6  -8   -2.29   28.04
  -4  -6  -8   36.24   24.56
   4  -6   8   -6.15   35.54
   4   6   9  336.59   49.34
   4   6   9  285.06   56.36
  -4   6  -9  436.91   77.11
  -4   6  -9  377.02   64.41
  -4  -6  -9  355.41   69.03
  -4  -6  -9  342.38   46.38
   4  -6   9  296.06   56.90
   4   7   0   15.04    5.05
   4   7   0   -4.45   15.16
   4   7   0   29.81   21.03
  -4   7   0   30.90   22.42
  -4   7   0   23.48   16.34
  -4   7   0   -1.04   17.87
  -4  -7   0   18.72    5.19
  -4  -7   0    0.64   22.52
  -4  -7   0    6.26   16.82
   4  -7   0  -17.03   17.15
   4  -7   0   17.93   16.74
   4  -7   0   11.71   10.35
   4   7   1   52.26   12.72
   4   7   1   83.70   19.60
   4   7   1   91.99   31.34
  -4   7  -1   38.25   22.18
  -4   7  -1   63.10   14.92
  -4   7  -1   70.39   28.43
  -4  -7  -1   70.24   12.45
  -4  -7  -1   71.75   17.61
  -4  -7  -1   56.52   25.94
  -4  -7  -1   60.35   17.39
   4  -7   1   88.63   28.49
   4  -7   1   89.00   26.81
   4  -7   1   58.86   12.92
   4   7   2    8.14   12.89
   4   7   2    7.61   11.89
   4   7   2    0.60   26.79
  -4   7  -2   34.93   25.67
  -4   7  -2   27.98   12.49
  -4   7  -2   -9.96   20.68
  -4  -7  -2    7.22   12.99
  -4  -7  -2   23.57   10.73
  -4  -7  -2    0.00   18.15
  -4  -7  -2   -5.80   16.92
   4  -7   2   28.36   22.92
   4  -7   2   40.06   26.56
   4  -7   2   17.53   11.01
   4   7   319300.43  684.76
   4   7   320457.89  695.47
   4   7   319763.53  766.43
  -4   7  -320389.01  824.71
  -4   7  -320341.07  734.57
  -4   7  -319703.90  718.66
  -4  -7  -320576.43  810.07
  -4  -7  -320240.59  781.96
   4  -7   321117.52  818.00
   4  -7   319621.92  761.54
   4  -7   319253.39  678.47
   4   7   4  229.04   43.80
  -4   7  -4  177.30   37.42
  -4   7  -4  246.50   50.98
  -4  -7  -4  209.56   26.33
  -4  -7  -4  277.64   40.57
  -4  -7  -4  236.66   32.32
   4  -7   4  181.48   34.35
   4  -7   4  267.35   36.77
   4   7   5 1210.93  102.02
  -4   7  -5 1365.69  108.67
  -4   7  -5 1358.78   97.05
  -4   7  -5 1188.04   87.10
  -4  -7  -5 1351.97   91.93
  -4  -7  -5 1243.66   88.89
  -4  -7  -5 1319.45   92.86
   4  -7   5 1262.48   94.38
   4  -7   5 1365.90   95.32
   4   7   6  462.62   58.32
   4   7   6  484.87   53.27
  -4   7  -6  411.73   63.16
  -4   7  -6  444.38   55.92
  -4   7  -6  436.46   56.50
  -4  -7  -6  425.75   56.45
  -4  -7  -6  454.89   47.47
   4  -7   6  394.89   58.96
   4  -7   6  439.13   45.61
   4   7   7  308.07   48.01
   4   7   7  309.39   57.33
  -4   7  -7  379.69   58.42
  -4   7  -7  260.73   37.00
  -4  -7  -7  310.86   54.62
  -4  -7  -7  302.14   44.58
   4  -7   7  290.41   52.10
   4  -7   7  370.07   45.16
   4   7   8  941.08   99.95
   4   7   8  895.00   90.46
  -4   7  -8  855.09   95.37
  -4   7  -8  944.90   98.88
  -4  -7  -8  837.46   91.95
  -4  -7  -8  903.84   82.03
   4  -7   8  951.39   95.87
   4   7   9  555.43   84.56
   4   7   9  729.80   85.41
  -4   7  -9  641.77   86.41
  -4   7  -9  603.82  101.82
  -4  -7  -9  511.33   72.32
   4  -7   9  599.36   79.49
   4   8   0 1346.34   87.26
   4   8   0 1456.15   96.47
  -4   8   0 1413.92  115.03
  -4   8   0 1234.31   87.19
  -4   8   0 1282.65   92.60
  -4  -8   0 1325.27   77.13
  -4  -8   0 1310.01   87.53
   4  -8   0 1331.04   79.28
   4  -8   0 1368.91   92.57
   4  -8   0 1240.79   81.23
   4   8   1 6903.54  283.19
   4   8   1 7451.55  310.12
   4   8   1 7416.22  391.12
  -4   8  -1 7599.78  355.12
  -4   8  -1 7383.30  294.18
  -4   8  -1 7308.83  378.73
  -4  -8  -1 7446.28  285.63
  -4  -8  -1 7320.64  348.96
  -4  -8  -1 7261.95  332.78
   4  -8   1 7055.30  333.55
   4  -8   1 7715.67  357.55
   4  -8   1 6806.18  272.38
   4   8   2 6090.42  318.18
   4   8   2 6387.69  245.89
   4   8   2 5894.34  288.97
   4   8   2 6224.67  265.46
  -4   8  -2 6524.65  324.68
  -4   8  -2 6582.99  254.34
  -4   8  -2 6757.06  315.90
  -4  -8  -2 6620.06  315.04
  -4  -8  -2 6318.10  302.46
  -4  -8  -2 6536.87  293.10
   4  -8   2 6626.06  278.73
   4  -8   2 6657.11  332.66
   4  -8   2 6176.79  280.81
   4   8   3 2170.39   91.13
   4   8   3 2126.34   99.07
   4   8   3 2270.72  143.36
  -4   8  -3 2007.56  125.09
  -4   8  -3 2204.96  127.23
  -4   8  -3 2258.43  139.23
  -4  -8  -3 2285.14  155.56
  -4  -8  -3 2193.38  132.29
   4  -8   3 2301.89  120.73
   4  -8   3 2327.36  162.24
   4  -8   3 2022.28  109.87
   4   8   4 4456.52  227.81
  -4   8  -4 4542.81  250.41
  -4   8  -4 4631.74  229.48
  -4  -8  -4 4639.71  223.99
  -4  -8  -4 4663.51  267.09
  -4  -8  -4 4829.34  234.00
   4  -8   4 4812.00  252.40
   4  -8   4 4755.36  227.14
   4  -8   4 4767.88  194.23
   4   8   5 5530.89  303.48
  -4   8  -5 5460.94  332.32
  -4   8  -5 5686.58  266.11
  -4   8  -5 5605.33  299.42
  -4  -8  -5 5499.14  282.34
  -4  -8  -5 5233.97  311.23
  -4  -8  -5 5721.09  297.66
   4  -8   5 5441.15  272.24
   4  -8   5 5710.40  255.16
   4   8   6 4344.56  257.04
   4   8   6 4199.03  243.63
  -4   8  -6 4202.01  275.08
  -4   8  -6 4325.95  229.06
  -4   8  -6 4193.54  237.82
  -4  -8  -6 4303.50  245.77
  -4  -8  -6 4255.89  223.00
   4  -8   6 4322.65  237.73
   4  -8   6 4168.25  233.23
   4   8   7   80.33   35.78
   4   8   7  142.81   41.03
  -4   8  -7  163.04   41.17
  -4   8  -7   77.58   28.72
  -4   8  -7  117.44   36.08
  -4  -8  -7   93.58   37.95
  -4  -8  -7  147.46   32.39
   4  -8   7  125.80   39.30
   4   8   8  119.74   38.07
   4   8   8  191.03   51.85
  -4   8  -8  127.26   40.98
  -4   8  -8   93.86   41.39
  -4  -8  -8  179.88   39.98
   4  -8   8  164.98   38.43
   4   8   9  828.41  102.78
  -4  -8  -9  871.80   93.95
   4   9   0  707.01   63.82
   4   9   0  691.75   73.88
  -4   9   0  691.63   65.59
  -4   9   0  731.33   55.09
  -4   9   0  726.92   61.96
  -4  -9   0  784.41   65.26
  -4  -9   0  682.12   50.06
   4  -9   0  704.76   55.16
   4  -9   0  735.83   73.51
   4  -9   0  674.30   45.76
   4   9   1  202.32   20.93
   4   9   1  272.82   34.72
   4   9   1  252.07   37.87
  -4   9  -1  230.57   39.24
  -4   9  -1  203.06   20.38
  -4   9  -1  241.46   35.10
  -4  -9  -1  222.91   20.99
  -4  -9  -1  242.83   35.10
  -4  -9  -1  240.14   25.83
  -4  -9  -1  210.85   28.26
   4  -9   1  212.26   39.32
   4  -9   1  217.89   28.31
   4  -9   1  225.36   24.35
   4   9   2 1005.69   67.91
   4   9   2 1132.09   83.95
   4   9   2  979.23   68.27
   4   9   2 1033.84   66.52
  -4   9  -2 1015.50   72.33
  -4   9  -2 1080.04   54.90
  -4   9  -2 1182.35   71.72
  -4  -9  -2 1129.76   69.64
  -4  -9  -2 1126.30   78.12
  -4  -9  -2 1009.40   57.19
  -4  -9  -2  935.28   69.80
   4  -9   2 1137.65   72.96
   4  -9   2 1032.08   74.14
   4  -9   2  950.50   62.41
   4   9   3 9762.03  371.76
   4   9   310659.68  511.41
  -4   9  -310580.29  452.75
  -4   9  -310338.62  393.48
  -4   9  -310357.96  456.96
  -4  -9  -310492.71  442.49
  -4  -9  -3 9903.75  446.39
  -4  -9  -3 9894.83  399.93
   4  -9   310464.41  481.55
   4  -9   310637.23  429.44
   4  -9   3 9582.40  400.99
   4   9   4 2014.96  139.70
  -4   9  -4 2239.23  142.75
  -4   9  -4 2144.11  134.46
  -4  -9  -4 2286.13  123.18
  -4  -9  -4 2150.89  125.94
  -4  -9  -4 2231.49  117.59
   4  -9   4 2278.24  125.19
   4  -9   4 2418.26  140.80
   4  -9   4 2203.97  121.58
   4   9   5  -11.93   17.01
  -4   9  -5    1.48   16.99
  -4   9  -5  -13.55   16.99
  -4   9  -5   -5.71   16.96
  -4  -9  -5   -9.94   17.03
  -4  -9  -5  -24.50   17.01
  -4  -9  -5    2.51   16.96
   4  -9   5  -31.44   16.98
   4  -9   5    4.44   17.01
   4   9   6  525.70   63.50
   4   9   6  507.51   53.57
  -4   9  -6  592.22   63.10
  -4   9  -6  489.90   50.95
  -4   9  -6  500.15   64.66
  -4  -9  -6  569.84   64.67
  -4  -9  -6  495.00   50.41
   4  -9   6  509.30   62.40
   4   9   7 2375.62  194.05
   4   9   7 2357.10  157.21
  -4   9  -7 2470.56  219.01
  -4   9  -7 2364.85  159.17
  -4   9  -7 2438.74  190.46
  -4  -9  -7 2228.34  165.95
   4  -9   7 2381.50  173.57
   4   9   8  473.50   60.36
   4   9   8  579.61   66.21
  -4   9  -8  614.28   70.36
  -4   9  -8  523.97   68.79
  -4  -9  -8  543.95   60.93
   4  -9   8  485.38   92.69
   4  10   0  370.64   40.42
   4  10   0  329.00   41.08
  -4  10   0  272.59   38.47
  -4  10   0  298.90   24.40
  -4  10   0  308.88   37.15
  -4 -10   0  345.96   47.21
  -4 -10   0  374.14   38.68
   4 -10   0  372.03   47.15
   4 -10   0  364.12   39.36
   4 -10   0  299.22   28.24
   4  10   1 6025.23  246.98
   4  10   1 6290.27  283.50
   4  10   1 6453.75  341.38
  -4  10  -1 6409.49  303.09
  -4  10  -1 6389.59  255.01
  -4  10  -1 6545.49  310.05
  -4 -10  -1 6601.52  253.06
  -4 -10  -1 6476.96  312.79
  -4 -10  -1 6201.03  254.32
  -4 -10  -1 5609.62  270.95
   4 -10   1 6544.89  306.10
   4 -10   1 6324.46  328.65
   4 -10   1 5833.22  259.38
   4  10   2   -4.80   16.10
   4  10   2   14.51   16.94
  -4  10  -2   30.17   19.74
  -4  10  -2   23.07    8.80
  -4  10  -2   59.97   24.35
  -4 -10  -2   17.83   15.24
  -4 -10  -2   -9.54   21.43
  -4 -10  -2   17.98   15.54
  -4 -10  -2   15.73   11.66
   4 -10   2   -6.52   25.31
   4 -10   2    6.71   18.85
   4 -10   2   10.36    8.20
   4  10   3 1158.50   65.73
   4  10   3 1303.77   96.34
  -4  10  -3 1146.02   69.50
  -4  10  -3 1254.94  102.84
  -4 -10  -3 1176.37   82.11
  -4 -10  -3 1294.37   75.28
  -4 -10  -3 1114.32   72.80
   4 -10   3 1064.06   83.98
   4 -10   3 1283.87   88.64
   4 -10   3 1144.00   54.14
   4  10   4 1947.74  129.01
  -4  10  -4 2046.30  140.35
  -4  10  -4 1820.61  128.95
  -4 -10  -4 1908.95  133.91
  -4 -10  -4 2022.66  123.56
  -4 -10  -4 2067.61  127.52
   4 -10   4 1997.43  102.62
   4 -10   4 1943.39  141.18
   4  10   5 2889.20  185.09
  -4  10  -5 3198.54  167.41
  -4  10  -5 3166.24  169.19
  -4  10  -5 3076.07  193.93
  -4 -10  -5 2779.64  162.80
  -4 -10  -5 3095.43  190.71
  -4 -10  -5 2887.07  153.54
   4 -10   5 3367.29  195.14
   4  10   6  339.35   51.29
   4  10   6  247.32   49.03
  -4  10  -6  283.39   49.52
  -4  10  -6  292.04   36.68
  -4  10  -6  227.46   53.28
  -4 -10  -6  228.68   38.89
   4 -10   6  294.09   52.43
   4  10   7   79.23   31.11
   4  10   7  201.62   48.65
  -4  10  -7  165.74   49.81
  -4  10  -7  144.50   30.18
  -4  10  -7  145.05   48.16
  -4 -10  -7  149.94   37.62
   4 -10   7  161.15   48.23
   4  10   8  -31.46   24.77
   4  10   8   14.15   24.77
  -4  10  -8  -54.14   24.73
  -4  10  -8   34.84   24.72
  -4 -10  -8   16.10   24.76
   4 -10   8   15.14   24.69
   4  11   0 1187.52   76.27
   4  11   0 1259.04   83.68
  -4  11   0 1202.28   95.12
  -4  11   0 1179.52   60.50
  -4  11   0 1224.96   81.48
  -4 -11   0 1077.51   75.66
  -4 -11   0 1184.61   73.42
   4 -11   0 1194.57  107.44
   4 -11   0 1189.76   83.99
   4 -11   0 1085.43   66.20
   4  11   1    4.73   15.63
   4  11   1  -38.25   25.62
  -4  11  -1    1.44   18.60
  -4  11  -1   11.79    9.26
  -4  11  -1   35.68   23.32
  -4 -11  -1   16.41    9.39
  -4 -11  -1   23.61   27.80
  -4 -11  -1    5.12   13.40
   4 -11   1   19.71   23.59
   4 -11   1    0.96   19.77
   4 -11   1   -2.84    7.27
   4  11   2   21.86   13.97
   4  11   2   20.47   26.03
  -4  11  -2   12.67   19.95
  -4  11  -2  -16.27   22.30
  -4 -11  -2   25.22   16.12
  -4 -11  -2   22.14   29.76
  -4 -11  -2   40.13   15.61
   4 -11   2   11.87   29.22
   4 -11   2   22.88   22.44
   4  11   3 6332.21  276.31
   4  11   3 6787.59  355.49
  -4  11  -3 7207.71  326.34
  -4  11  -3 6800.74  345.49
  -4 -11  -3 6618.68  296.53
  -4 -11  -3 6548.69  325.65
  -4 -11  -3 6536.23  263.82
   4 -11   3 6589.99  301.08
   4 -11   3 6676.87  303.28
   4  11   4  179.02   32.58
  -4  11  -4  174.41   38.58
  -4  11  -4  167.74   35.42
  -4 -11  -4  141.71   32.00
  -4 -11  -4  163.66   44.77
  -4 -11  -4  130.56   20.15
   4 -11   4  138.91   36.18
   4 -11   4  180.71   33.01
   4  11   5  555.22   55.29
  -4  11  -5  463.91   46.96
  -4  11  -5  464.42   51.32
  -4  11  -5  439.30   60.22
  -4 -11  -5  567.79   54.08
  -4 -11  -5  490.00   60.68
   4 -11   5  376.55   51.53
   4  11   6  885.51   96.31
   4  11   6  938.69  102.99
  -4  11  -6 1060.21  102.09
  -4  11  -6  942.54   88.37
  -4  11  -6 1042.15   90.83
  -4 -11  -6  851.95   86.29
   4 -11   6 1021.96   83.48
   4  11   7 1507.28  125.73
   4  11   7 1888.12  150.10
  -4  11  -7 1770.53  150.99
  -4  11  -7 1664.29  131.39
  -4  11  -7 1800.05  177.25
  -4 -11  -7 1714.68  116.64
   4 -11   7 1869.26  125.89
   4  11   8  -11.06   25.21
   4  11   8  -14.95   25.21
  -4  11  -8   21.30   25.18
  -4  11  -8   21.68   25.16
  -4 -11  -8  -17.78   25.19
   4 -11   8  -27.93   25.14
   4  12   0  108.25   25.93
   4  12   0  127.63   32.56
  -4  12   0  102.13   30.97
  -4  12   0   90.84   14.94
  -4  12   0  106.29   26.47
  -4 -12   0   78.00   27.73
  -4 -12   0  112.65   20.85
   4 -12   0   87.13   25.77
   4 -12   0   76.89   22.88
   4  12   1 2772.39  138.62
   4  12   1 2892.58  195.29
   4  12   1 2941.25  173.65
  -4  12  -1 3067.94  154.59
  -4  12  -1 2908.29  178.53
  -4 -12  -1 2892.81  147.47
  -4 -12  -1 2759.01  132.55
   4 -12   1 2853.68  164.35
   4 -12   1 2819.84  143.24
   4  12   2  470.97   39.89
   4  12   2  527.79   53.45
  -4  12  -2  472.59   52.50
  -4  12  -2  629.62   58.55
  -4 -12  -2  456.34   39.90
  -4 -12  -2  437.89   46.51
  -4 -12  -2  460.34   38.15
   4 -12   2  465.98   47.65
   4 -12   2  502.49   43.91
   4  12   3  373.76   41.94
   4  12   3  462.32   53.42
  -4  12  -3  341.67   45.81
  -4  12  -3  378.86   42.06
  -4 -12  -3  389.82   34.40
  -4 -12  -3  436.29   52.74
  -4 -12  -3  345.68   33.01
   4 -12   3  465.80   55.89
   4 -12   3  478.89   50.87
   4  12   4  804.84   74.36
  -4  12  -4  667.71   67.54
  -4  12  -4  708.38   71.61
  -4 -12  -4  819.22   70.80
  -4 -12  -4  836.41   79.47
   4 -12   4  705.82   74.76
   4 -12   4  824.77   79.15
   4  12   5 1652.25  142.86
  -4  12  -5 1621.84  132.25
  -4  12  -5 1785.98  131.86
  -4  12  -5 1863.86  139.84
  -4 -12  -5 1590.45  117.28
  -4 -12  -5 1558.99  112.74
   4 -12   5 1809.21  138.60
   4  12   6   54.10   27.07
   4  12   6   93.15   44.57
  -4  12  -6   85.29   31.74
  -4  12  -6  128.25   32.06
  -4  12  -6  132.13   43.20
  -4 -12  -6   78.39   28.04
   4 -12   6  110.69   41.14
   4  12   7 1106.63  121.29
   4  12   7 1169.56  128.79
  -4  12  -7 1283.38  135.42
  -4  12  -7 1318.46  108.88
  -4  12  -7 1257.05  103.31
  -4 -12  -7 1107.95   91.35
   4 -12   7 1182.43  120.17
  -4 -12  -8  436.92   64.38
   4  13   0  179.01   34.46
   4  13   0  181.45   35.88
  -4  13   0  185.07   37.21
  -4  13   0  152.08   29.66
  -4 -13   0  196.74   27.00
  -4 -13   0  196.47   24.96
   4 -13   0  184.46   38.95
   4 -13   0  208.77   30.46
   4  13   1  435.62   43.96
   4  13   1  422.17   50.77
  -4  13  -1  534.47   58.53
  -4  13  -1  506.05   52.32
  -4 -13  -1  509.31   50.87
  -4 -13  -1  480.41   34.54
   4 -13   1  489.97   47.49
   4 -13   1  502.96   47.25
   4  13   2  184.83   29.15
   4  13   2  189.89   39.30
  -4  13  -2  230.84   38.07
  -4  13  -2  203.96   27.97
  -4 -13  -2  193.17   27.67
  -4 -13  -2  189.05   31.42
   4 -13   2  154.71   32.93
   4 -13   2  189.29   34.47
   4  13   3 3918.21  216.02
  -4  13  -3 3804.12  224.50
  -4  13  -3 3748.51  214.66
  -4 -13  -3 3914.37  186.85
  -4 -13  -3 4225.09  238.02
   4 -13   3 3738.66  245.34
   4 -13   3 3835.96  208.18
   4  13   4  594.28   60.14
  -4  13  -4  438.97   68.07
  -4  13  -4  555.87   64.44
  -4 -13  -4  463.10   47.51
  -4 -13  -4  426.18   57.06
   4 -13   4  516.05   57.92
   4  13   5  992.34  102.52
  -4  13  -5 1025.75   99.01
  -4  13  -5 1019.32   84.85
  -4  13  -5 1059.99   99.39
  -4 -13  -5  910.01   83.03
  -4 -13  -5 1019.11   86.78
   4 -13   5  942.98   93.16
   4  13   6 1773.35  144.32
   4  13   6 1764.26  143.80
  -4  13  -6 1774.11  156.20
  -4  13  -6 1602.87  122.69
  -4  13  -6 1933.31  166.59
  -4 -13  -6 1695.99  119.86
   4 -13   6 1784.29  158.67
   4  13   7  270.52   61.23
   4  13   7  477.89   75.43
  -4  13  -7  496.41   85.10
  -4  13  -7  396.18   52.94
  -4  13  -7  346.51   64.89
  -4 -13  -7  308.56   49.54
   4 -13   7  416.93   55.69
   4  14   0  108.83   27.36
   4  14   0  112.79   36.05
  -4  14   0   72.83   36.20
  -4  14   0   99.51   23.05
  -4 -14   0   89.91   29.51
  -4 -14   0   96.24   18.74
   4 -14   0   93.46   36.23
   4 -14   0  144.80   26.66
   4  14   1 3357.32  197.62
   4  14   1 3438.11  214.85
  -4  14  -1 3124.33  182.11
  -4  14  -1 3250.26  196.38
  -4 -14  -1 3301.89  176.87
   4 -14   1 3455.51  215.65
   4 -14   1 3464.02  180.87
   4  14   2  717.56   61.76
   4  14   2  831.74   69.03
  -4  14  -2  772.29   76.14
  -4  14  -2  764.77   77.39
  -4 -14  -2  857.60   71.22
   4 -14   2  830.49   79.58
   4 -14   2  747.01   75.20
   4  14   3   42.62   25.09
  -4  14  -3  -32.86   30.75
  -4  14  -3   33.51   23.69
  -4 -14  -3   14.55   20.42
  -4 -14  -3   -6.11   20.99
   4 -14   3   41.55   35.23
   4 -14   3   14.74   25.68
   4  14   4 1185.29  116.32
  -4  14  -4 1457.26  128.12
  -4  14  -4 1208.62  108.21
  -4  14  -4 1340.57  108.26
  -4 -14  -4 1241.77   98.50
  -4 -14  -4 1290.28  116.52
   4 -14   4 1248.43  104.17
   4  14   5  -49.20   26.40
   4  14   5  -13.52   26.39
  -4  14  -5   -9.80   26.41
  -4  14  -5   34.85   26.38
  -4  14  -5  -15.75   26.38
  -4 -14  -5  -17.86   26.37
   4 -14   5   14.55   26.38
   4  14   6 1563.61  128.16
   4  14   6 1918.42  184.06
  -4  14  -6 1519.31  106.58
  -4  14  -6 1644.05  129.96
  -4  14  -6 1447.93  136.85
  -4 -14  -6 1460.74  106.26
   4 -14   6 1705.35  148.28
   4  14   7    5.53   25.48
   4  14   7   16.18   25.47
  -4  14  -7  -56.72   25.47
  -4  14  -7   -4.05   25.48
  -4  14  -7   22.89   25.45
  -4 -14  -7   -0.04   25.45
   4 -14   7   25.14   25.42
   4  15   0  741.58   69.29
   4  15   0  828.46   80.68
  -4  15   0  800.85   79.61
  -4  15   0  773.44   70.97
  -4 -15   0  827.35   64.56
   4 -15   0  901.41   79.92
   4 -15   0  734.28   74.20
   4  15   1  338.83   42.99
   4  15   1  455.55   50.52
  -4  15  -1  424.13   50.95
  -4  15  -1  489.46   49.21
  -4 -15  -1  427.96   54.49
   4 -15   1  401.38   52.54
   4 -15   1  432.34   49.60
   4  15   2  350.91   40.81
   4  15   2  307.65   52.51
  -4  15  -2  286.81   49.22
  -4  15  -2  285.83   45.86
  -4 -15  -2  322.51   46.93
   4 -15   2  381.56   61.10
   4 -15   2  266.99   41.51
   4  15   3 1481.88  104.60
  -4  15  -3 1452.35  125.13
  -4  15  -3 1411.37  119.19
  -4 -15  -3 1432.81  107.45
   4 -15   3 1517.44  124.23
   4 -15   3 1391.99  123.78
   4  15   4 1650.70  139.37
  -4  15  -4 1835.85  139.82
  -4  15  -4 1765.56  167.32
  -4  15  -4 1656.34  145.35
  -4 -15  -4 1518.03  115.82
  -4 -15  -4 1556.45  137.64
   4 -15   4 1815.01  149.91
   4  15   5 1070.90  107.93
   4  15   5 1303.97  125.69
  -4  15  -5 1136.58  110.04
  -4  15  -5 1104.58   99.93
  -4  15  -5 1253.36  106.99
  -4 -15  -5  950.01   91.33
   4 -15   5 1223.93  121.89
   4  15   6  627.94   74.62
   4  15   6  773.72   91.92
  -4  15  -6  750.04   79.22
  -4  15  -6  759.96   83.40
  -4  15  -6  591.74   80.84
  -4 -15  -6  598.47   74.35
   4 -15   6  803.65   87.84
   4  16   0 2902.87  179.28
   4  16   0 3161.85  221.33
  -4  16   0 3096.00  183.39
  -4  16   0 2756.33  174.84
  -4 -16   0 3219.06  202.92
   4 -16   0 3035.11  184.09
   4 -16   0 3146.40  175.51
   4  16   1  258.29   40.06
   4  16   1  264.38   57.57
  -4  16  -1  369.74   57.06
  -4  16  -1  229.98   37.70
  -4 -16  -1  246.58   40.46
   4 -16   1  253.95   46.14
   4 -16   1  258.19   38.64
   4  16   2 2708.27  170.38
   4  16   2 2884.91  189.09
  -4  16  -2 3009.09  211.08
  -4  16  -2 2975.73  185.68
  -4 -16  -2 3001.96  197.37
   4 -16   2 3052.42  206.07
   4 -16   2 2772.17  199.03
   4  16   3   67.72   28.11
  -4  16  -3   31.11   37.10
  -4  16  -3   74.49   31.97
  -4 -16  -3   41.78   35.32
   4 -16   3   52.26   31.92
   4 -16   3   73.41   29.28
   4  16   4  350.34   59.11
  -4  16  -4  382.48   64.28
  -4  16  -4  486.64   69.65
  -4  16  -4  407.34   52.90
  -4 -16  -4  413.23   61.67
   4 -16   4  417.70   63.48
   4  16   5   79.25   29.00
   4  16   5   58.44   31.30
  -4  16  -5  149.93   48.03
  -4  16  -5   97.98   35.30
  -4  16  -5   53.13   28.41
   4 -16   5  104.45   37.20
   4  16   6 2216.54  177.06
   4  16   6 2832.31  230.62
  -4  16  -6 2495.53  173.16
  -4  16  -6 2609.31  204.19
  -4  16  -6 2785.96  204.96
   4 -16   6 2750.44  221.82
   4  17   0  853.24   77.57
   4  17   0  917.22   97.79
  -4  17   0  798.90   87.83
  -4  17   0  857.35   79.50
  -4 -17   0  806.83   71.35
   4 -17   0  802.95   80.46
   4 -17   0  871.70   71.87
   4  17   1  102.79   29.40
   4  17   1  133.49   43.56
  -4  17  -1  184.22   36.85
  -4  17  -1  116.41   30.23
  -4 -17  -1  153.59   37.28
   4 -17   1  195.15   44.62
   4 -17   1  189.86   34.37
   4  17   2  373.14   61.42
  -4  17  -2  344.90   60.68
  -4  17  -2  343.22   41.75
  -4 -17  -2  408.60   61.67
   4 -17   2  377.71   52.70
   4 -17   2  388.70   61.19
   4  17   3  668.22   72.46
  -4  17  -3  831.51   83.81
  -4  17  -3  753.70   84.79
  -4 -17  -3  687.73   67.54
   4 -17   3  826.10   97.30
   4 -17   3  602.76   65.23
   4  17   4 3305.93  245.47
  -4  17  -4 3880.77  260.14
  -4  17  -4 3924.89  299.28
  -4  17  -4 3515.96  239.35
   4 -17   4 3760.17  242.45
   4  17   5 1395.16  123.16
   4  17   5 1627.39  159.94
  -4  17  -5 1248.77  126.21
  -4  17  -5 1442.01  138.28
  -4  17  -5 1151.65  120.37
   4 -17   5 1545.11  131.44
   4  18   0 3288.21  216.12
   4  18   0 3747.38  279.79
  -4  18   0 3707.51  229.91
  -4 -18   0 3431.77  211.06
   4 -18   0 3401.51  204.68
   4  18   1  266.23   40.94
   4  18   1  212.53   48.85
  -4  18  -1  314.01   54.43
  -4 -18  -1  236.63   44.84
   4 -18   1  228.47   49.12
   4 -18   1  268.38   44.21
   4  18   2 4787.49  309.44
  -4  18  -2 4717.70  279.27
  -4  18  -2 4431.77  254.41
  -4 -18  -2 4587.28  251.10
   4 -18   2 4694.81  314.66
   4 -18   2 4645.34  290.07
   4  18   3  368.25   62.73
  -4  18  -3  287.22   61.13
  -4  18  -3  306.38   57.15
  -4  18  -3  348.44   46.95
  -4 -18  -3  283.86   46.43
   4 -18   3  342.98   52.16
   4  18   4  163.46   42.23
   4  18   4  268.40   54.69
  -4  18  -4  135.76   37.16
  -4  18  -4  248.31   44.89
  -4  18  -4  231.18   49.94
   4 -18   4  309.08   46.29
   4  18   5  359.87   60.61
   4  18   5  491.23   67.51
  -4  18  -5  469.71   59.08
  -4  18  -5  450.35   74.51
  -4  18  -5  464.67   67.19
   4 -18   5  470.74   66.59
   4  19   0   -0.84   32.11
   4  19   0  -15.32   30.36
  -4  19   0   -2.68   25.00
  -4 -19   0   35.16   27.62
   4 -19   0  -14.57   31.13
   4  19   1   39.70   27.96
   4  19   1   -3.00   28.27
  -4  19  -1   48.26   34.56
  -4 -19  -1   14.29   24.99
   4 -19   1   40.77   34.90
   4 -19   1   52.30   29.33
   4  19   2  182.64   49.84
  -4  19  -2  191.59   49.84
  -4 -19  -2   70.34   31.18
   4 -19   2  124.40   44.90
   4 -19   2  175.45   30.10
   4  19   3  219.88   48.18
  -4  19  -3  276.30   51.22
  -4  19  -3  312.01   70.26
  -4 -19  -3  242.15   45.57
   4 -19   3  362.82   53.53
   4  19   4  735.62   97.70
   4  19   4  822.48   91.75
  -4  19  -4  818.56   96.65
  -4  19  -4  699.01   97.56
   4 -19   4  682.37   90.81
   4  20   0  578.33   76.89
   4  20   0  649.48   76.77
  -4  20   0  554.01   69.16
   4 -20   0  618.94   87.32
   4  20   1 4154.78  308.23
  -4  20  -1 4203.40  298.23
  -4 -20  -1 3475.87  255.27
   4 -20   1 4402.56  305.31
   4  20   2   31.00   35.41
  -4  20  -2   33.69   35.64
  -4 -20  -2   54.25   28.96
   4 -20   2  105.58   39.83
   4 -20   2   57.33   29.43
   4  20   3 2190.03  181.48
   4  20   3 2262.90  198.07
  -4  20  -3 2210.49  204.40
   4 -20   3 2159.91  193.96
   4  21   0   -1.68   27.99
   4  21   0   -2.68   27.73
  -4  21   0   22.00   34.57
   4  21   1  -13.41   36.19
  -4  21  -1   -9.87   36.11
   5   0   0  -19.15   18.95
   5   0   0    2.72   18.95
  -5   0   0  -10.35   18.94
  -5   0   0   -1.24   18.98
  -5   0   0   -0.32   18.99
   5   0   114227.74  723.58
   5   0   116082.11  600.23
  -5   0  -115631.47  618.75
  -5   0  -115752.50  675.24
  -5   0  -115606.93  636.20
   5   0   2   12.22   14.43
   5   0   2  -17.22   17.18
  -5   0  -2   -4.24   15.56
  -5   0  -2   -1.64   10.62
  -5   0  -2    9.45   21.11
  -5   0  -2   15.28   24.65
   5   0   3  215.44   25.07
   5   0   3  181.54   34.74
  -5   0  -3  201.49   33.37
  -5   0  -3  150.36   30.59
  -5   0  -3  222.45   36.62
   5   0   4    9.57   11.05
   5   0   4   11.12   11.04
  -5   0  -4   12.76   11.04
  -5   0  -4   -9.52   11.04
  -5   0  -4  -34.14   11.05
   5   0   5 7333.11  345.12
  -5   0  -5 6984.50  325.23
  -5   0  -5 7187.25  360.37
  -5   0  -5 7103.01  363.68
   5   0   6   32.88   24.84
  -5   0  -6   24.13   29.10
  -5   0  -6  -24.23   23.02
  -5   0  -6   -5.20   24.69
   5   0   7 4074.43  298.32
   5   0   7 3967.61  239.06
  -5   0  -7 3842.46  243.16
  -5   0  -7 3950.55  235.19
   5   0   8  -43.98   25.89
   5   0   8  -18.23   25.93
  -5   0  -8   27.10   25.90
  -5   0  -8    3.65   25.93
   5   0   9   78.33   39.38
   5   0   9   45.52   36.98
  -5   0  -9   59.73   36.39
  -5   0  -9   33.49   32.81
   5   1   0  134.13   18.49
   5   1   0  166.25   24.67
   5   1   0  114.33   31.22
  -5   1   0  160.38   22.74
  -5   1   0  165.34   30.92
  -5   1   0  152.75   34.72
  -5  -1   0  140.42   21.87
  -5  -1   0  133.05   24.18
  -5  -1   0  132.33   24.89
   5  -1   0  115.70   27.43
   5  -1   0  172.02   29.26
   5   1   1  766.63   52.29
   5   1   1  682.77   53.51
  -5   1  -1  635.97   50.10
  -5   1  -1  645.14   50.33
  -5   1  -1  670.01   62.52
  -5  -1  -1  661.61   47.54
  -5  -1  -1  670.62   55.63
  -5  -1  -1  588.63   43.36
   5  -1   1  658.04   59.07
   5  -1   1  678.60   57.59
   5   1   2 1683.12  101.33
   5   1   2 1721.11  123.35
  -5   1  -2 1700.33   98.12
  -5   1  -2 1714.86  117.03
  -5   1  -2 1775.71  104.33
  -5  -1  -2 1721.03  112.10
  -5  -1  -2 1633.33  101.95
  -5  -1  -2 1772.42  125.89
  -5  -1  -2 1906.22  115.25
   5  -1   2 1746.74  101.16
   5  -1   2 1766.37  116.53
   5   1   3 4381.27  221.65
   5   1   3 4676.25  256.90
  -5   1  -3 4530.13  240.73
  -5   1  -3 4155.15  217.81
  -5   1  -3 4499.59  235.04
  -5   1  -3 4626.61  218.76
  -5  -1  -3 4500.83  195.53
  -5  -1  -3 3942.09  188.96
  -5  -1  -3 4568.36  205.02
  -5  -1  -3 4671.41  267.70
   5  -1   3 4622.08  213.90
   5  -1   3 4637.65  217.46
   5   1   4 2039.27   97.43
   5   1   4 2088.20  116.34
  -5   1  -4 2115.59  121.71
  -5   1  -4 2117.71  111.67
  -5   1  -4 2074.30  134.87
  -5  -1  -4 2056.34  121.29
  -5  -1  -4 1973.47  130.11
  -5  -1  -4 2025.14  116.07
   5  -1   4 1975.95  112.28
   5  -1   4 2184.99  140.82
   5   1   5  292.93   44.23
  -5   1  -5  267.52   35.27
  -5   1  -5  236.67   23.83
  -5   1  -5  298.31   38.98
  -5   1  -5  272.10   47.33
  -5  -1  -5  265.42   31.85
  -5  -1  -5  263.98   35.91
  -5  -1  -5  220.98   36.30
   5  -1   5  269.93   38.34
   5   1   6  757.38   75.11
  -5   1  -6  748.79   78.16
  -5   1  -6  851.16   79.98
  -5  -1  -6  762.43   75.16
  -5  -1  -6  907.69   99.12
  -5  -1  -6  855.78   76.65
   5  -1   6  824.70   83.44
   5   1   7 1910.22  155.70
   5   1   7 1948.71  150.54
  -5   1  -7 1795.10  133.87
  -5   1  -7 1912.01  133.18
  -5  -1  -7 1821.77  150.59
  -5  -1  -7 2005.56  143.30
   5  -1   7 1830.22  157.89
   5  -1   7 2120.75  149.78
   5   1   8  160.10   45.76
   5   1   8  102.06   38.99
  -5   1  -8   96.37   39.81
  -5   1  -8  152.86   50.49
  -5  -1  -8  110.41   37.14
  -5  -1  -8  143.75   39.07
   5  -1   8   58.83   32.76
   5  -1   8   79.23   33.63
   5   1   9  459.85   70.87
   5   1   9  454.24   69.71
  -5   1  -9  437.90   59.60
  -5  -1  -9  334.97   66.65
  -5  -1  -9  384.10   59.59
   5  -1   9  337.51   75.35
   5  -1   9  323.58   51.29
   5   2   0  973.92   63.74
   5   2   0 1067.83   71.87
   5   2   0 1102.08   73.89
  -5   2   0 1135.15   71.89
  -5   2   0  948.80   66.31
  -5   2   0 1114.39   94.70
  -5  -2   0 1089.26   61.86
  -5  -2   0 1028.75   64.95
  -5  -2   0 1093.19   71.22
   5  -2   0 1051.96   76.27
   5  -2   0 1008.54   88.76
   5   2   114567.31  596.89
   5   2   114914.32  642.59
  -5   2  -114644.02  553.19
  -5   2  -115014.28  632.83
  -5   2  -115162.33  652.11
  -5  -2  -114985.96  595.07
  -5  -2  -114171.01  560.96
  -5  -2  -115103.81  615.23
   5  -2   114269.08  623.89
   5  -2   115216.14  695.47
   5   2   2 1288.91   75.02
   5   2   2 1345.06  100.83
  -5   2  -2 1305.54   79.95
  -5   2  -2 1283.05   88.27
  -5   2  -2 1438.58  103.25
  -5  -2  -2 1421.37  113.51
  -5  -2  -2 1133.77   89.01
  -5  -2  -2 1231.17   82.85
  -5  -2  -2 1331.00  103.60
   5  -2   2  958.63   87.02
   5  -2   2 1367.85   84.51
   5   2   3  994.07   66.13
   5   2   3  996.42   73.66
  -5   2  -3 1027.68   74.82
  -5   2  -3 1004.04   77.66
  -5   2  -3  958.86   74.68
  -5  -2  -3  938.05   61.43
  -5  -2  -3  845.93   52.85
  -5  -2  -3 1018.75   95.01
  -5  -2  -3 1091.71   69.85
   5  -2   3 1003.69   73.73
   5  -2   3  961.18   66.74
   5   2   4 1421.75   65.11
   5   2   4 1517.41  119.82
  -5   2  -4 1538.84  110.46
  -5   2  -4 1432.70  102.36
  -5   2  -4 1548.62  110.88
  -5  -2  -4 1537.84   97.05
  -5  -2  -4 1490.40  108.58
  -5  -2  -4 1396.94   94.13
   5  -2   4 1485.46   92.05
   5  -2   4 1560.52  104.93
   5   2   5 4156.13  238.02
  -5   2  -5 4050.54  259.77
  -5   2  -5 4241.18  184.54
  -5   2  -5 4431.31  240.83
  -5   2  -5 4301.35  248.74
  -5  -2  -5 4068.35  229.42
  -5  -2  -5 4177.56  245.07
  -5  -2  -5 4201.70  228.14
   5  -2   5 4199.34  253.06
   5   2   6  646.42   77.76
  -5   2  -6  653.87   61.32
  -5   2  -6  614.70   71.80
  -5  -2  -6  580.84   54.18
  -5  -2  -6  604.63   65.21
  -5  -2  -6  573.83   68.24
   5  -2   6  497.67   64.68
   5  -2   6  443.88   62.09
   5   2   7 2158.70  186.27
   5   2   7 2062.68  159.13
  -5   2  -7 2096.31  154.82
  -5   2  -7 2176.31  149.40
  -5  -2  -7 2100.26  148.46
  -5  -2  -7 2150.08  172.81
   5  -2   7 1943.22  150.56
   5  -2   7 2173.47  161.68
   5   2   8  472.59   63.13
   5   2   8  420.89   62.55
  -5   2  -8  408.82   54.34
  -5   2  -8  446.16   72.87
  -5  -2  -8  373.08   67.80
  -5  -2  -8  448.12   49.69
   5  -2   8  468.09   69.92
   5  -2   8  410.63   59.93
   5   2   9  418.27   69.64
   5   2   9  440.13   74.48
  -5   2  -9  441.49   62.80
  -5  -2  -9  359.96   61.56
  -5  -2  -9  404.66   55.25
   5  -2   9  364.57   81.25
   5  -2   9  306.65   54.14
   5   3   0 3839.10  188.83
   5   3   0 3736.82  213.17
   5   3   0 3772.51  182.81
  -5   3   0 3987.24  197.31
  -5   3   0 3878.75  217.80
  -5   3   0 3970.65  199.18
  -5  -3   0 3990.53  176.64
  -5  -3   0 3831.10  210.20
  -5  -3   0 4108.46  231.16
   5  -3   0 3940.44  199.99
   5  -3   0 3936.64  202.11
   5   3   1  223.21   27.45
   5   3   1  183.28   28.08
  -5   3  -1  213.25   30.50
  -5   3  -1  208.72   26.94
  -5   3  -1  235.68   30.26
  -5  -3  -1  239.29   26.11
  -5  -3  -1  257.38   36.54
  -5  -3  -1  239.78   38.24
   5  -3   1  248.79   25.59
   5  -3   1  272.14   37.55
   5   3   2 5175.30  247.57
   5   3   2 5272.39  298.85
  -5   3  -2 5311.85  272.42
  -5   3  -2 5028.00  259.16
  -5   3  -2 5286.45  270.17
  -5  -3  -2 5206.16  250.57
  -5  -3  -2 4520.36  200.03
  -5  -3  -2 4906.05  263.18
  -5  -3  -2 5157.91  258.98
   5  -3   2 5070.61  252.17
   5  -3   2 5158.13  281.63
   5   3   3 3516.69  146.32
   5   3   3 3607.54  210.99
  -5   3  -3 3430.43  196.61
  -5   3  -3 3406.18  148.47
  -5   3  -3 3530.12  201.89
  -5  -3  -3 3674.81  180.67
  -5  -3  -3 3135.59  143.31
  -5  -3  -3 3562.37  176.99
  -5  -3  -3 3285.16  180.55
   5  -3   3 3860.20  214.83
   5  -3   3 3620.39  167.86
   5   3   4  926.97   81.31
  -5   3  -4 1006.29   86.90
  -5   3  -4  904.83   65.30
  -5   3  -4  939.62   72.98
  -5  -3  -4  921.58   75.33
  -5  -3  -4 1038.06   98.65
  -5  -3  -4  946.76   63.59
   5  -3   4  928.39   62.62
   5  -3   4  835.26   72.72
   5   3   5  398.33   54.63
  -5   3  -5  392.87   56.29
  -5   3  -5  416.57   35.95
  -5   3  -5  435.86   47.92
  -5   3  -5  450.77   44.31
  -5  -3  -5  468.70   45.72
  -5  -3  -5  439.63   51.10
  -5  -3  -5  430.47   42.67
   5  -3   5  354.83   44.84
   5   3   6  253.94   44.20
  -5   3  -6  215.38   38.16
  -5   3  -6  253.44   52.46
  -5  -3  -6  328.11   53.58
  -5  -3  -6  265.14   40.14
  -5  -3  -6  298.38   43.50
   5  -3   6  320.35   56.14
   5  -3   6  236.19   37.30
   5   3   7 2523.59  201.32
   5   3   7 2826.37  179.85
  -5   3  -7 2479.76  165.64
  -5   3  -7 2482.82  146.78
  -5  -3  -7 2560.18  186.12
  -5  -3  -7 2631.75  160.84
   5  -3   7 2251.00  209.71
   5  -3   7 2397.09  158.08
   5   3   8  273.07   54.82
   5   3   8  277.46   50.81
  -5   3  -8  285.24   49.36
  -5   3  -8  248.28   54.83
  -5  -3  -8  242.39   50.91
  -5  -3  -8  248.07   49.48
   5  -3   8  321.25   55.27
   5  -3   8  301.31   50.79
   5   3   9 1009.59  106.48
   5   3   9  900.45  107.74
  -5  -3  -9  956.37   94.17
  -5  -3  -9  814.91   84.90
   5   4   0 1589.46   79.34
   5   4   0 1705.77  102.86
   5   4   0 1681.74  102.83
  -5   4   0 1753.28  102.82
  -5   4   0 1587.59  104.54
  -5   4   0 1572.46  112.29
  -5  -4   0 1690.31   87.93
  -5  -4   0 1539.69  109.07
  -5  -4   0 1575.27  110.78
   5  -4   0 1644.59  110.00
   5  -4   0 1687.52  102.17
   5   4   110306.99  399.35
   5   4   110716.60  420.36
   5   4   111384.57  497.37
  -5   4  -110894.73  502.42
  -5   4  -111098.07  463.44
  -5   4  -111269.48  504.55
  -5  -4  -111145.83  453.40
  -5  -4  -110580.64  518.18
  -5  -4  -111054.67  493.68
   5  -4   110994.17  488.92
   5  -4   110953.67  432.82
   5   4   2 1873.36  108.34
   5   4   2 1820.06  112.20
  -5   4  -2 1860.41  128.13
  -5   4  -2 1735.07  105.34
  -5   4  -2 1792.07  116.93
  -5  -4  -2 1837.91  113.35
  -5  -4  -2 1597.79   99.17
  -5  -4  -2 1769.68  115.90
  -5  -4  -2 1672.41  103.12
   5  -4   2 1904.89  117.57
   5  -4   2 1790.62  123.06
   5   4   3 4724.37  212.81
   5   4   3 4949.43  269.69
  -5   4  -3 4937.56  263.47
  -5   4  -3 4857.05  242.24
  -5   4  -3 4720.15  283.44
  -5  -4  -3 4756.56  252.43
  -5  -4  -3 4274.47  186.10
  -5  -4  -3 4459.21  236.06
  -5  -4  -3 5025.91  218.43
   5  -4   3 4886.73  242.87
   5  -4   3 5000.69  237.29
   5   4   4 3525.84  205.12
  -5   4  -4 3740.58  225.56
  -5   4  -4 3525.98  186.08
  -5   4  -4 3533.48  237.77
  -5  -4  -4 3720.75  231.54
  -5  -4  -4 3588.90  184.20
  -5  -4  -4 3482.86  184.41
   5  -4   4 3631.75  191.55
   5  -4   4 3656.40  208.81
   5   4   5  881.56   71.38
  -5   4  -5  953.59   82.65
  -5   4  -5 1109.27   77.47
  -5   4  -5  897.50   68.73
  -5   4  -5  957.40   92.13
  -5  -4  -5  917.39   83.73
  -5  -4  -5  797.55   65.89
  -5  -4  -5  998.45   78.29
   5  -4   5  864.72   74.76
   5   4   6    9.10   26.77
  -5   4  -6   35.55   25.24
  -5   4  -6   17.79   27.35
  -5  -4  -6   17.27   26.15
  -5  -4  -6    7.57   24.68
  -5  -4  -6   18.36   27.01
   5  -4   6  -10.77   33.40
   5  -4   6   25.09   23.33
   5   4   7 1407.17  109.84
   5   4   7 1522.94  129.48
  -5   4  -7 1492.15  134.04
  -5   4  -7 1388.19  104.91
  -5  -4  -7 1407.87  138.37
  -5  -4  -7 1284.58  111.49
   5  -4   7 1310.48  107.01
   5  -4   7 1520.90  107.41
   5   4   8  181.13   40.76
   5   4   8  190.42   48.38
  -5   4  -8  139.41   33.41
  -5   4  -8  184.07   43.89
  -5  -4  -8  166.94   47.37
  -5  -4  -8  196.36   41.01
   5  -4   8  149.17   42.31
   5  -4   8  157.26   39.33
   5   5   0 4577.69  185.69
   5   5   0 4890.92  220.40
   5   5   0 4895.81  262.68
  -5   5   0 4805.72  248.81
  -5   5   0 4736.17  220.35
  -5   5   0 4962.29  245.12
  -5  -5   0 4877.36  192.40
  -5  -5   0 4457.33  199.98
  -5  -5   0 5113.24  263.64
   5  -5   0 4743.28  262.37
   5  -5   0 4732.45  217.75
   5   5   1 6936.65  284.24
   5   5   1 7476.75  333.51
   5   5   1 7570.41  365.09
  -5   5  -1 7322.57  378.95
  -5   5  -1 7338.27  338.27
  -5   5  -1 7701.53  410.97
  -5  -5  -1 7550.85  308.84
  -5  -5  -1 7342.94  340.01
  -5  -5  -1 7485.04  327.16
   5  -5   1 7320.85  327.58
   5  -5   1 7515.26  344.66
   5   5   210188.49  425.84
   5   5   210302.05  458.29
  -5   5  -210132.04  504.05
  -5   5  -2 9855.37  419.63
  -5   5  -210089.67  500.20
  -5  -5  -210283.76  446.16
  -5  -5  -2 8732.12  386.46
  -5  -5  -210297.19  488.28
  -5  -5  -2 9763.91  406.62
   5  -5   210264.15  487.94
   5  -5   210548.13  482.35
   5   5   3  678.98   45.98
   5   5   3  670.67   64.95
  -5   5  -3  721.21   70.21
  -5   5  -3  728.77   56.95
  -5   5  -3  763.38   71.09
  -5  -5  -3  770.94   64.76
  -5  -5  -3  628.94   41.27
  -5  -5  -3  785.79   76.64
  -5  -5  -3  742.34   48.96
   5  -5   3  766.50   48.77
   5  -5   3  807.72   80.33
   5   5   4 2612.35  186.98
  -5   5  -4 2689.71  154.41
  -5   5  -4 2432.10  145.56
  -5   5  -4 2575.72  163.35
  -5  -5  -4 2673.97  165.32
  -5  -5  -4 2608.53  150.94
  -5  -5  -4 2500.07  164.75
   5  -5   4 2426.83  165.14
   5  -5   4 2525.95  154.63
   5   5   5   56.54   30.95
  -5   5  -5   16.53   29.87
  -5   5  -5   54.39   18.33
  -5   5  -5   52.72   18.63
  -5   5  -5   60.52   35.18
  -5  -5  -5   55.63   25.88
  -5  -5  -5   59.64   32.12
  -5  -5  -5    6.44   24.08
   5  -5   5   52.07   28.81
   5   5   6  169.51   34.71
  -5   5  -6  295.62   44.13
  -5   5  -6  239.56   40.93
  -5  -5  -6  275.09   49.92
  -5  -5  -6  242.21   46.21
  -5  -5  -6  274.01   39.44
   5  -5   6  289.18   49.72
   5  -5   6  236.26   38.29
   5   5   7  774.11   95.49
   5   5   7  817.53   82.79
  -5   5  -7  770.29   80.77
  -5   5  -7  777.37   95.95
  -5  -5  -7  771.09   78.96
  -5  -5  -7  698.85   65.71
   5  -5   7  700.51   96.99
   5  -5   7  909.56   87.50
   5   5   8  447.39   78.02
   5   5   8  585.65   64.79
  -5   5  -8  383.36   60.21
  -5   5  -8  505.56   66.94
  -5  -5  -8  413.50   68.95
  -5  -5  -8  421.27   57.29
   5  -5   8  524.48   65.87
   5   6   0  742.92   45.58
   5   6   0  899.74   57.28
   5   6   0  891.13   64.97
  -5   6   0  923.36   81.84
  -5   6   0  875.66   63.75
  -5   6   0  837.43   64.45
  -5  -6   0  849.32   44.29
  -5  -6   0  987.96   78.33
  -5  -6   0  825.07   61.05
   5  -6   0  892.55   74.22
   5  -6   0  891.17   66.31
   5   6   1  668.18   40.27
   5   6   1  621.95   53.11
   5   6   1  684.49   60.64
  -5   6  -1  780.50   66.38
  -5   6  -1  642.94   44.03
  -5   6  -1  734.51   55.90
  -5  -6  -1  736.78   54.08
  -5  -6  -1  663.97   59.22
  -5  -6  -1  689.83   57.87
   5  -6   1  601.12   58.50
   5  -6   1  663.95   52.20
   5   6   2 5785.63  255.76
   5   6   2 6293.95  258.59
  -5   6  -2 5615.34  262.22
  -5   6  -2 5911.58  292.92
  -5   6  -2 6346.12  335.91
  -5  -6  -2 6207.70  282.12
  -5  -6  -2 5211.88  251.79
  -5  -6  -2 6081.81  283.57
  -5  -6  -2 5926.81  273.53
   5  -6   2 5897.34  327.78
   5  -6   2 6217.32  293.18
   5   6   3  523.31   36.36
   5   6   3  580.65   61.01
  -5   6  -3  606.33   52.84
  -5   6  -3  496.01   45.71
  -5   6  -3  513.33   52.16
  -5  -6  -3  542.92   51.39
  -5  -6  -3  514.16   56.81
  -5  -6  -3  504.75   48.59
   5  -6   3  536.60   52.21
   5  -6   3  568.06   62.92
   5   6   4 2199.78  142.09
  -5   6  -4 2206.20  140.80
  -5   6  -4 1961.61  118.26
  -5   6  -4 2078.96  119.47
  -5  -6  -4 2157.27  124.36
  -5  -6  -4 2123.42  150.07
  -5  -6  -4 2110.72  132.48
   5  -6   4 2088.22  141.25
   5  -6   4 2197.83  137.84
   5   6   5 2054.34  135.58
  -5   6  -5 1980.46  125.15
  -5   6  -5 2015.60  135.58
  -5  -6  -5 1793.84  129.52
  -5  -6  -5 2074.42  138.32
  -5  -6  -5 2022.39  121.00
   5  -6   5 1916.27  127.52
   5   6   6  137.55   35.07
  -5   6  -6   79.52   37.22
  -5   6  -6   64.98   23.44
  -5   6  -6   26.98   27.74
  -5  -6  -6   72.20   27.58
  -5  -6  -6   94.63   29.30
  -5  -6  -6   79.92   27.55
   5  -6   6   75.33   31.56
   5  -6   6  102.44   27.59
   5   6   7 1347.21  107.73
   5   6   7 1425.09  126.29
  -5   6  -7 1387.32  134.51
  -5   6  -7 1655.06  135.75
  -5  -6  -7 1248.56  109.41
  -5  -6  -7 1397.36  119.41
   5  -6   7 1557.79  152.08
   5   6   8  125.41   37.33
   5   6   8  138.14   45.23
  -5   6  -8   72.56   48.51
  -5   6  -8  103.18   35.30
  -5  -6  -8   62.61   30.00
  -5  -6  -8   62.71   22.93
   5  -6   8   63.86   61.34
   5   7   045192.43 1475.56
   5   7   045113.48 1607.28
   5   7   044533.24 1733.94
  -5   7   045900.46 1734.20
  -5   7   046455.05 1564.14
  -5   7   043756.96 1741.82
  -5  -7   046094.30 1460.19
  -5  -7   046856.39 1742.05
  -5  -7   046144.61 1669.35
   5  -7   044146.54 1714.00
   5  -7   049173.54 1780.78
   5   7   1 3016.59  140.55
   5   7   1 3279.64  167.72
   5   7   1 3561.55  204.69
  -5   7  -1 3538.16  179.41
  -5   7  -1 4119.48  290.01
  -5   7  -1 3507.96  178.00
  -5  -7  -1 3430.23  159.80
  -5  -7  -1 3419.02  193.24
  -5  -7  -1 3338.94  177.03
   5  -7   1 3393.89  221.84
   5  -7   1 3245.65  171.27
   5   7   2   61.11   14.18
   5   7   2   94.49   25.66
  -5   7  -2   50.93   25.14
  -5   7  -2   51.79   16.66
  -5   7  -2   50.62   23.51
  -5  -7  -2   77.76   19.56
  -5  -7  -2   70.19   26.42
  -5  -7  -2   58.39   21.20
   5  -7   2   57.57   24.76
   5  -7   2   65.57   22.47
   5   7   3 1534.67   87.26
   5   7   3 1599.76  107.47
  -5   7  -3 1836.63  112.97
  -5   7  -3 1565.56  109.49
  -5   7  -3 1615.85  129.07
  -5  -7  -3 1648.23  106.95
  -5  -7  -3 1656.27  115.96
  -5  -7  -3 1690.88  111.81
   5  -7   3 1630.98  123.72
   5  -7   3 1713.19  109.35
   5   7   4 1282.56   91.95
  -5   7  -4 1251.81  105.33
  -5   7  -4 1204.83   82.85
  -5   7  -4 1181.31   92.81
  -5  -7  -4 1239.95   91.94
  -5  -7  -4 1234.73   82.71
  -5  -7  -4 1152.40   88.09
   5  -7   4 1198.56   92.32
   5  -7   4 1197.03   95.45
   5   7   5  450.36   49.94
  -5   7  -5  420.60   55.35
  -5   7  -5  483.39   52.05
  -5  -7  -5  550.42   64.22
  -5  -7  -5  569.00   51.80
  -5  -7  -5  521.73   52.80
   5  -7   5  578.79   71.12
   5  -7   5  497.64   52.96
   5   7   6   27.41   30.37
  -5   7  -6   21.61   31.24
  -5   7  -6   16.55   16.59
  -5   7  -6   35.61   33.01
  -5  -7  -6   59.93   30.95
  -5  -7  -6   23.57   29.14
  -5  -7  -6   22.74   21.62
   5  -7   6   75.74   41.54
   5  -7   6   33.03   20.77
   5   7   7 1277.00  138.91
   5   7   7 1653.19  164.09
  -5   7  -7 1659.75  160.11
  -5   7  -7 1668.41  148.45
  -5  -7  -7 1374.09  121.06
  -5  -7  -7 1370.74  106.94
   5  -7   7 1618.04  167.97
   5   7   8  280.13   51.04
   5   7   8  286.61   66.54
  -5   7  -8  312.43   57.35
  -5   7  -8  266.41   54.67
  -5  -7  -8  204.87   40.08
   5  -7   8  249.46   59.30
   5   8   0 2053.48  121.25
   5   8   0 2146.64  142.61
  -5   8   0 2142.72  123.29
  -5   8   0 1968.32  119.57
  -5   8   0 2061.34  129.69
  -5  -8   0 2014.24  118.21
  -5  -8   0 1947.44  124.81
   5  -8   0 1950.92  148.09
   5  -8   0 2166.37  113.88
   5   8   1  242.10   27.48
   5   8   1  244.09   32.25
  -5   8  -1  260.45   38.49
  -5   8  -1  251.03   29.15
  -5   8  -1  252.65   40.05
  -5  -8  -1  247.19   22.95
  -5  -8  -1  172.14   32.36
  -5  -8  -1  258.51   30.06
   5  -8   1  253.14   37.47
   5  -8   1  196.39   29.84
   5   8   2 7366.32  324.60
   5   8   2 7970.80  337.86
  -5   8  -2 7473.80  327.13
  -5   8  -2 7488.08  295.70
  -5   8  -2 7587.19  339.28
  -5  -8  -2 7470.57  338.97
  -5  -8  -2 7303.19  391.74
  -5  -8  -2 7454.10  341.25
   5  -8   2 7713.21  349.94
   5  -8   2 7742.89  351.15
   5   8   3  406.05   50.45
  -5   8  -3  316.65   40.39
  -5   8  -3  364.72   35.47
  -5   8  -3  364.64   45.64
  -5  -8  -3  415.18   41.12
  -5  -8  -3  362.47   57.77
  -5  -8  -3  440.93   45.20
   5  -8   3  300.42   35.75
   5  -8   3  461.25   47.64
   5   8   4 2371.39  161.55
  -5   8  -4 2275.66  154.99
  -5   8  -4 2279.47  133.86
  -5   8  -4 2518.98  156.96
  -5  -8  -4 2462.98  139.00
  -5  -8  -4 2487.67  165.68
  -5  -8  -4 2398.44  136.59
   5  -8   4 2390.35  154.60
   5  -8   4 2319.36  158.51
   5   8   5  887.44   79.08
  -5   8  -5  934.70   78.66
  -5   8  -5 1015.10   83.67
  -5   8  -5  913.68   86.12
  -5  -8  -5  872.76   67.69
  -5  -8  -5  923.18   90.90
  -5  -8  -5  936.71   75.58
   5  -8   5  935.65   78.79
   5  -8   5  948.73   77.61
   5   8   6  601.88   67.42
  -5   8  -6  487.43   74.40
  -5   8  -6  539.30   54.90
  -5   8  -6  627.57   83.58
  -5  -8  -6  564.66   59.92
  -5  -8  -6  638.33   79.94
  -5  -8  -6  537.86   57.97
   5  -8   6  480.63   71.01
   5   8   7  307.28   60.70
   5   8   7  301.98   54.83
  -5   8  -7  291.84   76.05
  -5   8  -7  320.30   52.03
  -5  -8  -7  361.65   49.53
   5  -8   7  413.41   67.67
   5   8   8  -24.05   34.16
   5   8   8   38.03   40.28
  -5   8  -8   14.71   27.62
  -5   8  -8    2.28   26.89
  -5  -8  -8   37.49   32.80
   5  -8   8  -35.66   42.57
   5   9   0 1566.97  116.00
   5   9   0 1835.46  131.08
  -5   9   0 1550.28  102.17
  -5   9   0 1778.49  121.76
  -5   9   0 1537.99  116.35
  -5  -9   0 1563.82  106.57
  -5  -9   0 1677.96   98.98
   5  -9   0 1669.41  113.62
   5  -9   0 1680.21  101.22
   5   9   1   22.80   16.59
   5   9   1   27.23   22.32
  -5   9  -1   32.42   21.91
  -5   9  -1   24.17   14.19
  -5   9  -1   30.32   26.11
  -5  -9  -1   30.63    9.61
  -5  -9  -1   61.42   23.24
  -5  -9  -1    9.04   20.20
   5  -9   1   11.85   19.85
   5  -9   1   52.07   25.07
   5   9   215002.65  572.01
   5   9   215362.90  651.38
  -5   9  -215513.02  650.14
  -5   9  -214928.93  586.34
  -5   9  -216104.29  687.39
  -5  -9  -215496.31  572.99
  -5  -9  -215073.32  566.88
  -5  -9  -214952.67  620.91
   5  -9   216002.21  640.09
   5  -9   215563.62  586.09
   5   9   3   47.41   21.99
  -5   9  -3   34.29   32.26
  -5   9  -3    7.57   11.89
  -5   9  -3   13.37   22.86
  -5  -9  -3   28.41   17.99
  -5  -9  -3   -4.44   29.14
  -5  -9  -3   35.38   18.51
   5  -9   3  -19.17   20.49
   5  -9   3  -16.35   24.31
   5   9   4 8695.13  506.53
  -5   9  -4 9394.04  462.53
  -5   9  -4 9209.17  490.00
  -5  -9  -4 8907.88  427.25
  -5  -9  -4 8898.80  411.69
  -5  -9  -4 8922.59  412.10
   5  -9   4 9180.73  460.28
   5  -9   4 9343.50  473.56
   5  -9   4 8705.91  370.16
   5   9   5  489.36   62.01
  -5   9  -5  522.10   58.29
  -5   9  -5  581.32   57.17
  -5   9  -5  512.82   68.53
  -5  -9  -5  543.71   56.93
  -5  -9  -5  463.31   54.07
  -5  -9  -5  481.94   52.34
   5  -9   5  462.42   69.15
   5   9   6  107.51   32.67
  -5   9  -6   54.83   28.89
  -5   9  -6   76.67   28.80
  -5   9  -6   76.99   36.02
  -5  -9  -6   66.36   29.71
  -5  -9  -6  105.95   39.97
  -5  -9  -6   62.55   25.76
   5  -9   6  161.76   37.86
   5   9   7  221.48   60.60
   5   9   7  295.26   53.11
  -5   9  -7  303.72   66.04
  -5   9  -7  329.54   67.47
  -5  -9  -7  302.75   43.68
   5  -9   7  325.71   54.35
   5   9   8 1812.18  157.97
  -5  -9  -8 1946.86  169.54
   5  10   0  921.05   72.39
   5  10   0  855.67   90.92
  -5  10   0  774.39   56.13
  -5  10   0  659.10   55.67
  -5  10   0  796.46   64.58
  -5 -10   0  816.18   76.16
  -5 -10   0  806.81   61.24
   5 -10   0  771.63   70.03
   5 -10   0  920.17   70.72
   5  10   1  193.87   27.89
   5  10   1  222.71   37.19
  -5  10  -1  186.55   39.47
  -5  10  -1  204.62   24.25
  -5  10  -1  168.08   32.36
  -5 -10  -1  187.35   17.21
  -5 -10  -1  218.07   38.40
  -5 -10  -1  241.29   30.27
   5 -10   1  212.03   39.62
   5 -10   1  200.57   27.83
   5  10   2 2328.69  123.35
   5  10   2 2566.08  164.28
  -5  10  -2 2532.26  174.34
  -5  10  -2 2387.62  120.14
  -5  10  -2 2577.95  175.42
  -5 -10  -2 2214.46  117.62
  -5 -10  -2 2285.89  152.81
  -5 -10  -2 2403.99  125.88
   5 -10   2 2449.72  167.36
   5 -10   2 2658.83  162.62
   5  10   3  785.47   72.34
  -5  10  -3  811.04   70.21
  -5  10  -3  836.15   84.51
  -5 -10  -3  764.98   63.15
  -5 -10  -3  680.67   60.82
  -5 -10  -3  740.31   47.51
   5 -10   3  752.80   68.97
   5 -10   3  729.28   67.28
   5  10   4 3434.69  233.80
  -5  10  -4 3298.42  193.74
  -5  10  -4 3341.86  200.55
  -5 -10  -4 3249.08  171.09
  -5 -10  -4 3252.17  194.84
  -5 -10  -4 3263.13  163.64
   5 -10   4 3242.73  198.89
   5 -10   4 3235.40  190.41
   5  10   5   66.87   33.45
  -5  10  -5   34.72   25.93
  -5  10  -5   43.72   26.32
  -5  10  -5   50.02   29.67
  -5 -10  -5   59.33   25.54
  -5 -10  -5   69.67   32.39
  -5 -10  -5   36.27   22.35
   5 -10   5  135.67   39.08
   5  10   6 1003.82   90.31
  -5  10  -6 1057.63  110.74
  -5  10  -6  966.51   90.18
  -5  10  -6 1091.73  121.40
  -5 -10  -6  772.80   79.15
  -5 -10  -6  989.28  102.10
   5 -10   6 1018.60  102.85
   5  10   7  589.99   71.53
   5  10   7  540.72   82.27
  -5  10  -7  696.50   85.66
  -5  10  -7  594.79   83.04
  -5 -10  -7  557.69   69.53
   5 -10   7  543.78   70.78
   5  11   0 4692.06  242.12
   5  11   0 4691.37  264.16
  -5  11   0 4869.45  249.20
  -5  11   0 4967.71  247.20
  -5  11   0 4691.75  272.32
  -5 -11   0 4685.56  249.17
  -5 -11   0 4538.50  242.70
   5 -11   0 4494.35  255.97
   5 -11   0 4696.39  248.39
   5  11   1  221.65   32.90
   5  11   1  249.25   42.76
  -5  11  -1  218.10   41.96
  -5  11  -1  230.76   32.76
  -5 -11  -1  240.50   41.82
  -5 -11  -1  214.58   28.30
   5 -11   1  206.60   34.70
   5 -11   1  231.02   35.07
   5  11   2 3337.36  233.24
   5  11   2 3431.79  216.43
  -5  11  -2 3565.95  206.31
  -5  11  -2 3278.05  230.95
  -5 -11  -2 3264.45  161.39
  -5 -11  -2 3318.18  197.16
  -5 -11  -2 3202.73  167.50
   5 -11   2 3557.07  224.11
   5 -11   2 3347.98  200.86
   5  11   3  303.02   48.68
  -5  11  -3  349.89   55.68
  -5  11  -3  409.64   51.79
  -5 -11  -3  345.89   37.72
  -5 -11  -3  321.35   44.77
  -5 -11  -3  379.69   37.57
   5 -11   3  366.18   47.91
   5 -11   3  293.68   43.56
   5  11   4 4577.84  262.18
  -5  11  -4 5004.13  287.79
  -5  11  -4 4942.27  263.49
  -5 -11  -4 4538.81  246.92
  -5 -11  -4 4618.60  264.91
   5 -11   4 4782.60  273.13
   5 -11   4 4863.36  277.62
   5  11   5  561.34   78.58
  -5  11  -5  505.44   68.79
  -5  11  -5  583.64   57.16
  -5  11  -5  602.74   72.46
  -5 -11  -5  543.45   59.19
  -5 -11  -5  599.45   78.15
   5 -11   5  517.68   63.38
   5  11   6   -9.96   32.69
  -5  11  -6    0.72   26.75
  -5  11  -6   -7.93   24.79
  -5  11  -6   37.27   33.75
  -5 -11  -6  -10.70   21.88
   5 -11   6   14.27   26.34
   5  11   7  280.66   57.05
   5  11   7  356.89   64.33
  -5  11  -7  208.20   57.76
  -5  11  -7  329.03   55.02
  -5 -11  -7  235.61   47.02
   5 -11   7  323.32   59.38
   5  12   0  531.12   50.67
   5  12   0  398.95   54.22
  -5  12   0  467.31   59.67
  -5  12   0  426.99   39.30
  -5 -12   0  444.08   49.79
  -5 -12   0  431.69   42.30
   5 -12   0  444.72   47.24
   5 -12   0  372.75   45.91
   5  12   1 1847.37  126.71
   5  12   1 2023.49  145.66
  -5  12  -1 1909.61  150.78
  -5  12  -1 2031.18  132.74
  -5 -12  -1 1837.49  120.19
  -5 -12  -1 2048.73  118.31
   5 -12   1 1950.46  127.79
   5 -12   1 1922.79  116.07
   5  12   2 1910.22  130.83
   5  12   2 2029.59  164.20
  -5  12  -2 1909.85  130.01
  -5  12  -2 1939.22  134.98
  -5 -12  -2 1814.08  132.60
  -5 -12  -2 1914.55  109.30
   5 -12   2 2036.70  152.89
   5 -12   2 2019.96  135.91
   5  12   3   76.59   32.40
  -5  12  -3   92.69   29.76
  -5  12  -3  134.97   31.01
  -5 -12  -3   73.24   18.07
  -5 -12  -3   62.92   29.51
   5 -12   3   35.90   34.02
   5 -12   3   63.85   36.73
   5  12   4 1489.45  112.42
  -5  12  -4 1494.94  131.45
  -5  12  -4 1391.35  115.46
  -5 -12  -4 1420.15  107.02
  -5 -12  -4 1498.47  120.50
   5 -12   4 1447.50  104.21
   5 -12   4 1457.75  112.66
   5  12   5  684.18   68.79
  -5  12  -5  547.58   63.01
  -5  12  -5  716.62   72.01
  -5  12  -5  657.69   72.43
  -5 -12  -5  548.04   61.44
  -5 -12  -5  560.46   69.52
   5 -12   5  627.64   78.57
   5  12   6 1729.49  168.90
   5  12   6 2012.62  175.71
  -5  12  -6 1658.36  160.85
  -5  12  -6 1653.62  122.93
  -5  12  -6 1748.91  166.03
  -5 -12  -6 1807.93  124.28
   5 -12   6 1756.65  139.90
   5  12   7  252.69   57.24
   5  12   7  216.76   57.30
  -5  12  -7  397.29   71.67
  -5  12  -7  241.36   49.83
  -5 -12  -7  293.75   43.55
   5 -12   7  343.88   81.58
   5  13   0 2872.39  181.77
   5  13   0 2975.01  190.08
  -5  13   0 3022.40  176.40
  -5  13   0 2892.35  185.79
  -5 -13   0 2785.80  155.14
  -5 -13   0 2876.28  157.83
   5 -13   0 2920.03  212.93
   5 -13   0 3195.74  201.85
   5  13   1  628.03   62.20
   5  13   1  713.43   67.80
  -5  13  -1  614.69   64.64
  -5  13  -1  717.91   77.40
  -5 -13  -1  610.54   62.74
   5 -13   1  730.99   70.74
   5 -13   1  675.51   62.22
   5  13   2 1658.11  137.28
  -5  13  -2 1551.16  124.02
  -5  13  -2 1623.21  114.68
  -5 -13  -2 1548.30  120.76
   5 -13   2 1583.65  123.68
   5 -13   2 1583.06  116.10
   5  13   3 3633.16  240.91
  -5  13  -3 3850.64  275.55
  -5  13  -3 3865.66  257.88
  -5 -13  -3 3817.75  219.14
   5 -13   3 4058.79  230.10
   5 -13   3 3665.68  219.32
   5  13   4 5058.85  308.53
  -5  13  -4 5066.31  321.19
  -5  13  -4 4692.44  304.51
  -5 -13  -4 4688.15  307.27
   5 -13   4 4784.14  326.45
   5 -13   4 5203.82  279.53
   5  13   5 1382.43  138.14
  -5  13  -5 1585.49  127.78
  -5  13  -5 1444.67  125.59
  -5  13  -5 1670.96  152.09
  -5 -13  -5 1421.80  119.73
   5 -13   5 1508.54  148.59
   5  13   6  102.49   37.64
   5  13   6   54.63   38.81
  -5  13  -6   66.33   36.09
  -5  13  -6   36.76   28.23
  -5  13  -6    6.72   33.97
  -5 -13  -6   85.30   33.81
   5 -13   6   95.15   49.07
   5  14   0   86.69   26.02
   5  14   0   -1.96   32.26
  -5  14   0   32.23   29.35
  -5  14   0   14.23   23.91
  -5 -14   0   31.77   28.93
   5 -14   0   48.50   32.20
   5 -14   0   27.35   20.90
   5  14   1 1967.57  122.41
   5  14   1 2146.01  159.75
  -5  14  -1 1998.45  137.12
  -5  14  -1 2013.79  150.90
  -5 -14  -1 2055.11  136.18
   5 -14   1 2184.25  169.22
   5 -14   1 2236.78  149.93
   5  14   2 1709.74  127.19
  -5  14  -2 1741.51  165.68
  -5  14  -2 1528.62  126.70
  -5 -14  -2 1597.43  116.12
   5 -14   2 1696.68  147.91
   5 -14   2 1593.61  121.46
   5  14   3  -19.08   33.59
  -5  14  -3   15.99   29.97
  -5  14  -3    1.92   25.48
  -5 -14  -3   12.17   32.49
   5 -14   3  -16.93   24.09
   5 -14   3   33.25   26.05
   5  14   4  -35.50   30.50
  -5  14  -4  -49.89   33.34
  -5  14  -4    2.28   28.07
  -5 -14  -4   36.55   31.28
   5 -14   4   56.01   27.68
   5 -14   4   56.78   34.17
   5  14   5 1046.03   95.31
  -5  14  -5 1204.94  116.44
  -5  14  -5 1075.75   97.59
  -5  14  -5 1040.76   99.50
  -5 -14  -5  944.97  110.12
   5 -14   5 1268.73  124.64
   5  14   6  389.79   51.93
   5  14   6  436.62   81.80
  -5  14  -6  380.51   66.71
  -5  14  -6  369.72   59.99
  -5  14  -6  380.92   68.48
   5 -14   6  451.97   69.13
   5  15   0 2568.15  181.92
   5  15   0 2388.83  161.91
  -5  15   0 2576.30  187.89
  -5  15   0 2477.34  188.04
  -5 -15   0 2500.39  162.86
   5 -15   0 2606.66  169.26
   5 -15   0 2509.78  160.17
   5  15   1    9.74   22.96
   5  15   1   21.33   32.14
  -5  15  -1   39.02   41.06
  -5  15  -1   50.33   29.38
  -5 -15  -1   62.73   27.28
   5 -15   1   26.75   32.39
   5 -15   1    8.16   23.17
   5  15   2  -27.70   28.78
  -5  15  -2  -10.55   28.74
  -5  15  -2   11.19   28.75
  -5 -15  -2   -6.90   28.67
   5 -15   2   10.52   28.77
   5 -15   2  -11.68   28.76
   5  15   3  118.52   37.69
  -5  15  -3  183.17   45.48
  -5  15  -3  210.55   46.46
  -5 -15  -3  189.31   45.37
   5 -15   3  133.90   44.94
   5 -15   3  233.72   42.77
   5  15   4 1293.81  148.80
  -5  15  -4 1214.26  123.19
  -5  15  -4 1325.15  134.15
  -5 -15  -4 1194.40  126.92
   5 -15   4 1374.13  108.77
   5 -15   4 1334.72  117.08
   5  15   5    1.80   25.07
  -5  15  -5  -14.32   25.08
  -5  15  -5   -3.84   25.09
  -5  15  -5   13.28   25.08
  -5 -15  -5  -21.19   25.07
   5 -15   5    8.56   25.09
   5  15   6   -0.52   26.56
  -5  15  -6   19.10   26.67
  -5  15  -6   -5.72   23.02
   5  16   0   40.72   29.66
   5  16   0   17.08   29.92
  -5  16   0   48.63   27.33
  -5  16   0   43.73   25.04
  -5 -16   0   28.69   29.01
   5 -16   0   79.08   34.19
   5  16   1 1253.08  107.76
   5  16   1 1165.20   93.29
  -5  16  -1 1564.36  119.29
  -5  16  -1 1462.70  142.14
  -5 -16  -1 1261.43   91.19
   5 -16   1 1308.02  118.00
   5 -16   1 1167.46  106.37
   5  16   2  694.55   71.33
  -5  16  -2  611.07   80.98
  -5  16  -2  639.17   83.41
  -5 -16  -2  624.19   59.95
   5 -16   2  621.44   86.14
   5 -16   2  617.96   64.30
   5  16   3  289.99   59.64
  -5  16  -3  299.67   63.39
  -5  16  -3  348.64   56.60
  -5 -16  -3  286.25   47.73
   5 -16   3  294.13   52.63
   5 -16   3  304.58   50.93
   5  16   4  173.12   44.32
  -5  16  -4  200.58   46.02
  -5  16  -4  209.97   49.30
  -5  16  -4  198.99   35.55
  -5 -16  -4  179.45   50.37
   5 -16   4  245.47   49.42
   5  16   5  524.32   79.78
  -5  16  -5  458.72   70.57
  -5  16  -5  460.28   66.32
  -5  16  -5  496.84   60.67
   5 -16   5  477.52   71.48
   5  17   0  753.93   72.43
   5  17   0  809.30   98.38
  -5  17   0  770.78   89.48
  -5  17   0  804.42   91.64
  -5 -17   0 1012.55   92.53
   5 -17   0  884.88   87.51
   5  17   1   52.57   44.00
  -5  17  -1   32.20   43.95
  -5  17  -1   12.30   19.29
  -5 -17  -1    5.03   26.41
   5 -17   1  -20.98   35.33
   5 -17   1    3.68   22.17
   5  17   2  195.13   48.42
  -5  17  -2  169.10   44.67
  -5  17  -2  151.69   38.95
  -5 -17  -2  182.03   39.42
   5 -17   2  185.32   45.84
   5 -17   2  214.74   46.21
   5  17   3  555.26   75.63
  -5  17  -3  546.15   73.66
  -5  17  -3  543.83   69.87
  -5 -17  -3  644.53   72.69
   5 -17   3  665.60   93.01
   5 -17   3  569.26   73.01
   5  17   4  214.64   50.65
  -5  17  -4  195.59   45.66
  -5  17  -4  322.55   52.43
  -5  17  -4  241.02   55.23
  -5 -17  -4  248.03   54.00
   5 -17   4  213.59   50.33
   5  18   0   82.31   31.06
   5  18   0  110.99   43.65
  -5  18   0  147.13   42.36
  -5 -18   0   91.98   35.37
   5 -18   0   32.42   36.29
   5  18   1 2031.72  167.98
  -5  18  -1 2012.05  166.22
  -5 -18  -1 1826.82  157.89
   5 -18   1 2015.96  170.23
   5  18   2  316.32   57.16
  -5  18  -2  284.03   59.96
  -5  18  -2  177.47   45.06
  -5 -18  -2  228.83   43.10
   5 -18   2  199.61   48.95
   5 -18   2  166.34   38.05
   5  18   3 1441.41  137.52
  -5  18  -3 1473.14  148.31
  -5  18  -3 1224.59  127.27
  -5 -18  -3 1376.69  112.80
   5 -18   3 1434.66  160.65
   5 -18   3 1596.90  140.75
   5  19   0 1404.85  129.49
   5  19   0 1276.37  134.79
  -5  19   0 1365.32  139.87
  -5 -19   0 1230.52  125.91
   5 -19   0 1200.46  139.06
   5  19   1 1138.21  127.04
  -5  19  -1 1405.29  145.75
  -5 -19  -1 1272.19  106.26
   5 -19   1 1379.83  125.47
   5  19   2  804.37  104.00
  -5  19  -2 1080.75  115.52
  -5 -19  -2  849.34   88.41
   5 -19   2  913.76  115.77
  -5 -20   0   31.57   31.65
   6   0   023021.29  948.24
   6   0   023860.55  934.88
  -6   0   023548.40  906.79
  -6   0   023216.59  960.75
  -6   0   024061.15  923.83
   6   0   1    5.32   18.75
   6   0   1   18.87   27.38
  -6   0  -1   22.76   18.36
  -6   0  -1  -19.78   15.77
  -6   0  -1   29.59   31.03
   6   0   211391.02  549.39
   6   0   211697.39  564.81
  -6   0  -211601.25  460.25
  -6   0  -211605.09  473.03
  -6   0  -210983.83  551.38
   6   0   3    0.24   13.29
   6   0   3   10.63   13.27
  -6   0  -3  -17.49   13.29
  -6   0  -3  -23.82   13.29
  -6   0  -3   23.25   13.28
   6   0   4 2175.17  151.03
  -6   0  -4 1981.87  127.94
  -6   0  -4 2132.78  154.40
  -6   0  -4 2190.07  140.32
   6   0   5   -1.72   31.35
  -6   0  -5    9.33   27.91
  -6   0  -5   23.07   29.72
  -6   0  -5    0.92   22.42
   6   0   6 2601.81  195.02
  -6   0  -6 2161.75  179.88
  -6   0  -6 2333.94  154.09
  -6   0  -6 2502.42  177.78
   6   0   7  -12.00   39.45
   6   0   7  -18.09   39.55
  -6   0  -7  -14.22   39.49
  -6   0  -7   17.91   39.50
   6   0   8 1836.71  158.62
   6   0   8 1587.78  130.17
  -6   0  -8 1636.43  135.02
  -6   0  -8 1721.52  124.21
   6   1   0 3876.61  233.44
   6   1   0 4009.87  192.74
  -6   1   0 3728.16  187.34
  -6   1   0 3895.83  184.57
  -6   1   0 3745.11  235.77
  -6  -1   0 4091.10  201.08
  -6  -1   0 4013.67  211.25
   6  -1   0 4091.89  234.61
   6  -1   0 4069.75  206.03
   6   1   1  -10.07   15.15
   6   1   1   -1.40   15.15
  -6   1  -1  -19.11   15.15
  -6   1  -1   18.62   15.18
  -6   1  -1  -14.99   15.15
  -6  -1  -1   17.81   15.17
  -6  -1  -1   32.46   15.17
  -6  -1  -1   -6.00   15.16
   6  -1   1   -8.08   15.16
   6  -1   1   -2.24   15.15
   6   1   2 1871.36  117.09
   6   1   2 2034.54  123.05
  -6   1  -2 1866.99  100.89
  -6   1  -2 1866.19  126.57
  -6   1  -2 1987.43  126.92
  -6  -1  -2 1973.49  108.56
  -6  -1  -2 1884.78  129.73
  -6  -1  -2 2034.52  157.34
   6  -1   2 1904.16  118.42
   6  -1   2 1965.07  123.85
   6   1   3  308.03   37.76
   6   1   3  265.31   42.22
  -6   1  -3  269.20   34.05
  -6   1  -3  265.02   43.47
  -6   1  -3  307.64   44.38
  -6  -1  -3  245.26   30.65
  -6  -1  -3  227.30   35.86
  -6  -1  -3  247.84   33.93
   6  -1   3  213.62   33.60
   6  -1   3  260.83   40.42
   6   1   4  768.66   96.75
  -6   1  -4  729.54   65.91
  -6   1  -4  773.07   68.19
  -6   1  -4  788.29   81.20
  -6  -1  -4  797.63   64.56
  -6  -1  -4  703.83   63.27
  -6  -1  -4  800.81   70.96
   6  -1   4  732.98   60.29
   6   1   5  131.50   42.09
  -6   1  -5   91.18   29.29
  -6   1  -5   81.92   27.32
  -6   1  -5   70.43   32.71
  -6  -1  -5   81.53   30.09
  -6  -1  -5   60.33   35.81
  -6  -1  -5   93.83   24.31
   6  -1   5  105.45   32.14
   6   1   6  368.55   68.24
  -6   1  -6  441.58   59.07
  -6   1  -6  368.19   54.89
  -6   1  -6  299.11   55.70
  -6  -1  -6  287.39   51.94
  -6  -1  -6  336.19   43.38
  -6  -1  -6  331.49   47.98
   6  -1   6  352.50   63.89
   6   1   7   34.27   33.55
   6   1   7  -27.23   33.61
  -6   1  -7    2.12   33.54
  -6   1  -7   -1.32   33.57
  -6  -1  -7    6.49   33.59
  -6  -1  -7  -33.58   33.58
   6  -1   7   29.31   33.51
   6  -1   7    6.30   33.62
   6   1   8 2770.54  232.53
   6   1   8 2860.52  195.14
  -6   1  -8 3045.29  231.79
  -6   1  -8 2872.84  219.72
  -6  -1  -8 2970.58  225.42
  -6  -1  -8 2690.30  205.62
   6  -1   8 3092.30  252.04
   6  -1   8 2754.61  197.05
   6   2   0 8656.58  411.32
   6   2   0 9029.65  412.53
  -6   2   0 8610.15  403.88
  -6   2   0 9097.30  416.99
  -6   2   0 8984.15  427.68
  -6  -2   0 8593.91  380.46
  -6  -2   0 8467.54  361.07
  -6  -2   0 8989.64  490.57
   6  -2   0 8669.61  379.72
   6  -2   0 8845.89  361.42
   6   2   1 1412.32   91.34
   6   2   1 1478.93  117.12
  -6   2  -1 1456.08   83.50
  -6   2  -1 1426.29  112.42
  -6   2  -1 1455.43  115.20
  -6  -2  -1 1400.27   94.73
  -6  -2  -1 1323.03  100.37
  -6  -2  -1 1429.52  115.72
   6  -2   1 1421.23   98.30
   6  -2   1 1211.55  107.90
   6   2   2  803.64   62.43
   6   2   2  897.08   73.53
  -6   2  -2  896.96   58.01
  -6   2  -2  788.34   61.91
  -6   2  -2  789.51   69.27
  -6  -2  -2  903.08   70.79
  -6  -2  -2  806.51   74.59
  -6  -2  -2  812.95   69.03
   6  -2   2  896.89   62.64
   6  -2   2  872.33   88.56
   6   2   3  134.56   20.06
   6   2   3  152.83   30.06
  -6   2  -3  179.83   31.43
  -6   2  -3  188.85   30.98
  -6   2  -3  173.68   32.46
  -6  -2  -3  152.51   29.30
  -6  -2  -3  169.17   37.58
  -6  -2  -3  141.68   25.97
   6  -2   3  147.23   25.51
   6  -2   3  175.81   44.16
   6   2   4  315.23   52.59
  -6   2  -4  326.22   44.51
  -6   2  -4  315.23   46.24
  -6   2  -4  378.96   52.37
  -6  -2  -4  364.77   46.03
  -6  -2  -4  373.93   50.73
  -6  -2  -4  378.90   45.33
   6  -2   4  360.94   43.20
   6  -2   4  358.38   42.88
   6   2   5   12.00   29.17
  -6   2  -5   48.27   29.31
  -6   2  -5   49.20   28.24
  -6   2  -5   69.94   34.59
  -6  -2  -5   54.25   28.71
  -6  -2  -5   33.61   25.04
  -6  -2  -5   14.26   29.52
   6  -2   5    6.55   33.76
   6   2   6 4662.81  294.51
  -6   2  -6 4563.44  302.26
  -6   2  -6 4686.17  273.18
  -6   2  -6 4957.40  266.65
  -6  -2  -6 4208.36  227.11
  -6  -2  -6 4718.39  249.75
  -6  -2  -6 4482.80  264.43
   6  -2   6 4411.13  269.97
   6   2   7   -2.28   28.47
   6   2   7  -28.80   28.64
  -6   2  -7    7.16   31.32
  -6   2  -7   28.24   29.16
  -6  -2  -7   10.03   33.37
  -6  -2  -7    5.89   27.16
   6  -2   7   10.31   30.62
   6  -2   7    6.46   25.73
   6   2   8  564.45   99.74
   6   2   8  662.09   92.57
  -6   2  -8  836.73   78.78
  -6   2  -8  763.64   83.27
  -6  -2  -8  696.04   91.38
  -6  -2  -8  674.47   74.62
   6  -2   8  681.62  110.74
   6  -2   8  622.11   73.24
   6   3   0 1281.19   78.13
   6   3   0 1395.53   94.41
  -6   3   0 1238.91   75.86
  -6   3   0 1347.95   84.03
  -6   3   0 1296.10   91.01
  -6  -3   0 1318.99   77.19
  -6  -3   0 1376.22  107.11
  -6  -3   0 1376.00   98.76
   6  -3   0 1359.10   85.47
   6  -3   0 1344.16   93.37
   6   3   1    0.84   19.89
   6   3   1  -36.90   27.52
  -6   3  -1    7.79   14.42
  -6   3  -1   -6.69   20.99
  -6   3  -1  -10.23   21.31
  -6  -3  -1   45.01   17.76
  -6  -3  -1   27.44   19.88
  -6  -3  -1  -10.84   26.05
   6  -3   1   15.12   18.52
   6  -3   1   36.76   29.20
   6   3   2  954.09   70.34
   6   3   2  956.24   84.72
  -6   3  -2  875.70   70.16
  -6   3  -2  986.97   86.82
  -6   3  -2 1026.32   89.84
  -6  -3  -2 1028.68   72.85
  -6  -3  -2  930.62   76.45
  -6  -3  -2  946.37   72.67
   6  -3   2  962.63   80.83
   6  -3   2 1048.00   78.30
   6   3   3 1597.74  103.15
   6   3   3 1577.97  116.77
  -6   3  -3 1803.78  121.80
  -6   3  -3 1743.56  111.82
  -6   3  -3 1957.43  116.46
  -6  -3  -3 1705.46  107.32
  -6  -3  -3 1855.76  109.91
  -6  -3  -3 1665.55  103.89
   6  -3   3 1591.74  112.06
   6  -3   3 1542.58  111.28
   6   3   4   43.26   34.62
  -6   3  -4    4.12   25.46
  -6   3  -4    5.16   23.30
  -6   3  -4   -3.68   23.50
  -6  -3  -4   68.89   29.01
  -6  -3  -4   34.79   25.47
  -6  -3  -4   23.34   27.47
   6  -3   4   -2.80   15.49
   6  -3   4   17.53   27.84
   6   3   5  107.91   40.09
  -6   3  -5   83.42   30.42
  -6   3  -5  138.96   30.21
  -6   3  -5  135.63   40.83
  -6  -3  -5  175.26   37.97
  -6  -3  -5  119.11   32.45
  -6  -3  -5  202.56   37.77
   6  -3   5   91.85   37.18
   6   3   6   79.44   39.64
  -6   3  -6   36.85   31.78
  -6   3  -6   56.12   27.04
  -6   3  -6   36.95   31.18
  -6  -3  -6   -4.17   28.46
  -6  -3  -6   28.02   38.05
  -6  -3  -6    4.41   22.95
   6  -3   6   50.20   31.91
   6   3   7  197.28   57.16
   6   3   7  182.51   48.18
  -6   3  -7  342.62   62.80
  -6   3  -7  212.64   41.25
  -6  -3  -7  263.44   49.58
  -6  -3  -7  215.27   44.43
   6  -3   7  311.61   53.38
   6  -3   7  266.20   47.49
   6   3   8 1807.97  161.53
   6   3   8 2034.44  180.43
  -6   3  -8 1806.00  181.59
  -6   3  -8 1959.81  152.46
  -6  -3  -8 2100.20  166.90
  -6  -3  -8 1756.58  145.97
   6   4   0 4696.08  224.50
   6   4   0 4941.11  252.66
  -6   4   0 4758.72  243.22
  -6   4   0 4810.83  254.22
  -6   4   0 4827.38  244.23
  -6  -4   0 4735.05  242.33
  -6  -4   0 4659.43  236.19
  -6  -4   0 4456.41  247.38
   6  -4   0 4696.98  229.21
   6  -4   0 4709.72  271.34
   6   4   1 3355.34  175.97
   6   4   1 3602.84  216.23
  -6   4  -1 3447.17  177.24
  -6   4  -1 3480.21  175.42
  -6   4  -1 3286.79  188.51
  -6  -4  -1 3444.67  172.07
  -6  -4  -1 3165.87  211.69
  -6  -4  -1 3344.29  178.66
   6  -4   1 3340.83  170.16
   6  -4   1 3428.80  199.30
   6   4   2 1598.81  111.71
   6   4   2 1622.63  105.97
  -6   4  -2 1587.24   94.78
  -6   4  -2 1520.61   99.12
  -6   4  -2 1690.78  129.96
  -6  -4  -2 1673.92  110.67
  -6  -4  -2 1698.31  103.16
  -6  -4  -2 1578.02   99.43
   6  -4   2 1662.54  153.43
   6  -4   2 1567.53   82.24
   6   4   3   87.69   34.50
  -6   4  -3   52.48   21.93
  -6   4  -3   53.00   24.66
  -6   4  -3    9.81   34.43
  -6  -4  -3   21.08   23.53
  -6  -4  -3   28.53   28.85
  -6  -4  -3   30.01   23.65
   6  -4   3   27.36   19.83
   6  -4   3   28.13   30.92
   6   4   4   22.18   31.05
  -6   4  -4   -2.36   31.04
  -6   4  -4  -11.09   31.11
  -6   4  -4   32.51   31.11
  -6  -4  -4  -33.65   31.20
  -6  -4  -4  -36.92   31.11
  -6  -4  -4  -24.86   31.11
   6  -4   4    3.72   31.10
   6  -4   4    8.59   31.03
   6   4   5 1558.10  147.36
  -6   4  -5 1625.56  140.71
  -6   4  -5 1606.16  123.28
  -6   4  -5 1483.82  137.68
  -6  -4  -5 1764.24  158.06
  -6  -4  -5 1684.83  140.94
  -6  -4  -5 1553.21  119.83
   6  -4   5 1532.23  127.44
   6   4   6 2744.89  190.13
  -6   4  -6 2674.96  175.68
  -6   4  -6 2828.27  189.50
  -6  -4  -6 2736.05  188.74
  -6  -4  -6 2657.32  162.97
  -6  -4  -6 2561.28  165.56
   6  -4   6 2846.51  205.39
   6  -4   6 2784.65  187.65
   6   4   7 1131.78  121.68
   6   4   7 1259.50  127.35
  -6   4  -7 1247.77  125.73
  -6   4  -7 1238.59  131.75
  -6  -4  -7 1157.98  110.53
  -6  -4  -7  978.16  101.21
   6  -4   7 1295.53  121.61
   6  -4   7 1071.16  111.57
   6   4   8  592.26   95.05
   6   4   8  656.56   80.19
  -6  -4  -8  623.37   86.38
  -6  -4  -8  460.97   60.23
   6   5   0 1013.48   78.93
   6   5   0  898.40   83.56
  -6   5   0  972.07   79.27
  -6   5   0  948.39   80.12
  -6   5   0 1023.21   80.02
  -6  -5   0  924.72   63.67
  -6  -5   0  866.39   76.41
  -6  -5   0  864.24   68.77
   6  -5   0  967.20   80.53
   6  -5   0  967.60   73.78
   6   5   1  625.51   53.64
   6   5   1  720.27   55.29
  -6   5  -1  686.00   57.62
  -6   5  -1  648.75   66.00
  -6   5  -1  788.21   77.01
  -6  -5  -1  760.92   61.83
  -6  -5  -1  643.92   66.96
  -6  -5  -1  795.51   62.76
   6  -5   1  775.91   63.99
   6  -5   1  680.12   65.69
   6   5   2  277.99   27.14
   6   5   2  238.86   40.62
  -6   5  -2  285.69   40.75
  -6   5  -2  272.42   36.80
  -6   5  -2  248.77   43.90
  -6  -5  -2  284.58   30.10
  -6  -5  -2  269.52   44.77
  -6  -5  -2  237.81   36.18
   6  -5   2  287.38   42.98
   6  -5   2  229.05   29.83
   6   5   3 2634.52  204.37
  -6   5  -3 2348.10  141.94
  -6   5  -3 2297.00  136.98
  -6   5  -3 2557.03  183.13
  -6  -5  -3 2327.75  150.54
  -6  -5  -3 2465.17  165.04
  -6  -5  -3 2280.95  129.65
   6  -5   3 2287.84  148.47
   6  -5   3 2509.37  153.80
   6   5   4 1082.76   95.61
  -6   5  -4  975.86   85.52
  -6   5  -4  905.20   78.88
  -6   5  -4 1185.77   95.59
  -6  -5  -4 1023.99   89.46
  -6  -5  -4 1179.35  118.80
  -6  -5  -4 1068.04   83.64
   6  -5   4  940.82   79.59
   6  -5   4  940.66   85.53
   6   5   5  960.51  104.16
  -6   5  -5 1064.73   87.26
  -6   5  -5  836.82   81.37
  -6   5  -5  949.82   85.07
  -6  -5  -5 1018.23  116.51
  -6  -5  -5  933.90   86.64
  -6  -5  -5 1025.25   83.28
   6  -5   5 1024.56   92.44
   6   5   6  218.07   44.84
  -6   5  -6  291.56   50.45
  -6   5  -6  317.87   51.79
  -6  -5  -6  358.65   49.44
  -6  -5  -6  256.44   55.50
  -6  -5  -6  229.94   44.11
   6  -5   6  243.15   53.48
   6  -5   6  263.69   46.69
   6   5   7   -7.85   28.52
   6   5   7   20.50   32.10
  -6   5  -7   35.71   38.31
  -6   5  -7   -8.09   40.24
  -6  -5  -7    8.16   27.93
  -6  -5  -7  -10.25   23.06
   6  -5   7   -9.30   36.17
   6   5   8  355.55   63.68
   6   5   8  337.05   59.16
  -6  -5  -8  280.03   54.03
  -6  -5  -8  363.53   49.43
   6   6   0  177.01   28.37
   6   6   0  230.16   46.47
  -6   6   0  211.27   33.86
  -6   6   0  248.95   32.00
  -6   6   0  209.94   37.17
  -6  -6   0  249.89   21.93
  -6  -6   0  197.84   40.11
  -6  -6   0  227.43   32.72
   6  -6   0  262.00   42.65
   6  -6   0  199.38   32.46
   6   6   1  500.67   45.10
   6   6   1  370.37   42.66
  -6   6  -1  508.59   50.68
  -6   6  -1  495.25   46.65
  -6   6  -1  445.93   56.43
  -6  -6  -1  515.76   40.32
  -6  -6  -1  444.49   57.35
  -6  -6  -1  480.29   48.30
   6  -6   1  471.59   52.07
   6  -6   1  522.05   45.57
   6   6   2 2172.76  138.29
   6   6   2 2396.11  154.49
  -6   6  -2 2189.76  129.95
  -6   6  -2 2325.37  159.54
  -6   6  -2 2273.19  164.78
  -6  -6  -2 2177.33  139.99
  -6  -6  -2 2327.20  135.84
   6  -6   2 2402.40  149.92
   6  -6   2 2309.85  158.16
   6   6   3  183.61   40.94
  -6   6  -3  208.81   37.80
  -6   6  -3  183.76   24.98
  -6   6  -3  204.96   34.92
  -6  -6  -3  195.51   30.93
  -6  -6  -3  209.31   31.87
  -6  -6  -3  198.57   35.76
   6  -6   3  171.96   31.45
   6  -6   3  198.51   35.00
   6   6   4  401.66   51.47
  -6   6  -4  456.40   59.09
  -6   6  -4  415.00   49.77
  -6   6  -4  444.55   57.43
  -6  -6  -4  459.91   51.49
  -6  -6  -4  511.06   59.49
  -6  -6  -4  357.17   52.91
   6  -6   4  391.67   51.00
   6  -6   4  517.72   81.53
   6   6   5  132.69   36.34
  -6   6  -5  111.50   33.62
  -6   6  -5  101.78   24.95
  -6   6  -5   29.18   31.62
  -6  -6  -5   70.01   23.37
  -6  -6  -5   67.96   36.02
  -6  -6  -5   51.82   28.45
   6  -6   5   62.93   38.75
   6   6   6  832.67   93.43
  -6   6  -6  800.30   87.84
  -6   6  -6  788.66   90.94
  -6  -6  -6  844.49   79.67
  -6  -6  -6  893.15   84.55
  -6  -6  -6  703.09   65.10
   6  -6   6  673.22   77.18
   6   6   7   88.53   36.33
   6   6   7   49.64   31.86
  -6   6  -7   64.23   40.06
  -6   6  -7   64.73   37.11
  -6  -6  -7   59.28   28.94
  -6  -6  -7   83.23   28.81
   6  -6   7   63.18   44.02
   6   7   0  928.68   70.31
   6   7   0  871.18   82.23
  -6   7   0  831.05   67.83
  -6   7   0  895.17   76.75
  -6   7   0  849.10   75.75
  -6  -7   0  906.71   77.18
  -6  -7   0 1005.33   77.08
   6  -7   0  878.65   81.07
   6  -7   0  952.83   77.33
   6   7   1  113.11   27.49
   6   7   1  122.60   31.20
  -6   7  -1  126.57   28.00
  -6   7  -1  138.34   26.00
  -6   7  -1  122.84   33.12
  -6  -7  -1  134.55   18.07
  -6  -7  -1  139.66   34.76
  -6  -7  -1  118.37   26.84
   6  -7   1   90.68   28.61
   6  -7   1   69.12   29.47
   6   7   2  -18.58   11.69
   6   7   2  -11.84   11.69
  -6   7  -2   -2.00   11.69
  -6   7  -2    4.92   11.73
  -6   7  -2  -10.45   11.73
  -6  -7  -2   14.71   11.78
  -6  -7  -2  -10.91   11.71
  -6  -7  -2   -5.84   11.71
   6  -7   2    6.53   11.74
   6  -7   2   43.01   11.72
   6   7   3 5019.12  319.22
  -6   7  -3 5216.64  332.10
  -6   7  -3 4826.13  248.45
  -6   7  -3 5485.52  336.72
  -6  -7  -3 5000.65  240.81
  -6  -7  -3 4678.26  266.47
  -6  -7  -3 4747.05  254.01
   6  -7   3 5117.10  281.77
   6  -7   3 5101.06  293.37
   6   7   4  693.31   69.18
  -6   7  -4  695.37   68.35
  -6   7  -4  706.38   63.87
  -6   7  -4  871.55   82.47
  -6  -7  -4  734.24   64.98
  -6  -7  -4  768.43   71.37
  -6  -7  -4  699.66   68.38
   6  -7   4  722.82   75.51
   6  -7   4  721.83   70.74
   6   7   5 1484.62  131.86
  -6   7  -5 1363.52  111.91
  -6   7  -5 1582.92  131.81
  -6  -7  -5 1484.37  114.96
  -6  -7  -5 1543.35  112.17
  -6  -7  -5 1627.03  118.37
   6  -7   5 1466.76  158.04
   6   7   6   11.84   32.85
  -6   7  -6   17.45   26.92
  -6   7  -6    0.80   41.83
  -6  -7  -6   62.53   31.97
  -6  -7  -6   45.64   38.82
  -6  -7  -6   52.02   28.27
   6  -7   6   62.73   36.59
   6   7   7  -13.82   23.59
   6   7   7  -44.27   23.64
  -6   7  -7  -43.78   23.53
  -6   7  -7   -0.80   23.58
  -6  -7  -7   12.54   23.67
  -6  -7  -7   45.12   23.56
   6  -7   7    6.07   23.51
   6   8   0 2607.69  151.33
   6   8   0 2880.65  161.77
  -6   8   0 2680.28  161.49
  -6   8   0 2597.59  146.17
  -6   8   0 2745.43  183.05
  -6  -8   0 2886.58  159.61
  -6  -8   0 2716.45  157.35
   6  -8   0 2612.57  167.03
   6  -8   0 2605.05  199.79
   6   8   1 2763.85  158.27
   6   8   1 2987.08  178.78
  -6   8  -1 2984.16  182.09
  -6   8  -1 2808.29  165.45
  -6   8  -1 2940.76  173.58
  -6  -8  -1 2810.49  156.30
  -6  -8  -1 2933.58  168.74
   6  -8   1 2916.34  178.35
   6  -8   1 3083.42  165.19
   6   8   2 1615.03  104.05
   6   8   2 1789.06  155.12
  -6   8  -2 1768.11  127.13
  -6   8  -2 1642.10  119.77
  -6   8  -2 1752.56  157.53
  -6  -8  -2 1616.73   92.71
  -6  -8  -2 1588.28  107.50
  -6  -8  -2 1785.77  113.99
   6  -8   2 1602.55  116.58
   6  -8   2 1850.19  125.07
   6   8   3   56.11   31.90
  -6   8  -3   94.50   31.89
  -6   8  -3   68.98   21.07
  -6   8  -3   77.12   34.34
  -6  -8  -3   52.15   18.68
  -6  -8  -3   49.12   30.94
  -6  -8  -3   63.94   27.11
   6  -8   3   78.13   33.10
   6  -8   3   90.64   25.43
   6   8   4  155.70   34.40
  -6   8  -4  219.39   43.67
  -6   8  -4  150.25   40.86
  -6  -8  -4  185.24   35.90
  -6  -8  -4  216.79   47.62
  -6  -8  -4  175.68   32.71
   6  -8   4  170.42   31.39
   6  -8   4  252.25   41.95
   6   8   5 1998.44  148.57
  -6   8  -5 2051.33  148.02
  -6   8  -5 2202.57  167.19
  -6  -8  -5 1981.96  134.07
  -6  -8  -5 2011.31  163.04
  -6  -8  -5 1910.56  143.32
   6  -8   5 2113.22  157.80
   6   8   6 2614.52  196.77
  -6   8  -6 2410.70  177.38
  -6   8  -6 2204.47  207.74
  -6  -8  -6 2278.83  161.83
  -6  -8  -6 2215.95  179.46
  -6  -8  -6 2001.77  130.96
   6  -8   6 2219.31  201.45
   6   8   7  544.53   79.85
   6   8   7  453.20   79.91
  -6   8  -7  555.60   80.18
  -6   8  -7  497.76   69.19
  -6  -8  -7  459.59   59.15
   6  -8   7  527.71   90.62
   6   9   0   19.31   21.60
   6   9   0   61.30   33.17
  -6   9   0   16.12   31.04
  -6   9   0   47.37   22.80
  -6   9   0   13.87   29.35
  -6  -9   0   12.35   23.06
  -6  -9   0   69.29   26.77
   6  -9   0   70.98   28.62
   6  -9   0    3.20   18.30
   6   9   1  652.60   55.47
   6   9   1  512.74   55.95
  -6   9  -1  556.90   68.98
  -6   9  -1  587.18   47.31
  -6   9  -1  612.30   71.81
  -6  -9  -1  666.13   57.35
  -6  -9  -1  612.03   58.73
   6  -9   1  647.19   74.09
   6  -9   1  675.50   69.78
   6   9   2  193.05   48.14
  -6   9  -2  119.03   32.74
  -6   9  -2  129.77   25.47
  -6   9  -2  145.97   34.29
  -6  -9  -2  163.51   42.32
  -6  -9  -2  223.50   36.19
   6  -9   2  150.53   27.01
   6  -9   2  103.28   34.35
   6   9   3 5902.55  312.87
  -6   9  -3 6030.11  365.77
  -6   9  -3 6482.34  377.64
  -6  -9  -3 5884.42  289.65
  -6  -9  -3 5866.91  359.55
  -6  -9  -3 5718.39  319.96
   6  -9   3 5670.43  405.34
   6  -9   3 6205.00  336.67
   6   9   4  117.70   37.30
  -6   9  -4   54.49   30.38
  -6   9  -4   90.82   34.37
  -6  -9  -4  101.74   28.39
  -6  -9  -4  169.85   44.32
  -6  -9  -4  140.13   31.89
   6  -9   4  114.74   27.50
   6  -9   4  142.34   41.85
   6   9   5  742.37   97.18
  -6   9  -5  821.88   87.03
  -6   9  -5  838.07  101.96
  -6  -9  -5  795.04   80.31
  -6  -9  -5  713.96   92.53
  -6  -9  -5  771.48   69.03
   6  -9   5  743.91   75.49
   6  -9   5  772.10   92.21
   6   9   6  350.59   61.55
  -6   9  -6  471.28   58.25
  -6   9  -6  430.90   69.95
  -6  -9  -6  390.10   55.04
  -6  -9  -6  371.96   53.38
   6  -9   6  431.61   66.93
   6   9   7  935.14  102.30
  -6  -9  -7  751.56   75.47
   6  10   0  657.32   56.81
   6  10   0  697.16   71.38
  -6  10   0  823.25   74.39
  -6  10   0  708.99   55.42
  -6  10   0  672.07   75.86
  -6 -10   0  612.54   70.29
  -6 -10   0  710.65   65.54
   6 -10   0  591.04   64.11
   6 -10   0  764.94   66.90
   6  10   1 2764.01  164.20
   6  10   1 2858.77  192.91
  -6  10  -1 2997.23  224.64
  -6  10  -1 3011.81  207.17
  -6 -10  -1 2833.00  207.99
  -6 -10  -1 2713.96  168.42
   6 -10   1 2918.16  164.92
   6 -10   1 3007.70  167.50
   6  10   2  407.82   50.88
  -6  10  -2  378.59   59.91
  -6  10  -2  361.30   54.25
  -6 -10  -2  416.62   51.66
  -6 -10  -2  355.75   40.58
   6 -10   2  384.76   47.56
   6 -10   2  420.05   53.70
   6  10   3  317.60   54.61
  -6  10  -3  216.11   45.75
  -6  10  -3  329.89   62.76
  -6 -10  -3  362.75   56.13
  -6 -10  -3  320.33   44.15
   6 -10   3  356.41   55.06
   6 -10   3  347.72   46.39
   6  10   4  269.20   41.14
  -6  10  -4  358.99   56.42
  -6  10  -4  334.53   49.52
  -6 -10  -4  288.67   45.43
  -6 -10  -4  266.29   33.75
   6 -10   4  228.89   40.40
   6 -10   4  294.26   60.36
   6  10   5 3127.80  255.62
  -6  10  -5 3518.68  237.00
  -6  10  -5 3293.15  221.17
  -6 -10  -5 2918.62  169.48
  -6 -10  -5 3101.88  219.61
   6 -10   5 3188.04  178.42
   6 -10   5 3275.29  223.73
   6  10   6   85.20   41.38
  -6  10  -6   72.95   32.96
  -6  10  -6   28.51   29.55
  -6 -10  -6   69.58   31.94
  -6 -10  -6  116.07   39.49
   6 -10   6   74.19   37.75
   6  11   0  114.50   27.98
   6  11   0  139.03   39.81
  -6  11   0  124.79   35.89
  -6  11   0  196.92   38.03
  -6 -11   0  116.13   38.75
  -6 -11   0  152.49   29.83
   6 -11   0  104.70   29.53
   6 -11   0  116.07   33.72
   6  11   1 1904.41  137.41
   6  11   1 2122.93  167.13
  -6  11  -1 2066.01  141.66
  -6  11  -1 1955.47  137.40
  -6 -11  -1 1970.59  161.55
  -6 -11  -1 2097.99  145.32
   6 -11   1 1979.16  138.59
   6 -11   1 2080.30  129.10
   6  11   2  403.65   66.70
  -6  11  -2  304.63   49.78
  -6  11  -2  416.32   60.82
  -6 -11  -2  417.01   59.19
  -6 -11  -2  368.42   39.81
   6 -11   2  386.19   47.32
   6 -11   2  367.57   57.84
   6  11   3 6777.06  377.79
  -6  11  -3 6707.52  407.34
  -6  11  -3 6633.45  384.26
  -6 -11  -3 6865.25  417.64
   6 -11   3 6543.45  404.82
   6 -11   3 6696.32  367.94
   6  11   4   90.83   35.32
  -6  11  -4   70.37   40.90
  -6  11  -4   58.73   37.10
  -6 -11  -4   53.18   30.91
   6 -11   4  104.82   31.39
   6 -11   4   43.14   29.98
   6  11   5 2862.50  229.02
  -6  11  -5 2768.47  198.12
  -6  11  -5 2630.48  239.27
  -6 -11  -5 2820.62  215.90
   6 -11   5 2881.07  220.81
   6  11   6   88.51   44.65
  -6  11  -6   40.92   32.21
  -6  11  -6   20.19   42.29
  -6 -11  -6  -27.42   29.82
   6 -11   6   17.43   42.57
   6  12   0 1376.17  101.80
   6  12   0 1577.60  117.61
  -6  12   0 1405.65  127.28
  -6  12   0 1536.25  120.56
  -6 -12   0 1532.72  121.30
  -6 -12   0 1414.82  108.09
   6 -12   0 1360.66  117.59
   6 -12   0 1485.39  111.74
   6  12   1 4198.10  267.86
   6  12   1 4995.93  275.46
  -6  12  -1 4832.11  311.28
  -6  12  -1 4657.43  296.79
  -6 -12  -1 4541.18  265.52
  -6 -12  -1 4413.78  212.90
   6 -12   1 4480.57  247.22
   6 -12   1 4445.83  292.57
   6  12   2   74.40   40.54
  -6  12  -2   57.66   44.20
  -6  12  -2   22.11   36.90
  -6 -12  -2   20.71   31.84
   6 -12   2   37.90   30.81
   6 -12   2   64.02   28.04
   6  12   3 3817.37  269.30
  -6  12  -3 4423.60  332.43
  -6  12  -3 4119.49  291.22
  -6 -12  -3 3911.49  236.04
   6 -12   3 3776.07  271.80
   6 -12   3 4053.76  235.06
   6  12   4   15.41   29.26
  -6  12  -4   23.65   29.56
  -6  12  -4  -31.89   26.32
  -6 -12  -4   -0.04   38.17
   6 -12   4    1.48   25.11
   6 -12   4   13.17   34.60
   6  12   5  338.60   56.87
  -6  12  -5  274.68   49.35
  -6  12  -5  224.45   43.83
  -6  12  -5  354.21   63.13
  -6 -12  -5  305.05   47.99
   6 -12   5  325.35   54.67
   6  12   6  -14.03   33.46
  -6  12  -6  -19.99   33.53
   6 -12   6   21.48   33.47
   6  13   0  427.95   47.69
   6  13   0  517.91   53.34
  -6  13   0  524.97   71.28
  -6  13   0  508.79   61.75
  -6 -13   0  449.04   57.39
  -6 -13   0  469.16   47.71
   6 -13   0  461.70   61.74
   6 -13   0  512.47   57.31
   6  13   1 1352.78  126.50
  -6  13  -1 1381.13  107.31
  -6  13  -1 1579.72  133.88
  -6 -13  -1 1266.58  114.74
   6 -13   1 1364.00  111.50
   6 -13   1 1344.89  113.34
   6  13   2  700.09   92.55
  -6  13  -2  771.70   80.62
  -6  13  -2  758.03   79.19
  -6 -13  -2  649.88   68.23
   6 -13   2  811.39   90.54
   6 -13   2  636.96   70.49
   6  13   3 3154.26  229.89
  -6  13  -3 3326.78  250.89
  -6  13  -3 3053.20  224.19
  -6 -13  -3 3118.43  197.78
   6 -13   3 3382.06  228.36
   6 -13   3 3433.94  241.25
   6  13   4   86.94   35.58
  -6  13  -4  206.37   49.51
  -6  13  -4   97.74   39.18
  -6 -13  -4  174.67   44.56
   6 -13   4  163.75   39.73
   6 -13   4  171.21   51.08
   6  13   5  964.15  113.46
  -6  13  -5  878.61  102.05
  -6  13  -5  792.87   86.21
  -6  13  -5  686.65   84.61
  -6 -13  -5  951.54  103.04
   6 -13   5  811.17   91.50
   6  14   0 2808.05  191.58
   6  14   0 3236.89  235.26
  -6  14   0 3205.70  242.36
  -6  14   0 3067.21  193.09
  -6 -14   0 3194.96  229.10
   6 -14   0 3035.00  212.66
   6  14   1   60.81   34.58
  -6  14  -1  183.35   50.74
  -6  14  -1  141.22   42.22
  -6 -14  -1   82.39   39.58
   6 -14   1   92.90   39.49
   6 -14   1  187.95   33.98
   6  14   2 1137.13  113.60
  -6  14  -2 1418.60  137.23
  -6  14  -2 1357.44  123.38
  -6 -14  -2 1252.19  118.66
   6 -14   2 1038.00  109.99
   6 -14   2 1253.04  110.47
   6  14   3   69.94   30.93
  -6  14  -3   65.25   39.84
  -6  14  -3   -0.12   29.71
  -6 -14  -3   59.71   35.48
   6 -14   3   45.75   35.66
   6 -14   3   37.51   27.57
   6  14   4   36.32   35.12
  -6  14  -4   38.64   36.57
  -6  14  -4   13.14   29.16
  -6 -14  -4   11.99   33.00
   6 -14   4   28.60   33.68
   6 -14   4   24.44   26.29
   6  14   5 2107.59  210.84
  -6  14  -5 2266.76  176.66
  -6  14  -5 2464.83  187.19
   6 -14   5 2459.03  200.58
   6  15   0  822.96   77.13
   6  15   0  884.01   96.28
  -6  15   0  773.46   80.71
  -6  15   0  809.90   85.58
  -6 -15   0  748.29   78.76
   6 -15   0  858.72   85.43
   6  15   1  525.81   84.88
  -6  15  -1  575.84   76.51
  -6  15  -1  617.11   74.97
  -6 -15  -1  634.88   73.47
   6 -15   1  586.37   77.33
   6 -15   1  589.03   74.46
   6  15   2  328.63   59.24
  -6  15  -2  415.24   68.26
  -6  15  -2  408.55   60.15
  -6 -15  -2  442.29   67.15
   6 -15   2  351.99   54.38
   6 -15   2  383.59   54.86
   6  15   3 1485.51  128.49
  -6  15  -3 1723.98  155.32
  -6  15  -3 1352.06  128.11
  -6 -15  -3 1484.77  134.69
   6 -15   3 1440.26  125.41
   6 -15   3 1322.31  120.15
   6  15   4  210.56   51.56
  -6  15  -4  286.81   58.80
  -6  15  -4  204.32   58.38
  -6 -15  -4  322.70   57.65
   6 -15   4  265.32   54.19
   6 -15   4  355.80   64.01
   6  16   0  863.48   88.27
   6  16   0  914.62  111.14
  -6  16   0  908.73  109.48
  -6  16   0  744.11   95.38
  -6 -16   0  755.65   80.20
   6 -16   0  842.08   93.09
   6  16   1  134.12   48.05
  -6  16  -1  170.79   45.91
  -6  16  -1  173.03   39.70
  -6 -16  -1   75.39   33.20
   6 -16   1   72.43   33.56
   6  16   2  482.46   66.75
  -6  16  -2  584.76   75.41
  -6  16  -2  485.48   66.64
  -6 -16  -2  505.08   70.83
   6 -16   2  584.65   75.76
   6 -16   2  420.38   62.07
   6  16   3  352.94   64.33
  -6  16  -3  492.72   75.85
  -6  16  -3  410.87   56.62
  -6 -16  -3  436.69   64.87
   6 -16   3  402.29   59.21
   6 -16   3  287.65   52.86
   6  17   0 1423.99  146.38
  -6  17   0 1480.66  159.55
  -6 -17   0 1406.09  120.97
   6 -17   0 1488.87  136.98
   6  17   1  602.79   87.29
  -6  17  -1  496.39   80.37
  -6  17  -1  399.70   63.06
  -6 -17  -1  560.20   64.04
   6 -17   1  519.47   71.70
   6  17   2   71.61   44.75
  -6  17  -2   -0.84   44.66
  -6  17  -2   16.79   44.69
  -6 -17  -2  -12.85   44.62
   6 -17   2  -41.03   44.75
  -6 -18   0   30.01   31.32
  -6 -18  -1   15.17   34.62
   7   0   0   25.26   26.82
   7   0   0  -24.47   26.83
  -7   0   0   -7.28   26.84
  -7   0   0   15.90   26.87
  -7   0   0  -17.39   26.83
   7   0   1 5217.13  262.16
   7   0   1 5720.35  297.17
  -7   0  -1 5568.87  250.33
  -7   0  -1 5667.27  273.48
  -7   0  -1 6031.41  330.33
   7   0   2  -15.07   20.66
   7   0   2  -32.54   20.67
  -7   0  -2   31.91   20.70
  -7   0  -2    8.16   20.68
  -7   0  -2    3.04   20.66
   7   0   3  971.68   88.77
  -7   0  -3  956.86   72.39
  -7   0  -3  904.04   75.94
  -7   0  -3  964.42   95.67
   7   0   4  -46.81   35.06
  -7   0  -4  -18.66   35.12
  -7   0  -4   15.49   35.10
  -7   0  -4   -6.68   35.10
   7   0   5  794.32   78.01
  -7   0  -5  606.68   65.02
  -7   0  -5  581.45   66.31
  -7   0  -5  803.48   89.27
   7   0   6   30.87   33.54
  -7   0  -6  -44.11   33.61
  -7   0  -6   -9.02   33.65
  -7   0  -6   -3.00   33.61
   7   0   7 6240.44  363.16
  -7   0  -7 6581.12  403.68
  -7   0  -7 6777.11  307.20
   7   1   0 1874.36  118.42
   7   1   0 1947.22  116.15
  -7   1   0 1910.30  111.95
  -7   1   0 1985.43  126.07
  -7   1   0 1902.64  134.12
  -7  -1   0 1906.92  115.39
  -7  -1   0 1826.04  127.51
  -7  -1   0 1984.63  152.45
   7  -1   0 1897.94  133.90
   7  -1   0 1828.44  110.46
   7   1   1  313.94   38.99
   7   1   1  267.65   42.33
  -7   1  -1  244.43   33.21
  -7   1  -1  340.38   43.12
  -7   1  -1  183.48   39.59
  -7  -1  -1  273.55   36.60
  -7  -1  -1  262.77   39.05
  -7  -1  -1  249.53   43.93
   7  -1   1  232.99   44.95
   7  -1   1  184.07   32.75
   7   1   2  701.37   68.22
   7   1   2  677.62   72.28
  -7   1  -2  690.97   63.97
  -7   1  -2  666.67   70.22
  -7   1  -2  720.10   81.49
  -7  -1  -2  588.64   58.29
  -7  -1  -2  578.51   63.20
  -7  -1  -2  556.11   62.39
   7  -1   2  616.29   66.81
   7  -1   2  695.83   58.15
   7   1   3  257.02   44.93
  -7   1  -3  273.87   47.60
  -7   1  -3  277.73   43.61
  -7   1  -3  251.65   41.64
  -7  -1  -3  202.94   36.98
  -7  -1  -3  208.97   36.96
  -7  -1  -3  212.60   44.03
   7  -1   3  259.31   35.13
   7  -1   3  265.26   50.98
   7   1   4  296.79   61.29
  -7   1  -4  228.78   49.40
  -7   1  -4  285.84   36.59
  -7   1  -4  222.72   40.07
  -7  -1  -4  211.79   36.58
  -7  -1  -4  162.03   36.14
  -7  -1  -4  254.89   52.92
   7  -1   4  260.94   41.73
   7   1   5 1245.47  128.76
  -7   1  -5 1300.96  120.65
  -7   1  -5 1237.57   95.49
  -7   1  -5 1288.01  127.88
  -7  -1  -5 1382.48  117.54
  -7  -1  -5 1172.96  109.58
  -7  -1  -5 1314.24  104.53
   7  -1   5 1476.53  125.61
   7   1   6  805.17  115.34
  -7   1  -6  649.05   76.16
  -7   1  -6  699.77   75.13
  -7   1  -6  631.51   74.11
  -7  -1  -6  578.93   70.08
  -7  -1  -6  606.73   73.75
  -7  -1  -6  704.48   73.31
   7  -1   6  686.22   85.98
   7   1   7  300.40   47.96
  -7   1  -7  239.33   46.45
  -7   1  -7  266.00   55.10
  -7  -1  -7  338.39   61.67
  -7  -1  -7  249.14   53.50
   7  -1   7  271.61   44.85
   7   2   0   -8.51   23.62
   7   2   0   23.30   23.62
  -7   2   0  -20.99   23.63
  -7   2   0   -4.69   23.68
  -7   2   0   -4.27   23.61
  -7  -2   0  -11.13   23.65
  -7  -2   0    5.88   23.65
  -7  -2   0   -5.00   23.66
   7  -2   0   34.61   23.62
   7  -2   0   11.00   23.64
   7   2   1 6768.84  363.42
   7   2   1 6578.75  369.32
  -7   2  -1 6931.80  342.77
  -7   2  -1 6692.93  347.35
  -7   2  -1 6659.90  391.16
  -7  -2  -1 6549.88  322.40
  -7  -2  -1 6572.98  394.75
  -7  -2  -1 6765.27  344.99
   7  -2   1 6952.00  378.20
   7  -2   1 7065.20  352.83
   7   2   2  190.94   29.68
   7   2   2  214.32   46.51
  -7   2  -2  206.99   33.72
  -7   2  -2  214.67   40.13
  -7   2  -2  216.83   43.72
  -7  -2  -2  182.40   30.41
  -7  -2  -2  189.28   38.03
  -7  -2  -2  186.36   32.61
   7  -2   2  182.82   31.99
   7  -2   2  191.70   41.95
   7   2   3 1100.79  103.88
  -7   2  -3 1140.20  115.05
  -7   2  -3 1072.69   89.51
  -7   2  -3 1089.20   94.45
  -7  -2  -3 1082.17   87.79
  -7  -2  -3 1089.22   89.84
  -7  -2  -3 1208.07   99.11
   7  -2   3 1061.18   85.78
   7  -2   3 1120.11   98.56
   7   2   4  140.21   48.60
  -7   2  -4  156.49   43.13
  -7   2  -4  101.39   28.18
  -7   2  -4   65.73   38.07
  -7  -2  -4   68.71   31.11
  -7  -2  -4   94.98   39.18
  -7  -2  -4  127.04   33.18
   7  -2   4  134.43   35.77
   7   2   5  445.96   63.94
  -7   2  -5  424.93   50.22
  -7   2  -5  340.75   49.69
  -7   2  -5  524.18   69.00
  -7  -2  -5  475.75   59.59
  -7  -2  -5  437.42   65.02
  -7  -2  -5  532.08   63.00
   7  -2   5  541.10   75.36
   7   2   6 1173.73  150.31
  -7   2  -6 1091.39  111.02
  -7   2  -6 1001.29   88.20
  -7   2  -6 1267.48  107.60
  -7  -2  -6 1094.98  110.81
  -7  -2  -6 1085.65  115.21
  -7  -2  -6 1159.75  102.12
   7  -2   6 1185.26  106.06
   7   2   7 3851.00  273.16
  -7   2  -7 3759.98  278.10
  -7   2  -7 3821.63  223.91
  -7  -2  -7 4070.51  254.43
  -7  -2  -7 4028.50  260.74
   7  -2   7 3597.79  208.19
   7   3   0   13.78   23.45
   7   3   0   19.90   18.82
  -7   3   0   23.26   23.06
  -7   3   0   25.53   23.05
  -7   3   0   12.38   24.80
  -7  -3   0   29.14   15.01
  -7  -3   0   43.10   29.57
  -7  -3   0   43.04   22.62
   7  -3   0   15.83   20.86
   7  -3   0   23.17   27.69
   7   3   1   52.10   20.92
   7   3   1   99.02   31.60
  -7   3  -1   43.44   27.74
  -7   3  -1   40.97   26.99
  -7   3  -1   46.68   30.55
  -7  -3  -1   78.92   19.19
  -7  -3  -1   72.29   37.18
  -7  -3  -1    6.52   29.95
   7  -3   1   79.42   28.78
   7  -3   1  131.90   36.29
   7   3   2   42.69   16.89
   7   3   2   62.26   32.95
  -7   3  -2   34.06   25.50
  -7   3  -2  -10.96   18.37
  -7   3  -2   30.13   30.09
  -7  -3  -2   55.35   24.01
  -7  -3  -2   10.03   28.02
  -7  -3  -2   70.62   27.02
   7  -3   2   51.12   23.80
   7  -3   2   33.71   26.83
   7   3   3 1252.14  118.61
  -7   3  -3 1464.19  118.28
  -7   3  -3 1341.35  103.36
  -7   3  -3 1397.81  123.90
  -7  -3  -3 1291.21   99.51
  -7  -3  -3 1357.17  110.99
  -7  -3  -3 1120.67   99.38
   7  -3   3 1231.77   89.76
   7  -3   3 1211.16   94.51
   7   3   4 1396.52  114.22
  -7   3  -4 1584.90  137.41
  -7   3  -4 1491.02  117.11
  -7   3  -4 1498.36  116.79
  -7  -3  -4 1608.32  117.82
  -7  -3  -4 1662.96  101.95
  -7  -3  -4 1618.26  110.16
   7  -3   4 1544.22  134.75
   7   3   5 1267.76  130.62
  -7   3  -5 1311.31  108.65
  -7   3  -5 1222.59  111.92
  -7   3  -5 1266.65  112.06
  -7  -3  -5 1234.08   97.38
  -7  -3  -5 1164.24  105.33
  -7  -3  -5 1278.30  102.80
   7  -3   5 1192.42  114.25
   7   3   6   60.95   44.39
  -7   3  -6  110.98   36.31
  -7   3  -6   57.47   31.71
  -7   3  -6  148.71   54.47
  -7  -3  -6  107.28   30.90
  -7  -3  -6   82.68   37.57
  -7  -3  -6   78.30   35.88
   7  -3   6   95.29   43.61
  -7   3  -7  251.17   52.20
  -7  -3  -7  215.55   51.94
  -7  -3  -7  209.45   43.31
   7   4   0  145.55   32.80
   7   4   0  138.45   37.31
  -7   4   0  104.09   29.69
  -7   4   0  112.28   30.55
  -7   4   0  141.96   34.37
  -7  -4   0  110.34   20.19
  -7  -4   0   89.45   33.12
  -7  -4   0   91.92   28.20
   7  -4   0  126.93   31.89
   7  -4   0   76.11   25.18
   7   4   1 4783.11  267.24
   7   4   1 4863.33  244.67
  -7   4  -1 5078.98  264.71
  -7   4  -1 4888.17  256.55
  -7   4  -1 4782.73  284.49
  -7  -4  -1 4726.40  269.92
  -7  -4  -1 4779.65  315.00
  -7  -4  -1 5022.53  285.60
   7  -4   1 4866.28  313.03
   7  -4   1 4897.82  280.63
   7   4   2  117.84   23.35
   7   4   2  101.83   31.85
  -7   4  -2   56.89   31.12
  -7   4  -2   71.94   28.97
  -7   4  -2  126.62   41.53
  -7  -4  -2   73.19   21.22
  -7  -4  -2  107.38   36.29
  -7  -4  -2  119.13   32.89
   7  -4   2   25.96   23.80
   7  -4   2   83.86   33.31
   7   4   3 1683.44  136.77
  -7   4  -3 1529.54  103.31
  -7   4  -3 1457.90  118.68
  -7   4  -3 1717.97  139.17
  -7  -4  -3 1612.68  112.96
  -7  -4  -3 1662.73  143.71
  -7  -4  -3 1694.50  124.69
   7  -4   3 1666.04  130.69
   7  -4   3 1627.06  135.75
   7   4   4   53.80   32.23
  -7   4  -4   59.24   30.54
  -7   4  -4   16.34   26.39
  -7   4  -4   75.71   37.19
  -7  -4  -4   -7.38   20.31
  -7  -4  -4   30.37   31.97
  -7  -4  -4   46.34   29.29
   7  -4   4   24.40   29.84
   7   4   5   -5.56   27.30
  -7   4  -5   17.55   27.42
  -7   4  -5   -9.26   21.01
  -7   4  -5   14.74   30.23
  -7  -4  -5   -9.23   27.82
  -7  -4  -5  -14.74   25.28
  -7  -4  -5   15.37   29.67
   7  -4   5   28.75   34.42
   7   4   6 1350.48  106.24
  -7   4  -6 1205.05  120.94
  -7   4  -6 1241.49  120.13
  -7  -4  -6  947.82   89.46
  -7  -4  -6 1262.48  105.40
  -7  -4  -6 1289.88   94.48
   7  -4   6 1073.50  112.40
  -7  -4  -7  747.26   94.63
  -7  -4  -7  705.89   77.19
   7   5   0   65.92   24.49
   7   5   0  114.16   25.44
  -7   5   0   87.55   25.05
  -7   5   0   42.54   21.33
  -7   5   0   63.86   31.97
  -7  -5   0   56.95   34.64
  -7  -5   0  103.88   27.44
   7  -5   0   59.19   27.30
   7  -5   0   61.09   26.64
   7   5   1 1198.38  110.67
   7   5   1 1302.85   97.20
  -7   5  -1 1357.64  109.78
  -7   5  -1 1369.29  102.19
  -7   5  -1 1380.14  111.43
  -7  -5  -1 1442.48  115.50
  -7  -5  -1 1199.38  126.08
  -7  -5  -1 1426.76  108.55
   7  -5   1 1126.63  104.87
   7  -5   1 1491.11  100.54
   7   5   2   76.24   30.16
  -7   5  -2   30.15   29.19
  -7   5  -2   16.44   21.25
  -7   5  -2   88.34   34.98
  -7  -5  -2   76.27   22.00
  -7  -5  -2   39.55   24.41
  -7  -5  -2   73.81   25.85
   7  -5   2   78.99   30.93
   7  -5   2  115.43   36.40
   7   5   3  102.67   37.75
  -7   5  -3  105.78   33.95
  -7   5  -3   80.78   25.01
  -7   5  -3   96.76   31.37
  -7  -5  -3   55.41   22.21
  -7  -5  -3   18.31   27.90
  -7  -5  -3   55.09   32.35
   7  -5   3   34.47   24.10
   7  -5   3  117.05   30.89
   7   5   4 3233.08  223.48
  -7   5  -4 3062.99  212.76
  -7   5  -4 2975.13  201.26
  -7   5  -4 3306.17  218.36
  -7  -5  -4 2937.04  190.92
  -7  -5  -4 3068.94  201.07
  -7  -5  -4 3034.85  193.94
   7  -5   4 3141.02  224.28
   7   5   5   34.44   38.51
  -7   5  -5   -1.56   38.52
  -7   5  -5  -10.61   38.61
  -7  -5  -5    4.50   38.73
  -7  -5  -5  -12.82   38.62
  -7  -5  -5   -4.16   38.59
   7  -5   5  -10.34   38.48
   7   5   6  358.15   52.06
  -7   5  -6  551.35   77.57
  -7   5  -6  387.90   62.44
  -7  -5  -6  353.82   55.25
  -7  -5  -6  378.47   54.94
  -7  -5  -6  340.44   57.96
   7  -5   6  374.13   57.28
   7   6   0   21.74   24.29
   7   6   0   35.01   23.39
  -7   6   0   84.20   29.61
  -7   6   0   47.83   26.66
  -7   6   0   21.11   24.07
  -7  -6   0   40.19   27.07
  -7  -6   0   16.99   23.92
   7  -6   0   64.89   29.01
   7  -6   0   98.42   26.13
   7   6   1 2237.43  159.11
   7   6   1 2604.61  167.84
  -7   6  -1 2733.35  183.56
  -7   6  -1 2498.90  157.66
  -7   6  -1 2582.76  184.51
  -7  -6  -1 2421.80  210.79
  -7  -6  -1 2734.85  163.07
   7  -6   1 2368.31  163.29
   7  -6   1 2511.59  170.59
   7   6   2  817.92   87.27
  -7   6  -2  798.42   75.95
  -7   6  -2  684.76   70.10
  -7   6  -2  867.37   90.45
  -7  -6  -2  668.96   62.79
  -7  -6  -2  714.39   66.73
   7  -6   2  661.38   69.73
   7  -6   2  732.63   72.70
   7   6   3  304.40   46.95
  -7   6  -3  315.10   41.73
  -7   6  -3  302.95   45.90
  -7   6  -3  277.30   45.51
  -7  -6  -3  307.88   38.51
  -7  -6  -3  258.21   45.76
  -7  -6  -3  299.17   44.53
   7  -6   3  249.41   45.33
   7  -6   3  255.92   49.64
   7   6   4  498.17   69.12
  -7   6  -4  518.46   64.91
  -7   6  -4  541.10   65.44
  -7  -6  -4  432.70   55.15
  -7  -6  -4  486.84   56.13
  -7  -6  -4  445.69   58.89
   7  -6   4  470.63   70.82
   7   6   5  321.25   56.99
  -7   6  -5  315.37   52.25
  -7   6  -5  333.88   56.28
  -7  -6  -5  384.46   50.93
  -7  -6  -5  313.11   55.40
  -7  -6  -5  251.12   46.10
   7  -6   5  366.93   56.97
   7   6   6 1056.20  109.18
  -7   6  -6  882.60   83.50
  -7   6  -6 1039.97  128.42
  -7  -6  -6  903.22   79.43
  -7  -6  -6  882.94   90.92
  -7  -6  -6  941.92   91.88
   7  -6   6  991.92  104.90
   7   7   0 2330.51  156.42
   7   7   0 2559.83  195.18
  -7   7   0 2455.76  154.02
  -7   7   0 2580.80  137.70
  -7   7   0 2610.88  191.14
  -7  -7   0 2800.94  184.32
  -7  -7   0 2754.06  176.54
   7  -7   0 2601.34  166.31
   7  -7   0 2530.02  170.64
   7   7   1    9.46   15.40
   7   7   1   36.81   34.70
  -7   7  -1    0.12   28.84
  -7   7  -1    5.00   26.38
  -7   7  -1    6.67   25.13
  -7  -7  -1  -16.61   25.92
  -7  -7  -1   48.65   31.66
   7  -7   1   -8.64   29.47
   7  -7   1   39.77   37.45
   7   7   2  879.99   82.34
  -7   7  -2 1001.79   69.89
  -7   7  -2  876.81   80.53
  -7   7  -2  897.51   85.84
  -7  -7  -2  891.17  107.54
  -7  -7  -2  872.57   79.98
   7  -7   2  882.35   77.31
   7  -7   2 1044.40   89.10
   7   7   3 1369.56  135.86
  -7   7  -3 1530.61  115.77
  -7   7  -3 1462.63  120.13
  -7  -7  -3 1557.81  130.67
  -7  -7  -3 1245.61   95.38
   7  -7   3 1294.23  115.57
   7  -7   3 1407.64  112.65
   7   7   4 1758.01  117.91
  -7   7  -4 1825.65  163.98
  -7   7  -4 1741.23  159.89
  -7  -7  -4 1579.58  154.85
  -7  -7  -4 1626.57  131.56
   7  -7   4 1802.41  160.62
   7   7   5  233.83   51.42
  -7   7  -5  252.28   47.81
  -7   7  -5  186.36   51.36
  -7  -7  -5  139.86   48.46
  -7  -7  -5  169.18   44.04
   7  -7   5  290.21   51.58
   7   7   6   97.51   44.60
  -7   7  -6   75.53   42.78
  -7   7  -6   39.86   40.14
  -7  -7  -6   59.19   31.70
  -7  -7  -6   89.58   34.93
  -7  -7  -6   53.15   31.47
   7  -7   6   99.07   39.79
   7   8   0   92.62   28.62
   7   8   0  155.68   32.36
  -7   8   0   85.75   33.06
  -7   8   0   96.81   26.65
  -7   8   0  145.62   35.61
  -7  -8   0  102.13   37.45
  -7  -8   0  142.77   35.72
   7  -8   0   84.55   31.57
   7  -8   0  127.78   32.16
   7   8   1 1232.98  101.20
   7   8   1 1202.31  128.14
  -7   8  -1 1528.88  123.18
  -7   8  -1 1281.41  107.43
  -7   8  -1 1444.53  121.49
  -7  -8  -1 1442.38  100.53
  -7  -8  -1 1309.64  102.16
   7  -8   1 1318.01  112.84
   7  -8   1 1418.91  107.58
   7   8   2 2228.10  165.98
  -7   8  -2 2214.11  154.28
  -7   8  -2 2047.87  145.99
  -7  -8  -2 2241.38  164.91
  -7  -8  -2 1874.94  145.23
   7  -8   2 1940.27  154.09
   7  -8   2 2008.89  163.87
   7   8   3  103.60   33.84
  -7   8  -3  128.42   39.60
  -7   8  -3   79.18   37.45
  -7  -8  -3   86.48   45.30
  -7  -8  -3  104.93   30.61
   7  -8   3   85.48   31.60
   7  -8   3   96.19   38.04
   7   8   4  256.91   45.59
  -7   8  -4  259.84   45.96
  -7   8  -4  193.84   54.69
  -7  -8  -4  270.86   52.67
  -7  -8  -4  262.70   42.98
   7  -8   4  315.91   64.10
   7   8   5  553.68   73.41
  -7   8  -5  639.44   77.84
  -7   8  -5  604.40   78.29
  -7  -8  -5  533.19   70.28
  -7  -8  -5  551.03   65.37
   7  -8   5  544.94   78.32
   7   8   6 1389.20  142.57
  -7   8  -6 1475.23  144.51
  -7  -8  -6 1314.04  132.81
   7  -8   6 1677.21  165.11
   7   9   0 1014.46   91.86
   7   9   0 1127.05  106.85
  -7   9   0 1180.71   83.47
  -7   9   0 1003.95   85.33
  -7   9   0  987.80  101.35
  -7  -9   0 1093.73  104.17
  -7  -9   0 1198.85   98.10
   7  -9   0 1184.23   95.07
   7  -9   0 1146.03   96.95
   7   9   1  115.25   39.48
  -7   9  -1  107.40   36.68
  -7   9  -1   84.54   38.01
  -7  -9  -1  182.09   44.24
  -7  -9  -1  158.26   33.95
   7  -9   1  186.98   41.52
   7  -9   1  146.25   39.08
   7   9   2  715.62   85.08
  -7   9  -2  660.46   73.88
  -7   9  -2  634.71   81.49
  -7  -9  -2  595.41   69.66
  -7  -9  -2  531.16   62.80
   7  -9   2  592.86   73.84
   7  -9   2  611.93   70.58
   7   9   3  367.77   58.76
  -7   9  -3  494.01   58.29
  -7   9  -3  421.78   66.46
  -7  -9  -3  431.81   57.59
  -7  -9  -3  319.18   40.51
   7  -9   3  350.92   58.09
   7  -9   3  434.33   51.31
   7   9   4 8417.94  510.76
  -7   9  -4 8698.79  480.42
  -7   9  -4 8512.16  501.08
  -7  -9  -4 8456.07  440.73
  -7  -9  -4 7354.48  384.38
   7  -9   4 7700.49  414.58
   7  -9   4 8147.88  488.64
   7   9   5   -1.32   40.67
  -7   9  -5   21.12   33.94
  -7   9  -5   -4.41   37.63
  -7  -9  -5    2.16   31.31
   7  -9   5   38.96   29.41
   7  10   0   -4.48   18.84
   7  10   0   -2.83   18.79
  -7  10   0   42.19   18.83
  -7  10   0  -29.43   18.81
  -7 -10   0  -23.26   18.82
  -7 -10   0   24.53   18.85
   7 -10   0   15.38   18.82
   7 -10   0    1.60   18.89
   7  10   1   74.94   35.46
  -7  10  -1   86.24   39.12
  -7  10  -1   50.14   30.43
  -7 -10  -1   85.79   37.16
  -7 -10  -1   83.45   25.75
   7 -10   1   56.28   33.56
   7 -10   1   59.34   29.27
   7  10   2 1415.85  151.01
  -7  10  -2 1613.62  123.65
  -7  10  -2 1465.16  151.43
  -7 -10  -2 1406.23  127.49
  -7 -10  -2 1451.96  126.22
   7 -10   2 1626.65  153.64
   7 -10   2 1561.31  138.21
   7  10   3   78.54   29.14
  -7  10  -3   85.25   31.58
  -7  10  -3  136.43   38.26
  -7 -10  -3   60.30   31.98
  -7 -10  -3   53.04   26.56
   7 -10   3   57.21   28.24
   7 -10   3  124.94   41.49
   7  10   4   62.61   43.07
  -7  10  -4   39.69   35.38
  -7  10  -4    4.73   35.59
  -7 -10  -4    2.88   30.86
   7 -10   4  -17.26   27.83
   7 -10   4   39.21   35.77
   7  10   5   66.73   34.44
  -7  10  -5   56.47   33.99
  -7  10  -5   38.68   35.07
  -7 -10  -5  106.24   40.63
   7 -10   5   30.94   32.02
   7  11   0 2961.73  198.07
   7  11   0 3282.33  244.27
  -7  11   0 3561.51  231.62
  -7  11   0 3069.72  223.84
  -7 -11   0 3152.86  206.82
  -7 -11   0 2965.21  186.91
   7 -11   0 3100.50  226.76
   7 -11   0 3151.83  204.23
   7  11   1  772.86  103.70
  -7  11  -1  797.45   91.50
  -7  11  -1  739.37   82.12
  -7 -11  -1  777.63   81.00
  -7 -11  -1  752.33   72.49
   7 -11   1  819.86   85.30
   7 -11   1  824.04   67.12
   7  11   2   45.15   33.15
  -7  11  -2   49.02   33.04
  -7  11  -2   16.90   33.16
  -7 -11  -2   14.84   36.71
   7 -11   2   58.55   32.16
   7 -11   2   41.06   24.10
   7  11   3  178.07   53.04
  -7  11  -3  131.40   43.89
  -7  11  -3  215.47   36.83
  -7 -11  -3  195.71   47.59
   7 -11   3  121.95   34.25
   7 -11   3  199.47   46.44
   7  11   4 3118.66  237.70
  -7  11  -4 3184.94  263.85
  -7  11  -4 2974.13  226.73
  -7 -11  -4 3168.44  253.35
   7 -11   4 2914.30  233.67
   7 -11   4 3206.61  239.05
   7  11   5  134.43   47.34
   7 -11   5  140.07   44.57
   7  12   0   82.56   29.94
   7  12   0   49.46   34.57
  -7  12   0   93.81   35.51
  -7  12   0   77.12   40.44
  -7 -12   0   76.91   41.75
  -7 -12   0  117.32   30.50
   7 -12   0   60.81   32.04
   7  12   1  374.12   69.89
  -7  12  -1  352.78   49.65
  -7  12  -1  401.08   74.61
  -7 -12  -1  346.25   57.00
   7 -12   1  382.08   54.61
   7 -12   1  374.59   53.96
   7  12   2 1419.63  100.06
  -7  12  -2 1493.98  128.05
  -7  12  -2 1472.29  137.18
  -7 -12  -2 1554.30  132.30
   7 -12   2 1533.67  154.40
   7 -12   2 1297.40  114.63
   7  12   3  149.22   40.66
  -7  12  -3  161.55   44.66
  -7  12  -3  134.41   45.16
  -7 -12  -3  215.65   49.42
   7 -12   3  130.12   39.02
   7 -12   3  217.31   41.46
   7  12   4   68.31   37.91
  -7  12  -4  126.15   46.82
  -7  12  -4   36.00   32.71
  -7 -12  -4  104.10   51.31
   7 -12   4   50.58   29.80
   7 -12   4   78.29   37.74
   7  13   0 2115.01  162.42
  -7  13   0 2373.81  172.84
  -7  13   0 2179.39  168.43
  -7 -13   0 2471.46  178.69
   7 -13   0 2236.55  166.73
   7  13   1  869.33  104.14
  -7  13  -1  851.28  105.51
  -7  13  -1  999.91  100.67
  -7 -13  -1 1014.50   99.20
   7 -13   1  854.64  106.70
   7 -13   1  740.40   85.48
   7  13   2   39.48   34.97
  -7  13  -2   44.36   28.97
  -7  13  -2   50.66   29.43
  -7 -13  -2   39.30   36.95
   7 -13   2   63.99   34.80
   7 -13   2   64.40   31.54
   7  13   3    1.12   30.46
  -7  13  -3  -37.20   27.05
  -7  13  -3   41.79   37.91
  -7 -13  -3    1.12   29.54
   7 -13   3    7.09   19.75
   7 -13   3   24.15   24.19
  -7  13  -4 3341.94  263.53
   7 -13   4 3118.79  234.99
   7 -13   4 3501.87  253.79
   7  14   0   43.02   33.75
  -7  14   0   18.95   42.57
  -7  14   0    4.64   27.46
  -7 -14   0   56.61   48.78
   7 -14   0   70.52   29.69
   7  14   1  654.84   92.32
  -7  14  -1  756.15  104.69
  -7  14  -1  564.24   75.85
  -7 -14  -1  576.20   75.73
   7 -14   1  724.67   90.49
   7  14   2 1304.12  127.43
  -7  14  -2 1418.86  139.66
  -7  14  -2 1244.07  119.54
  -7 -14  -2 1272.52  149.94
   7 -14   2 1238.74  127.19
   7 -14   2 1000.99   98.62
  -7  14  -3   21.03   37.02
  -7 -14  -3   23.35   29.94
   7 -14   3   55.84   35.73
   7 -14   3   28.41   28.69
   7  15   0  538.15   78.00
  -7  15   0  576.28   80.44
  -7  15   0  439.70   61.10
  -7 -15   0  445.80   65.97
   7 -15   0  493.09   88.82
   7  15   1   48.91   37.08
  -7  15  -1  128.53   49.68
  -7  15  -1   67.36   33.16
  -7 -15  -1   39.36   33.53
   7 -15   1   55.96   34.00
  -7  15  -2   74.85   38.63
  -7 -15  -2   99.10   40.43
   7 -15   2  128.80   40.28
  -7  16   0   60.21   31.96
  -7 -16   0   83.11   38.84
   8   0   0  116.90   35.44
   8   0   0  104.78   35.23
  -8   0   0   49.45   25.32
  -8   0   0  108.64   38.40
  -8   0   0   98.93   31.09
   8   0   1  -22.71   19.80
   8   0   1    3.52   19.84
  -8   0  -1  -12.93   19.85
  -8   0  -1   10.80   19.84
  -8   0  -1    7.55   19.81
   8   0   211895.77  605.10
  -8   0  -210939.43  529.08
  -8   0  -211046.89  484.89
  -8   0  -211786.30  538.13
   8   0   3   41.38   41.90
  -8   0  -3   22.51   24.15
  -8   0  -3   -8.80   28.39
  -8   0  -3   15.83   27.46
   8   0   4 3821.42  265.87
  -8   0  -4 3602.63  229.26
  -8   0  -4 3403.53  213.11
  -8   0  -4 3816.88  239.08
   8   0   5    0.40   35.37
  -8   0  -5    1.40   29.45
  -8   0  -5    5.89   26.99
  -8   0  -5   23.66   30.26
   8   1   0 2970.66  234.48
   8   1   0 2953.10  202.01
  -8   1   0 2947.30  164.43
  -8   1   0 3053.12  217.24
  -8   1   0 3114.00  209.71
  -8  -1   0 2899.75  173.89
  -8  -1   0 3085.22  207.63
  -8  -1   0 3140.47  207.21
   8  -1   0 2946.16  184.45
   8  -1   0 3124.06  215.51
   8   1   1    2.71   21.95
   8   1   1   10.24   29.47
  -8   1  -1   -7.72   23.65
  -8   1  -1   35.74   27.25
  -8   1  -1   51.66   27.99
  -8  -1  -1    9.13   19.45
  -8  -1  -1  -17.92   21.48
  -8  -1  -1   62.32   38.27
   8  -1   1   18.84   23.19
   8  -1   1   34.28   27.48
   8   1   2  128.86   47.62
  -8   1  -2  172.11   39.24
  -8   1  -2   62.23   28.83
  -8   1  -2  113.19   40.98
  -8  -1  -2  111.38   30.83
  -8  -1  -2  110.26   45.57
  -8  -1  -2  123.53   49.54
   8  -1   2   98.71   45.64
   8   1   3    6.36   38.46
  -8   1  -3   93.70   29.67
  -8   1  -3   62.90   38.79
  -8   1  -3   63.64   38.49
  -8  -1  -3   15.42   22.99
  -8  -1  -3   13.63   34.30
  -8  -1  -3   16.83   35.14
   8  -1   3   78.33   47.30
   8   1   4 3069.02  217.54
  -8   1  -4 2793.84  193.32
  -8   1  -4 2696.63  212.30
  -8   1  -4 2948.26  214.79
  -8  -1  -4 2836.49  175.59
  -8  -1  -4 2868.65  190.01
  -8  -1  -4 2917.36  197.81
   8  -1   4 2957.79  216.27
   8   1   5  522.22   71.94
  -8   1  -5  439.95   58.28
  -8   1  -5  383.78   62.32
  -8   1  -5  543.41   63.61
  -8  -1  -5  358.76   52.14
  -8  -1  -5  431.91   55.14
  -8  -1  -5  466.28   64.29
   8  -1   5  537.52   74.93
   8   2   0  379.04   53.05
   8   2   0  354.29   54.02
  -8   2   0  368.48   47.15
  -8   2   0  415.51   60.46
  -8   2   0  462.37   65.06
  -8  -2   0  409.09   66.00
  -8  -2   0  489.00   62.99
   8  -2   0  385.56   51.78
   8  -2   0  531.17   65.29
   8   2   1   -2.35   23.15
   8   2   1  -31.42   25.38
  -8   2  -1   42.69   25.49
  -8   2  -1  -10.01   26.34
  -8   2  -1    6.19   36.48
  -8  -2  -1   15.67   29.27
  -8  -2  -1    7.71   33.65
   8  -2   1   42.68   26.15
   8  -2   1  -17.84   30.04
   8   2   2 4231.13  277.84
  -8   2  -2 3813.30  218.42
  -8   2  -2 3797.20  252.59
  -8   2  -2 4144.03  259.03
  -8  -2  -2 3785.68  219.52
  -8  -2  -2 3665.05  213.50
  -8  -2  -2 4110.38  265.97
   8  -2   2 3873.22  237.88
   8  -2   2 4134.42  228.31
   8   2   3 1113.38  105.08
  -8   2  -3 1194.06  103.03
  -8   2  -3 1088.02  105.17
  -8   2  -3 1092.03   96.55
  -8  -2  -3 1345.01  107.98
  -8  -2  -3 1179.15   98.19
  -8  -2  -3 1207.77  118.85
   8  -2   3 1230.73  126.64
   8   2   4   19.90   31.77
  -8   2  -4   57.81   26.74
  -8   2  -4   55.85   31.17
  -8   2  -4   30.57   37.29
  -8  -2  -4   39.51   21.20
  -8  -2  -4   13.08   30.84
  -8  -2  -4   75.81   39.60
   8  -2   4   39.21   38.29
   8   2   5   79.99   45.39
  -8   2  -5   93.56   35.11
  -8   2  -5  101.45   34.17
  -8   2  -5   97.75   39.99
  -8  -2  -5   75.85   31.99
  -8  -2  -5   33.88   34.20
  -8  -2  -5   85.97   42.67
   8  -2   5   20.42   32.52
   8   3   0 1633.34  157.86
   8   3   0 1708.57  153.94
  -8   3   0 1791.28  116.93
  -8   3   0 1838.48  123.25
  -8   3   0 1761.26  143.57
  -8  -3   0 1961.51  136.47
  -8  -3   0 1987.62  137.82
   8  -3   0 1709.93  139.25
   8  -3   0 1694.49  139.51
   8   3   1  175.78   35.83
   8   3   1  167.01   37.92
  -8   3  -1  223.71   38.79
  -8   3  -1  238.14   40.63
  -8   3  -1  278.52   59.18
  -8  -3  -1  225.92   46.17
  -8  -3  -1  229.01   45.32
   8  -3   1  172.36   35.49
   8  -3   1  220.03   43.61
   8   3   2    2.28   30.32
  -8   3  -2   -8.24   26.76
  -8   3  -2   42.15   27.08
  -8   3  -2   27.71   31.43
  -8  -3  -2   20.30   35.88
  -8  -3  -2  -52.34   30.60
   8  -3   2   13.62   21.93
   8  -3   2   29.48   24.44
   8   3   3  319.39   57.20
  -8   3  -3  413.00   52.11
  -8   3  -3  342.79   42.71
  -8   3  -3  347.77   58.88
  -8  -3  -3  418.21   58.43
  -8  -3  -3  323.13   48.33
   8  -3   3  482.20   65.09
   8   3   4  526.11   74.14
  -8   3  -4  553.70   67.88
  -8   3  -4  608.59   70.10
  -8   3  -4  718.01   95.63
  -8  -3  -4  487.47   57.81
  -8  -3  -4  489.77   62.16
  -8  -3  -4  483.11   61.04
   8  -3   4  607.85   74.97
   8   3   5 2636.45  219.91
  -8   3  -5 2163.45  165.69
  -8   3  -5 2512.51  206.47
  -8  -3  -5 2380.91  177.94
  -8  -3  -5 2023.84  145.48
  -8  -3  -5 2174.18  161.62
   8  -3   5 2414.74  190.90
   8   4   0  143.52   33.98
   8   4   0  147.30   41.39
  -8   4   0  111.78   28.58
  -8   4   0  121.67   35.03
  -8   4   0  146.89   43.31
  -8  -4   0   83.48   46.04
  -8  -4   0  133.98   42.62
   8  -4   0  108.45   35.75
   8  -4   0  148.08   39.02
   8   4   1  286.77   59.66
  -8   4  -1  361.36   79.43
  -8   4  -1  270.08   47.28
  -8   4  -1  221.85   51.07
  -8  -4  -1  262.21   42.88
  -8  -4  -1  294.59   47.33
   8  -4   1  267.45   50.19
   8  -4   1  281.35   52.78
   8   4   2 2346.25  187.45
  -8   4  -2 2531.08  172.44
  -8   4  -2 2434.61  171.12
  -8   4  -2 2826.45  211.44
  -8  -4  -2 2560.16  188.26
  -8  -4  -2 2640.73  168.89
   8  -4   2 2355.01  151.58
   8  -4   2 2620.78  177.75
   8   4   3 1659.42  144.15
  -8   4  -3 1681.65  119.31
  -8   4  -3 1461.42  120.41
  -8   4  -3 1621.86  139.82
  -8  -4  -3 1678.92  138.12
  -8  -4  -3 1669.74  142.66
   8  -4   3 1744.39  139.98
   8   4   4   -9.22   28.63
  -8   4  -4  -11.04   28.68
  -8   4  -4    0.84   28.69
  -8   4  -4  -16.88   28.69
  -8  -4  -4   -1.52   28.67
  -8  -4  -4    6.72   28.68
   8  -4   4   17.66   28.65
   8   4   5  361.69   58.27
  -8   4  -5  406.28   56.97
  -8   4  -5  294.88   57.49
  -8  -4  -5  297.96   57.78
  -8  -4  -5  407.36   58.22
   8  -4   5  351.56   58.15
   8   5   0 1182.15   96.92
   8   5   0 1155.59  113.34
  -8   5   0 1063.53   94.56
  -8   5   0 1198.00  104.93
  -8   5   0 1033.25  105.16
  -8  -5   0 1299.42  116.07
  -8  -5   0 1280.65   99.40
   8  -5   0 1113.58  118.56
   8  -5   0 1077.68  102.67
   8   5   1 1138.70  108.82
  -8   5  -1 1267.73   95.37
  -8   5  -1 1070.93   98.99
  -8   5  -1 1237.15  114.70
  -8  -5  -1 1078.16  102.80
  -8  -5  -1 1247.45  104.18
   8  -5   1  975.96   99.81
   8  -5   1 1256.34  116.83
   8   5   2    2.00   38.15
  -8   5  -2   32.25   28.10
  -8   5  -2    4.16   24.83
  -8   5  -2   19.01   33.82
  -8  -5  -2   25.48   31.79
  -8  -5  -2   -7.03   25.05
   8  -5   2   20.18   22.54
   8  -5   2   -4.08   27.76
   8   5   3   49.04   33.80
  -8   5  -3   27.86   26.54
  -8   5  -3   61.61   26.83
  -8   5  -3   28.79   30.90
  -8  -5  -3   58.49   38.51
  -8  -5  -3   48.51   31.25
   8  -5   3   27.62   27.50
   8   5   4  242.05   41.35
  -8   5  -4  237.78   45.18
  -8   5  -4  297.27   50.38
  -8  -5  -4  307.86   43.43
  -8  -5  -4  289.98   49.42
   8  -5   4  289.18   59.17
  -8   5  -5 1764.75  153.13
  -8  -5  -5 1961.87  178.37
  -8  -5  -5 1694.14  136.06
   8  -5   5 1757.05  172.05
   8   6   0   34.61   24.43
   8   6   0   13.37   34.41
  -8   6   0   23.45   29.76
  -8   6   0   50.16   32.05
  -8   6   0   13.91   38.39
  -8  -6   0   -9.68   25.83
  -8  -6   0   20.25   29.86
   8  -6   0   55.16   31.39
   8  -6   0   30.92   22.15
   8   6   1  490.42   71.49
  -8   6  -1  595.55   57.58
  -8   6  -1  465.48   55.58
  -8   6  -1  607.84   68.14
  -8  -6  -1  652.00   73.89
  -8  -6  -1  593.50   70.58
   8  -6   1  663.81   78.81
   8  -6   1  469.97   70.53
   8   6   2  974.94   97.65
  -8   6  -2  941.01   78.25
  -8   6  -2  852.03   85.11
  -8   6  -2 1002.97   93.95
  -8  -6  -2 1014.68  115.59
  -8  -6  -2  992.08   84.92
   8  -6   2  944.59   96.61
   8  -6   2  878.34   95.09
   8   6   3  431.41   64.49
  -8   6  -3  538.23   66.70
  -8   6  -3  595.63   78.62
  -8  -6  -3  478.37   69.98
  -8  -6  -3  501.48   54.98
   8  -6   3  530.77   66.88
   8   6   4   16.79   32.43
  -8   6  -4   -9.27   26.18
  -8   6  -4   22.17   29.30
  -8  -6  -4   52.13   39.86
  -8  -6  -4  -22.07   26.66
   8  -6   4  -13.14   28.92
  -8   6  -5  608.30   76.35
  -8  -6  -5  641.19   75.43
   8  -6   5  658.06   99.59
   8   7   0 1128.71   91.74
   8   7   0 1349.34  134.00
  -8   7   0 1128.37  114.20
  -8   7   0 1145.52  110.77
  -8   7   0 1189.19  130.70
  -8  -7   0 1349.63  132.86
  -8  -7   0 1188.32  104.67
   8  -7   0 1196.99  114.44
   8  -7   0 1181.07  115.02
   8   7   1  420.92   64.45
  -8   7  -1  354.70   53.89
  -8   7  -1  380.79   61.60
  -8   7  -1  371.56   65.12
  -8  -7  -1  411.13   52.15
  -8  -7  -1  407.97   53.74
   8  -7   1  343.86   53.25
   8  -7   1  362.55   54.94
   8   7   2  -22.45   34.45
  -8   7  -2  -17.50   34.51
  -8   7  -2  -15.74   34.51
  -8  -7  -2   41.83   34.49
  -8  -7  -2    1.44   34.50
   8  -7   2  -23.83   34.54
   8  -7   2   -9.44   34.57
   8   7   3  438.66   61.56
  -8   7  -3  408.76   56.89
  -8   7  -3  457.93   63.71
  -8  -7  -3  393.93   57.03
  -8  -7  -3  297.38   47.69
   8  -7   3  380.36   58.98
   8   7   4   82.31   44.11
  -8   7  -4   86.46   36.12
  -8   7  -4   86.30   34.62
  -8  -7  -4   91.42   42.53
  -8  -7  -4   52.00   27.70
   8  -7   4  111.64   48.15
   8   8   0 1300.43   91.22
   8   8   0 1369.92  106.92
  -8   8   0 1516.60  110.19
  -8   8   0 1503.83  129.51
  -8   8   0 1487.61  113.38
  -8  -8   0 1757.93  156.27
  -8  -8   0 1448.62  127.05
   8  -8   0 1291.33  125.50
   8  -8   0 1384.60  129.35
   8   8   1   48.16   29.34
  -8   8  -1  111.04   33.79
  -8   8  -1  114.65   43.30
  -8  -8  -1   88.87   36.61
  -8  -8  -1   86.67   35.51
   8  -8   1  157.65   43.03
   8  -8   1   95.35   31.97
   8   8   2 1783.41  195.27
  -8   8  -2 1947.95  170.70
  -8   8  -2 2016.58  170.92
  -8  -8  -2 2001.76  149.05
  -8  -8  -2 2110.38  154.36
   8  -8   2 2121.24  169.49
   8  -8   2 2020.57  182.74
   8   8   3 1388.79  134.26
  -8   8  -3 1340.89  132.47
  -8   8  -3 1482.22  160.03
  -8  -8  -3 1449.77  143.51
  -8  -8  -3 1282.45  114.35
   8  -8   3 1403.80  131.31
  -8   8  -4  137.45   43.90
  -8   8  -4   58.53   37.35
  -8  -8  -4  118.14   47.36
   8  -8   4  107.20   46.65
   8   9   0   69.83   35.45
  -8   9   0  189.96   44.52
  -8   9   0   84.63   35.13
  -8  -9   0  133.97   43.29
  -8  -9   0   65.35   32.72
   8  -9   0  112.95   45.09
   8   9   1  834.34  101.22
  -8   9  -1  702.55   86.02
  -8   9  -1  874.09  103.72
  -8  -9  -1  901.20   94.19
  -8  -9  -1  635.83   66.57
   8  -9   1  860.05   85.12
   8  -9   1  672.38   69.84
   8   9   2  112.90   43.36
  -8   9  -2  157.65   46.69
  -8   9  -2  123.50   40.05
  -8  -9  -2  141.82   44.89
  -8  -9  -2  160.75   38.47
   8  -9   2  166.53   44.91
   8  -9   2  173.07   46.06
   8   9   3  578.40   74.29
  -8   9  -3  724.60   90.91
  -8   9  -3  614.02   81.95
  -8  -9  -3  612.45   89.07
   8  -9   3  751.79   83.30
   8  -9   4    9.20   29.31
   8  10   0   -6.38   45.18
  -8  10   0   88.36   45.28
  -8  10   0   33.07   45.20
  -8 -10   0   32.57   45.28
  -8 -10   0  -22.31   45.29
   8 -10   0  -30.39   45.25
   8  10   1  504.61   69.60
  -8  10  -1  626.06   81.87
  -8  10  -1  478.23   69.01
  -8 -10  -1  540.57   78.81
  -8 -10  -1  494.31   60.23
   8 -10   1  549.08   71.78
   8 -10   1  549.19   72.08
   8  10   2   -2.31   33.84
  -8  10  -2   19.21   27.88
  -8  10  -2   25.99   27.71
  -8 -10  -2   67.64   35.27
   8 -10   2   38.00   36.36
   8 -10   2  -16.67   19.24
  -8  10  -3 1312.06  130.96
  -8  10  -3 1182.08  135.77
   8 -10   3 1145.13  105.58
   8 -10   3 1316.60  130.07
   8  11   0   81.28   49.17
  -8  11   0   78.21   38.64
  -8  11   0   35.95   31.17
  -8 -11   0   64.46   38.45
  -8 -11   0   55.90   28.05
   8 -11   0  135.84   48.17
   8  11   1  834.06  108.52
  -8  11  -1  707.29   84.08
  -8  11  -1  721.63   80.34
  -8 -11  -1  924.89   98.94
   8 -11   1  683.97   90.86
   8  11   2   93.24   45.08
  -8  11  -2  101.96   36.76
  -8  11  -2  104.74   38.75
  -8 -11  -2  133.16   52.23
   8 -11   2   99.61   36.00
   8 -11   2   75.32   41.27
   8  12   0   27.12   39.09
  -8  12   0   52.03   38.08
  -8  12   0   14.01   29.46
  -8 -12   0   20.14   33.29
   8 -12   0   76.69   40.62
  -8  12  -1  375.00   64.70
  -8  12  -1  318.47   63.22
   8 -12   1  224.85   60.76
   9   0   0  -22.88   28.07
   9   0   0   15.84   33.12
  -9   0   0   18.82   34.15
  -9   0   0   36.82   35.14
   9   0   1 1148.99  119.15
  -9   0  -1 1212.58  102.54
  -9   0  -1 1065.75  109.89
   9   0   2  -16.04   34.80
  -9   0  -2   -2.72   34.78
  -9   0  -2   -7.75   34.75
   9   0   3 3396.85  239.25
  -9   0  -3 3790.36  274.70
  -9   0  -3 3984.11  264.47
   9   1   0 1412.18  142.54
   9   1   0 1737.76  140.91
  -9   1   0 1640.70  128.48
  -9   1   0 1720.59  166.84
  -9  -1   0 1664.50  142.31
  -9  -1   0 1731.99  150.95
   9  -1   0 1703.81  148.82
   9  -1   0 1651.78  135.79
   9   1   1 4914.48  324.03
  -9   1  -1 4768.79  269.08
  -9   1  -1 5274.47  341.54
  -9  -1  -1 4901.73  330.37
  -9  -1  -1 4874.69  288.10
   9  -1   1 5049.99  329.33
   9   1   2 2114.86  193.16
  -9   1  -2 2055.39  171.11
  -9   1  -2 2053.43  170.33
  -9  -1  -2 2129.17  170.94
  -9  -1  -2 2219.87  165.37
   9  -1   2 1872.91  154.96
   9   1   3  119.86   41.06
  -9   1  -3  103.73   37.93
  -9   1  -3   14.43   45.79
  -9  -1  -3   77.30   29.02
  -9  -1  -3  119.66   42.52
   9  -1   3   65.06   39.59
   9   2   0  230.26   47.71
   9   2   0  245.87   50.23
  -9   2   0  204.21   42.81
  -9   2   0  211.17   50.78
  -9  -2   0  204.50   46.30
  -9  -2   0  181.84   45.56
   9  -2   0   71.46   34.49
   9  -2   0  181.99   44.80
   9   2   1 2095.01  175.10
  -9   2  -1 2010.67  171.32
  -9   2  -1 1952.20  163.45
  -9  -2  -1 1904.93  168.58
  -9  -2  -1 2185.02  156.20
   9  -2   1 1820.76  150.12
   9   2   2  319.43   64.33
  -9   2  -2  313.47   51.04
  -9   2  -2  265.07   44.78
  -9   2  -2  372.71   60.01
  -9  -2  -2  340.46   69.29
  -9  -2  -2  380.33   68.04
   9  -2   2  295.86   62.96
   9   2   3 3479.46  262.34
  -9   2  -3 2771.32  198.56
  -9   2  -3 3046.01  245.73
  -9  -2  -3 3426.90  220.37
  -9  -2  -3 3478.78  211.60
   9  -2   3 3332.86  212.74
   9   3   0  688.25   74.61
  -9   3   0  580.27   67.50
  -9   3   0  542.95   57.92
  -9   3   0  600.10   82.42
  -9  -3   0  568.91   70.41
  -9  -3   0  561.82   72.93
   9  -3   0  534.32   62.72
   9  -3   0  585.47   71.04
   9   3   1  832.07  106.97
  -9   3  -1  738.93   81.58
  -9   3  -1  819.22   94.44
  -9   3  -1  821.60   97.08
  -9  -3  -1  834.40   91.02
  -9  -3  -1  769.65   79.72
   9  -3   1  762.29   93.30
   9  -3   1  779.00   95.00
   9   3   2  101.86   34.53
  -9   3  -2   10.85   25.17
  -9   3  -2   76.00   31.70
  -9   3  -2   60.51   34.21
  -9  -3  -2  -22.41   27.77
  -9  -3  -2   39.23   36.48
   9  -3   2   29.91   32.63
  -9   3  -3 1719.22  163.25
  -9   3  -3 1698.02  152.33
  -9  -3  -3 1726.15  161.56
  -9  -3  -3 1869.12  139.14
   9  -3   3 2208.60  187.75
   9   4   0   75.05   36.61
  -9   4   0   54.20   29.34
  -9   4   0   83.91   40.29
  -9   4   0   81.23   37.15
  -9  -4   0  100.94   37.35
  -9  -4   0   44.99   35.71
   9  -4   0   43.43   34.89
   9  -4   0   46.84   28.04
   9   4   1 1127.44  107.80
  -9   4  -1  903.53   94.39
  -9   4  -1 1051.84  105.27
  -9   4  -1 1009.52  115.36
  -9  -4  -1 1019.76   90.91
  -9  -4  -1  862.48  103.30
   9  -4   1  720.23  103.96
   9  -4   1  867.53   96.72
   9   4   2  563.43   87.91
  -9   4  -2  416.57   60.46
  -9   4  -2  538.34   59.12
  -9   4  -2  608.98   95.42
  -9  -4  -2  525.40   73.13
  -9  -4  -2  530.88   73.95
   9  -4   2  326.73   63.10
   9   5   0  828.60   82.21
  -9   5   0  867.67   91.16
  -9   5   0  752.13   77.82
  -9   5   0  989.06  126.32
  -9  -5   0  920.16  109.85
  -9  -5   0  922.17   91.71
   9  -5   0  876.23  115.09
   9  -5   0  803.18   94.22
   9   5   1  361.87   55.38
  -9   5  -1  259.37   53.45
  -9   5  -1  251.22   49.48
  -9   5  -1  260.08   64.06
  -9  -5  -1  368.86   52.69
  -9  -5  -1  321.78   58.86
   9  -5   1  279.09   54.50
   9  -5   1  297.45   57.76
   9   5   2   13.81   41.75
  -9   5  -2    5.76   41.83
  -9  -5  -2  -21.36   41.77
  -9  -5  -2   -4.95   41.78
   9  -5   2   -3.40   41.82
   9   6   0  -25.03   34.02
  -9   6   0   10.71   26.89
  -9   6   0   13.09   26.62
  -9   6   0   31.75   31.47
  -9  -6   0  -16.47   39.02
  -9  -6   0    0.08   28.95
   9  -6   0   12.81   30.26
   9   6   1  812.36   77.47
  -9   6  -1  720.35   83.09
  -9  -6  -1  823.96  102.97
  -9  -6  -1  770.03   81.27
   9  -6   1  533.78   70.95
   9  -6   1  685.03   85.97
  -9   6  -2  867.40   84.01
  -9  -6  -2  822.79   95.81
   9  -6   2  659.10   93.50
   9   7   0  672.60   80.69
  -9   7   0  654.46   75.71
  -9  -7   0  674.59   83.18
   9  -7   0  519.39   83.99
   9   7   1  237.04   46.55
  -9   7  -1  259.78   53.82
  -9  -7  -1  245.45   60.55
   9  -7   1  248.21   47.13
   9  -7   1  220.60   54.42
  -9   8   0   16.54   32.07
  -9  -8   0  -15.35   29.98
   9  -8   0   61.31   33.09

;
_shelx_hkl_checksum              7919
loop_
_space_group_symop_operation_xyz
'x, y, z'
'-x+1/2, y+1/2, -z+1/2'
'-x, -y, -z'
'x-1/2, -y-1/2, z-1/2'
loop_
_atom_site_label
_atom_site_type_symbol
_atom_site_fract_x
_atom_site_fract_y
_atom_site_fract_z
_atom_site_U_iso_or_equiv
_atom_site_adp_type
_atom_site_occupancy
_atom_site_site_symmetry_order
_atom_site_calc_flag
_atom_site_refinement_flags_posn
_atom_site_refinement_flags_adp
_atom_site_refinement_flags_occupancy
_atom_site_disorder_assembly
_atom_site_disorder_group
S1 S 0.72298(4) 0.72402(2) 0.36042(3) 0.01674(9) Uani 1 1 d . . . . .
O1 O 0.58988(13) 0.77593(5) 0.45806(12) 0.02382(19) Uani 1 1 d . . . . .
O2 O 0.91834(13) 0.70372(6) 0.43640(11) 0.02414(18) Uani 1 1 d . . . . .
N1 N 0.76146(15) 0.77068(6) 0.17756(13) 0.01953(19) Uani 1 1 d . . . . .
H1A H 0.653(3) 0.7795(11) 0.113(3) 0.037(5) Uiso 1 1 d . . . . .
H1B H 0.853(3) 0.7508(13) 0.120(3) 0.043(5) Uiso 1 1 d . . . . .
C1 C 0.59439(16) 0.63117(7) 0.31472(13) 0.01730(19) Uani 1 1 d . . . . .
C2 C 0.39250(17) 0.63458(7) 0.25918(15) 0.0204(2) Uani 1 1 d . . . . .
H2 H 0.3232 0.6857 0.2538 0.025 Uiso 1 1 calc R U . . .
C3 C 0.29407(18) 0.56208(8) 0.21185(15) 0.0233(2) Uani 1 1 d . . . . .
H3 H 0.1567 0.5640 0.1726 0.028 Uiso 1 1 calc R U . . .
C4 C 0.39360(19) 0.48637(7) 0.22093(15) 0.0234(2) Uani 1 1 d . . . . .
C5 C 0.5952(2) 0.48453(7) 0.27837(16) 0.0248(2) Uani 1 1 d . . . . .
H5 H 0.6641 0.4333 0.2857 0.030 Uiso 1 1 calc R U . . .
C6 C 0.69712(17) 0.55653(7) 0.32520(15) 0.0216(2) Uani 1 1 d . . . . .
H6 H 0.8347 0.5548 0.3637 0.026 Uiso 1 1 calc R U . . .
C7 C 0.2846(2) 0.40818(8) 0.16959(18) 0.0324(3) Uani 1 1 d . . . . .
H7A H 0.2127 0.3870 0.2712 0.049 Uiso 1 1 calc R U . . .
H7B H 0.3825 0.3671 0.1317 0.049 Uiso 1 1 calc R U . . .
H7C H 0.1877 0.4196 0.0725 0.049 Uiso 1 1 calc R U . . .
loop_
_atom_site_aniso_label
_atom_site_aniso_U_11
_atom_site_aniso_U_22
_atom_site_aniso_U_33
_atom_site_aniso_U_23
_atom_site_aniso_U_13
_atom_site_aniso_U_12
S1 0.01580(13) 0.01873(14) 0.01563(13) -0.00093(8) -0.00053(9) -0.00090(8)
O1 0.0240(4) 0.0234(4) 0.0243(4) -0.0066(3) 0.0056(3) -0.0016(3)
O2 0.0199(4) 0.0286(4) 0.0234(4) 0.0010(3) -0.0066(3) -0.0012(3)
N1 0.0173(4) 0.0221(5) 0.0191(4) 0.0022(3) -0.0001(3) -0.0014(3)
C1 0.0180(4) 0.0179(5) 0.0159(4) 0.0005(3) 0.0003(3) -0.0009(3)
C2 0.0191(5) 0.0201(5) 0.0220(5) 0.0008(4) -0.0012(4) -0.0003(4)
C3 0.0219(5) 0.0252(5) 0.0228(5) 0.0002(4) -0.0016(4) -0.0047(4)
C4 0.0321(6) 0.0208(5) 0.0173(5) -0.0002(4) 0.0023(4) -0.0062(4)
C5 0.0317(6) 0.0178(5) 0.0248(5) 0.0005(4) 0.0023(4) 0.0020(4)
C6 0.0217(5) 0.0208(5) 0.0223(5) 0.0013(4) 0.0003(4) 0.0028(4)
C7 0.0460(8) 0.0237(6) 0.0274(6) -0.0019(5) 0.0001(5) -0.0117(5)
loop_
_atom_type_symbol
_atom_type_description
_atom_type_scat_dispersion_real
_atom_type_scat_dispersion_imag
_atom_type_scat_source
C C 0.0033 0.0016 'International Tables Vol C Tables 4.2.6.8 and 6.1.1.4'
H H 0.0000 0.0000 'International Tables Vol C Tables 4.2.6.8 and 6.1.1.4'
N N 0.0061 0.0033 'International Tables Vol C Tables 4.2.6.8 and 6.1.1.4'
O O 0.0106 0.0060 'International Tables Vol C Tables 4.2.6.8 and 6.1.1.4'
S S 0.1246 0.1234 'International Tables Vol C Tables 4.2.6.8 and 6.1.1.4'
loop_
_geom_angle_atom_site_label_1
_geom_angle_atom_site_label_2
_geom_angle_atom_site_label_3
_geom_angle
_geom_angle_site_symmetry_1
_geom_angle_site_symmetry_3
_geom_angle_publ_flag
O2 S1 O1 119.07(5) . . ?
O2 S1 N1 106.81(5) . . ?
O1 S1 N1 106.38(6) . . ?
O2 S1 C1 107.87(5) . . ?
O1 S1 C1 107.58(5) . . ?
N1 S1 C1 108.82(5) . . ?
S1 N1 H1A 114.5(13) . . ?
S1 N1 H1B 114.2(15) . . ?
H1A N1 H1B 112.0(19) . . ?
C6 C1 C2 121.09(10) . . ?
C6 C1 S1 120.10(8) . . ?
C2 C1 S1 118.72(8) . . ?
C3 C2 C1 118.99(11) . . ?
C3 C2 H2 120.5 . . ?
C1 C2 H2 120.5 . . ?
C2 C3 C4 121.10(11) . . ?
C2 C3 H3 119.4 . . ?
C4 C3 H3 119.4 . . ?
C5 C4 C3 118.79(11) . . ?
C5 C4 C7 120.72(12) . . ?
C3 C4 C7 120.49(12) . . ?
C6 C5 C4 121.04(11) . . ?
C6 C5 H5 119.5 . . ?
C4 C5 H5 119.5 . . ?
C5 C6 C1 118.98(11) . . ?
C5 C6 H6 120.5 . . ?
C1 C6 H6 120.5 . . ?
C4 C7 H7A 109.5 . . ?
C4 C7 H7B 109.5 . . ?
H7A C7 H7B 109.5 . . ?
C4 C7 H7C 109.5 . . ?
H7A C7 H7C 109.5 . . ?
H7B C7 H7C 109.5 . . ?
loop_
_geom_bond_atom_site_label_1
_geom_bond_atom_site_label_2
_geom_bond_distance
_geom_bond_site_symmetry_2
_geom_bond_publ_flag
S1 O2 1.4402(8) . ?
S1 O1 1.4408(9) . ?
S1 N1 1.6067(10) . ?
S1 C1 1.7621(11) . ?
N1 H1A 0.87(2) . ?
N1 H1B 0.82(2) . ?
C1 C6 1.3920(15) . ?
C1 C2 1.3924(15) . ?
C2 C3 1.3887(16) . ?
C2 H2 0.9500 . ?
C3 C4 1.3966(17) . ?
C3 H3 0.9500 . ?
C4 C5 1.3937(18) . ?
C4 C7 1.5071(17) . ?
C5 C6 1.3918(17) . ?
C5 H5 0.9500 . ?
C6 H6 0.9500 . ?
C7 H7A 0.9800 . ?
C7 H7B 0.9800 . ?
C7 H7C 0.9800 . ?
loop_
_geom_hbond_atom_site_label_D
_geom_hbond_atom_site_label_H
_geom_hbond_atom_site_label_A
_geom_hbond_distance_DH
_geom_hbond_distance_HA
_geom_hbond_distance_DA
_geom_hbond_angle_DHA
_geom_hbond_site_symmetry_A
N1 H1A O2 0.87(2) 2.04(2) 2.9061(13) 173.2(18) 4_575
N1 H1B O1 0.82(2) 2.07(2) 2.8800(14) 169(2) 4_675
loop_
_geom_torsion_atom_site_label_1
_geom_torsion_atom_site_label_2
_geom_torsion_atom_site_label_3
_geom_torsion_atom_site_label_4
_geom_torsion
_geom_torsion_site_symmetry_1
_geom_torsion_site_symmetry_2
_geom_torsion_site_symmetry_3
_geom_torsion_site_symmetry_4
_geom_torsion_publ_flag
O2 S1 C1 C6 -10.76(11) . . . . ?
O1 S1 C1 C6 -140.37(9) . . . . ?
N1 S1 C1 C6 104.77(10) . . . . ?
O2 S1 C1 C2 172.66(8) . . . . ?
O1 S1 C1 C2 43.04(10) . . . . ?
N1 S1 C1 C2 -71.82(10) . . . . ?
C6 C1 C2 C3 -0.74(17) . . . . ?
S1 C1 C2 C3 175.81(9) . . . . ?
C1 C2 C3 C4 0.66(17) . . . . ?
C2 C3 C4 C5 -0.12(17) . . . . ?
C2 C3 C4 C7 179.83(11) . . . . ?
C3 C4 C5 C6 -0.36(18) . . . . ?
C7 C4 C5 C6 179.69(11) . . . . ?
C4 C5 C6 C1 0.28(17) . . . . ?
C2 C1 C6 C5 0.27(17) . . . . ?
S1 C1 C6 C5 -176.23(9) . . . . ?
