#------------------------------------------------------------------------------
#$Date: 2021-02-05 01:31:17 +0200 (Fri, 05 Feb 2021) $
#$Revision: 261764 $
#$URL: file:///home/coder/svn-repositories/cod/cif/7/15/78/7157819.cif $
#------------------------------------------------------------------------------
#
# This file is available in the Crystallography Open Database (COD),
# http://www.crystallography.net/
#
# All data on this site have been placed in the public domain by the
# contributors.
#
data_7157819
loop_
_publ_author_name
'Ichikawa, Yuki'
'Hiramatsu, Michiaki'
'Mita, Yusuke'
'Makishima, Makoto'
'Matsumoto, Yotaro'
'Masumoto, Yui'
'Muranaka, Atsuya'
'Uchiyama, Masanobu'
'Hashimoto, Yuichi'
'Ishikawa, Minoru'
_publ_section_title
;
 <i>meta</i>-Non-flat substituents: a novel molecular design to improve
 aqueous solubility in small molecule drug discovery.
;
_journal_issue                   2
_journal_name_full               'Organic &amp; biomolecular chemistry'
_journal_page_first              446
_journal_page_last               456
_journal_paper_doi               10.1039/d0ob02083d
_journal_volume                  19
_journal_year                    2021
_chemical_formula_moiety         'C7 H4 Br N'
_chemical_formula_sum            'C7 H4 Br N'
_chemical_formula_weight         182.02
_chemical_melting_point          327
_chemical_name_systematic        2-Bromobenzonitrile
_space_group_crystal_system      monoclinic
_space_group_IT_number           14
_space_group_name_Hall           '-P 2ybc'
_space_group_name_H-M_alt        'P 1 21/c 1'
_atom_sites_solution_hydrogens   difmap
_atom_sites_solution_primary     direct
_atom_sites_solution_secondary   difmap
_audit_creation_method           SHELXL-2014
_audit_update_record
;
2018-03-08 deposited with the CCDC.	2020-11-27 downloaded from the CCDC.
;
_cell_angle_alpha                90
_cell_angle_beta                 94.963(2)
_cell_angle_gamma                90
_cell_formula_units_Z            4
_cell_length_a                   3.8910(2)
_cell_length_b                   10.2919(4)
_cell_length_c                   16.3686(7)
_cell_measurement_reflns_used    18190
_cell_measurement_temperature    90
_cell_measurement_theta_max      31.235
_cell_measurement_theta_min      2.340
_cell_volume                     653.04(5)
_computing_cell_refinement       HKL2000
_computing_data_collection       CrystalClear
_computing_data_reduction        HKL2000
_computing_molecular_graphics    SV
_computing_publication_material  'SHELXL-2014 (Sheldrick, 2014)'
_computing_structure_refinement  'SHELXL-2014 (Sheldrick, 2014)'
_computing_structure_solution    SHELXS-97
_diffrn_ambient_temperature      90
_diffrn_detector_area_resol_mean 7.31
_diffrn_measured_fraction_theta_full 1.000
_diffrn_measured_fraction_theta_max 0.990
_diffrn_measurement_device_type  'Rigaku AFC-8 with Saturn70 CCD'
_diffrn_measurement_method       \w-scan
_diffrn_radiation_type           MoK\a
_diffrn_radiation_wavelength     0.71073
_diffrn_reflns_av_R_equivalents  0.0521
_diffrn_reflns_av_unetI/netI     0.0224
_diffrn_reflns_Laue_measured_fraction_full 1.000
_diffrn_reflns_Laue_measured_fraction_max 0.990
_diffrn_reflns_limit_h_max       5
_diffrn_reflns_limit_h_min       -5
_diffrn_reflns_limit_k_max       14
_diffrn_reflns_limit_k_min       -14
_diffrn_reflns_limit_l_max       23
_diffrn_reflns_limit_l_min       -23
_diffrn_reflns_number            17607
_diffrn_reflns_point_group_measured_fraction_full 1.000
_diffrn_reflns_point_group_measured_fraction_max 0.990
_diffrn_reflns_theta_full        25.242
_diffrn_reflns_theta_max         31.235
_diffrn_reflns_theta_min         2.340
_diffrn_source                   'Fine-focus rotating anode'
_exptl_absorpt_coefficient_mu    6.188
_exptl_absorpt_correction_T_max  0.46982
_exptl_absorpt_correction_T_min  0.42999
_exptl_absorpt_correction_type   multi-scan
_exptl_absorpt_process_details
;
 MULABS - Empirical Correction for Absorption Anisotropy.
 R.H. Blessing, Acta Cryst. (1995), A51, 33-38.
;
_exptl_crystal_colour            colourless
_exptl_crystal_density_diffrn    1.851
_exptl_crystal_description       needle
_exptl_crystal_F_000             352
_exptl_crystal_recrystallization_method 'Re-crystallisation from solvent'
_exptl_crystal_size_max          0.11
_exptl_crystal_size_mid          0.09
_exptl_crystal_size_min          0.07
_refine_diff_density_max         1.024
_refine_diff_density_min         -1.585
_refine_diff_density_rms         0.158
_refine_ls_extinction_method     none
_refine_ls_goodness_of_fit_ref   1.179
_refine_ls_hydrogen_treatment    constr
_refine_ls_matrix_type           full
_refine_ls_number_parameters     82
_refine_ls_number_reflns         2108
_refine_ls_number_restraints     0
_refine_ls_restrained_S_all      1.179
_refine_ls_R_factor_all          0.0448
_refine_ls_R_factor_gt           0.0405
_refine_ls_shift/su_max          0.001
_refine_ls_shift/su_mean         0.000
_refine_ls_structure_factor_coef Fsqd
_refine_ls_weighting_details
'w=1/[\s^2^(Fo^2^)+(0.0682P)^2^+0.3366P] where P=(Fo^2^+2Fc^2^)/3'
_refine_ls_weighting_scheme      calc
_refine_ls_wR_factor_gt          0.1115
_refine_ls_wR_factor_ref         0.1141
_reflns_Friedel_coverage         0.000
_reflns_number_gt                1868
_reflns_number_total             2108
_reflns_threshold_expression     'I > 2\s(I)'
_cod_data_source_file            d0ob02083d2.cif
_cod_data_source_block           CY014
_cod_depositor_comments
'Adding full bibliography for 7157808--7157819.cif.'
_cod_original_sg_symbol_H-M      'P 21/c'
_cod_database_code               7157819
_shelx_space_group_comment
;
The symmetry employed for this shelxl refinement is uniquely defined
by the following loop, which should always be used as a source of
symmetry information in preference to the above space-group names.
They are only intended as comments.
;
_shelx_estimated_absorpt_t_min   0.549
_shelx_estimated_absorpt_t_max   0.671
_shelxl_version_number           2014-3
_shelx_res_file
;
TITL 141203_CY014
CELL 0.71073 3.8910 10.2919 16.3686 90 94.9631 90
ZERR 4 0.0002 0.0004 0.0007 0 0.0021 0
LATT 1
SYMM -x, 1/2+y, 1/2-z
SFAC C H Br N
UNIT 28 16 4 4
L.S. 10
FMAP 2
PLAN 10
BOND $H
CONF
TEMP -183
ACTA
SIZE 0.11 0.09 0.07
WGHT    0.068200    0.336600
FVAR       2.36285
BR1   3    0.091408    0.508419    0.361425    11.00000    0.02618    0.01983 =
         0.02953   -0.00006    0.00361    0.00134
N1    4    0.140282    0.313980    0.169496    11.00000    0.05199    0.02946 =
         0.03229   -0.00028   -0.00072   -0.00747
C1    1    0.344678    0.258441    0.319659    11.00000    0.02438    0.01915 =
         0.02487   -0.00125    0.00266   -0.00232
C2    1    0.298652    0.344177    0.383901    11.00000    0.02258    0.01687 =
         0.02677    0.00031    0.00318   -0.00185
C3    1    0.408672    0.312480    0.463940    11.00000    0.02910    0.02328 =
         0.02532   -0.00163    0.00302   -0.00298
AFIX  43
H3    2    0.372427    0.370858    0.507324    11.00000   -1.20000
AFIX   0
C4    1    0.573422    0.193899    0.480314    11.00000    0.02827    0.02585 =
         0.02664    0.00372   -0.00015   -0.00190
AFIX  43
H4    2    0.653639    0.172140    0.535070    11.00000   -1.20000
AFIX   0
C5    1    0.621400    0.107053    0.417056    11.00000    0.02769    0.02167 =
         0.03382    0.00375    0.00338    0.00031
AFIX  43
H5    2    0.732765    0.026210    0.428785    11.00000   -1.20000
AFIX   0
C6    1    0.506626    0.138578    0.336955    11.00000    0.02861    0.02095 =
         0.02994   -0.00152    0.00583   -0.00019
AFIX  43
H6    2    0.537620    0.079077    0.293832    11.00000   -1.20000
AFIX   0
C7    1    0.229456    0.290581    0.235140    11.00000    0.03159    0.01792 =
         0.03130   -0.00228    0.00376   -0.00467
HKLF 4

REM  141203_CY014
REM R1 =  0.0405 for    1868 Fo > 4sig(Fo)  and  0.0448 for all    2108 data
REM     82 parameters refined using      0 restraints

END

WGHT      0.0682      0.3366

REM Highest difference peak  1.024,  deepest hole -1.585,  1-sigma level  0.158
Q1    1  -0.1471  0.5105  0.3419  11.00000  0.05    1.02
Q2    1   0.3040  0.5136  0.3999  11.00000  0.05    1.00
Q3    1   0.3083  0.5117  0.3432  11.00000  0.05    0.93
Q4    1   0.1008  0.5123  0.4219  11.00000  0.05    0.79
Q5    1   0.0519  0.5124  0.3008  11.00000  0.05    0.75
Q6    1  -0.4028  0.5178  0.3639  11.00000  0.05    0.43
Q7    1   0.2974  0.2951  0.2043  11.00000  0.05    0.39
Q8    1   0.1057  0.3033  0.2259  11.00000  0.05    0.38
Q9    1   0.6092  0.1321  0.3740  11.00000  0.05    0.36
Q10   1   0.2319  0.2975  0.2573  11.00000  0.05    0.32
;
_shelx_res_checksum              46439
_shelx_hkl_file
;
   5   0  -1   21.05   43.14
   5   0  -1  -21.71   43.14
   5   0  -2    2.12   36.93
   5   0  -2   25.97   51.21
   5   0  -3  856.38  169.88
   5   0  -3  629.36  139.79
   5   0  -4 5412.59  332.94
   5   0  -4 4914.70  318.46
   5   0  -5  -33.07   42.64
  -5   0   5  -33.25   42.83
   5   0  -5   36.46   42.67
  -5   0   6  173.39   52.52
   5   0  -6  199.85   61.77
   5   0  -6  190.52   55.19
   5   0  -7  -18.22   55.49
   5   0  -7   18.43   55.34
  -5   0   7   -4.64   55.63
   5   0  -8 2595.68  207.70
  -5   0   8 2195.91  178.46
   5   0  -8 2179.50  173.87
  -5   0   9    5.70   41.54
   5   0  -9   41.01   56.73
   5   0  -9  -13.27   45.89
   5   0 -10  752.15   98.88
   5   0 -10  820.70   97.74
   5   0 -11  -25.18   50.22
   5   0 -11  -16.71   50.71
   5   0 -12 1417.11  154.58
   5   0 -12 1309.25  138.00
   5   0 -13  -25.21   52.00
   5  -1  -1 2803.08  181.47
   5  -1  -1 3156.56  249.41
   5   1  -1 2785.72  200.67
   5   1  -1 2634.58  206.94
   5   1  -1 2626.83  175.64
   5   1  -2  490.84   88.10
   5   1  -2  358.56   90.39
   5   1  -2  299.94   82.65
   5  -1  -2  559.11  120.15
   5  -1  -2  481.47   79.85
   5   1  -3 1969.75  183.49
   5   1  -3 1837.38  168.51
   5   1  -3 1901.32  145.11
   5  -1  -3 1941.73  160.28
   5  -1  -4  421.55  102.19
  -5   1   4  313.98   67.44
   5   1  -4  412.82   93.47
   5   1  -4  268.01   82.01
   5   1  -4  400.38   83.87
  -5   1   5 1535.30  151.78
   5  -1  -5 1900.22  168.84
   5   1  -5 1775.18  150.35
   5   1  -5 1685.19  154.17
   5   1  -5 1653.04  161.05
   5  -1  -6  182.88   83.50
   5   1  -6  170.89   76.27
   5   1  -6  138.55   80.43
  -5   1   6  106.24   55.30
   5  -1  -7 2732.32  228.59
  -5   1   7 2227.89  174.79
   5   1  -7 2523.20  190.04
   5   1  -7 2292.45  201.12
   5   1  -8  143.77   60.43
   5  -1  -8  126.15   53.05
   5  -1  -8  198.12   62.74
   5   1  -8  295.38   70.45
  -5   1   8  163.14   43.91
   5  -1  -9  741.21  107.36
   5   1  -9  750.09  113.05
   5  -1  -9  640.84   91.12
  -5   1   9  600.46   79.17
   5   1  -9  840.19  105.31
  -5   1  10  -30.93   62.94
   5   1 -10   -9.31   62.76
   5   1 -10   76.65   62.35
   5  -1 -10  -28.54   62.99
   5  -1 -10  -54.43   62.62
   5   1 -11 1874.85  184.14
   5  -1 -11 1936.98  164.16
  -5   1  11 1599.70  139.25
   5   1 -11 1707.03  176.93
   5  -1 -11 1963.45  208.43
   5   1 -12  -11.66   55.67
   5  -1 -12  -12.68   56.02
  -5   1  12   60.08   56.38
   5   1 -12  -30.85   56.24
   5  -1 -12  -25.08   56.48
   5   2  -1   40.76   54.47
   5   2  -1   88.53   46.29
   5  -2  -1  115.26   49.21
   5   2  -1   50.85   54.71
   5   2  -1  126.91   56.60
   5  -2  -1  147.75   75.68
   5   2  -2  226.31   58.86
   5   2  -2  166.25   55.08
   5   2  -2  135.86   59.94
   5  -2  -2  174.98   54.09
   5   2  -3  642.33  111.68
  -5   2   3  346.95   93.91
   5   2  -3  402.54  104.06
   5  -2  -3  391.30   97.73
   5   2  -4 2978.21  209.28
   5  -2  -4 2930.59  222.66
   5   2  -4 2734.12  211.16
  -5   2   4 3031.46  228.28
   5   2  -5  -16.24   53.33
  -5   2   5   36.40   52.62
   5   2  -5   18.74   50.00
   5  -2  -5   48.03   64.24
   5   2  -6  313.43   67.50
  -5   2   6  459.01   86.00
   5   2  -6  382.47   78.14
   5  -2  -6  269.38   67.46
   5   2  -7  181.84   69.64
  -5   2   7  239.17   80.62
   5   2  -7  330.26   71.85
   5  -2  -7  225.07   71.79
  -5   2   8 2611.29  186.64
   5   2  -8 2319.97  183.96
   5  -2  -8 2689.29  232.49
   5   2  -8 2643.40  200.90
  -5   2   9   75.86   49.36
   5   2  -9   41.50   62.28
   5  -2  -9  -18.14   61.02
   5   2  -9   -7.55   53.93
   5  -2 -10  960.99  134.30
   5   2 -10  831.26  120.59
  -5   2  10  831.32   95.88
   5   2 -11   57.46   70.46
   5  -2 -11   73.20   68.56
  -5  -2  11   49.84   47.18
  -5   2  11   19.50   52.87
  -5  -2  12 1065.93  125.95
   5  -2 -12  880.68  130.88
   5   2 -12  948.61  131.74
  -5   2  12  768.44   89.56
   5   3  -1 2054.57  191.61
   5  -3  -1 2058.23  189.43
   5   3  -1 2027.02  175.77
   5   3  -2  347.78   93.49
   5  -3  -2  393.33   74.99
   5   3  -2  316.66   80.53
   5   3  -2  484.50   87.26
  -5   3   2  300.62   80.56
   5   3  -3 1548.66  159.07
   5   3  -3 1300.80  137.90
   5  -3  -3 1498.09  149.81
  -5   3   3 1533.36  134.25
   5   3  -4  185.51   71.28
   5  -3  -4   60.92   63.50
   5   3  -4   52.86   62.28
  -5   3   4   91.93   62.25
   5   3  -5  712.89   99.78
   5   3  -5  920.72  100.86
   5  -3  -5  901.73  120.30
  -5   3   5  930.45  109.43
  -5   3   6   90.69   67.53
   5  -3  -6  105.14   78.38
   5   3  -6   84.09   81.46
   5   3  -6  140.42   65.30
  -5   3   7 2269.41  200.31
   5   3  -7 2302.35  203.08
   5  -3  -7 2749.98  213.39
   5   3  -8  214.89   67.77
  -5   3   8  164.19   58.90
   5  -3  -8   52.59   68.78
  -5  -3   8  112.90   55.69
   5  -3  -9   59.41   57.76
   5   3  -9   67.38   74.50
  -5   3   9   31.85   50.67
  -5  -3   9   39.58   44.45
   5  -3 -10   29.84   74.17
   5   3 -10   -0.88   73.79
  -5  -3  10  -35.11   73.57
  -5   3  10  -12.27   74.13
  -5   3  11 2394.68  195.88
   5   3 -11 2524.92  249.08
   5  -3 -11 2545.42  223.08
  -5  -3  11 2315.13  205.87
   5  -4  -1   -0.54   58.34
   5   4  -1   -5.63   56.54
   5   4  -1   48.00   58.05
  -5   4   1   -5.89   46.43
   5   4  -2   35.23   57.97
   5   4  -2   77.14   60.61
   5  -4  -2   21.98   53.41
  -5   4   2  -33.15   46.96
   5  -4  -3  538.40  107.95
   5   4  -3  551.06  121.04
   5   4  -3  371.93   70.87
  -5   4   3  252.70   83.30
  -5   4   4 2366.25  212.65
   5  -4  -4 2344.28  194.00
   5   4  -4 2250.42  177.31
   5   4  -4 2377.76  204.78
   5   4  -5  284.82   73.49
  -5   4   5  331.21   68.34
   5  -4  -5  440.76   76.46
   5   4  -5  200.69   56.72
  -5   4   6   29.04   55.82
  -5  -4   6   57.51   45.00
   5   4  -6   46.59   72.11
   5  -4  -6  -41.49   47.97
   5  -4  -7  114.39   61.99
  -5  -4   7  145.45   53.11
   5   4  -7  202.63   79.05
  -5   4   7  143.39   51.65
   5  -4  -8 1928.46  185.34
   5   4  -8 1698.62  180.99
  -5  -4   8 1653.04  141.99
  -5   4   8 1747.62  178.95
   5   4  -9   54.64   74.38
  -5  -4   9  140.50   56.52
  -5   4   9   99.35   53.48
   5  -4  -9  124.32   75.80
   5   4 -10  289.73   87.41
   5  -4 -10  369.70   81.96
  -5   4  10  253.16   64.48
   5   4 -11  -24.82   84.27
  -5   4  11   -0.23   84.78
  -5   5   1 1726.85  193.58
   5  -5  -1 1675.43  160.52
   5   5  -1 1932.11  201.13
   5   5  -1 1874.28  170.37
   5   5  -2  696.89  115.25
   5   5  -2  582.23   99.84
  -5   5   2  715.72  104.02
   5  -5  -2  664.22  105.38
   5   5  -3 1249.78  148.21
   5  -5  -3 1456.05  132.83
  -5   5   3 1374.49  165.79
   5   5  -4   52.24   79.53
  -5   5   4   -3.21   55.42
   5  -5  -4   63.98   51.84
   5  -5  -5  392.11   79.32
   5   5  -5  343.09   94.13
  -5   5   5  247.33   64.33
  -5  -5   5  151.14   60.70
   5  -5  -6  619.88  103.27
   5   5  -6  472.62  111.79
  -5  -5   6  493.86   87.57
  -5   5   6  588.20  100.10
  -5  -5   7 1582.87  149.63
  -5   5   7 1789.26  171.72
   5  -5  -7 1907.11  171.11
   5   5  -7 2003.84  184.60
   5   5  -8   79.13   78.79
  -5   5   8  133.08   62.49
   5  -5  -8  109.76   68.29
  -5   5   9  330.10   64.57
   5   5  -9  324.05  103.75
   5   6  -1  223.90   78.30
   5   6  -1  271.26   85.40
   5  -6  -1  260.65   69.10
  -5   6   1  297.91   77.34
   5  -6  -2  139.02   50.11
   5   6  -2   48.71   56.64
   5   6  -2  163.67   83.11
  -5   6   2   68.07   62.88
   5  -6  -3  954.96  134.79
  -5   6   3  752.99  129.07
   5   6  -3  743.91  143.62
   5   6  -3 1593.28  190.99
  -5   6   4 4329.76  311.21
   5  -6  -4 3929.42  286.50
   5   6  -4 4108.77  298.66
  -5   6   5   25.14   58.55
   5  -6  -5  166.89   68.38
  -5  -6   5   79.75   44.39
   5   6  -5  120.52   96.30
  -5   6   6  102.03   73.31
   5  -6  -6   61.69   64.78
   5   6  -6   87.50   86.81
   5   6  -7  218.98   96.35
  -5   6   7  197.86   71.65
   5   7  -1 1207.99  139.26
   5   7  -1 1121.52  139.01
   5  -7  -1 1116.33  141.25
   5   7  -2  206.90   66.05
   5  -7  -2  202.68   67.49
   5   7  -2  196.27   90.70
   5   7  -3  495.95  121.17
   5   7  -3  588.78   95.83
   5  -7  -3  576.23   88.49
   4   0  -1  451.25  163.16
   4   0  -1 1080.62  202.77
   4   0  -1  672.50  157.15
   4   0  -2 9013.96  431.40
   4   0  -2 9114.04  453.85
  -4   0   2 9565.49  469.61
   4   0  -210141.72  478.12
   4   0  -3  233.05  124.64
   4   0  -3 1126.07  213.41
   4   0  -3  243.57  137.66
  -4   0   3  352.15  117.77
  -4   0   4 9306.02  418.94
   4   0  -4 8633.91  416.70
   4   0  -4 9593.88  439.46
   4   0  -4 9172.85  451.91
  -4   0   5   44.03   42.05
   4   0  -5   26.74   46.11
   4   0  -5   65.68   44.37
   4   0  -5   29.38   30.81
  -4   0   6 1006.93   80.83
   4   0  -6  871.24   91.35
   4   0  -6  993.26   91.44
   4   0  -7   -7.34   42.72
  -4   0   7  -20.89   33.29
   4   0  -7   53.01   46.40
   4   0  -8 4875.56  260.01
  -4   0   8 4404.85  257.54
  -4   0   9   -3.25   48.58
   4   0  -9  -16.70   48.34
  -4   0   9   19.74   48.80
   4   0 -10  111.94   57.62
  -4   0  10  105.18   49.21
  -4   0  10  111.10   39.39
   4   0 -11  -39.61   50.62
  -4   0  11   -0.19   51.04
  -4   0  11  -43.30   51.17
   4   0 -12 3922.64  245.05
  -4   0  12 3425.55  207.83
  -4   0  12 3548.58  225.02
  -4   0  13   21.76   33.84
  -4   0  13   -7.26   47.28
   4   0 -13   67.44   63.39
  -4   0  14  468.28   69.03
   4   0 -14  478.93   94.94
  -4   0  14  484.27   79.59
   4   0 -15    2.89   61.10
  -4   0  15    2.83   62.25
  -4   0  15  -18.62   61.73
   4   0 -16 1507.33  159.55
  -4   0  16 1241.79  111.04
  -4   0  16 1605.20  140.45
   4   0 -17  -69.48   44.68
  -4   0  17  -13.06   45.10
   4   0 -18  550.63   95.14
  -4   1   1 9114.35  480.27
   4   1  -1 9606.20  449.41
   4  -1  -1 9399.24  439.13
   4   1  -1 9134.50  436.67
   4   1  -1 9353.69  452.28
   4  -1  -1 8279.82  403.58
  -4   1   1 9139.43  388.05
   4   1  -1 9382.17  438.93
   4  -1  -2   44.63   40.86
  -4   1   2   53.66   47.36
   4  -1  -2   48.02   35.73
  -4   1   2   14.52   24.22
   4   1  -2   56.75   39.81
   4   1  -2   18.88   39.16
   4   1  -2   48.47   46.10
   4   1  -2  129.62   49.66
  -4   1   3  281.77   52.85
   4  -1  -3  471.27   51.17
   4   1  -3  319.43   60.19
   4   1  -3  360.31   57.02
  -4  -1   3  322.63   38.96
   4  -1  -3  381.15   54.37
   4   1  -3  322.38   57.46
   4  -1  -3  333.45   57.65
   4   1  -4  567.64  134.23
   4  -1  -4  337.24   63.94
   4   1  -4  496.91   99.92
   4  -1  -4  708.34  153.37
  -4   1   4  430.29   79.31
  -4  -1   4  326.84   64.73
   4   1  -4  366.27   95.93
   4  -1  -4  416.26  106.55
   4   1  -5 7835.46  365.37
   4  -1  -5 7733.59  329.40
   4  -1  -5 7381.96  397.49
  -4  -1   5 7031.85  358.29
   4  -1  -5 7179.19  384.46
   4   1  -5 7409.71  358.44
  -4   1   5 7306.23  399.07
   4  -1  -6  139.88   55.25
   4   1  -6  138.35   39.47
  -4  -1   6   88.17   35.29
   4   1  -6  155.68   54.78
  -4   1   6  123.63   44.20
   4  -1  -6  168.10   43.78
  -4  -1   6  117.44   49.38
  -4   1   7 1726.85  116.34
  -4  -1   7 1867.79  144.76
   4  -1  -7 1771.60  129.81
   4   1  -7 1890.09  127.92
   4  -1  -7 1905.03  120.97
  -4  -1   7 1715.50  127.68
  -4   1   8  196.44   41.11
   4  -1  -8  117.41   60.10
  -4  -1   8  164.47   34.12
   4   1  -8  150.32   53.24
   4  -1  -8  104.21   53.33
  -4  -1   8  162.63   53.24
  -4  -1   9 2861.46  206.77
   4   1  -9 3205.52  206.73
  -4   1   9 2925.47  197.14
  -4  -1   9 2823.22  183.93
   4  -1  -9 3345.33  199.25
   4  -1  -9 3238.15  203.32
   4  -1 -10  115.45   62.31
   4  -1 -10   77.78   51.74
   4   1 -10  118.26   51.07
  -4  -1  10  121.68   38.57
  -4   1  10  145.32   43.28
  -4  -1  10  141.03   53.04
   4  -1 -11 4075.25  270.80
  -4   1  11 4028.45  235.40
   4  -1 -11 3698.45  246.47
  -4  -1  11 3757.14  243.00
  -4  -1  11 3521.25  202.63
   4   1 -11 3934.14  251.05
   4  -1 -12  118.28   62.11
  -4  -1  12    7.07   33.80
   4   1 -12  -29.73   57.82
  -4  -1  12   37.22   50.41
   4  -1 -12  -76.04   57.41
  -4   1  12   -7.33   36.55
  -4  -1  13 1318.89  120.79
   4   1 -13 1294.59  141.82
   4  -1 -13 1363.32  133.98
  -4   1  13 1422.99  112.64
   4  -1 -13 1232.28  122.54
  -4  -1  13 1180.46   98.84
   4   1 -14   98.19   79.40
   4  -1 -14   56.20   63.18
   4  -1 -14   18.53   47.51
  -4   1  14   50.51   43.82
  -4  -1  14  121.88   53.79
  -4  -1  14  102.44   38.40
   4   1 -15 2211.17  217.07
  -4   1  15 1896.62  146.31
  -4  -1  15 2024.25  158.42
   4  -1 -15 2046.09  183.00
  -4   1  16   -3.99   39.41
   4  -1 -16    7.31   61.98
   4   1 -16   10.93   59.94
  -4  -1  16   42.77   48.40
   4   1 -17   67.00   61.94
  -4  -1  17   51.73   56.85
   4  -1 -17   94.71   64.01
  -4   1  17  123.51   45.83
   4  -1 -17   70.69   56.54
   4  -1 -18   10.86   60.18
   4   1 -18  -35.27   59.54
  -4   1  18  -14.93   62.06
   4   2  -1   58.32   46.05
   4  -2  -1   52.43   52.43
   4   2  -1  250.45   75.93
  -4   2   1   22.39   28.91
   4   2  -1  126.49   68.50
   4  -2  -1   62.70   40.85
  -4   2   1  125.27   67.49
   4   2  -1   86.89   67.16
   4   2  -2 2150.49  131.34
  -4   2   2 2008.23  127.00
   4   2  -2 2182.56  151.56
   4   2  -2 2350.91  156.61
  -4   2   2 2228.26  159.74
   4  -2  -2 2141.36  150.94
   4  -2  -2 1791.12  128.03
   4   2  -2 2026.50  144.58
   4   2  -3  130.43   89.26
   4  -2  -3  127.50   85.08
   4   2  -3  132.67   75.78
   4   2  -3  885.11  180.47
  -4   2   3  223.76   92.03
  -4   2   3   39.79   36.31
   4  -2  -3   96.93   71.87
   4   2  -4 5613.13  299.34
   4   2  -4 5315.65  284.07
   4  -2  -4 5374.22  274.00
  -4  -2   4 5241.49  285.94
   4  -2  -4 5022.22  273.23
  -4   2   4 5771.00  303.26
   4   2  -4 5692.97  309.75
   4  -2  -4 5429.63  257.80
   4  -2  -5   -2.36   35.75
   4   2  -5   77.27   58.00
  -4  -2   5   42.30   51.63
  -4   2   5   61.12   43.23
   4   2  -5   16.72   33.98
  -4  -2   5   27.85   26.81
   4  -2  -5  -13.72   35.21
  -4  -2   6 2108.47  135.28
  -4   2   6 2186.07  161.52
   4  -2  -6 2319.86  151.71
   4   2  -6 2164.32  134.76
   4  -2  -6 2148.78  140.55
   4   2  -6 2236.89  160.24
  -4  -2   6 2112.73  159.80
   4  -2  -7  838.15   86.28
   4   2  -7 1037.02  101.40
  -4   2   7  912.81   92.55
  -4  -2   7  813.58   69.77
   4   2  -7  891.83   81.22
  -4  -2   7 1059.14  104.08
   4  -2  -7  816.95  102.35
   4  -2  -8 9339.75  423.46
   4   2  -8 9647.53  425.64
  -4  -2   8 9140.21  456.61
  -4   2   8 9239.29  434.66
   4  -2  -8 9332.24  455.12
  -4  -2   8 8337.71  368.96
  -4  -2   9   59.80   27.57
   4   2  -9   43.86   61.41
  -4  -2   9   26.60   51.13
  -4   2   9   49.95   39.00
   4  -2  -9   65.02   47.47
   4  -2  -9  -26.74   50.92
   4  -2 -10   -5.34   51.14
  -4   2  10   39.65   44.65
  -4  -2  10   17.61   25.17
  -4  -2  10  -39.58   45.25
   4  -2 -10   26.87   49.45
   4   2 -10   19.80   56.18
  -4  -2  11   61.30   47.36
   4  -2 -11   33.51   62.92
   4  -2 -11  152.09   58.28
  -4   2  11  137.00   47.47
  -4  -2  11   46.41   32.89
   4   2 -11   58.28   60.99
  -4  -2  12 5518.69  329.39
   4  -2 -12 5800.14  356.23
   4   2 -12 5716.81  357.34
   4  -2 -12 5622.09  314.37
  -4   2  12 5946.16  333.51
   4   2 -13  224.90   69.22
  -4  -2  13  117.44   52.94
  -4   2  13  144.74   50.43
   4  -2 -13   43.67   77.54
   4  -2 -13  129.08   57.74
  -4   2  14  576.05   78.44
   4  -2 -14  536.77   81.78
   4   2 -14  646.22   98.32
  -4  -2  14  495.00   82.71
   4  -2 -14  550.94   95.59
  -4  -2  15   15.30   68.72
   4  -2 -15  -69.16   69.20
   4   2 -15    3.06   67.95
  -4   2  15   22.79   70.37
   4  -2 -15  -22.37   69.56
  -4   2  16 2089.96  174.13
   4  -2 -16 2079.28  167.27
   4  -2 -16 1992.59  164.77
   4   2 -16 2070.11  213.03
  -4  -2  16 1873.77  166.94
  -4  -2  17  482.25   89.20
  -4   2  17  652.26   94.07
   4   2 -17  582.69  117.81
   4  -2 -17  634.69   90.14
   4  -2 -17  670.91   99.83
  -4   3   1 8971.93  454.30
  -4   3   1 9840.38  494.14
   4  -3  -1 9337.06  436.03
   4   3  -1 9730.18  450.90
   4   3  -1 8411.14  419.09
   4   3  -1 9301.79  450.77
   4   3  -1 9531.26  482.32
   4  -3  -2  152.26   32.12
   4   3  -2  249.87   62.92
  -4   3   2  328.67   55.53
   4   3  -2  360.31   69.51
  -4   3   2  195.56   35.41
  -4  -3   2  208.52   39.39
   4  -3  -2  251.45   55.20
   4   3  -2  240.83   46.48
  -4   3   3  366.68   39.57
   4   3  -3  491.87   68.57
  -4   3   3  463.93   78.46
   4  -3  -3  355.54   56.18
   4   3  -3  400.89   74.21
  -4  -3   3  350.72   43.83
   4  -3  -3  330.52   39.56
   4   3  -3  376.66   49.49
   4  -3  -4   98.81   49.64
   4   3  -4  158.16   67.39
  -4   3   4  111.21   28.48
   4   3  -4  760.27  187.62
   4   3  -4  156.69   34.92
   4  -3  -4  140.93   91.46
  -4  -3   4  186.52   56.01
  -4   3   4  172.47   74.32
   4   3  -5 5697.52  292.64
   4  -3  -5 6220.98  341.85
  -4   3   5 6676.23  359.63
   4   3  -5 6421.03  328.70
   4  -3  -5 5598.88  289.47
  -4  -3   5 5948.55  330.39
   4   3  -5 6922.03  354.99
   4   3  -6  191.86   41.84
  -4   3   6  255.59   59.27
   4   3  -6  406.22   64.35
   4  -3  -6  245.28   40.45
  -4  -3   6  183.47   57.16
   4   3  -6  180.83   38.00
   4  -3  -6  148.29   60.52
   4   3  -7 3584.32  198.99
  -4  -3   7 3116.18  170.11
   4  -3  -7 3141.20  181.12
  -4   3   7 3564.93  210.80
   4  -3  -7 3508.85  226.50
  -4  -3   7 3335.49  230.35
   4   3  -7 3518.40  253.11
   4  -3  -8  157.28   46.19
   4   3  -8  130.24   52.34
  -4   3   8   98.22   51.51
   4  -3  -8   91.24   43.24
  -4  -3   8  102.02   28.90
  -4  -3   8  259.06   55.73
   4  -3  -9 5593.39  333.86
   4  -3  -9 5145.52  284.89
  -4   3   9 5553.20  337.75
   4   3  -9 5703.03  350.22
  -4  -3   9 5476.63  339.39
   4  -3 -10  108.38   64.51
   4  -3 -10   54.34   41.25
   4   3 -10  131.77   61.72
  -4   3  10  179.63   66.72
  -4  -3  10  224.01   59.80
   4   3 -11 2394.64  195.92
  -4  -3  11 2266.35  189.58
   4  -3 -11 2499.36  188.68
  -4   3  11 2506.92  217.76
   4  -3 -11 2361.15  166.78
   4  -3 -12   -9.58   50.04
   4  -3 -12  -33.00   50.85
  -4   3  12    6.53   50.40
   4   3 -12    4.01   49.44
  -4  -3  12  -32.18   49.65
  -4   3  13  771.93  103.89
  -4  -3  13  617.33   89.08
   4  -3 -13  644.35   91.11
   4  -3 -13  715.54   95.01
   4   3 -13  664.74   98.60
  -4  -3  14    7.75   59.42
   4  -3 -14  139.81   61.31
  -4   3  14   -6.81   60.16
   4  -3 -14  -26.55   56.31
   4   3 -14   56.43   72.09
   4  -3 -15 4274.85  308.36
   4  -3 -15 4423.41  295.75
  -4   3  15 4605.28  280.72
   4   3 -15 4284.26  326.70
  -4  -3  15 4251.25  297.10
   4  -3 -16  135.50   73.09
  -4   3  16    0.39   58.54
   4   3 -16  108.01   70.70
   4  -3 -16   42.69   54.51
  -4  -3  16    6.84   54.32
   4   3 -17   28.95   73.32
  -4  -3  17  -13.28   58.32
   4  -3 -17  109.12   76.18
   4  -3 -17   43.30   59.07
  -4   3  17  126.45   48.70
  -4   4   1  282.47   65.91
   4   4  -1  293.85   89.03
   4  -4  -1  195.35   72.73
  -4   4   1   80.13   33.19
  -4  -4   1  116.49   38.97
   4   4  -1  196.84   56.21
  -4   4   2 1934.34  134.50
  -4  -4   2 2011.20  129.54
   4  -4  -2 2289.62  162.87
  -4   4   2 2162.09  169.45
   4   4  -2 1746.06  115.67
   4   4  -2 2711.15  171.79
   4   4  -2 2268.67  175.42
  -4   4   3 2196.99  196.41
   4  -4  -3 2302.66  192.17
   4   4  -3 2396.94  209.57
  -4  -4   3 1988.45  136.81
  -4   4   3 2051.02  115.71
   4   4  -3 1782.50  130.36
   4   4  -4 8614.42  429.51
   4  -4  -4 8102.25  421.38
  -4  -4   4 7730.71  437.92
  -4   4   4 7740.56  356.47
  -4   4   4 8642.39  437.37
   4   4  -4 8450.48  465.47
   4  -4  -5  -24.35   55.60
   4   4  -5   29.26   55.90
  -4   4   5  -36.94   55.17
   4   4  -5   -0.54   55.40
  -4  -4   5   -3.96   54.72
   4  -4  -5    0.27   55.05
   4  -4  -6   41.73   56.14
   4  -4  -6   36.38   28.95
  -4   4   6    7.24   45.79
  -4  -4   6   24.47   41.30
   4   4  -6  -24.55   36.17
   4   4  -6   33.74   62.24
  -4   4   7   31.30   48.51
   4  -4  -7  -29.09   50.72
   4   4  -7   75.04   66.47
  -4  -4   7   30.86   50.15
   4   4  -7   65.27   37.95
   4  -4  -7   -8.90   35.12
   4  -4  -8 5966.45  359.64
  -4  -4   8 5980.39  339.31
  -4   4   8 5927.78  358.97
   4  -4  -8 5371.49  304.39
   4   4  -8 6230.36  386.19
   4   4  -8 5931.56  285.33
  -4   4   9 -104.96   66.58
   4  -4  -9   47.92   66.45
   4   4  -9   10.19   66.40
  -4  -4   9   32.43   66.05
   4  -4  -9  -44.34   67.65
   4  -4 -10  132.11   60.13
  -4   4  10   32.91   56.49
   4  -4 -10   54.60   40.40
  -4  -4  10   79.86   42.84
   4   4 -10   63.18   65.10
   4  -4 -11  -15.26   55.04
  -4   4  11  -19.62   54.26
  -4  -4  11  -35.57   53.51
   4  -4 -11   10.34   53.97
   4   4 -11  -13.62   53.67
   4  -4 -12 3175.47  226.51
  -4   4  12 4040.30  241.78
  -4  -4  12 3716.39  266.90
   4   4 -12 3489.53  276.44
   4  -4 -12 3928.86  274.98
   4  -4 -13  102.03   49.50
  -4   4  13   26.71   51.23
   4   4 -13  163.28   58.70
   4  -4 -13  134.80   64.22
  -4  -4  13   56.71   63.56
   4  -4 -14  243.26   70.75
   4  -4 -14  164.01   59.94
  -4  -4  14   73.27   60.92
   4   4 -14  292.53   72.15
  -4   4  14  206.20   69.51
   4  -4 -15  -88.70   61.87
  -4   4  15  -26.92   63.13
   4  -4 -15   23.61   62.99
  -4  -4  15  -34.44   61.03
   4   4 -15  -25.91   60.94
  -4  -4  16 1768.57  172.28
  -4   4  16 1918.50  170.17
   4   4 -16 1837.51  188.67
   4  -4 -16 1907.93  184.12
   4  -4 -16 1544.82  152.91
   4   5  -1 7450.26  416.54
  -4   5   1 7888.46  430.24
  -4   5   1 6784.29  324.19
   4  -5  -1 7405.25  388.55
  -4  -5   1 6215.11  333.24
  -4  -5   1 7373.07  399.92
   4   5  -2   79.59   60.78
  -4   5   2   15.93   26.60
  -4   5   2   33.38   48.89
  -4  -5   2   14.72   30.05
   4   5  -2   61.97   60.85
   4  -5  -2   32.05   40.94
   4   5  -3  313.86   76.70
  -4   5   3  102.53   28.62
  -4   5   3  172.65   59.38
   4   5  -3  194.45   69.20
   4  -5  -3  145.84   57.47
  -4  -5   3  154.53   42.13
   4   5  -4 1195.05  134.12
  -4   5   4 1263.19  140.19
   4  -5  -4 1185.60  151.94
  -4  -5   4  984.70   97.69
  -4  -5   5 8204.32  426.77
   4   5  -5 8894.26  449.53
   4  -5  -5 8845.07  498.54
  -4   5   5 9173.19  494.51
   4   5  -5 8645.96  476.56
   4  -5  -6   89.62   50.96
   4   5  -6  272.16   68.03
  -4   5   6  138.85   52.38
   4   5  -6  148.78   52.99
  -4  -5   6  113.78   44.60
   4   5  -7  225.07   66.01
   4  -5  -7  407.58   67.59
   4   5  -7  194.36   48.59
  -4   5   7  283.38   67.00
  -4  -5   7  256.88   57.35
  -4   5   8  225.42   57.74
   4  -5  -8  314.79   58.25
  -4  -5   8  339.93   65.25
   4   5  -8  390.89   76.79
   4   5  -8  346.46   53.09
   4   5  -9 2004.68  174.31
  -4  -5   9 2087.08  168.82
   4  -5  -9 1923.02  141.16
   4  -5  -9 2286.27  162.58
  -4   5   9 2264.31  193.81
  -4  -5  10  472.14   78.98
   4  -5 -10  345.65   52.72
   4   5 -10  587.25   94.91
   4  -5 -10  571.15   97.23
  -4   5  10  482.80   70.65
   4  -5 -11 3411.25  289.41
   4   5 -11 3114.20  245.72
  -4  -5  11 2969.60  219.71
  -4   5  11 3365.13  244.45
   4  -5 -11 2866.63  219.76
   4  -5 -12    4.46   54.18
  -4  -5  12  -23.98   49.97
   4   5 -12   39.70   65.10
   4  -5 -12    6.42   42.83
  -4   5  12   75.38   56.05
  -4   5  13 1078.51  120.01
  -4  -5  13  788.25  113.44
   4   5 -13  857.52  123.23
   4  -5 -13 1025.90  120.07
   4  -5 -13  947.96  119.24
   4  -5 -14  204.12   58.44
   4  -5 -14  272.24   80.24
   4   5 -14  256.10   83.40
  -4   5  14  235.22   62.66
  -4  -5  14  247.94   68.08
  -4  -5  15 1293.45  144.06
   4   5 -15 1392.52  169.51
  -4   5  15 1593.92  150.36
   4  -5 -15 1473.78  120.77
   4  -5 -15 1222.48  135.19
   4  -5 -16  170.20   52.93
  -4   5  16  212.97   61.19
   4   6  -1   73.76   85.19
  -4  -6   1  253.71   83.89
  -4   6   1  283.98   82.05
  -4  -6   1   49.31   40.50
   4  -6  -1  144.34   74.09
  -4   6   1   26.51   27.82
  -4   6   2 2920.81  157.66
   4   6  -2 3389.55  235.41
   4  -6  -2 3207.16  213.12
  -4  -6   2 2500.51  173.07
  -4   6   2 3358.40  229.70
   4  -6  -3   86.78   66.97
   4   6  -3  116.92   70.37
   4   6  -3   88.89   94.53
  -4   6   3   89.49   80.29
  -4  -6   3   25.86   42.27
   4   6  -4 2691.78  209.86
  -4  -6   4 2376.77  169.23
  -4   6   4 2747.91  196.48
   4   6  -4 2562.18  193.97
   4  -6  -4 2824.19  184.71
  -4   6   5  112.92   54.46
   4  -6  -5  169.23   62.29
  -4  -6   5  140.09   41.00
   4   6  -5  141.48   57.90
   4   6  -5  154.64   47.83
  -4   6   6 1051.31  106.32
   4   6  -6 1183.54  125.61
  -4  -6   6  936.96   94.53
   4  -6  -6 1040.27  110.56
   4   6  -6  944.14   98.54
   4   6  -7  643.14   82.17
   4   6  -7  662.93  100.51
  -4   6   7  687.46   90.46
   4  -6  -7  686.12  100.41
  -4  -6   7  559.58   85.27
   4   6  -8 4155.62  265.78
  -4  -6   8 4223.27  284.25
  -4   6   8 4540.23  284.55
   4  -6  -8 4439.34  298.37
   4   6  -8 4947.02  362.13
  -4  -6   9  385.93   75.47
   4   6  -9  403.74   81.01
  -4   6   9  390.26   65.81
   4  -6  -9  341.33   75.15
   4  -6 -10   -9.99   60.33
  -4  -6  10   87.66   56.05
  -4   6  10  -17.04   48.01
   4   6 -10   35.15   70.14
  -4  -6  11   26.50   58.03
   4   6 -11  140.05   79.13
   4  -6 -11   47.58   62.06
  -4   6  11  139.09   57.13
  -4   6  12 3937.23  271.76
   4  -6 -12 3392.96  276.25
   4  -6 -12 2782.61  198.86
  -4  -6  12 3423.21  240.15
   4   6 -12 3548.74  291.56
   4  -6 -13   40.35   39.19
   4  -6 -13  -33.42   67.60
  -4  -6  13   90.74   69.05
   4   6 -13   24.83   71.88
  -4   6  13  103.27   58.81
  -4   6  14  363.89   78.17
   4  -6 -14  170.78   58.61
  -4  -6  14  182.98   68.02
   4  -6 -14  176.93   76.85
   4   6 -14  301.67   91.21
  -4   6  15   25.32   58.60
   4  -6 -15  -53.92   58.47
   4  -7  -1 5406.34  333.38
  -4   7   1 5426.27  257.11
  -4   7   1 5645.59  357.15
   4   7  -1 5468.39  365.92
  -4  -7   1 4597.38  251.43
  -4  -7   1 5474.25  380.44
  -4  -7   2 1119.86  100.74
  -4   7   2 1411.95  119.75
  -4  -7   2 1517.43  140.82
   4  -7  -2 1336.18  127.42
   4   7  -2 1414.04  148.94
  -4   7   3   96.86   66.20
  -4  -7   3   31.26   42.84
   4   7  -3   96.54   66.13
   4   7  -3   94.08   66.71
   4  -7  -3   80.74   56.05
   4   7  -4  -39.35   55.65
  -4  -7   4   62.93   49.86
   4  -7  -4   71.36   75.61
   4   7  -4  -13.91   73.88
  -4   7   4   -7.57   61.68
  -4   7   5 3205.41  241.53
   4   7  -5 3015.93  233.90
  -4  -7   5 2995.38  193.35
   4   7  -5 3414.57  245.59
   4  -7  -5 3157.85  228.93
   4   7  -6  813.99   98.53
  -4  -7   6  703.62   87.33
  -4   7   6  916.57  106.97
   4  -7  -6 1072.50  124.36
   4   7  -6  949.00  116.72
   4   7  -7 1073.82  122.92
  -4   7   7 1074.66  128.79
   4   7  -7 1047.17  110.09
  -4  -7   7  982.28  100.32
   4  -7  -7 1106.16  115.95
   4  -7  -8  -22.58   54.10
   4   7  -8   14.75   84.95
  -4  -7   8   -7.16   59.25
   4   7  -8   33.27   55.88
  -4   7   8   -4.11   57.09
  -4   7   9 2055.80  176.71
   4   7  -9 1735.97  205.55
   4  -7  -9 1602.68  161.17
  -4  -7   9 1648.72  143.69
   4  -7 -10  157.83   58.51
   4   7 -10  106.64   81.73
  -4  -7  10  115.95   60.87
  -4   7  10   95.02   59.69
   4  -7 -11  575.48  101.44
  -4   7  11  625.99  108.25
   4   7 -11  776.81  124.61
  -4  -7  11  607.95   99.82
  -4  -7  12  137.44   63.70
  -4   7  12   -8.87   62.45
   4  -7 -12   59.04   55.25
   4   7 -12  -48.61   79.46
  -4   7  13  174.34   75.92
   4  -7 -13  220.78   66.94
   4   7 -13  187.33   83.21
  -4  -7  13  198.05   73.35
  -4   8   1   85.76   62.16
  -4  -8   1  122.16   74.66
   4   8  -1   77.51   87.46
   4  -8  -1   26.34   66.25
  -4  -8   2 1141.60   90.23
   4   8  -2 1452.43  143.36
  -4   8   2 1368.36  150.61
  -4  -8   2 1567.79  153.85
   4  -8  -2 1444.51  129.08
  -4  -8   3  687.66   80.99
   4  -8  -3  834.90   98.73
   4   8  -3  879.86  131.14
  -4   8   3  960.22  110.93
  -4   8   4 3103.19  250.53
   4   8  -4 2740.69  214.91
   4  -8  -4 2936.73  207.17
   4   8  -4 2939.81  233.58
  -4  -8   4 2164.65  165.55
   4   8  -5  709.04  124.01
  -4  -8   5  534.55   69.49
  -4   8   5  555.05   71.16
   4  -8  -5  600.78   76.91
   4   8  -5  408.58   70.03
   4  -8  -6  934.47  110.25
   4   8  -6  894.32  134.41
  -4   8   6  795.25  103.46
  -4  -8   6  710.21   85.35
   4   8  -6  786.62  105.68
   4  -8  -7  227.26   62.46
   4   8  -7  165.57   81.74
  -4  -8   7  256.22   81.18
  -4   8   7  246.96   63.10
   4   8  -7  169.87   74.42
   4   8  -8 2773.50  221.69
   4  -8  -8 2527.60  200.55
  -4  -8   8 2710.03  219.99
   4   8  -8 2562.43  205.18
  -4   8   8 2912.44  224.48
   4  -8  -9  508.87   85.95
   4   8  -9  596.82  112.84
  -4   8   9  526.55   84.79
  -4  -8   9  401.23   78.49
   4   8 -10  -43.97   71.13
   4  -8 -10    5.12   70.35
  -4  -8  10   27.58   70.81
  -4   8  10    5.74   70.49
   4  -8 -11  380.53   72.47
  -4   8  11  346.59   83.76
  -4  -8  11  317.41   64.69
   4   8 -11  216.20   86.12
  -4  -8  12 1262.37  129.27
  -4   8  12 1416.13  165.14
  -4  -9   1 2168.15  176.02
   4   9  -1 2237.29  197.86
   4  -9  -1 2294.12  208.05
  -4   9   1 2237.95  205.64
  -4  -9   2  434.11   89.02
  -4   9   2  301.30   69.97
   4  -9  -2  408.56   81.08
   4   9  -2  409.74   78.27
  -4   9   3  290.95   73.49
   4   9  -3  410.11   83.04
   4  -9  -3  206.86   65.00
  -4   9   4  262.37   61.75
   4   9  -4   79.30   76.69
   4  -9  -4  133.44   61.19
   4   9  -4  421.27  117.15
  -4  -9   4   92.82   53.03
   4  -9  -5 1592.59  141.93
   4   9  -5 1602.92  184.65
  -4  -9   5 1398.87  131.42
   4   9  -5 1588.55  167.24
  -4   9   5 1679.74  161.43
   4   9  -6  516.31  116.27
  -4  -9   6  522.34   73.89
   4  -9  -6  672.74   82.78
   4   9  -6  483.79   87.69
  -4   9   6  640.52   91.73
   4  -9  -7 1177.27  104.37
  -4  -9   7  908.21  110.35
   4   9  -7 1091.22  123.65
   4   9  -7 1182.18  155.60
  -4   9   7 1278.14  139.38
   4   9  -8   10.42   69.54
  -4  -9   8  -16.84   69.82
   4  -9  -8  -65.32   68.49
  -4   9   8   -2.14   68.45
   4   9  -8   -6.30   70.27
   4  -9  -9 1147.75  139.32
  -4  -9   9  773.08  103.27
  -4   9   9 1067.14  110.85
   4   9  -9 1114.95  156.52
  -4  -9  10  414.99   79.90
   4  10  -1    2.70   76.16
  -4 -10   1  220.40   73.92
  -4  10   1  155.60   68.29
   4 -10  -1    5.88   59.06
   4 -10  -2  743.25  120.96
   4  10  -2  861.03  107.97
  -4 -10   2  925.55  117.44
  -4  10   2  916.85  132.48
   4 -10  -3  837.35  112.76
   4  10  -3  764.54  127.39
  -4  10   3  836.96  115.04
   4  10  -4 1582.93  203.21
   4 -10  -4 1855.34  162.86
   4  10  -4 1778.43  178.51
  -4  10   4 1801.13  148.32
   4  10  -5   67.87   56.55
   4  10  -5   61.21   80.66
   4 -10  -5  -21.81   55.14
  -4  10   5   -2.44   60.03
  -4 -10   6   60.19   47.21
   4  10  -6  123.56   58.82
  -4 -10   7  383.88   62.81
   4  10  -7  570.27   96.10
   3   0  -1   70.92   35.36
  -3   0   1   34.78   22.47
   3   0  -1   19.72   27.28
  -3   0   1   24.81   28.35
  -3   0   210881.46  503.87
   3   0  -210538.92  515.92
  -3   0   210910.66  431.45
   3   0  -211199.44  505.69
   3   0  -3   30.69   30.85
   3   0  -3   37.78   22.06
   3   0  -3   -8.33   17.01
  -3   0   3   -9.89   27.64
   3   0  -3   -7.98   26.71
  -3   0   4 3807.30  236.42
   3   0  -4 3682.48  125.75
  -3   0   4 3949.57  182.43
   3   0  -4 3895.74  211.55
   3   0  -4 4079.47  189.99
   3   0  -5   -2.04   31.68
  -3   0   5  -22.86   30.92
   3   0  -5   21.82   31.10
  -3   0   5    5.07   31.20
  -3   0   5   -4.15   31.35
   3   0  -5   21.53   31.42
   3   0  -5   -0.16   31.70
  -3   0   6 3498.54  162.34
   3   0  -6 4498.67  196.88
   3   0  -6 4642.54  240.85
   3   0  -6 4475.57  172.34
  -3   0   6 4530.85  193.69
   3   0  -6 3753.19  159.95
  -3   0   6 4310.36  208.61
   3   0  -7    6.44   10.80
  -3   0   7  -15.67   34.53
  -3   0   7   13.51   13.59
   3   0  -7   13.17   16.73
   3   0  -7   21.17   34.63
  -3   0   7   -7.85   24.86
   3   0  -7   12.47   18.10
   3   0  -8 8952.26  296.05
   3   0  -8 9264.71  382.08
   3   0  -8 7826.10  288.90
   3   0  -8 9597.92  486.92
  -3   0   8 8857.03  380.09
  -3   0   8 9199.13  456.89
  -3   0   9   -6.93   40.81
   3   0  -9  -20.13   40.68
   3   0  -9  -20.10   40.32
  -3   0   9  -27.21   40.66
   3   0 -10 2285.37  147.28
  -3   0  10 2257.19  133.57
  -3   0  10 2280.62  127.59
   3   0 -10 2089.85  143.76
  -3   0  11   -2.15   47.69
   3   0 -11  -21.41   47.33
  -3   0  11  -19.98   47.44
   3   0 -11   -8.21   47.17
  -3   0  12 8626.42  431.50
   3   0 -12 9414.13  487.43
   3   0 -12 9024.95  427.91
  -3   0  12 8209.89  425.83
   3   0 -13  -51.14   50.05
  -3   0  13   -0.47   50.96
  -3   0  13   11.19   50.23
   3   0 -13  -65.39   50.06
  -3   0  14  349.41   53.18
   3   0 -14  349.64   64.07
   3   0 -14  241.09   47.45
  -3   0  14  310.75   47.17
   3   0 -15   26.68   61.43
   3   0 -15    4.83   40.65
  -3   0  15   16.25   41.14
  -3   0  15   -8.43   37.21
  -3   0  16 2129.23  146.86
   3   0 -16 2014.01  145.19
   3   0 -16 1970.28  164.74
  -3   0  16 2122.81  156.79
  -3   0  17  -32.17   59.46
   3   0 -17  -44.64   57.08
   3   0 -17  -64.73   57.12
  -3   0  17   36.60   57.24
   3   0 -18   30.75   59.96
  -3   0  18  -29.93   62.67
   3   0 -18  -35.12   59.96
  -3   0  18    3.57   60.09
  -3   0  19   -7.05   46.33
  -3   0  19   31.11   50.92
   3   0 -19   83.28   64.30
   3   0 -19  -56.48   58.73
  -3   0  20 3052.30  217.56
   3   0 -20 3129.32  269.07
   3   0 -20 2891.47  231.05
  -3   0  20 2647.29  215.73
  -3   0  21    8.49   50.36
   3   0 -21  -14.45   50.27
   3   1  -114447.41  600.29
  -3  -1   114053.65  565.28
   3   1  -114573.43  577.11
   3  -1  -111959.77  510.08
  -3   1   113610.56  579.74
   3   1  -112906.14  558.76
   3  -1  -113877.12  528.48
   3  -1  -112981.94  577.00
  -3   1   114331.13  616.04
  -3   1   2  968.10   74.00
  -3  -1   2  955.91   64.17
   3  -1  -2 1010.11   78.12
  -3   1   2  949.55   73.19
   3   1  -2 1007.07   82.33
   3  -1  -2 1045.26   79.51
   3   1  -2 1009.75   80.41
  -3  -1   2  892.11   84.01
  -3   1   2  950.18   35.61
   3  -1  -3 5061.09  246.04
  -3  -1   3 6061.62  322.60
  -3   1   3 6069.91  242.93
  -3  -1   3 5844.78  285.87
   3  -1  -3 6257.16  316.86
  -3   1   3 5467.18  207.25
   3   1  -3 6341.75  266.04
   3   1  -3 6508.33  320.50
  -3   1   3 6483.17  347.44
   3  -1  -3 6029.28  214.05
   3  -1  -3 6004.87  283.44
   3   1  -4   56.34   23.75
  -3  -1   4   63.98   30.82
   3  -1  -4   48.44   16.88
   3  -1  -4   55.45   32.53
  -3   1   4   52.79   10.76
   3  -1  -4   58.32   31.32
   3  -1  -4   75.73   14.13
  -3   1   4   72.45   29.48
   3  -1  -4   99.47   24.97
  -3  -1   4   86.75   27.13
   3   1  -4   15.52   18.80
   3   1  -4   57.68   42.23
  -3  -1   518467.66  700.07
  -3   1   515303.68  599.64
   3   1  -519492.63  806.80
   3  -1  -518847.56  644.42
   3   1  -517239.06  558.99
  -3  -1   518216.56  761.32
   3  -1  -515834.22  603.84
   3   1  -518664.58  673.37
   3   1  -515447.17  718.79
   3  -1  -518302.92  668.85
   3   1  -516694.72  560.12
   3  -1  -518560.60  658.87
  -3   1   517416.92  718.15
   3  -1  -518751.37  770.09
   3   1  -6  162.92   18.98
  -3  -1   6  247.86   44.86
   3  -1  -6  182.13   23.90
  -3   1   6  143.56   19.54
   3   1  -6  155.70   24.30
   3  -1  -6  143.49   16.30
  -3  -1   6  211.50   31.34
   3   1  -6  220.08   30.71
   3  -1  -6  224.77   22.09
   3  -1  -6  286.68   38.08
   3   1  -6  165.91   17.95
  -3   1   6  256.49   43.17
   3   1  -6  294.05   51.75
  -3   1   7  -37.97   30.29
  -3  -1   7   24.85   12.33
   3   1  -7   48.59   42.17
   3   1  -7   35.71   20.62
  -3  -1   7   50.61   34.19
  -3   1   7   16.78   11.26
  -3   1   7  -18.99   37.13
  -3  -1   7   38.73   23.22
   3  -1  -7   24.53   11.68
   3  -1  -7   37.30   19.69
   3   1  -7    1.18   13.40
   3  -1  -7   12.59   33.20
   3   1  -7   37.28   15.57
  -3   1   8 1192.27   92.80
   3   1  -8 1227.15   62.74
  -3  -1   8 1238.15   88.73
  -3   1   8 1344.15  102.11
  -3  -1   8 1318.75  111.88
   3  -1  -8 1341.36   86.12
   3   1  -8 1425.26  111.72
   3  -1  -8 1161.07   96.86
   3   1  -8 1340.96   84.47
  -3  -1   913939.27  603.51
   3  -1  -914191.33  639.00
   3   1  -913824.17  555.55
  -3   1   913572.44  615.83
  -3   1   913826.70  603.95
   3  -1  -913877.55  569.05
  -3  -1   913061.07  531.67
   3   1  -914061.21  638.54
   3   1  -913915.63  476.20
  -3   1  10   82.71   39.23
  -3  -1  10   66.48   23.82
  -3  -1  10   97.00   45.99
  -3   1  10  122.60   38.34
   3   1 -10   69.85   29.74
   3  -1 -10   79.78   30.97
   3  -1 -10   92.51   43.39
   3   1 -10   60.90   13.09
   3   1 -10  102.92   45.00
  -3  -1  11  941.73   97.14
   3   1 -11 1042.40   87.63
  -3   1  11  969.59   80.46
  -3   1  11 1006.58   95.80
   3  -1 -11  949.88   90.79
   3  -1 -11  868.69   76.42
   3   1 -11  948.60   75.81
  -3  -1  11  875.19   63.16
   3   1 -12   45.35   56.61
  -3   1  12   -7.93   48.87
   3   1 -12   29.21   35.15
  -3  -1  12    1.52   41.95
  -3   1  12   49.62   32.74
  -3  -1  12  -47.98   28.72
   3  -1 -12  -37.55   45.41
   3  -1 -12    3.52   37.23
   3  -1 -13 5740.49  313.09
  -3  -1  13 5122.79  267.90
  -3   1  13 5312.73  258.94
   3   1 -13 5318.31  275.67
   3   1 -13 5400.96  337.53
  -3  -1  13 5296.57  289.85
   3  -1 -13 5236.68  285.22
  -3   1  13 5335.29  273.10
   3  -1 -14  214.51   59.64
  -3   1  14  143.01   44.91
   3   1 -14  346.46   79.80
  -3   1  14  318.65   52.78
   3  -1 -14  182.05   52.93
  -3  -1  14  207.77   38.56
  -3  -1  14  205.63   56.95
   3   1 -14  239.40   56.70
   3  -1 -15 4048.30  239.20
  -3   1  15 4094.49  248.18
   3   1 -15 3845.55  255.34
   3   1 -15 4351.89  253.51
  -3   1  15 3816.81  224.63
  -3  -1  15 4144.41  228.48
   3  -1 -15 4323.22  232.89
  -3  -1  15 4049.85  215.79
  -3   1  16  236.50   61.60
   3   1 -16  175.14   49.99
  -3  -1  16  174.57   45.59
  -3   1  16  110.42   40.07
  -3  -1  16  202.77   58.98
   3   1 -16  187.88   70.48
   3  -1 -16  226.66   50.04
   3  -1 -16  188.40   62.00
   3  -1 -17 1515.13  145.72
  -3  -1  17 1324.77  103.61
   3   1 -17 1419.66  142.00
  -3   1  17 1532.88  125.49
  -3   1  17 1380.36  109.27
  -3  -1  17 1230.98  121.52
   3   1 -17 1380.52  116.52
   3  -1 -17 1306.85  116.56
   3  -1 -18  206.13   64.15
  -3   1  18  233.69   63.74
   3  -1 -18  158.76   49.16
   3   1 -18  137.37   65.14
  -3   1  18  223.19   66.44
  -3  -1  18  149.87   55.63
  -3  -1  18  196.41   52.27
   3   1 -18  206.36   49.63
  -3   1  19 2706.47  190.82
   3   1 -19 2810.89  259.54
  -3  -1  19 2626.09  184.84
  -3  -1  19 2802.01  235.39
   3   1 -19 2704.77  238.89
  -3   1  19 3231.51  253.78
   3  -1 -19 2571.81  210.00
   3  -1 -19 2747.65  226.19
   3  -1 -20   34.43   50.42
   3  -1 -20   47.27   50.64
  -3   1  20   84.05   50.54
  -3   1  20  -29.34   52.88
   3   1 -20  -54.57   50.24
   3   1 -20  -29.28   50.36
  -3  -1  20  -32.92   50.45
  -3   1  21  166.49   67.71
   3   1 -21  236.78   77.65
  -3  -1  21  202.89   67.48
   3  -1 -21  270.73   67.41
   3  -2  -1  377.38   36.90
   3   2  -1  487.57   43.27
  -3  -2   1  406.64   43.74
   3  -2  -1  354.50   34.61
  -3   2   1  365.57   48.57
  -3   2   1  360.12   27.25
   3   2  -1  436.14   39.84
  -3   2   1  395.37   38.30
   3  -2  -1  396.93   27.45
   3  -2  -1  440.00   54.16
  -3  -2   1  544.89   54.57
  -3   2   215449.20  559.70
   3  -2  -213772.20  615.96
   3  -2  -216322.92  734.31
   3   2  -216901.73  683.51
  -3  -2   215576.20  653.12
   3   2  -216629.96  638.72
   3   2  -218574.26  766.72
   3  -2  -216069.51  613.88
   3  -2  -215311.40  651.43
  -3   2   217464.16  731.48
  -3   2   217390.29  668.79
   3  -2  -217066.51  585.48
   3   2  -3 1592.58  113.32
   3  -2  -3 1229.98   93.12
   3  -2  -3 1618.30  119.74
   3  -2  -3 1456.47   87.26
  -3  -2   3 1427.76   93.23
  -3   2   3 1478.47   94.98
   3  -2  -3 1295.41   97.63
  -3   2   3 1587.75   94.67
   3   2  -3 1596.67   85.62
  -3   2   3 1344.13   77.27
  -3  -2   3 1407.30  102.77
   3  -2  -3 1593.41   84.13
  -3   2   4 5158.46  243.55
  -3   2   4 4746.36  208.14
  -3  -2   4 4720.33  269.25
  -3  -2   4 4488.33  221.51
   3  -2  -4 4767.03  197.30
  -3   2   4 4085.63  193.46
   3   2  -4 5030.29  294.43
   3   2  -4 4637.44  210.92
   3  -2  -4 4417.95  234.62
   3  -2  -4 4052.08  208.41
   3  -2  -4 4816.62  268.90
   3  -2  -5   19.66   30.19
  -3  -2   5   15.88   18.80
   3  -2  -5   -9.29   36.20
   3   2  -5   -0.95    9.85
   3   2  -5   27.64   41.40
  -3   2   5  -12.50   35.31
  -3  -2   5   33.82   30.47
   3  -2  -5   43.06   20.00
   3   2  -5   46.94   27.07
   3   2  -5   14.17    9.89
  -3   2   5  -18.55    8.98
   3   2  -6 9718.32  430.31
   3  -2  -610718.52  388.51
   3  -2  -611715.19  439.43
   3  -2  -611961.28  484.46
   3   2  -611861.89  459.90
  -3  -2   611106.73  465.24
   3  -2  -611881.28  562.10
   3   2  -610008.89  405.02
   3   2  -611539.30  445.54
   3  -2  -612296.38  410.75
  -3  -2   611522.91  488.77
  -3   2   612919.66  501.90
   3   2  -612441.08  576.96
   3  -2  -7  269.81   54.70
   3  -2  -7  274.70   45.44
   3  -2  -7  375.97   39.32
   3   2  -7  214.30   26.82
  -3   2   7  293.30   51.48
   3   2  -7  392.80   41.33
   3   2  -7  217.25   29.21
  -3  -2   7  260.17   32.85
   3   2  -7  340.31   55.31
  -3   2   7  207.56   27.33
  -3  -2   7  299.02   42.28
   3   2  -7  246.16   26.99
   3   2  -8 8217.82  336.61
   3  -2  -8 8032.16  421.97
   3   2  -8 8155.25  300.79
   3   2  -8 6461.42  296.34
  -3   2   8 7565.82  385.87
   3  -2  -8 8067.49  360.99
  -3  -2   8 7259.85  324.40
  -3  -2   8 8043.67  383.00
   3  -2  -8 8006.66  349.77
   3   2  -8 8204.18  422.07
  -3  -2   9  108.23   26.12
  -3   2   9  134.26   49.09
   3  -2  -9  154.86   42.44
   3  -2  -9  144.17   40.47
   3  -2  -9  140.56   37.60
   3   2  -9  184.32   51.13
  -3  -2   9  134.60   46.45
   3   2  -9  137.35   30.60
  -3  -2  10 3740.65  183.71
   3  -2 -10 3924.58  228.43
   3   2 -10 4159.21  261.24
   3  -2 -10 4308.76  218.01
  -3  -2  10 4383.33  255.14
   3   2 -10 4121.13  204.32
   3   2 -10 4114.45  185.34
  -3   2  10 4103.27  205.03
   3  -2 -10 4470.88  225.66
   3  -2 -11  240.45   51.17
   3   2 -11  258.33   48.42
   3   2 -11  336.59   66.77
  -3  -2  11  168.39   29.94
   3   2 -11  136.19   28.43
   3  -2 -11  213.87   46.96
  -3   2  11  243.78   50.45
  -3  -2  11  190.22   50.73
   3   2 -12 7705.63  376.33
  -3   2  12 8480.28  411.56
  -3  -2  12 7258.26  323.65
   3  -2 -12 7474.36  375.63
  -3  -2  12 7478.65  350.37
   3   2 -12 7704.18  406.20
  -3   2  12 7663.43  380.43
   3  -2 -12 7946.75  436.52
   3   2 -13   50.87   60.59
   3  -2 -13    3.02   61.12
  -3   2  13  -18.59   62.40
  -3   2  13   67.85   61.21
   3   2 -13   11.81   61.10
   3  -2 -13   10.99   62.14
  -3  -2  13  -44.33   61.57
  -3  -2  13   -2.59   61.09
   3   2 -14  693.59   96.76
   3  -2 -14  760.46   84.26
  -3   2  14  659.15   72.30
   3   2 -14  628.37   78.28
   3  -2 -14  710.70   83.69
  -3  -2  14  647.25   55.62
  -3  -2  14  700.65   85.63
  -3   2  14  751.43   82.28
  -3   2  15  376.03   64.15
  -3  -2  15  423.31   70.06
   3  -2 -15  408.17   64.69
  -3   2  15  476.09   70.77
   3   2 -15  404.51   66.61
  -3  -2  15  355.82   51.14
   3  -2 -15  561.90   86.97
   3   2 -15  468.54   89.98
  -3   2  16 8202.05  428.60
  -3   2  16 7648.87  410.52
   3   2 -16 7479.72  396.31
  -3  -2  16 7893.17  429.13
   3  -2 -16 7771.54  420.47
  -3  -2  16 7453.91  346.42
   3   2 -16 8463.56  486.00
   3  -2 -16 7618.13  389.36
  -3   2  17   82.26   48.27
   3  -2 -17   98.90   49.20
   3  -2 -17  173.04   55.89
  -3  -2  17  105.52   62.56
  -3  -2  17  162.60   46.49
   3   2 -17  101.14   39.86
  -3   2  17  256.45   81.52
   3   2 -17  154.81   75.10
   3  -2 -18  -39.91   49.90
   3  -2 -18   38.66   61.29
  -3   2  18   22.49   42.05
  -3   2  18   31.49   56.66
   3   2 -18   50.15   50.34
   3   2 -18   31.08   57.90
  -3  -2  18   47.29   48.74
   3   2 -19  -50.29   73.31
   3  -2 -19   55.03   47.59
   3   2 -19   56.58   57.07
   3  -2 -19   70.09   60.96
  -3  -2  19  -35.32   51.97
  -3   2  19   -3.40   60.36
   3   2 -20 1124.76  134.25
  -3   2  20 1289.61  153.00
   3   2 -20  821.16  132.52
   3  -2 -20 1036.93  119.91
  -3  -2  20 1063.41  132.44
   3  -2 -20 1353.44  147.85
  -3   3   118198.43  747.41
   3  -3  -116674.16  624.82
  -3  -3   119559.23  801.96
   3  -3  -118957.43  701.51
   3   3  -118329.49  750.45
  -3   3   117302.61  670.34
   3  -3  -116887.36  643.00
  -3   3   118349.91  737.79
   3   3  -118136.99  679.57
  -3  -3   116555.40  688.16
   3  -3  -118225.79  780.76
  -3  -3   2  106.16   42.01
  -3   3   2   73.23   17.45
   3   3  -2  122.93   35.74
   3  -3  -2  102.32   24.07
   3  -3  -2  122.77   39.01
  -3  -3   2   96.13   27.96
   3  -3  -2  128.70   25.51
   3  -3  -2   77.23   19.29
  -3   3   2  128.24   23.60
   3   3  -2   87.75   29.17
   3   3  -2   78.02   25.45
  -3   3   2  135.81   36.13
   3  -3  -3   87.62   22.07
   3  -3  -3  118.91   33.42
   3  -3  -3   29.62   26.13
   3   3  -3  108.38   25.34
   3  -3  -3   69.74   18.43
  -3  -3   3   93.43   31.55
  -3   3   3   69.70   16.38
  -3   3   3  121.65   21.72
   3   3  -3   86.64   51.18
  -3   3   3  116.96   34.04
   3   3  -3  135.34   30.77
  -3  -3   4 4219.31  238.87
   3  -3  -4 3582.95  174.36
   3   3  -4 3843.28  132.83
   3   3  -4 4148.25  197.63
   3   3  -4 4638.98  267.72
  -3   3   4 4297.20  199.01
   3  -3  -4 4109.70  172.01
   3  -3  -4 4004.62  238.15
   3   3  -4 3792.64  134.71
   3   3  -4 3318.28  162.41
  -3   3   4 3597.21  166.35
   3  -3  -4 4014.12  196.10
  -3   3   4 4120.34  193.60
   3  -3  -516305.49  757.67
   3   3  -514594.80  522.44
  -3   3   513453.71  569.05
   3  -3  -515080.22  597.58
   3   3  -515207.25  557.05
   3   3  -516478.76  647.35
  -3   3   516561.05  683.77
  -3  -3   516158.53  706.30
   3  -3  -516977.70  601.11
   3  -3  -514336.20  571.38
  -3  -3   514946.53  671.80
   3   3  -517348.11  797.14
  -3   3   516027.71  555.11
   3   3  -6  458.33   49.10
   3  -3  -6  452.35   41.77
   3   3  -6  346.79   33.30
   3   3  -6  535.52   65.67
  -3   3   6  409.44   53.31
   3   3  -6  337.23   37.93
   3  -3  -6  456.80   54.12
  -3  -3   6  393.90   60.28
   3  -3  -6  392.51   28.92
  -3  -3   6  390.02   36.61
   3  -3  -6  530.01   61.31
   3   3  -6  329.49   31.24
   3   3  -7  453.72   74.25
   3   3  -7  400.61   34.10
   3   3  -7  464.05   40.40
   3   3  -7  383.48   39.63
   3  -3  -7  493.65   55.93
  -3  -3   7  548.26   62.27
  -3   3   7  479.25   53.18
   3  -3  -7  571.75   64.41
  -3  -3   7  517.83   42.27
   3  -3  -7  505.91   51.43
   3   3  -7  518.79   49.55
   3   3  -8  132.22   51.69
  -3   3   8  143.57   40.47
   3   3  -8  150.97   25.26
   3   3  -8  123.59   29.32
   3  -3  -8  141.16   34.27
   3  -3  -8  124.88   37.90
  -3  -3   8  140.26   25.19
   3  -3  -8  175.11   42.86
  -3  -3   8  161.62   43.24
   3  -3  -9 9959.31  532.74
   3  -3  -9 9085.42  460.17
   3   3  -9 9695.88  417.88
  -3  -3   9 8692.13  395.25
  -3  -3   9 9854.41  492.30
   3  -3  -910279.74  458.50
   3   3  -9 9588.56  391.36
  -3   3   910107.84  433.48
   3   3  -910295.44  450.47
   3   3 -10  464.41   42.53
   3   3 -10  454.90   52.40
   3  -3 -10  503.40   62.05
   3   3 -10  406.15   78.79
  -3  -3  10  398.83   36.82
  -3  -3  10  469.60   68.30
  -3   3  10  471.64   58.99
   3  -3 -10  398.03   69.25
   3  -3 -10  402.36   54.63
  -3  -3  11  906.13   92.56
   3   3 -11  993.32   71.36
   3  -3 -11 1027.71   93.21
   3   3 -11 1138.55  131.14
   3   3 -11  958.44   79.82
   3  -3 -11  861.73   86.87
   3  -3 -11 1088.00   93.15
  -3   3  11 1075.65   94.85
  -3  -3  11  904.28   64.30
  -3  -3  12  -18.34   59.77
   3   3 -12  -21.34   59.57
  -3  -3  12  -34.96   59.42
   3   3 -12   35.22   59.21
  -3   3  12   28.60   60.50
   3  -3 -12   -3.62   59.84
   3  -3 -12  -39.88   59.61
   3  -3 -12  -62.81   61.06
   3  -3 -13 8251.97  409.22
  -3  -3  13 7235.36  335.11
   3   3 -13 8523.19  463.37
   3  -3 -13 8431.83  433.23
   3   3 -13 7842.25  401.25
  -3   3  13 9125.04  487.83
  -3  -3  13 7929.08  455.01
   3  -3 -13 8756.66  460.98
   3  -3 -14  175.29   50.57
  -3   3  14  221.83   68.01
   3   3 -14  108.97   43.31
   3   3 -14  187.11   57.11
   3  -3 -14  235.37   59.22
  -3  -3  14  122.17   57.58
  -3  -3  14  137.94   35.55
   3  -3 -14  134.63   55.68
   3   3 -15  327.70   54.23
  -3  -3  15  442.31   80.43
   3   3 -15  456.93   77.47
   3  -3 -15  456.44   69.24
   3  -3 -15  467.53   86.96
   3  -3 -15  358.73   73.26
  -3   3  15  536.23   88.40
   3   3 -16  240.90   78.44
  -3  -3  16  386.44   67.30
   3   3 -16  257.06   56.55
   3  -3 -16  223.77   65.72
  -3   3  16  186.79   68.64
   3  -3 -16  116.06   52.98
   3  -3 -16  285.97   72.03
   3  -3 -17 2718.85  236.81
  -3   3  17 3542.73  242.20
   3  -3 -17 2715.33  215.78
   3   3 -17 2632.86  202.53
   3   3 -17 2970.70  220.33
   3  -3 -17 2632.83  217.75
  -3  -3  17 2666.76  189.09
  -3  -3  18  -13.98   64.27
  -3   3  18   44.43   66.81
   3   3 -18    8.39   64.30
   3   3 -18  -28.07   63.74
   3  -3 -18  -11.72   64.69
   3  -3 -18   16.70   65.48
   3  -3 -18  -43.82   64.72
   3   3 -19  911.64   98.75
   3  -3 -19 1238.23  138.86
  -3   3  19 1178.03  132.43
   3  -3 -19 1090.09  142.31
   3   3 -19  993.99  124.77
   3  -3 -19  915.64  130.83
  -3  -3  19  971.72  123.22
  -3  -3  20  -88.01   71.56
  -3   3  20  -65.19   74.26
   3  -3 -20   -9.40   71.88
   3   3 -20  -25.03   70.96
   3   3 -20    1.56   71.53
   3  -3 -20   27.66   72.51
   3  -3 -20  -13.19   72.05
   3   4  -1  633.53   33.05
  -3  -4   1  689.44   56.61
   3  -4  -1  831.89   75.30
   3   4  -1  775.33   63.39
  -3   4   1  818.48   52.57
   3   4  -1  656.44   47.54
  -3   4   1  884.26   70.23
   3   4  -1  844.87   81.89
   3  -4  -1  833.32   62.98
   3   4  -1  642.67   32.38
   3  -4  -1  643.10   44.00
  -3  -4   1 1029.12   98.23
   3  -4  -1  676.65   41.80
  -3   4   1  818.68   62.39
   3   4  -222773.60  750.29
   3  -4  -221220.50  791.98
  -3   4   224185.88  910.10
   3  -4  -224978.68  826.58
  -3  -4   222267.50  906.78
   3   4  -219477.91  801.16
   3   4  -222648.84  842.26
   3   4  -221823.24  716.34
   3   4  -223144.54  874.20
  -3   4   222356.27  890.78
  -3   4   224941.46 1028.54
   3  -4  -222076.08  838.52
   3  -4  -225544.16 1005.93
  -3  -4   226197.81 1016.73
   3  -4  -3  241.73   46.14
  -3   4   3  261.92   27.82
   3   4  -3  190.58   40.05
   3  -4  -3  234.46   30.51
  -3   4   3  205.11   43.05
   3   4  -3  206.17   17.26
   3   4  -3  221.59   18.86
   3   4  -3  222.90   28.94
  -3  -4   3  251.69   43.06
   3   4  -3  153.84   22.73
  -3  -4   3  202.69   35.98
   3  -4  -3  180.14   27.49
   3  -4  -3  240.25   30.48
   3  -4  -3  219.49   33.45
   3   4  -4 3373.11  205.65
   3   4  -4 2508.61  125.36
  -3   4   4 3264.36  174.03
   3  -4  -4 3245.88  161.00
  -3  -4   4 3029.06  169.16
   3   4  -4 2628.29  132.96
   3  -4  -4 2790.39  150.80
   3   4  -4 2780.37  131.23
   3   4  -4 2615.13  111.53
   3   4  -4 3068.54  176.36
   3  -4  -4 3205.87  183.82
   3  -4  -4 2378.26  146.17
  -3   4   4 3097.49  138.60
  -3   4   5  365.03   32.33
   3   4  -5  341.01   62.92
   3  -4  -5  301.72   58.97
   3  -4  -5  228.16   29.14
   3   4  -5  288.20   29.89
  -3   4   5  328.84   47.35
   3  -4  -5  310.20   43.94
   3  -4  -5  279.42   39.31
  -3  -4   5  284.91   45.53
   3   4  -5  318.94   44.59
   3   4  -5  315.77   27.42
   3   4  -5  242.20   25.65
   3   4  -614045.70  575.77
   3  -4  -615555.14  655.33
   3  -4  -614429.48  613.72
   3   4  -613444.51  543.56
  -3   4   616785.46  641.44
   3  -4  -615753.65  705.52
   3   4  -616440.71  739.72
   3   4  -616358.33  603.92
  -3   4   615094.78  523.83
  -3  -4   615678.78  675.12
   3   4  -7  507.92   53.49
   3  -4  -7  388.05   48.31
  -3   4   7  409.38   57.51
  -3  -4   7  437.89   57.93
   3  -4  -7  525.10   50.36
   3   4  -7  648.71   85.88
   3   4  -7  415.12   38.77
   3  -4  -7  494.74   72.60
  -3  -4   7  390.35   32.10
   3  -4  -8 7621.18  332.78
  -3  -4   8 7680.58  377.91
  -3  -4   8 6749.07  297.22
   3   4  -8 7381.17  332.13
   3   4  -8 8249.72  449.83
   3  -4  -8 7727.65  424.96
   3  -4  -8 8306.49  354.42
   3   4  -8 8446.59  347.10
  -3   4   8 8137.33  342.21
   3   4  -9  -13.98   64.34
   3   4  -9    7.72   64.76
  -3  -4   9  -32.24   63.86
   3   4  -9    5.59   64.09
   3  -4  -9   21.92   65.14
   3  -4  -9  -21.59   64.04
   3  -4  -9    0.48   65.61
  -3   4   9 -100.15   64.33
  -3  -4   9   18.10   64.04
   3   4 -10 3442.25  190.41
  -3  -4  10 2836.18  146.62
   3   4 -10 3512.11  269.41
   3  -4 -10 3272.92  178.22
  -3   4  10 3738.62  220.98
   3  -4 -10 3812.76  220.65
  -3  -4  10 3123.27  194.19
   3  -4 -10 3547.04  199.55
   3   4 -10 3208.82  180.27
  -3  -4  11  489.93   84.73
  -3  -4  11  483.64   43.51
   3  -4 -11  663.70   63.62
   3  -4 -11  638.37   75.48
   3   4 -11  547.05   57.60
   3   4 -11  484.44   58.69
  -3   4  11  561.54   81.52
   3   4 -11  733.98  100.89
   3  -4 -11  594.43   70.12
  -3   4  12 9206.70  424.18
   3   4 -12 8132.25  370.58
  -3  -4  12 8558.10  423.14
   3  -4 -12 8576.54  394.72
   3   4 -12 8539.62  455.67
   3   4 -12 7949.46  392.79
   3  -4 -12 8810.98  475.48
   3  -4 -12 8845.96  436.39
   3  -4 -13   63.02   48.78
  -3   4  13   -6.57   46.71
   3   4 -13   58.94   58.32
   3  -4 -13   25.31   45.94
   3   4 -13   24.75   36.16
   3  -4 -13   88.01   51.36
  -3  -4  13   56.05   54.13
   3  -4 -14   11.10   42.68
   3  -4 -14   -3.88   44.79
  -3  -4  14   80.85   57.18
   3   4 -14   44.51   67.71
   3  -4 -14  100.55   59.22
   3   4 -14  -56.29   36.64
  -3   4  14   53.23   54.69
   3   4 -15   84.16   78.00
   3  -4 -15  -15.59   79.33
   3  -4 -15  -51.89   80.62
   3  -4 -15   55.57   78.94
  -3   4  15  -40.21   80.67
   3   4 -15   12.26   78.63
  -3  -4  15    3.07   78.21
   3  -4 -16 3488.96  236.84
   3   4 -16 2959.59  200.00
   3  -4 -16 3480.13  252.50
   3   4 -16 3918.17  296.86
  -3  -4  16 3443.73  264.15
   3  -4 -16 3712.50  284.92
  -3   4  16 4054.58  283.78
   3  -4 -17  169.06   63.06
   3  -4 -17  129.46   70.96
   3   4 -17  142.02   78.33
  -3   4  17  257.86   76.52
   3   4 -17  108.15   62.62
   3  -4 -17  124.59   54.60
  -3  -4  17  108.55   67.45
   3   4 -18   32.91   70.83
   3   4 -18   24.01   49.86
  -3   4  18   89.34   63.96
  -3  -4  18   52.70   52.21
   3  -4 -18  105.81   53.75
   3  -4 -18    7.00   51.79
   3  -4 -18   -3.75   52.80
   3  -4 -19   50.75   63.26
   3   4 -19  170.52   57.66
  -3   4  19  144.15   61.17
   3   4 -19  178.21   72.97
   3  -4 -19  239.42   63.06
   3  -4 -19  134.74   61.72
  -3  -4  19   48.95   55.87
   3   4 -20 1477.98  152.68
  -3   4  20 1826.52  170.07
   3  -4 -20 1554.42  163.80
   3  -4 -20 1621.50  163.97
   3  -4 -20 1431.94  149.70
  -3  -5   1 5320.29  286.59
   3   5  -1 6306.30  293.36
   3  -5  -1 5990.25  297.26
   3   5  -1 5114.84  239.06
   3  -5  -1 5574.57  216.03
  -3   5   1 6311.43  300.99
  -3   5   1 6589.77  321.00
  -3  -5   1 5964.74  323.02
   3  -5  -1 6404.72  303.00
   3   5  -1 5819.19  220.85
  -3  -5   2  295.65   40.09
   3  -5  -2  372.63   52.26
  -3   5   2  342.22   41.41
   3   5  -2  266.00   30.19
   3  -5  -2  293.61   27.84
   3  -5  -2  383.79   42.82
  -3  -5   2  372.05   68.19
  -3   5   2  362.74   36.01
   3   5  -2  320.00   32.17
   3   5  -2  360.67   55.56
  -3  -5   3 3787.96  235.59
  -3   5   3 3366.01  183.21
   3   5  -3 2923.77  145.20
   3   5  -3 3380.82  152.48
  -3  -5   3 3328.12  193.50
   3  -5  -3 3479.37  220.54
  -3   5   3 3681.46  161.65
   3  -5  -3 3467.35  191.72
   3  -5  -3 3286.64  170.16
   3   5  -3 3570.57  192.32
   3   5  -4  119.64   38.39
  -3  -5   4   25.21   34.79
   3   5  -4   23.57   52.93
   3  -5  -4   46.77   33.74
   3  -5  -4   80.06   44.73
  -3   5   4   72.45   22.62
  -3   5   4   80.92   44.35
   3   5  -4   32.21   16.73
   3   5  -4   37.04   18.26
   3  -5  -4   32.09   21.56
   3   5  -512489.86  534.50
  -3   5   512665.51  563.59
   3  -5  -512648.33  503.05
   3  -5  -512266.80  611.42
   3   5  -510123.53  410.97
   3  -5  -511282.41  476.30
  -3  -5   512117.75  530.54
   3   5  -511843.39  448.76
   3   5  -513942.43  666.17
  -3   5   512402.10  463.87
  -3   5   6  111.76   43.98
  -3  -5   6   58.99   42.92
   3   5  -6   65.73   28.22
  -3   5   6   97.55   17.63
   3   5  -6   65.41   49.20
   3  -5  -6  114.81   36.70
   3  -5  -6   65.84   40.85
   3  -5  -6   71.48   33.59
   3   5  -6  110.00   38.63
  -3   5   7  917.03   87.35
   3  -5  -7  945.29   77.23
  -3   5   7  898.02   47.88
   3  -5  -7 1003.78   94.56
  -3  -5   7 1165.45   91.97
   3  -5  -7  976.24  101.31
   3   5  -7 1136.23  119.81
   3   5  -7  987.48   84.68
   3   5  -7  794.97   65.87
   3  -5  -8  -11.24   68.90
   3  -5  -8   19.65   69.31
   3  -5  -8  -42.93   67.93
  -3  -5   8   17.95   67.67
   3   5  -8  -23.02   68.88
  -3   5   8  -16.08   68.08
   3   5  -8   44.03   68.13
   3   5  -8   20.59   69.03
   3   5  -912687.80  548.64
  -3  -5   912813.92  610.66
   3  -5  -912947.15  608.52
   3   5  -913116.50  548.92
   3  -5  -913524.34  656.00
  -3   5   913695.15  578.64
   3   5  -913791.85  718.66
   3  -5  -912373.17  552.82
   3  -5 -10   59.98   46.06
  -3   5  10  191.43   50.89
   3  -5 -10  120.34   49.21
   3   5 -10   94.30   74.45
   3  -5 -10  163.46   45.13
  -3  -5  10   27.03   46.92
   3   5 -10  134.55   40.48
   3   5 -10  179.92   46.42
   3  -5 -11  255.39   56.80
   3  -5 -11  256.85   52.87
  -3  -5  11  246.78   60.74
   3   5 -11  269.92   66.26
   3   5 -11  133.47   37.61
   3   5 -11  196.59   46.01
  -3   5  11  241.70   55.28
   3  -5 -11  220.34   62.12
   3  -5 -12   41.12   48.19
  -3   5  12    7.46   44.23
   3  -5 -12   77.62   46.39
  -3  -5  12    3.60   40.44
   3   5 -12  -17.92   36.54
   3  -5 -12   -1.10   47.91
   3   5 -12   -1.05   37.55
   3   5 -12   45.44   65.98
   3   5 -13 4397.18  316.94
  -3   5  13 4912.90  272.84
   3  -5 -13 4149.38  251.41
   3  -5 -13 4697.52  319.29
  -3  -5  13 4100.35  296.34
   3   5 -13 4025.85  222.75
   3  -5 -13 4021.68  259.17
  -3   5  14  192.95   58.59
   3  -5 -14   94.21   57.33
  -3  -5  14   55.17   56.09
   3  -5 -14  142.12   55.26
   3   5 -14  138.92   85.91
   3  -5 -14  126.23   51.32
   3   5 -14  176.27   42.46
   3  -5 -15 1852.40  154.47
   3  -5 -15 1977.33  173.59
   3   5 -15 1926.78  182.36
   3   5 -15 1828.76  154.16
   3  -5 -15 2123.18  187.11
  -3  -5  15 2089.26  177.17
  -3   5  15 2009.51  178.55
  -3   5  16   -6.01   71.97
   3  -5 -16  -33.98   72.09
   3  -5 -16  -37.12   70.88
   3   5 -16   14.73   70.60
   3  -5 -16  -10.01   71.31
  -3  -5  16  -30.62   69.98
   3   5 -16  -54.64   69.86
   3  -5 -17 1085.97  118.04
  -3   5  17 1339.58  141.51
   3  -5 -17 1012.49  130.22
  -3  -5  17 1033.29  121.62
   3   5 -17  924.75  120.76
   3   5 -17 1318.17  137.02
   3  -5 -17  994.50  123.57
   3  -5 -18  170.58   69.55
   3  -5 -18  222.63   62.29
   3   5 -18  210.26   90.92
   3   5 -18  134.51   63.65
  -3   5  18  364.41   80.98
  -3  -5  18  176.77   64.82
   3  -5 -18  289.73   61.19
   3  -5 -19  860.77  109.07
   3   5 -19  633.95  105.78
   3  -5 -19  821.80  106.09
   3  -5 -19  713.70   94.54
  -3  -5  19  655.08  122.91
   3   5 -19 1011.42  149.06
  -3   5  19  850.66  114.59
   3  -6  -1  334.29   58.90
  -3   6   1  260.29   32.41
   3   6  -1  298.00   55.23
   3   6  -1  322.02   34.89
  -3  -6   1  242.75   32.40
   3   6  -1  265.83   30.67
   3  -6  -1  329.29   48.21
  -3   6   1  322.33   60.19
  -3  -6   1  272.44   58.94
   3  -6  -2 7670.56  337.40
   3   6  -2 7044.97  299.87
   3  -6  -2 6599.85  283.00
  -3   6   2 8224.04  461.55
   3   6  -2 5976.21  258.23
  -3  -6   2 7497.65  383.44
  -3  -6   2 6764.30  315.61
   3   6  -2 7409.53  357.05
  -3   6   2 7687.27  364.64
   3  -6  -2 7241.64  416.42
  -3   6   3 2420.53  156.05
   3  -6  -3 2722.22  151.50
  -3   6   3 2536.11  148.87
   3  -6  -3 2468.22  193.68
   3   6  -3 2760.48  152.48
   3   6  -3 2344.82  136.64
  -3  -6   3 2435.83  171.05
   3  -6  -3 2388.21  123.70
  -3  -6   3 2689.86  199.93
   3  -6  -4 1587.54  118.65
   3  -6  -4 1380.88   89.96
   3  -6  -4 1647.39  141.33
  -3   6   4 1708.97  121.59
   3   6  -4 1427.05  101.83
  -3  -6   4 1442.47  114.32
  -3   6   4 1446.20   93.23
   3   6  -4 1209.18   91.58
  -3  -6   4 1683.55  134.46
   3   6  -5  944.64   68.00
   3  -6  -5 1152.15  115.60
   3   6  -5 1078.82   89.81
   3  -6  -5 1005.94   81.93
   3   6  -5 1048.44  119.03
  -3   6   5  940.50   66.60
   3  -6  -5  789.76   64.36
  -3  -6   5  912.57   92.69
  -3   6   5  929.39   99.05
  -3   6   6 3774.41  232.56
   3   6  -6 3372.28  217.20
   3   6  -6 3140.94  181.56
   3  -6  -6 3076.69  163.32
  -3  -6   6 3098.66  209.32
   3   6  -6 3587.29  255.39
  -3   6   6 3273.34  150.30
   3  -6  -6 3411.04  224.00
   3  -6  -6 3315.20  202.09
  -3   6   7  871.99   90.00
   3  -6  -7 1038.56   99.65
  -3  -6   7  952.46  100.62
   3   6  -7  937.96   81.87
   3  -6  -7  704.17   72.90
   3   6  -7  899.22  117.22
   3  -6  -7  913.77   80.54
   3   6  -7  774.49   68.52
   3  -6  -8 2314.75  150.50
  -3  -6   8 2257.83  173.72
   3  -6  -8 2349.02  183.65
  -3   6   8 2220.11  140.03
   3  -6  -8 2034.10  158.12
   3   6  -8 2471.14  160.72
   3   6  -8 2139.66  172.63
   3   6  -8 2468.79  193.24
   3  -6  -9   47.90   42.35
  -3   6   9   41.11   46.45
   3   6  -9  108.96   75.70
   3  -6  -9   90.87   34.35
   3  -6  -9   95.55   53.87
  -3  -6   9  109.19   61.20
   3   6  -9   92.51   34.79
   3   6  -9  118.55   51.57
   3   6 -10 1970.99  159.04
  -3  -6  10 1666.89  126.86
   3  -6 -10 1676.87  144.88
   3   6 -10 1649.86  118.52
  -3   6  10 1941.12  143.13
   3  -6 -10 1887.45  150.89
   3   6 -10 1620.78  123.96
   3  -6 -10 1781.11  145.26
   3   6 -11  325.63   55.67
   3   6 -11  247.12   50.44
   3  -6 -11  413.65   73.36
   3  -6 -11  312.75   60.48
  -3   6  11  416.01   58.36
  -3  -6  11  352.48   61.81
   3  -6 -11  392.28   77.32
   3   6 -11  378.24   97.01
   3   6 -12 2929.89  199.24
   3   6 -12 3138.40  265.78
   3   6 -12 3057.23  198.77
   3  -6 -12 3328.79  242.13
  -3   6  12 3306.96  221.85
   3  -6 -12 3013.78  207.19
  -3  -6  12 3167.70  241.57
   3  -6 -12 3243.66  246.24
   3   6 -13  445.82   66.83
   3   6 -13  528.30  103.88
  -3   6  13  505.33   78.02
   3  -6 -13  476.73   65.15
  -3  -6  13  444.15   79.21
   3   6 -13  279.08   62.25
   3  -6 -13  479.06   75.27
   3  -6 -13  547.46   88.31
   3  -6 -14  387.98   59.62
   3   6 -14  292.05   59.55
   3   6 -14  377.94   94.45
   3  -6 -14  320.49   64.86
  -3   6  14  342.02   84.89
   3  -6 -14  264.10   59.01
  -3  -6  14  286.30   70.39
  -3  -6  15  322.92   81.54
   3  -6 -15  371.54   80.89
  -3   6  15  381.87   72.78
   3  -6 -15  563.21   84.19
   3   6 -15  438.97   98.36
   3   6 -15  397.50   72.96
   3  -6 -15  381.06   73.18
   3  -6 -16 3068.54  225.80
   3   6 -16 2924.67  233.09
   3  -6 -16 2930.94  230.25
  -3   6  16 3185.05  276.69
  -3  -6  16 3074.86  230.23
   3  -6 -16 3024.77  261.50
   3   6 -16 3193.73  260.67
   3  -6 -17  570.12   76.99
   3  -6 -17  565.70  105.74
   3  -6 -17  523.12   86.96
  -3   6  17  596.54  101.29
   3   6 -17  645.06   96.20
   3   6 -17  534.66   78.31
  -3  -6  17  438.51   73.14
   3  -6 -18  162.83   57.11
   3  -6 -18  169.65   60.37
   3   6 -18  114.55   69.61
  -3   6  18  207.28   66.38
   3  -6 -18  132.77   60.60
  -3  -6  18  202.79   69.00
   3   6 -18  132.25   85.07
  -3  -7   1 5664.65  285.33
   3  -7  -1 6943.36  371.73
  -3   7   1 6744.09  298.19
   3   7  -1 6825.93  356.02
  -3  -7   1 6191.82  293.37
  -3   7   1 6898.95  371.83
  -3  -7   1 6863.94  377.82
   3  -7  -1 6107.78  350.99
  -3   7   2  378.48   76.42
   3  -7  -2  337.27   54.08
  -3   7   2  347.78   44.66
  -3  -7   2  338.49   48.49
   3   7  -2  293.47   44.30
  -3  -7   2  381.65   69.14
   3  -7  -2  301.95   65.49
   3   7  -2  367.69   68.82
  -3   7   3  743.22   57.14
   3  -7  -3  735.61   88.03
   3   7  -3  651.90   57.63
   3  -7  -3  816.32   70.11
  -3  -7   3  747.73   84.77
  -3   7   3  688.31   85.83
  -3  -7   3  744.79   67.37
   3   7  -3  818.74   86.71
  -3  -7   4  524.80   64.77
  -3   7   4  660.73   73.22
  -3   7   4  586.06   50.55
   3  -7  -4  595.31   49.54
  -3  -7   4  537.03   84.31
   3   7  -4  675.64   70.53
   3  -7  -4  664.89   87.36
   3  -7  -4  655.13   71.40
   3   7  -4  619.01   60.93
   3  -7  -5 6024.51  358.01
   3   7  -5 5717.61  277.18
  -3   7   5 6150.30  253.44
   3   7  -5 6665.29  397.04
   3  -7  -5 5605.37  273.81
   3  -7  -5 6860.67  349.59
   3   7  -5 6408.87  332.56
  -3  -7   5 6137.56  328.13
  -3   7   5 6767.47  373.99
   3   7  -6 1110.12   99.61
  -3   7   6 1398.81  109.35
   3   7  -6 1358.66  104.74
   3  -7  -6 1412.80  133.73
  -3  -7   6 1230.72  102.71
  -3   7   6 1319.52   79.69
   3  -7  -6 1251.49   82.52
   3  -7  -6 1511.23  115.62
   3   7  -6 1506.96  155.94
  -3   7   7  477.97   68.12
   3   7  -7  293.76   88.15
   3  -7  -7  406.32   68.30
   3  -7  -7  348.90   45.23
  -3  -7   7  411.70   66.46
   3   7  -7  330.81   53.83
   3   7  -7  391.99   66.51
   3  -7  -7  475.34   65.68
  -3   7   8  683.05   82.69
   3   7  -8  766.40   66.76
   3   7  -8  819.78  106.74
  -3  -7   8  647.49   88.03
   3  -7  -8  713.36   86.57
   3  -7  -8  666.61   84.82
   3   7  -8  788.17   91.15
   3  -7  -8  658.17   66.00
   3   7  -9 6994.98  413.21
   3  -7  -9 5491.55  288.60
   3   7  -9 5425.55  311.81
   3   7  -9 6550.77  337.30
   3  -7  -9 7009.24  381.76
   3  -7  -9 6269.24  384.29
  -3  -7   9 6425.79  382.98
  -3   7   9 6490.70  377.94
   3   7 -10 1002.01  140.44
   3   7 -10 1002.16   95.08
  -3   7  10 1042.34  107.10
   3  -7 -10 1026.75  126.06
   3  -7 -10  870.36   82.29
   3  -7 -10  986.97  107.18
   3   7 -10  692.27   78.12
  -3  -7  10  900.14   96.29
   3  -7 -11 1173.34  123.87
   3   7 -11 1221.81  114.43
  -3   7  11 1244.20  127.03
   3   7 -11 1114.47  145.90
   3  -7 -11 1158.65  118.30
   3   7 -11 1074.94   97.47
  -3  -7  11 1248.55  121.19
   3  -7 -11 1126.15  104.87
   3   7 -12   19.81   69.99
   3   7 -12   35.93   42.25
   3  -7 -12  -10.49   39.48
   3   7 -12   31.71   43.15
  -3   7  12   58.15   47.13
  -3  -7  12   77.42   59.75
   3  -7 -12  -14.88   40.01
   3  -7 -12   -8.38   51.04
   3  -7 -13 2954.72  221.35
   3   7 -13 3052.79  268.78
  -3   7  13 3472.66  239.75
   3  -7 -13 3262.34  233.75
  -3  -7  13 3174.58  243.19
   3   7 -13 2914.83  202.11
   3   7 -13 3110.64  202.29
   3  -7 -13 3060.57  193.34
   3  -7 -14  616.47   87.75
   3  -7 -14  418.72   68.55
  -3  -7  14  536.42   95.76
   3   7 -14  479.93   87.39
   3   7 -14  453.05  108.26
  -3   7  14  587.80   96.45
   3  -7 -14  505.95   87.22
   3  -7 -15 1043.74  119.83
   3   7 -15  851.22  106.41
   3   7 -15 1025.65  154.47
  -3  -7  15 1091.15  134.15
   3  -7 -15 1132.81  130.14
   3  -7 -15 1161.06  114.42
  -3   7  15 1299.89  145.47
   3  -7 -16  165.97   69.92
  -3  -7  16   91.33   69.00
   3  -7 -16   87.31   54.40
   3   7 -16  139.71   52.72
   3  -7 -16  131.07   57.85
   3   7 -16   99.96   81.82
  -3   7  16  107.53   59.07
  -3  -7  17  641.86  110.89
   3  -7 -17  732.97  107.37
   3  -7 -17  709.72   96.15
   3   7 -17  745.95  135.10
  -3   7  17  793.51   93.73
   3  -7 -17  709.48   98.75
   3   8  -1  334.72   63.46
  -3   8   1  447.78   50.40
   3  -8  -1  404.14   58.08
  -3  -8   1  375.00   66.24
  -3  -8   1  340.87   42.38
  -3   8   1  395.08   65.49
   3  -8  -1  497.79   66.11
  -3  -8   1  348.58   48.44
  -3  -8   2 7973.12  445.33
   3  -8  -2 7463.30  439.72
  -3   8   2 7775.38  398.52
   3   8  -2 7106.16  388.66
  -3  -8   2 6685.46  326.30
  -3   8   2 7322.37  322.05
   3  -8  -2 7406.49  435.52
  -3  -8   3 2551.14  212.48
   3  -8  -3 2678.19  173.15
   3   8  -3 2381.46  173.62
  -3  -8   3 2198.53  147.05
   3  -8  -3 2584.08  206.79
  -3   8   3 2563.28  166.17
   3   8  -3 2083.80  135.48
  -3   8   3 2528.82  141.44
  -3  -8   4 2124.26  158.96
  -3   8   4 2292.86  136.05
   3  -8  -4 2472.56  189.71
  -3   8   4 2423.92  179.82
   3  -8  -4 2293.34  182.20
   3   8  -4 2084.36  140.29
  -3  -8   4 2616.11  205.12
   3   8  -4 2216.72  161.00
   3  -8  -5   40.46   48.53
  -3   8   5   99.55   51.75
  -3   8   5   44.11   29.13
  -3  -8   5    2.11   54.99
   3  -8  -5   39.28   41.50
   3   8  -5    2.11   52.32
   3   8  -5  -29.44   32.23
   3  -8  -6 5267.78  304.49
  -3   8   6 4965.17  288.69
   3   8  -6 4099.44  227.75
   3  -8  -6 4095.33  234.86
   3   8  -6 5016.82  363.95
   3   8  -6 4977.75  282.94
  -3  -8   6 4327.89  257.66
   3  -8  -6 4723.89  289.31
   3  -8  -7 1620.03  137.11
  -3   8   7 1866.89  144.49
  -3  -8   7 1581.55  138.03
   3   8  -7 1518.11  117.57
   3  -8  -7 1330.06  104.62
   3   8  -7 1734.98  187.34
   3   8  -7 1746.02  144.65
   3  -8  -7 1641.47  139.29
   3   8  -8 4404.58  272.24
   3  -8  -8 4651.38  277.67
   3   8  -8 4064.79  229.99
  -3  -8   8 4613.01  290.51
   3  -8  -8 4674.75  290.75
   3   8  -8 4715.39  360.39
  -3   8   8 4648.27  287.99
   3  -8  -8 3971.85  227.01
   3  -8  -9   15.65   66.90
   3   8  -9  -12.97   66.78
  -3  -8   9    7.09   66.40
   3   8  -9  -22.06   67.39
   3  -8  -9   22.48   66.20
   3   8  -9   25.58   67.99
   3  -8  -9  -11.54   66.14
  -3   8   9  -70.74   65.97
   3   8 -10  718.30  111.34
  -3   8  10  907.34  102.60
   3  -8 -10  751.88   76.02
   3  -8 -10  776.33  107.32
   3   8 -10  681.44   85.28
   3   8 -10  670.27   87.45
   3  -8 -10  875.43  104.79
  -3  -8  10  692.88   91.27
   3  -8 -11  657.26   93.82
  -3  -8  11  683.53   97.28
  -3   8  11  770.26  102.80
   3  -8 -11  474.33   58.46
   3   8 -11  540.66   82.74
   3  -8 -11  642.58   79.48
   3   8 -11  524.10   80.69
   3   8 -11  629.42  124.32
   3   8 -12 2476.69  199.85
   3   8 -12 3127.15  274.48
   3  -8 -12 2531.42  178.75
   3   8 -12 3005.02  210.37
   3  -8 -12 2721.88  189.90
  -3   8  12 3413.53  265.12
   3  -8 -12 2941.79  219.42
  -3  -8  12 2780.16  222.05
  -3   8  13  199.58   62.35
   3  -8 -13  236.22   63.68
   3  -8 -13  134.31   47.52
   3  -8 -13  236.50   68.05
  -3  -8  13  211.64   75.86
   3   8 -13  139.05   56.83
   3   8 -13  116.41   54.81
   3   8 -13  163.39   79.11
   3   8 -14   15.20   75.86
  -3  -8  14   48.18   62.40
   3  -8 -14   27.95   46.33
   3   8 -14   63.14   47.02
   3  -8 -14  -32.28   54.27
  -3   8  14  125.26   58.05
   3  -8 -14  101.71   54.52
  -3   8  15   15.50   53.18
  -3  -8  15   99.41   69.98
   3  -8 -15   32.63   66.62
   3  -8 -15   75.64   48.90
   3   8 -15   99.82   87.01
   3  -8 -15   44.82   62.79
  -3   8  16 1715.35  161.90
   3  -8 -16 1531.80  152.07
   3   8 -16 1786.42  207.35
   3  -8 -16 1504.16  149.71
  -3  -8  16 1770.39  177.91
   3  -8 -16 1397.61  137.28
  -3  -9   1 3977.98  228.52
  -3  -9   1 4781.18  317.62
   3   9  -1 5004.22  324.45
  -3   9   1 4869.19  248.76
  -3   9   1 5009.49  296.42
   3  -9  -1 4995.98  302.96
  -3  -9   1 4222.19  232.86
   3  -9  -1 5028.82  322.51
   3   9  -2   56.12   62.34
  -3  -9   2   -4.09   53.82
  -3  -9   2   94.99   32.28
  -3   9   2   69.54   49.25
  -3  -9   2   -7.59   43.33
  -3   9   2  100.82   40.84
   3  -9  -2  123.57   57.62
   3  -9  -2   65.99   50.76
  -3  -9   3 1417.93  113.36
  -3   9   3 1676.06  105.27
   3  -9  -3 1610.27  145.54
   3   9  -3 1354.55  117.05
   3  -9  -3 1699.57  144.93
  -3  -9   3 1595.22  167.22
  -3   9   3 1620.61  118.12
   3   9  -3 1535.62  119.43
  -3   9   4 2026.51  124.16
  -3  -9   4 1915.84  142.79
  -3   9   4 2222.31  148.72
  -3  -9   4 2097.91  178.78
   3  -9  -4 2193.62  172.41
   3   9  -4 2084.78  177.77
   3   9  -4 1735.39  129.42
   3  -9  -4 2109.56  178.44
   3   9  -5 6887.51  351.18
   3  -9  -5 8040.79  437.82
   3   9  -5 7236.21  405.51
   3  -9  -5 7798.06  416.80
  -3  -9   5 7229.46  389.68
  -3   9   5 8197.15  383.84
  -3   9   6  757.68   92.48
   3   9  -6  637.65  116.98
   3   9  -6  675.02   80.07
  -3  -9   6  754.31   98.27
   3   9  -6  638.61   86.05
   3  -9  -6  720.90   96.09
   3  -9  -6  661.06   99.93
   3  -9  -7   93.42   52.37
   3   9  -7   47.20   83.09
  -3  -9   7   33.31   67.09
  -3   9   7  109.37   46.85
   3  -9  -7   44.59   47.82
   3   9  -7   99.41   60.84
   3   9  -7   71.05   48.28
   3  -9  -8  595.06   92.15
   3   9  -8  677.11  109.73
   3   9  -8  492.14   83.85
  -3  -9   8  574.35   92.54
  -3   9   8  565.60   68.37
   3  -9  -8  646.42   87.70
   3   9  -8  352.18   70.42
   3  -9  -9 3594.54  267.24
   3   9  -9 3212.30  273.24
  -3   9   9 3544.86  225.30
  -3  -9   9 2958.77  228.92
   3  -9  -9 3179.20  236.73
   3   9  -9 2769.55  218.07
   3   9  -9 3097.11  222.23
   3  -9 -10 1367.51  140.52
   3  -9 -10 1248.22  128.68
   3   9 -10 1044.92  108.58
  -3   9  10 1409.82  120.85
   3  -9 -10 1142.29  108.16
   3   9 -10 1091.89  117.04
  -3  -9  10 1229.73  129.85
   3   9 -10 1284.31  161.81
  -3   9  11  168.05   58.70
   3   9 -11  164.38   60.76
   3  -9 -11   74.47   59.04
   3   9 -11  145.31   91.35
   3  -9 -11  116.26   54.91
   3  -9 -11  109.42   48.66
  -3  -9  11  190.85   66.62
  -3   9  12  846.42  106.86
   3   9 -12  551.01  120.42
   3  -9 -12  523.58   69.40
   3   9 -12  530.30   90.45
  -3  -9  12  658.93  104.04
   3  -9 -12  611.66   97.28
   3  -9 -12  550.69   86.45
   3  -9 -13 1913.23  192.62
   3   9 -13 1866.46  166.39
   3  -9 -13 1597.63  146.26
   3  -9 -13 1816.90  163.08
  -3   9  13 2025.93  184.31
  -3  -9  13 1794.88  174.07
   3   9 -13 1904.35  197.12
   3   9 -14  922.04  134.49
   3  -9 -14  721.28  106.84
   3  -9 -14  681.35   94.33
  -3  -9  14  877.65  132.11
  -3   9  14  752.50  117.19
   3  -9 -14  719.82   88.52
   3   9 -15  598.72  142.87
   3  -9 -15  561.18   86.33
   3  -9 -15  550.04   91.66
   3  -9 -15  647.35   94.00
  -3 -10   1   67.32   44.52
  -3  10   1  157.06   47.46
  -3 -10   1  156.30   42.43
  -3 -10   1  214.05   77.50
   3 -10  -1  175.19   64.73
  -3  10   1  131.50   57.87
   3 -10  -1  222.88   51.75
   3  10  -1  308.10   68.39
  -3 -10   2 2683.46  183.12
   3 -10  -2 3066.62  215.24
  -3 -10   2 2463.06  179.64
  -3  10   2 3477.09  208.32
  -3  10   2 3358.62  214.23
   3  10  -2 3260.07  233.36
   3 -10  -2 3250.02  223.98
  -3 -10   2 3301.52  244.59
  -3 -10   3  421.82   71.06
   3 -10  -3  389.92   61.62
   3  10  -3  479.70   87.29
   3 -10  -3  543.07   91.60
  -3  10   3  473.52   67.90
  -3 -10   3  457.90   86.02
  -3  10   3  378.51   56.03
  -3  10   4 1005.15  100.64
   3  10  -4  889.55  114.59
   3 -10  -4 1019.41  115.15
  -3 -10   4  846.86  120.91
   3 -10  -4  926.36  122.00
  -3 -10   4  872.34   97.67
  -3 -10   5   51.28   60.45
   3 -10  -5  128.05   51.68
  -3  10   5  133.01   55.73
   3  10  -5   49.01   61.40
   3 -10  -5  116.78   55.86
  -3 -10   6 1972.26  181.00
   3 -10  -6 2038.64  176.54
  -3  10   6 2089.58  176.05
   3  10  -6 2088.94  210.52
   3 -10  -6 2251.72  201.88
   3  10  -6 2064.13  178.78
   3 -10  -7  767.78   97.62
   3  10  -7  720.03  101.60
   3  10  -7  707.39  117.05
   3 -10  -7  569.71   92.14
  -3 -10   7  735.08  116.39
  -3  10   7  576.95   86.58
  -3  10   8 2023.68  167.35
   3  10  -8 1781.17  170.08
   3  10  -8 1875.58  194.74
  -3 -10   8 1664.71  166.96
   3 -10  -8 1937.23  165.09
   3 -10  -8 1887.26  169.06
   3 -10  -9   60.92   51.59
  -3  10   9   81.12   50.02
   3  10  -9  110.27   87.46
   3  10  -9   15.08   55.08
  -3 -10   9  -41.13   61.26
   3 -10  -9   47.12   44.61
  -3 -10  10 1606.22  158.74
   3 -10 -10 1899.23  184.27
   3  10 -10 1536.99  158.28
   3 -10 -10 1604.85  149.65
  -3  10  10 1817.46  174.23
   3  10 -10 1606.62  186.39
  -3 -10  11  341.44   88.88
   3 -10 -11  514.94   91.38
   3  10 -11  408.76  121.68
   3 -10 -11  621.90  109.50
  -3  10  11  513.55   79.03
   3  10 -11  415.47   78.18
  -3  10  12 2595.25  213.38
  -3 -10  12 2251.47  220.72
   3  10 -12 2318.35  230.89
   3  10 -12 2295.47  189.19
   3 -10 -12 2228.42  227.47
   3 -10 -12 2509.79  207.41
   3  10 -13   88.69   70.17
  -3 -10  13  -45.16   70.14
   3  10 -13    3.32   69.83
   3 -10 -13  -63.50   69.74
   3 -10 -13  -63.12   69.92
   3  11  -1 3173.19  250.23
  -3 -11   1 2969.71  236.33
  -3  11   1 3042.10  229.45
   3 -11  -1 3260.25  254.99
  -3  11   1 3153.44  208.56
   3 -11  -1 3183.87  252.83
  -3 -11   2   43.93   57.64
   3 -11  -2  207.58   64.92
   3 -11  -2  138.94   54.01
  -3  11   2  176.76   59.63
  -3  11   2   76.98   46.58
  -3 -11   2  100.08   50.20
   3  11  -2  155.73   65.03
   3 -11  -3  296.29   78.87
   3  11  -3  390.32   90.49
  -3 -11   3  330.58   83.65
  -3  11   3  399.70   77.55
   3 -11  -3  274.72   64.86
  -3 -11   3  275.08   62.57
   3 -11  -4  751.63   98.83
  -3  11   4  692.21   94.47
   3 -11  -4  592.61   87.92
  -3 -11   4  578.12   87.36
  -3 -11   4  577.75   81.44
   3  11  -4  502.78   97.64
  -3  11   5 1823.49  158.59
   3  11  -5 1674.88  177.05
   3 -11  -5 2048.14  185.10
   3 -11  -5 1829.28  164.34
  -3 -11   5 1488.61  149.49
   3  11  -6  200.45   71.24
   3 -11  -6  263.09   61.73
  -3 -11   6  158.22   72.38
   3 -11  -6  217.78   65.10
   3  11  -6  233.17   91.31
  -3  11   6  309.55   63.34
  -3  11   7   22.31   59.19
   3 -11  -7   67.73   48.61
  -3 -11   7  -14.62   57.60
   3 -11  -7   16.89   45.37
   3  11  -7   14.51   56.28
   3  11  -7  -55.10   81.69
   3 -11  -8  513.67   82.70
   3  11  -8  454.79   96.60
  -3  11   8  509.52   88.94
   3 -11  -8  544.31   84.55
  -3 -11   8  341.20   83.86
   3  11  -8  476.66  111.74
   3 -11  -9 2203.75  201.34
   3 -11  -9 2050.58  200.06
  -3 -11   9 1896.40  208.85
   3  11  -9 2039.28  215.43
  -3  11   9 2203.75  222.92
   3  11  -9 2322.26  248.74
  -3  11  10  437.78   96.52
  -3 -11  10  383.73   99.45
   3 -11 -10  443.54   86.78
   3  11 -10  410.35   80.51
   3 -11 -10  348.57   87.86
   3  11 -10  284.01  108.29
   3  11 -11  -65.50   53.03
   3 -11 -11  -31.11   52.37
   3 -11 -11  -10.55   52.58
  -3 -11  11  -76.99   53.45
  -3  12   1  230.99   67.50
   3  12  -1  159.67   80.87
  -3 -12   1  322.41   91.40
  -3  12   1  196.69   56.61
   3 -12  -1  145.06   65.20
   3 -12  -1  311.94   79.72
  -3  12   2 2440.44  184.69
   3 -12  -2 2039.98  210.56
   3 -12  -2 2164.10  191.48
   3  12  -2 1832.47  187.24
  -3 -12   2 2058.36  200.89
   3 -12  -3 1174.37  127.09
   3 -12  -3 1139.06  145.75
   3  12  -3 1208.75  150.70
  -3 -12   3 1121.97  136.31
  -3  12   3 1129.82  118.30
  -3 -12   4   81.51   51.15
  -3 -12   4  125.44   56.87
  -3  12   4  181.86   60.71
   3 -12  -4  184.80   69.94
   3  12  -4  154.45   71.52
   3 -12  -4  247.69   58.74
  -3  12   5   14.10   45.70
  -3 -12   5   68.53   63.09
   3 -12  -5   89.29   51.84
   3  12  -5  125.09   64.73
   3 -12  -5  106.27   60.25
   3  12  -5   70.80   81.94
   3 -12  -6 1408.62  169.55
   3 -12  -6 1236.58  159.75
  -3  12   6 1360.81  141.13
  -3 -12   6 1074.72  129.08
   3  12  -6 1235.86  174.83
   3  12  -6 1248.07  144.18
   3 -12  -7 1011.66  114.06
   3 -12  -7  953.07  111.81
  -3  12   7 1046.20  117.20
  -3 -12   7  736.93  114.85
   3  12  -7  939.38  136.79
  -2   0   1    5.87   13.77
  -2   0   1   10.02   17.47
   2   0  -1    7.46   13.87
   2   0  -1    7.68   16.62
   2   0  -1    5.20   12.68
  -2   0   1   -4.72   20.99
   2   0  -1   13.21   19.45
   2   0  -1   -4.17   12.31
  -2   0   213338.10  546.42
   2   0  -214992.61  616.11
   2   0  -214518.19  540.56
  -2   0   213286.76  460.32
   2   0  -213983.11  547.34
  -2   0   213450.64  569.25
   2   0  -213355.76  444.63
  -2   0   213783.09  543.67
   2   0  -213985.51  724.36
   2   0  -213714.41  504.52
  -2   0   3    2.89   21.52
  -2   0   3  -29.14   20.63
   2   0  -3    1.99   20.61
   2   0  -3   12.86   20.83
   2   0  -3    1.26   20.73
   2   0  -3    8.88   20.74
   2   0  -3   -9.12   20.94
   2   0  -3    9.72   20.79
  -2   0   3  -10.87   20.80
   2   0  -3    0.56   20.96
  -2   0   4 3334.08  166.72
  -2   0   4 3235.86  144.26
   2   0  -4 3453.74  220.96
   2   0  -4 3134.47  134.98
   2   0  -4 3158.34  260.10
  -2   0   4 3184.53  175.75
   2   0  -4 3421.13  132.73
   2   0  -4 3110.32  153.55
   2   0  -4 3264.03  143.12
   2   0  -5    6.30   27.48
   2   0  -5   10.88   14.98
  -2   0   5   11.31   18.13
  -2   0   5   33.89   24.46
  -2   0   5   -9.16   10.86
   2   0  -5   -7.60    9.07
   2   0  -5   12.96   17.38
   2   0  -5   17.70   12.30
   2   0  -650935.18 1585.78
   2   0  -650047.36 1674.48
  -2   0   651462.64 1752.96
  -2   0   647487.84 1678.83
   2   0  -653642.51 2028.03
   2   0  -649202.18 1575.62
   2   0  -650132.20 1805.48
  -2   0   652708.28 1955.98
   2   0  -7   11.44   27.88
  -2   0   7    9.54   28.57
   2   0  -7  -14.35   27.95
   2   0  -7   11.69   27.92
  -2   0   7  -35.15   27.71
   2   0  -7    1.41   27.69
   2   0  -7  -26.50   27.92
  -2   0   7    8.10   27.82
   2   0  -8  822.39   77.15
   2   0  -8  820.00   87.12
  -2   0   8  865.69   70.67
  -2   0   8  842.34   65.96
   2   0  -8  790.36   30.22
  -2   0   8  716.66   52.11
  -2   0   9    4.24   25.70
  -2   0   9  -12.97   29.51
   2   0  -9   25.19   20.38
   2   0  -9   17.13   35.13
  -2   0  1021437.37  896.41
  -2   0  1019756.62  857.25
   2   0 -1021398.60  979.97
   2   0 -1020346.43  798.72
  -2   0  11  -15.02   31.37
   2   0 -11    8.37   46.55
   2   0 -11   52.97   32.47
  -2   0  11  -15.33   25.50
  -2   0  12 7674.04  371.86
   2   0 -12 7267.52  350.13
  -2   0  12 7780.63  365.29
   2   0 -12 8010.23  461.78
  -2   0  13   14.60   46.45
   2   0 -13  -60.26   44.93
   2   0 -13   11.18   44.88
  -2   0  13  -29.76   44.93
  -2   0  14 4876.58  250.83
   2   0 -14 5275.40  334.03
   2   0 -14 4844.38  263.97
  -2   0  14 5106.61  268.07
  -2   0  15  -22.50   52.69
  -2   0  15  -74.03   54.73
   2   0 -15   20.53   52.64
   2   0 -15   23.27   52.68
   2   0 -1616971.67  860.80
  -2   0  1617772.89  745.54
  -2   0  1617074.46  658.59
   2   0 -1617336.58  698.18
  -2   0  17  -47.54   62.62
  -2   0  17   10.53   65.09
   2   0 -17  -51.15   62.60
   2   0 -17 -110.70   62.62
  -2   0  18 1090.40  110.28
   2   0 -18 1206.52  123.75
  -2   0  18 1268.37  125.14
   2   0 -18 1210.18  138.65
  -2   0  19  -10.74   45.30
   2   0 -19   37.53   59.10
  -2   0  19    5.43   46.23
   2   0 -19  186.25   70.76
   2   0 -20 3192.14  286.58
   2   0 -20 2923.98  226.27
  -2   0  20 3320.99  243.27
  -2   0  20 2912.62  211.94
  -2   0  21   46.49   46.34
   2   0 -21  -50.87   56.75
  -2   0  21  -23.84   47.41
   2   0 -21   57.77   64.91
   2   0 -22  135.30   65.24
  -2   0  22   69.31   54.32
   2   0 -22   95.95   59.54
  -2   0  22  105.41   58.45
   2   1  -1 8178.00  333.43
   2   1  -1 8077.10  334.68
  -2   1   1 7358.98  276.38
   2  -1  -1 8456.92  355.82
   2  -1  -1 8033.68  501.87
  -2  -1   1 7819.54  351.74
  -2  -1   1 7774.28  355.55
  -2   1   1 8016.99  333.98
  -2   1   1 8021.82  403.21
   2   1  -1 8016.96  333.53
   2   1  -1 8227.42  526.15
   2  -1  -1 7361.55  372.92
  -2  -1   1 7703.69  353.40
   2  -1  -1 8433.88  331.30
   2  -1  -1 8469.45  374.31
   2  -1  -1 7654.72  280.74
   2  -1  -1 7647.40  330.69
  -2   1   2   95.27   20.55
  -2   1   2   60.84   10.03
   2  -1  -2   95.83   17.31
   2  -1  -2   39.64   13.15
   2   1  -2   50.69   16.90
   2   1  -2   90.67   24.96
   2   1  -2   64.05   18.57
   2  -1  -2   77.46   24.89
   2  -1  -2   38.65   15.91
   2  -1  -2   49.41   20.32
   2  -1  -2   37.11   11.54
  -2  -1   2   49.25   19.48
   2  -1  -2   58.76   18.65
   2   1  -2   37.64   20.36
  -2   1   2   68.34   16.18
   2   1  -2   41.78   15.67
  -2  -1   2   65.57   19.47
   2   1  -2   29.75   11.15
   2  -1  -310864.16  413.31
   2   1  -310570.61  388.23
   2   1  -312165.16  559.71
  -2  -1   310661.95  454.90
   2  -1  -311249.29  486.45
   2   1  -311436.43  477.78
   2   1  -310986.59  383.99
  -2   1   311203.82  446.02
   2   1  -310876.38  431.92
  -2   1   311177.90  431.10
   2   1  -311265.16  474.98
   2  -1  -310906.32  474.05
  -2  -1   311123.84  487.99
  -2   1   311151.60  433.06
   2   1  -311646.16  580.82
   2  -1  -312458.93  566.07
   2  -1  -312446.29  494.93
   2   1  -310667.31  431.49
   2   1  -4   52.19   17.37
   2   1  -4   48.24   11.29
   2  -1  -4   35.72    9.95
  -2   1   4   49.10   20.67
   2  -1  -4   66.99   16.54
  -2   1   4   61.14   12.31
  -2  -1   4   27.82   16.38
   2  -1  -4   43.67   22.27
  -2  -1   4   41.73   10.00
   2  -1  -4   61.46   24.39
  -2   1   4   42.91   11.15
  -2  -1   4   75.81   23.61
   2   1  -4   56.57   13.47
  -2   1   4   18.72   18.29
  -2   1   4   18.96   12.65
   2   1  -4   61.89   19.12
   2   1  -4   86.94   35.80
   2   1  -520990.24  753.11
  -2  -1   520518.38  768.09
   2   1  -520038.39  723.16
   2   1  -521704.05  757.14
  -2   1   521176.30  831.60
  -2   1   520116.93  814.77
  -2  -1   520128.43  819.34
  -2   1   520378.23  761.21
  -2  -1   521703.54  957.38
  -2   1   521848.86  882.69
   2   1  -520994.26  821.26
   2  -1  -521214.32  680.28
   2   1  -522896.41  944.72
   2  -1  -521275.46  688.82
   2  -1  -521894.01  933.83
   2  -1  -519971.20  720.96
   2   1  -6  821.52   68.56
  -2  -1   6  804.50   71.89
  -2   1   6  653.48   48.37
  -2  -1   6  686.55   51.26
  -2   1   6  870.02   78.61
   2   1  -6  814.73   42.58
   2  -1  -6  763.54   53.29
   2  -1  -6  806.35   64.39
   2   1  -6  739.54   55.54
  -2   1   6  754.69   55.49
  -2  -1   6  814.95   51.78
   2   1  -6  685.33   67.38
   2   1  -6  767.26   50.18
   2   1  -7 5710.48  273.42
   2   1  -7 5643.70  214.83
   2   1  -7 5201.74  256.13
  -2   1   7 5750.35  283.88
  -2   1   7 4924.03  199.33
  -2  -1   7 5163.47  245.56
  -2  -1   7 5287.36  248.35
   2   1  -7 5418.68  209.11
   2   1  -7 5934.97  335.48
   2  -1  -7 5725.68  257.61
  -2  -1   7 4833.41  227.51
   2  -1  -7 5650.08  282.51
  -2   1   7 5100.86  290.09
   2  -1  -8  321.24   48.92
   2   1  -8  185.22   30.76
  -2   1   8  286.65   39.30
  -2   1   8  250.34   26.50
  -2  -1   8  225.84   27.94
   2  -1  -8  299.65   43.22
  -2   1   8  226.43   36.22
  -2  -1   8  225.18   32.68
   2   1  -8  218.21   23.00
  -2  -1   8  225.26   22.93
   2   1  -8  271.71   32.58
  -2  -1   8  252.45   40.10
   2   1  -8  226.12   40.77
  -2   1   918239.14  833.20
   2   1  -918450.51  638.76
   2   1  -920144.52  771.93
  -2  -1   918542.18  717.17
   2   1  -920500.04  948.50
   2  -1  -920408.58  833.94
  -2  -1   918957.31  807.51
  -2   1   920101.56  732.27
   2  -1  -919493.28  787.37
  -2  -1   917286.21  636.82
   2  -1 -10  161.50   31.31
   2   1 -10  108.44   51.14
   2   1 -10  123.75   30.06
  -2  -1  10  130.38   27.66
  -2  -1  10   99.49   15.41
  -2   1  10  129.78   33.87
   2   1 -10  135.70   16.83
  -2  -1  10  149.44   37.86
   2  -1 -10  140.47   42.90
  -2   1  10  127.38   32.17
   2  -1 -11 1191.04  105.68
   2   1 -11 1039.76   92.89
   2   1 -11  998.79   59.98
  -2   1  11 1217.68   94.42
   2  -1 -11 1126.01   99.33
   2   1 -11 1022.89   81.33
  -2  -1  11 1144.45   81.34
  -2  -1  11 1053.99   86.26
  -2  -1  11  893.29   50.06
  -2   1  11 1199.33   83.68
  -2  -1  12  371.08   46.19
  -2  -1  12  332.20   28.54
  -2  -1  12  430.15   44.78
   2   1 -12  421.67   66.32
  -2   1  12  381.99   57.77
   2  -1 -12  438.93   68.27
   2   1 -12  417.28   53.80
  -2   1  12  439.96   57.78
   2  -1 -12  368.99   49.31
   2   1 -12  335.10   25.83
   2  -1 -1314571.75  646.78
   2   1 -1315589.21  773.19
   2   1 -1314528.14  641.22
  -2  -1  1312351.08  480.16
  -2   1  1314987.57  680.28
  -2  -1  1314562.84  581.42
  -2  -1  1314743.55  625.61
   2  -1 -1314566.98  717.20
   2   1 -1312783.70  493.47
  -2   1  1314392.21  599.12
  -2  -1  14 1769.94  103.35
  -2   1  14 1734.48  133.78
   2  -1 -14 1695.12  157.59
   2   1 -14 1728.09  158.62
  -2  -1  14 1854.38  121.16
   2   1 -14 1743.83  121.45
  -2   1  14 1722.67  109.75
   2  -1 -14 1750.86  115.47
   2   1 -14 1457.39   87.12
  -2  -1  15   27.86   59.33
   2   1 -15   11.61   56.87
  -2  -1  15  -43.09   56.88
  -2   1  15  -19.76   58.83
   2  -1 -15  -30.13   56.89
   2   1 -15   11.37   56.66
   2  -1 -15  -59.91   57.11
  -2   1  15   -3.54   56.98
   2   1 -16  132.96   58.25
  -2   1  16  193.01   57.07
  -2  -1  16  183.38   52.77
   2  -1 -16   64.99   53.56
  -2  -1  16  217.10   52.22
   2  -1 -16  210.82   57.19
   2   1 -16  269.94   61.61
  -2   1  16  109.05   39.50
   2  -1 -17 6182.47  385.31
  -2  -1  17 5844.86  310.23
   2   1 -17 6029.56  307.76
  -2  -1  17 6058.74  352.92
  -2   1  17 5771.67  278.75
   2  -1 -17 6094.48  307.29
  -2   1  17 6482.33  375.49
   2   1 -17 6029.18  408.12
   2   1 -18   -9.98   66.17
   2  -1 -18  -79.60   66.26
   2   1 -18 -120.27   66.21
  -2  -1  18  -35.36   69.19
  -2   1  18  -18.24   68.41
  -2  -1  18    1.08   66.21
  -2   1  18   27.20   66.48
   2  -1 -18    8.56   66.51
   2  -1 -19  359.58   80.21
  -2  -1  19  227.24   58.96
   2   1 -19  321.18   64.08
  -2  -1  19  382.95   65.64
  -2   1  19  393.78   83.83
  -2   1  19  317.51   68.55
   2   1 -19  405.48   88.93
   2  -1 -19  401.45   65.78
   2  -1 -20   -7.52   62.39
   2   1 -20   11.96   58.67
  -2  -1  20  -18.55   49.38
  -2   1  20   48.39   55.22
  -2  -1  20    1.92   57.06
   2  -1 -20   97.92   75.98
  -2   1  20    7.55   45.58
   2   1 -20   -2.80   64.39
   2  -1 -21 2120.75  195.89
   2   1 -21 2059.88  219.75
  -2   1  21 1957.14  179.73
  -2   1  21 2278.61  219.01
  -2  -1  21 2118.77  191.49
   2   1 -21 2357.04  219.41
   2  -1 -21 2120.04  196.02
  -2  -1  21 2117.95  191.96
  -2  -1  22   26.64   45.95
   2  -1 -22  124.28   63.40
  -2  -1  22  -25.16   47.17
   2   1 -22   59.75   58.60
  -2   1  22   -8.74   60.52
   2  -1 -22   11.63   69.50
   2   1 -22   34.70   68.60
  -2   1  22   14.49   33.39
   2  -2  -118089.15  665.51
   2   2  -117032.98  595.47
   2   2  -116490.55  687.60
   2   2  -116076.20  535.32
  -2  -2   117897.99  672.83
   2  -2  -117948.99  719.35
   2   2  -117657.29  719.13
   2   2  -116884.43  659.22
   2  -2  -116727.02  617.01
  -2   2   117665.09  698.46
  -2   2   118022.87  741.90
  -2  -2   118449.39  747.54
   2  -2  -116731.31  618.18
   2   2  -117216.18  706.50
   2   2  -117538.65  671.14
   2   2  -117432.93  556.83
   2  -2  -116413.57  666.46
  -2   2   116569.84  641.14
  -2  -2   271981.41 2453.02
   2   2  -270411.48 2517.79
  -2   2   273803.40 2421.43
   2   2  -271381.34 2571.78
   2   2  -268915.70 2390.22
  -2  -2   266593.80 2313.87
   2  -2  -269473.21 2438.48
   2  -2  -270154.15 2571.17
   2  -2  -268629.41 2248.00
   2   2  -268266.14 2178.07
   2  -2  -266520.53 2320.21
   2   2  -273896.23 2256.01
  -2   2   266443.48 2300.54
  -2   2   268652.40 2409.21
   2   2  -270984.14 2296.36
   2   2  -266859.13 2353.31
  -2  -2   267443.42 2476.13
   2  -2  -3  134.39   20.44
   2   2  -3  111.81   26.42
  -2   2   3  164.41   22.48
   2  -2  -3  153.53   24.84
   2  -2  -3  163.45   18.93
  -2   2   3  163.41   23.37
   2   2  -3  124.10   20.95
   2   2  -3  137.85   17.98
   2   2  -3  191.70   39.28
   2   2  -3  147.48   17.61
   2   2  -3  159.83   24.68
   2   2  -3  137.67   14.50
  -2   2   3  154.22   21.62
  -2  -2   3  149.49   30.19
  -2   2   3  179.57   26.02
   2  -2  -3  187.74   29.68
  -2  -2   3  166.39   22.39
   2   2  -4   64.21   17.16
   2  -2  -4   79.12   27.00
   2  -2  -4   65.52   18.58
   2   2  -4   75.05   13.42
  -2   2   4   37.33   21.46
  -2   2   4   40.45   14.85
   2   2  -4   58.13   16.82
   2  -2  -4   46.00   11.47
   2   2  -4   50.87   28.65
  -2   2   4   73.51   13.18
   2  -2  -4   68.68   23.19
  -2  -2   4   35.28   19.84
  -2  -2   4   69.14   17.26
   2   2  -4   74.55   16.84
   2   2  -4   53.32   21.49
  -2   2   4   21.44   14.19
   2   2  -5  761.59   47.90
   2   2  -5  768.62   49.09
   2  -2  -5  784.90   71.53
   2   2  -5  773.31   49.74
   2   2  -5  725.50   52.31
   2  -2  -5  820.26   59.92
  -2  -2   5  821.69   54.25
   2  -2  -5  805.63   37.36
   2   2  -5  865.86   56.12
   2   2  -5  855.56   87.79
   2  -2  -5  778.16   54.53
  -2   2   5  754.71   57.47
  -2   2   5  736.46   61.34
  -2  -2   5  836.02   66.88
  -2   2   5  814.61   36.65
  -2   2   5  810.87   53.76
   2   2  -619796.78  759.91
  -2   2   618665.73  723.87
   2  -2  -620276.09  748.42
  -2  -2   618372.41  691.55
  -2  -2   619091.79  775.46
  -2   2   618377.80  664.45
   2  -2  -620055.04  786.92
   2   2  -619085.03  647.39
   2  -2  -619018.38  776.52
  -2  -2   617505.51  666.52
   2   2  -621860.91  979.58
   2   2  -618066.23  647.42
   2   2  -7  126.64   18.24
  -2   2   7  165.61   28.94
  -2  -2   7  105.60   21.09
  -2  -2   7  119.42   20.79
  -2  -2   7  129.86   29.50
   2   2  -7  160.19   25.42
   2   2  -7  140.84   23.99
   2   2  -7  209.41   47.74
  -2  -2   7  119.34   18.71
   2  -2  -7  113.37   30.98
   2  -2  -7  151.94   25.78
  -2   2   7  151.32   26.18
   2   2  -8 1545.32  114.40
  -2   2   8 1779.09  117.98
  -2  -2   8 1373.48  100.21
   2  -2  -8 1739.69  137.53
  -2  -2   8 1964.47  131.93
   2   2  -8 1830.06   86.26
   2   2  -8 1959.03  107.07
   2  -2  -8 1994.54  127.18
  -2  -2   8 1652.73  100.74
   2   2  -8 1911.66  152.14
  -2  -2   8 1619.84   90.45
  -2   2   8 1830.26  146.23
   2   2  -9  138.26   44.37
  -2   2   9  205.46   38.66
  -2  -2   9  114.51   20.35
   2   2  -9  125.38   20.83
  -2   2   9  107.52   35.89
  -2  -2   9  162.45   25.90
  -2  -2   9  192.75   42.53
   2   2  -9  154.59   25.03
   2   2  -9  184.23   27.06
   2  -2  -9  205.60   35.48
   2  -2  -9  186.70   42.48
  -2  -2  1010021.50  410.86
   2   2 -10 9485.10  492.67
   2   2 -1011841.96  464.15
  -2  -2  1011223.22  451.17
   2   2 -1012150.88  605.76
  -2   2  1012261.59  519.71
   2   2 -1011764.27  448.36
   2  -2 -1012361.24  525.06
  -2  -2  1012449.03  527.55
  -2   2  1011544.50  656.69
   2  -2 -1011765.21  576.71
   2   2 -11   22.23   20.09
  -2  -2  11   40.68   39.47
   2  -2 -11   -2.57   32.74
  -2   2  11   35.74   32.62
   2   2 -11   70.53   51.88
   2   2 -11   86.26   33.76
  -2   2  11   41.02   33.14
  -2  -2  11   43.69   18.91
   2  -2 -11   71.46   37.88
  -2  -2  11   53.85   25.71
   2   2 -12 4279.30  225.02
  -2   2  12 4318.58  228.57
  -2  -2  12 3574.30  183.17
   2  -2 -12 4298.86  268.04
  -2  -2  12 4178.96  190.50
   2  -2 -12 4486.72  249.14
   2   2 -12 4705.72  290.67
  -2  -2  12 4611.32  234.57
  -2   2  12 4479.03  224.60
   2   2 -12 4014.99  189.89
   2   2 -13  108.94   58.46
  -2   2  13  163.97   56.42
   2  -2 -13  111.74   40.67
   2   2 -13  119.73   27.02
  -2  -2  13  122.78   35.43
  -2  -2  13  140.45   42.69
   2   2 -13  143.42   40.63
  -2   2  13  124.44   36.25
   2  -2 -13  197.18   45.92
   2   2 -14 4342.25  225.82
  -2  -2  14 4750.27  272.66
   2  -2 -14 5128.75  327.73
  -2   2  14 5642.54  330.68
   2   2 -14 5070.30  340.05
   2   2 -14 5033.91  257.00
  -2   2  14 4631.60  219.02
  -2  -2  14 4864.19  244.54
   2  -2 -14 4877.41  263.97
  -2  -2  15   20.26   36.80
  -2   2  15   52.20   48.89
   2  -2 -15    8.69   49.14
   2   2 -15   44.26   24.60
   2   2 -15   82.87   38.39
   2  -2 -15   36.11   48.13
   2   2 -15   73.45   59.86
  -2  -2  15  -58.75   39.00
  -2   2  15   45.80   36.46
   2   2 -16 1909.87  138.95
  -2   2  16 1758.14  121.08
   2   2 -16 1858.52  183.99
   2  -2 -16 1845.24  140.81
   2  -2 -16 1718.86  152.96
  -2   2  16 2050.54  178.17
  -2  -2  16 1702.33  141.31
  -2  -2  16 1914.03  125.66
   2  -2 -17  140.26   65.34
   2  -2 -17   50.89   47.57
   2   2 -17  110.02   47.48
  -2   2  17  106.13   68.15
   2   2 -17  103.54   64.59
  -2   2  17   28.74   33.84
  -2  -2  17   66.89   44.47
  -2  -2  17  112.61   44.94
   2   2 -18  735.44   90.38
   2   2 -18  947.96  127.37
  -2   2  18  825.55   84.44
   2  -2 -18  944.61  118.18
  -2  -2  18  809.76   93.02
  -2  -2  18  901.46   89.98
   2  -2 -18  919.92   96.30
  -2   2  18  993.44  124.16
  -2  -2  19  -92.93   65.63
  -2  -2  19  -32.68   68.70
   2   2 -19   71.92   65.55
  -2   2  19   64.80   66.23
   2  -2 -19   38.41   66.03
   2  -2 -19    9.23   65.65
  -2   2  19    3.58   67.22
   2   2 -19  -43.06   65.57
   2   2 -20 3663.93  322.80
  -2   2  20 3925.32  319.28
  -2   2  20 3262.17  201.64
  -2  -2  20 3475.07  238.84
   2   2 -20 3651.77  269.62
   2  -2 -20 3811.53  262.41
   2  -2 -20 4233.62  306.95
  -2  -2  20 3876.21  293.34
   2  -2 -21  -70.40   66.69
  -2  -2  21   36.50   69.64
  -2   2  21   27.00   67.45
   2  -2 -21  -41.19   67.01
  -2  -2  21   23.51   66.66
  -2   2  21  -24.33   68.10
   2   2 -21   19.94   66.63
   2   2 -21   -7.28   66.78
   2   2 -22  208.55   81.67
   2  -2 -22  374.00   90.16
  -2  -2  22  240.64   73.97
   2  -2 -22  278.09   73.73
  -2   2  22  277.78   47.78
   2   2 -22  354.19  103.07
  -2   2  22  208.14   69.78
   2  -3  -1 2845.04  186.31
  -2   3   1 2964.52  148.17
  -2   3   1 2838.68  179.60
   2   3  -1 2695.75  127.17
   2   3  -1 2751.04  112.23
  -2  -3   1 2697.34  136.32
  -2  -3   1 3068.19  167.09
  -2  -3   1 3019.46  164.85
   2   3  -1 2922.90  144.36
  -2   3   1 3035.73  146.28
   2  -3  -1 2744.69  131.98
   2   3  -1 2852.68  159.91
   2   3  -1 2607.97  146.04
   2  -3  -1 2741.22  157.08
   2  -3  -1 2886.67  135.31
   2   3  -2    0.79   13.48
   2   3  -2   -6.00   17.14
   2   3  -2   -6.17   14.03
   2   3  -2   11.59   14.70
   2   3  -2    8.36   10.23
  -2   3   2    4.52   16.76
  -2   3   2   25.52   23.40
   2  -3  -2   24.99   18.85
  -2   3   2   -0.83   16.51
   2  -3  -2    0.04   12.98
  -2   3   2   -2.31   11.69
  -2  -3   2   16.04   20.55
   2   3  -2   22.14   26.87
   2   3  -2   -7.66   13.58
   2  -3  -2   -2.53   24.29
   2  -3  -2    1.78   14.81
  -2  -3   2   16.80   27.70
   2   3  -335751.04 1241.30
   2   3  -335519.98 1322.73
  -2   3   338165.57 1370.90
   2   3  -338279.34 1467.27
  -2   3   336680.86 1347.70
  -2  -3   341029.30 1467.22
   2   3  -335771.81 1266.35
   2   3  -340225.38 1278.87
  -2   3   335875.58 1370.20
  -2   3   339687.03 1496.60
   2  -3  -338361.75 1496.76
   2  -3  -338392.39 1366.69
   2  -3  -337091.78 1296.98
   2  -3  -340340.87 1388.44
  -2  -3   340531.68 1471.36
   2   3  -337014.74 1285.50
   2   3  -4   15.06   13.65
  -2   3   4   23.00   14.44
  -2   3   4   12.01   12.28
  -2  -3   4   24.74   16.31
   2   3  -4   70.02   38.18
   2   3  -4    0.64   14.11
   2   3  -4   35.99   11.63
   2   3  -4   31.03   22.78
   2  -3  -4   27.86   25.99
   2  -3  -4   12.74   11.19
   2  -3  -4   44.36   20.71
  -2  -3   4   14.63   12.53
  -2  -3   4   15.39   24.45
  -2   3   4   24.64   24.72
   2  -3  -4    2.45   19.66
  -2   3   4    2.43   12.88
   2   3  -5 7009.38  276.19
   2   3  -5 6761.02  300.18
   2   3  -5 6172.70  248.36
  -2  -3   5 6601.63  258.78
  -2  -3   5 6076.86  288.53
  -2   3   5 6240.80  304.30
  -2   3   5 6985.68  308.64
  -2   3   5 6940.36  307.20
   2  -3  -5 6592.57  296.02
   2  -3  -5 6567.92  351.01
   2   3  -5 7892.97  424.07
   2  -3  -5 6401.00  301.22
  -2   3   5 7017.78  258.46
  -2  -3   5 6823.81  334.41
   2  -3  -5 6918.72  259.58
   2   3  -5 6147.71  271.04
  -2  -3   6  347.28   39.13
   2  -3  -6  312.19   43.14
   2   3  -6  385.30   57.50
  -2   3   6  360.73   45.70
   2   3  -6  328.58   35.45
  -2   3   6  353.65   19.05
   2   3  -6  352.45   32.40
   2  -3  -6  359.92   17.16
   2   3  -6  304.63   24.89
   2  -3  -6  417.09   40.06
  -2  -3   6  260.76   32.67
  -2  -3   6  350.40   28.28
   2  -3  -6  311.13   30.07
  -2   3   6  315.34   39.28
   2   3  -6  361.21   41.45
   2  -3  -712631.16  583.34
   2   3  -711419.79  510.66
   2   3  -711780.11  456.17
  -2  -3   711945.91  457.48
  -2  -3   711140.26  444.77
   2   3  -713615.88  684.24
   2  -3  -712483.94  505.56
  -2   3   711994.64  562.80
   2   3  -713683.29  545.79
   2   3  -713212.28  481.53
  -2  -3   713282.91  618.88
   2  -3  -712918.44  611.51
  -2  -3   8 1456.55   76.89
   2   3  -8 1813.12  112.61
   2   3  -8 1535.84   99.05
   2   3  -8 1357.22   85.32
   2  -3  -8 1654.53  107.40
   2   3  -8 1911.19  158.19
  -2  -3   8 1656.90  118.77
  -2  -3   8 1454.64   96.23
   2  -3  -8 1477.47  105.02
   2  -3  -8 1627.83  119.40
  -2   3   8 1743.89  118.06
   2  -3  -920843.46  848.17
   2   3  -920520.15  754.39
   2   3  -921182.16  789.60
  -2  -3   920729.29  888.48
  -2  -3   919365.86  715.14
   2  -3  -918825.54  799.55
   2   3  -916912.38  774.62
   2  -3  -920373.60  780.07
  -2  -3   917942.49  676.84
   2   3  -921066.23  902.99
  -2   3   922076.62  851.67
   2  -3 -10   11.65   32.34
   2  -3 -10   19.15   29.15
  -2   3  10   33.68   32.81
   2  -3 -10    5.77   35.58
   2   3 -10   69.45   43.74
   2   3 -10   35.57   28.99
   2   3 -10    8.15   18.17
   2   3 -10   63.01   31.19
  -2  -3  10   -2.38   35.66
  -2  -3  10   44.87   19.99
  -2  -3  10   10.50   19.86
   2   3 -11 1643.34   82.37
  -2  -3  11 2304.56  155.75
  -2   3  11 2241.33  136.68
   2   3 -11 2323.85  189.79
  -2  -3  11 2073.02  112.64
   2  -3 -11 2163.75  149.22
   2  -3 -11 2116.95  145.09
  -2  -3  11 1808.22  102.00
   2  -3 -11 2040.11  124.12
   2   3 -11 1986.04  137.70
   2   3 -11 2143.12  123.43
   2   3 -12  580.51   73.03
   2  -3 -12  614.91   58.32
   2   3 -12  589.17   60.37
  -2  -3  12  650.51   47.29
  -2   3  12  626.90   75.45
   2   3 -12  544.61   51.11
   2  -3 -12  594.48   70.29
  -2  -3  12  701.24   78.94
   2   3 -1310406.29  494.05
  -2   3  1310876.98  524.58
  -2  -3  1310226.63  426.24
   2  -3 -1310664.16  433.68
   2   3 -13 9838.04  432.40
   2  -3 -1310624.05  559.42
  -2  -3  1310861.48  498.96
   2   3 -1310703.71  546.86
   2  -3 -14  481.29   60.37
  -2  -3  14  496.21   46.17
   2  -3 -14  478.42   61.41
  -2  -3  14  511.00   65.55
   2   3 -14  384.81   42.79
   2   3 -14  429.54   53.81
   2   3 -14  403.54   69.32
  -2   3  14  510.49   70.26
   2   3 -15  142.06   51.11
  -2   3  15   25.73   48.92
  -2  -3  15   59.92   32.28
  -2   3  15   54.69   27.69
   2  -3 -15   63.60   41.59
   2   3 -15   65.90   28.02
   2   3 -15  107.27   48.84
   2  -3 -15  101.67   55.62
  -2  -3  15   26.34   42.29
  -2  -3  16   28.42   38.89
  -2  -3  16  -20.49   49.08
   2  -3 -16   58.91   45.38
   2  -3 -16   18.23   36.15
  -2   3  16  108.17   66.56
   2   3 -16  111.00   67.15
   2   3 -16   30.42   50.93
   2   3 -17 6080.45  331.41
  -2   3  17 6091.95  406.77
   2   3 -17 6197.20  395.51
   2  -3 -17 6065.99  419.88
   2  -3 -17 5760.91  315.38
  -2  -3  17 5787.98  295.06
  -2  -3  17 5845.34  306.25
   2  -3 -18  -64.38   63.37
   2  -3 -18   28.96   51.55
   2   3 -18   68.76   55.09
   2   3 -18   16.56   58.57
  -2   3  18   11.39   54.10
  -2  -3  18  -12.58   46.17
  -2  -3  18   21.49   38.07
   2   3 -19 1355.98  141.65
   2  -3 -19 1246.36  142.56
  -2  -3  19 1210.54  128.35
   2  -3 -19 1282.07  138.52
  -2   3  19 1416.52  154.60
   2   3 -19 1240.04  135.96
   2  -3 -19 1315.36  135.97
  -2  -3  19 1271.69  113.78
   2  -3 -20   14.34   55.38
  -2  -3  20  -17.25   52.24
   2   3 -20  -16.74   58.90
   2  -3 -20   29.59   55.07
   2   3 -20   70.61   61.80
   2  -3 -20   32.88   54.68
  -2   3  20  -30.75   49.56
   2   3 -21 1057.19  139.20
  -2   3  21  980.49  137.29
   2  -3 -21  814.11  106.11
   2   3 -21  731.15  104.91
   2  -3 -21  861.86  120.57
  -2  -3  21  802.49  103.10
   2  -3 -21  771.82  112.59
  -2   3  22  -40.07   73.55
   2   3 -22  106.42   72.74
   2  -3 -22  -50.70   72.95
   2  -3 -22    1.30   72.70
   2  -3 -22  -72.26   74.01
   2   3 -22  -58.18   72.59
  -2  -3  22  -22.33   72.72
   2   4  -1 1771.20  114.28
  -2   4   1 1799.95  116.24
  -2  -4   1 1781.87  113.78
  -2   4   1 1725.12   84.50
   2   4  -1 1516.22   99.41
   2   4  -1 1648.10   90.84
   2   4  -1 1670.17   74.05
  -2  -4   1 1954.37  123.98
   2  -4  -1 1863.00  130.02
  -2  -4   1 1732.24  108.40
   2  -4  -1 1746.22   94.38
   2  -4  -1 1678.09   85.31
   2  -4  -1 1766.98  100.72
  -2   4   1 1881.36  111.43
  -2   4   1 1785.48   89.16
   2   4  -1 1700.65   90.84
  -2   4   214603.91  557.56
  -2   4   214682.06  507.91
  -2   4   215029.12  596.68
   2   4  -213937.22  582.65
  -2  -4   214349.58  568.21
   2  -4  -213369.32  537.23
  -2  -4   214960.70  629.68
   2   4  -213413.37  527.35
   2  -4  -214101.54  542.22
  -2   4   214061.67  579.75
  -2  -4   214981.95  635.53
   2  -4  -212973.20  668.07
   2   4  -212608.05  514.08
   2  -4  -214122.45  572.12
   2   4  -213544.57  473.07
   2   4  -3  294.17   30.32
   2   4  -3  262.29   18.88
   2  -4  -3  358.91   45.06
  -2   4   3  267.05   30.14
   2  -4  -3  350.75   40.64
  -2  -4   3  339.47   47.16
  -2   4   3  320.50   28.97
   2  -4  -3  307.17   35.03
  -2  -4   3  264.16   40.70
   2   4  -3  317.02   39.85
   2   4  -3  274.95   21.36
   2   4  -3  309.17   27.62
  -2   4   3  264.17   41.48
   2  -4  -3  242.64   30.01
  -2   4   3  320.12   36.82
   2   4  -4  683.42   53.51
   2   4  -4  527.15   55.04
  -2   4   4  647.95   52.51
   2   4  -4  712.08   47.75
  -2   4   4  639.89   42.23
   2  -4  -4  655.19   60.63
   2  -4  -4  670.87   52.73
   2   4  -4  567.73   30.83
   2   4  -4  514.69   27.29
  -2   4   4  610.81   43.57
   2  -4  -4  564.93   59.81
  -2  -4   4  691.55   65.33
  -2  -4   4  613.18   60.72
   2  -4  -4  673.61   61.39
   2   4  -5 2376.80   97.96
   2   4  -5 2339.47   97.93
  -2   4   5 2758.30  123.11
   2  -4  -5 2697.22  129.78
   2  -4  -5 2580.29  135.47
   2   4  -5 2850.95  203.20
   2   4  -5 2715.35  129.18
  -2  -4   5 2555.31  159.01
  -2   4   5 2500.84  152.80
   2   4  -5 2586.25  122.01
  -2   4   5 2807.96  137.36
   2  -4  -5 2604.12  185.66
   2  -4  -5 2812.91  149.60
   2   4  -5 2546.77  121.89
  -2   4   623284.59  866.70
   2   4  -620983.48  736.16
   2  -4  -622809.45  914.15
   2  -4  -624450.29  811.94
   2   4  -625949.49 1115.94
   2   4  -623608.89  835.53
   2   4  -620619.11  875.96
  -2  -4   620772.33  738.17
   2  -4  -623786.75 1058.93
   2  -4  -623904.99  949.61
  -2   4   623464.91  774.36
   2   4  -623960.62  898.35
  -2  -4   623707.13  987.13
   2   4  -7  379.48   53.36
   2  -4  -7  257.33   35.33
  -2   4   7  261.96   42.69
   2   4  -7  231.03   20.55
   2  -4  -7  257.44   42.52
  -2   4   7  275.50   16.92
  -2  -4   7  324.06   45.76
   2   4  -7  215.85   35.33
  -2  -4   7  254.48   20.79
   2   4  -7  291.92   42.38
   2  -4  -7  316.31   38.02
   2   4  -8  695.98   60.73
   2  -4  -8  711.16   61.78
  -2  -4   8  623.20   35.55
  -2   4   8  672.47   57.59
   2   4  -8  522.82   38.43
  -2  -4   8  711.99   69.65
   2  -4  -8  769.08   66.06
   2   4  -8  686.04   56.71
   2   4  -8  686.15   76.10
   2  -4  -8  562.12   58.14
   2   4  -9  126.21   33.56
   2  -4  -9   64.17   31.52
   2   4  -9  106.58   50.21
  -2   4   9   87.45   37.02
   2  -4  -9   14.65   35.22
  -2  -4   9   60.56   14.42
  -2  -4   9   34.27   37.81
   2   4  -9   95.80   30.59
   2  -4  -9   34.02   35.12
   2   4  -9   26.25   13.75
   2   4 -1015780.35  778.69
   2  -4 -1015020.58  683.16
  -2  -4  1014671.01  539.05
   2  -4 -1015420.11  662.02
  -2  -4  1016242.75  786.65
   2  -4 -1016042.70  627.44
  -2   4  1015809.64  678.00
   2   4 -1016259.04  634.22
   2   4 -1015898.26  625.87
   2   4 -11  184.63   28.50
   2   4 -11  227.01   53.45
   2  -4 -11  440.65   50.81
  -2   4  11  250.09   50.02
  -2  -4  11  249.21   48.97
   2   4 -11  301.35   44.66
  -2  -4  11  297.19   30.47
   2   4 -11  307.09   44.94
   2  -4 -11  312.68   47.24
   2  -4 -11  299.25   43.82
   2   4 -12 1962.61  134.28
   2  -4 -12 2113.59  150.83
   2  -4 -12 2096.95  144.21
  -2  -4  12 2182.40  148.02
  -2   4  12 2201.87  155.79
   2  -4 -12 2165.22  151.03
  -2  -4  12 1961.40  104.90
   2   4 -12 2059.41  115.98
   2   4 -12 1987.78  168.74
   2   4 -13  -24.70   56.79
   2   4 -13    9.47   57.42
   2  -4 -13    5.15   57.65
  -2  -4  13   -7.88   58.37
   2   4 -13  -13.61   56.87
  -2  -4  13  -43.99   56.96
   2  -4 -13  -43.69   57.08
   2  -4 -13   -4.21   57.18
  -2   4  13  -12.11   57.89
   2  -4 -14 6121.00  305.95
  -2  -4  14 6063.59  364.36
  -2   4  14 6475.32  374.49
   2   4 -14 6481.89  286.73
   2   4 -14 5863.74  299.71
  -2  -4  14 5529.31  267.34
   2  -4 -14 5827.63  349.98
   2   4 -14 6293.59  405.69
   2  -4 -14 6015.56  349.65
  -2  -4  15 1398.01  118.54
   2   4 -15 1592.03  155.88
  -2  -4  15 1470.57   96.32
   2  -4 -15 1577.27  148.63
   2  -4 -15 1399.70  115.16
   2   4 -15 1533.94   98.83
  -2   4  15 1571.52  128.64
   2   4 -15 1238.28   94.49
   2  -4 -15 1613.53  120.96
   2   4 -16 3173.27  257.28
   2   4 -16 2878.75  177.08
   2   4 -16 3381.63  219.62
   2  -4 -16 3149.40  193.52
  -2   4  16 3347.05  248.20
  -2  -4  16 3059.03  180.51
  -2  -4  16 2976.49  192.54
   2  -4 -16 3227.32  233.30
   2  -4 -16 3244.50  212.62
   2  -4 -17   83.83   51.01
   2  -4 -17   63.30   48.71
   2  -4 -17   99.73   62.18
  -2   4  17   90.60   54.82
   2   4 -17  175.66   61.43
   2   4 -17  138.58   70.95
  -2  -4  17  116.87   38.22
  -2  -4  17   91.91   50.60
   2   4 -18  569.91   77.54
  -2  -4  18  672.28   79.71
   2  -4 -18  719.29   91.33
   2   4 -18  749.55  116.22
  -2   4  18  876.18  129.74
   2  -4 -18  763.98   92.09
   2  -4 -18  653.90   77.64
   2   4 -19  514.03   94.66
  -2   4  19  318.42   69.49
   2  -4 -19  317.27   70.20
  -2  -4  19  323.67   79.15
   2   4 -19  319.95   78.74
   2  -4 -19  323.20   64.16
   2  -4 -19  288.61   78.97
   2   4 -20 1291.88  141.95
   2  -4 -20 1517.68  164.04
   2  -4 -20 1467.98  138.00
  -2  -4  20 1371.35  145.89
  -2   4  20 1640.80  188.34
   2   4 -20 1618.62  183.20
   2  -4 -20 1643.16  191.74
   2  -4 -21   59.16   58.73
   2   4 -21  164.31   60.90
  -2   4  21  112.48   62.73
   2  -4 -21  110.91   56.70
  -2  -4  21   84.54   46.19
   2   4 -21  -19.04   60.02
   2  -4 -21   13.93   53.50
  -2  -5   1 6643.03  280.29
   2  -5  -1 6350.75  243.85
   2  -5  -1 6170.25  283.86
   2   5  -1 6367.39  262.51
   2   5  -1 5907.64  223.91
   2   5  -1 6310.90  274.96
  -2  -5   1 7024.45  347.93
  -2  -5   1 6664.46  332.00
   2  -5  -1 6838.87  372.01
  -2   5   1 6817.88  298.74
   2   5  -1 6327.23  318.81
  -2   5   1 6249.33  281.77
  -2   5   1 6796.73  330.53
   2  -5  -2    4.05   17.96
  -2  -5   2  -16.01   21.92
   2   5  -2   15.74    8.77
  -2   5   2   -1.28   20.87
   2   5  -2   14.99    8.90
   2   5  -2    8.96   35.66
   2   5  -2   -1.63   15.67
  -2   5   2   10.14   31.31
  -2  -5   2   -1.80   29.39
   2  -5  -2  -19.98   35.51
   2  -5  -2   44.97   24.62
   2  -5  -2  -13.06   21.32
  -2  -5   2   -4.16   19.93
  -2   5   2  -12.53   14.37
   2  -5  -318624.22  720.98
   2  -5  -319404.17  769.65
   2  -5  -318971.53  867.16
   2   5  -317713.46  705.64
  -2   5   318672.34  720.38
  -2   5   317733.96  654.88
  -2  -5   318476.62  842.69
   2   5  -318096.66  763.96
  -2   5   318316.57  773.67
  -2  -5   318574.12  771.15
   2  -5  -318505.12  759.44
  -2  -5   318070.31  747.02
   2   5  -4 3249.74  181.60
   2   5  -4 2837.86  163.63
  -2   5   4 3233.13  195.21
   2   5  -4 2895.90  162.85
   2  -5  -4 2994.51  160.40
  -2   5   4 2910.49  145.84
  -2   5   4 3169.54  157.57
  -2  -5   4 2994.40  170.60
   2  -5  -4 3186.51  209.93
  -2  -5   4 3247.98  200.52
   2  -5  -4 3523.65  174.76
   2  -5  -4 2993.94  190.34
  -2   5   515624.99  569.30
  -2  -5   515372.62  725.80
   2   5  -514922.98  627.97
   2   5  -516145.69  653.54
  -2   5   516393.92  642.04
   2  -5  -516081.62  706.05
   2   5  -513241.94  581.61
   2  -5  -515816.79  573.53
   2  -5  -514631.19  613.63
   2  -5  -514970.37  589.59
   2   5  -6 1362.06  125.51
   2   5  -6 1152.85   78.22
  -2   5   6 1332.60   91.97
  -2  -5   6 1213.70  107.79
   2  -5  -6 1226.23   83.78
   2   5  -6 1434.34  107.22
  -2   5   6 1285.24   65.99
   2  -5  -6 1364.13   77.85
   2  -5  -6 1230.44   85.67
   2  -5  -6 1327.87   93.74
   2  -5  -7 7214.98  347.10
   2   5  -7 7473.59  399.84
  -2   5   7 7435.58  378.81
  -2   5   7 7238.79  265.73
  -2  -5   7 6923.41  368.49
   2  -5  -7 7303.78  378.10
   2   5  -7 7686.55  357.19
   2  -5  -7 7377.77  309.50
   2  -5  -7 7337.97  321.66
   2   5  -7 7250.22  320.02
  -2  -5   8 1239.68  114.25
   2   5  -8 1255.15   76.82
  -2   5   8 1137.21   54.83
   2  -5  -8 1031.72   89.92
   2  -5  -8 1232.65   98.43
   2   5  -8 1289.84  111.14
  -2   5   8 1127.93   51.30
   2  -5  -8 1006.44   89.40
   2   5  -8 1116.21   85.29
  -2   5   8 1091.24  103.28
  -2   5   9 7677.89  264.97
   2  -5  -9 8065.69  409.09
   2   5  -9 8182.06  336.90
   2   5  -9 8174.28  367.15
   2  -5  -9 7782.46  392.28
   2  -5  -9 8396.39  433.35
   2   5  -9 8608.93  483.55
  -2  -5   9 8123.00  429.37
  -2  -5   9 6870.02  251.34
  -2   5   9 8243.97  359.02
   2   5 -10 1036.28  123.06
   2   5 -10 1205.93   85.80
  -2  -5  10 1162.66  101.32
   2  -5 -10 1185.05   95.45
  -2   5  10 1394.29   92.75
   2  -5 -10 1234.99  104.54
   2   5 -10 1204.81   82.89
  -2  -5  10 1085.90   54.49
   2  -5 -10 1174.65   82.79
   2   5 -11  206.71   59.54
  -2   5  11  300.87   49.35
  -2  -5  11  181.01   20.42
   2   5 -11  226.18   48.47
   2  -5 -11  180.99   47.48
  -2  -5  11  288.17   59.78
   2   5 -11  226.66   45.16
   2  -5 -11  235.54   53.28
   2  -5 -11  150.80   39.75
   2   5 -12   -3.62   54.98
  -2  -5  12   59.66   53.85
   2  -5 -12    7.56   31.73
   2  -5 -12   35.21   37.63
  -2   5  12   29.64   43.04
   2  -5 -12   86.59   46.57
  -2  -5  12   55.40   19.62
   2   5 -12   34.65   35.08
   2   5 -12   45.90   44.93
   2   5 -1310128.20  482.53
  -2   5  1311041.91  513.86
  -2  -5  13 9377.23  389.19
   2   5 -1310984.65  602.05
   2   5 -1310383.36  452.14
  -2  -5  1311033.16  590.27
   2  -5 -1310437.83  514.82
   2  -5 -1310244.13  520.47
   2  -5 -13 9987.92  531.44
   2  -5 -14  745.94   87.16
   2   5 -14  644.81   94.35
   2  -5 -14  465.42   68.31
   2  -5 -14  575.48   69.38
  -2  -5  14  597.36   54.00
  -2   5  14  616.24   84.25
  -2  -5  14  674.40   88.79
   2   5 -14  739.96   79.80
   2   5 -14  601.90   64.42
   2   5 -15  452.76   72.48
   2   5 -15  488.07   69.49
  -2  -5  15  454.33   77.05
   2  -5 -15  370.63   72.35
   2   5 -15  341.06   46.71
  -2   5  15  518.86   83.37
   2  -5 -15  467.39   62.79
   2  -5 -15  362.56   63.82
   2   5 -16  246.98   71.91
   2  -5 -16  115.76   58.96
   2  -5 -16  139.80   57.96
  -2   5  16  197.75   56.14
  -2  -5  16  192.15   48.66
   2  -5 -16  186.30   57.83
   2   5 -16  154.71   66.16
   2   5 -16  160.50   45.23
   2   5 -17 3471.34  298.20
   2   5 -17 3381.49  252.87
  -2  -5  17 3385.03  224.46
   2  -5 -17 3421.63  229.61
  -2   5  17 3483.40  284.56
   2  -5 -17 3286.32  231.53
   2  -5 -17 3398.41  252.36
   2  -5 -18  399.62   73.74
   2  -5 -18  528.60   96.28
   2   5 -18  439.76   76.29
  -2   5  18  452.00   81.24
  -2  -5  18  336.66   71.95
   2  -5 -18  354.59   68.37
   2   5 -18  518.19   97.04
   2   5 -19  179.63   72.65
   2  -5 -19  271.49   68.38
   2  -5 -19  351.02   62.61
  -2   5  19  361.65   76.65
   2   5 -19  301.59   74.56
  -2  -5  19  288.84   73.46
   2  -5 -19  338.24   84.85
  -2   5  20   13.99   54.90
   2  -5 -20   24.63   58.33
   2  -5 -20   92.35   56.96
   2   5 -20   -2.46   59.64
  -2  -5  20   56.61   59.08
   2   5 -20  158.20   80.27
   2  -5 -20  129.03   59.39
   2   5 -21 1673.01  206.55
  -2  -5  21 1607.54  159.86
   2  -5 -21 1227.09  139.22
   2   5 -21 1410.10  161.96
  -2   5  21 1718.67  166.79
   2  -5 -21 1709.29  183.18
   2  -5 -21 1607.99  167.98
   2   6  -1 2911.17  109.30
  -2  -6   1 3131.13  187.36
  -2   6   1 3123.87  147.63
  -2   6   1 3003.70  128.77
  -2  -6   1 3077.24  164.02
   2  -6  -1 3036.06  179.16
   2  -6  -1 3042.47  133.20
   2  -6  -1 3152.20  187.67
  -2  -6   1 2957.13  153.42
  -2   6   1 3380.61  214.02
   2   6  -1 3065.10  185.52
   2   6  -1 2767.38  113.95
  -2   6   214498.86  645.05
   2  -6  -215595.52  707.03
  -2   6   213212.60  503.39
  -2  -6   214923.63  604.67
  -2  -6   214467.74  662.69
   2  -6  -215729.89  616.78
   2   6  -215415.50  673.97
  -2  -6   216091.04  719.45
  -2   6   214689.28  580.35
   2  -6  -214315.72  569.54
  -2  -6   3 2381.00  140.65
   2   6  -3 1978.16  119.89
  -2  -6   3 2501.68  169.36
  -2   6   3 2394.48  166.34
  -2   6   3 2291.98  126.90
   2  -6  -3 2503.88  122.75
   2  -6  -3 2137.83  153.26
   2  -6  -3 2201.22  125.30
  -2   6   3 2041.65  101.60
  -2  -6   3 2152.92  141.00
  -2  -6   4  188.34   43.75
   2  -6  -4  209.85   33.87
   2   6  -4  267.70   46.02
  -2   6   4  294.48   44.63
   2   6  -4  287.06   38.78
  -2   6   4  184.20   20.55
  -2   6   4  235.78   31.19
   2  -6  -4  293.23   42.64
   2  -6  -4  198.04   36.46
   2  -6  -4  203.22   26.76
  -2  -6   4  286.18   48.31
   2  -6  -5  416.92   53.94
   2  -6  -5  427.61   43.97
   2   6  -5  498.36   47.25
   2  -6  -5  529.35   49.05
   2   6  -5  401.56   55.16
  -2  -6   5  547.55   73.81
  -2  -6   5  514.75   52.19
   2  -6  -5  413.15   38.44
  -2   6   5  470.75   44.68
  -2   6   5  512.62   61.69
  -2   6   620823.72  756.58
  -2  -6   618968.58  873.27
   2  -6  -619181.78  802.88
   2   6  -618499.46  764.50
   2  -6  -620727.17  811.02
   2  -6  -620853.66  888.74
   2  -6  -619353.74  776.18
   2   6  -621049.35  955.76
   2   6  -620063.90  789.70
  -2   6   620989.02  830.74
   2  -6  -7 1511.81  100.32
  -2   6   7 1489.89   84.81
  -2  -6   7 1262.05   94.76
   2   6  -7 1548.84  123.64
  -2   6   7 1448.02  109.91
   2   6  -7 1362.01   82.31
   2   6  -7 1525.65  114.75
   2  -6  -7 1410.38  119.45
   2  -6  -7 1322.28   89.36
   2  -6  -7 1338.25   89.47
   2   6  -8 2208.86  171.34
   2   6  -8 1996.59  130.62
  -2   6   8 2141.15  128.36
   2  -6  -8 1997.34  112.38
   2   6  -8 2150.10  124.34
   2  -6  -8 2113.91  134.41
   2  -6  -8 1898.93  118.68
  -2   6   8 2125.44   93.44
   2  -6  -8 1953.32  132.83
  -2  -6   8 1927.94  123.41
  -2  -6   9   77.51   44.29
   2  -6  -9   59.96   32.48
  -2   6   9  100.31   16.45
   2  -6  -9   85.66   38.00
  -2   6   9  134.05   17.31
   2  -6  -9  168.99   35.87
   2   6  -9  128.00   51.51
   2   6  -9  100.47   39.40
  -2   6   9  113.86   47.38
   2   6  -9  151.61   47.38
   2  -6 -1010067.25  488.69
   2   6 -1010661.27  495.05
   2   6 -1010580.90  446.18
  -2  -6  1010233.99  491.74
  -2   6  1011711.77  509.37
  -2   6  1010132.51  362.88
   2   6 -1010384.58  536.81
   2  -6 -1010814.07  527.59
   2  -6 -1010459.76  507.64
  -2   6  11 1401.94  105.84
  -2  -6  11 1300.71  111.81
   2   6 -11 1219.57  104.65
   2   6 -11 1300.28  142.63
   2   6 -11 1396.31  110.50
   2  -6 -11 1441.30  108.84
   2  -6 -11 1245.16  104.77
   2  -6 -11 1308.48  111.03
   2  -6 -12 3348.56  219.43
   2  -6 -12 3603.17  211.49
   2  -6 -12 3348.89  209.47
   2   6 -12 3757.31  207.08
  -2   6  12 3621.30  220.13
  -2  -6  12 3316.98  244.09
   2   6 -12 3513.22  246.66
   2   6 -12 3512.81  227.24
   2   6 -13    6.00   64.67
   2  -6 -13   -9.56   64.20
   2  -6 -13  -10.58   64.01
  -2   6  13  -43.57   63.88
   2  -6 -13  -89.14   63.91
   2   6 -13   22.10   63.54
   2   6 -13   75.31   63.27
  -2  -6  13    4.19   63.59
   2  -6 -14 3452.41  226.11
   2  -6 -14 3090.26  221.22
  -2   6  14 3837.93  262.61
   2   6 -14 3248.49  197.13
   2   6 -14 3134.99  266.42
   2  -6 -14 3384.17  208.93
  -2  -6  14 3583.13  213.74
   2   6 -14 3589.59  226.60
   2   6 -15  308.30   95.23
   2  -6 -15  197.20   56.45
   2   6 -15  238.92   69.40
  -2   6  15  253.59   65.79
   2   6 -15  148.50   42.82
  -2  -6  15  182.45   64.40
   2  -6 -15  168.82   62.30
   2  -6 -15  188.10   56.02
   2  -6 -16 4058.49  301.03
   2   6 -16 3790.40  231.41
   2  -6 -16 3756.57  236.38
   2   6 -16 4230.96  339.03
   2   6 -16 4069.27  292.10
  -2  -6  16 4402.20  275.57
   2  -6 -16 4523.21  291.96
  -2   6  16 4398.98  310.49
   2  -6 -17   -0.59   39.40
   2   6 -17  120.11   71.34
   2   6 -17   45.34   66.16
  -2  -6  17  -68.56   58.76
   2  -6 -17  -55.76   56.85
  -2   6  17   84.48   69.31
   2  -6 -17   -1.13   45.76
   2   6 -18 1092.66  141.97
   2  -6 -18 1122.96  117.03
   2  -6 -18 1220.30  144.01
   2  -6 -18 1413.14  146.82
  -2   6  18 1335.77  154.73
   2   6 -18 1333.03  136.64
  -2  -6  18 1482.50  128.14
   2  -6 -19  246.83   80.62
   2  -6 -19  265.93   63.91
   2   6 -19  285.52   72.91
   2  -6 -19  296.14   73.41
  -2  -6  19  343.14   65.00
  -2   6  19  187.43   83.94
   2   6 -20 1417.79  171.07
   2   6 -20 1737.62  193.42
   2  -6 -20 1706.88  191.88
   2  -6 -20 1532.40  164.82
  -2  -6  20 1645.76  165.77
   2  -6 -20 1509.97  162.63
  -2   6  20 1853.33  185.30
   2  -7  -1 3650.85  210.35
  -2  -7   1 3568.94  195.32
  -2  -7   1 3513.15  174.36
  -2   7   1 3605.03  191.99
  -2   7   1 3138.54  153.15
   2   7  -1 3818.58  232.17
  -2   7   1 3687.08  190.59
   2  -7  -1 3351.12  156.69
   2  -7  -1 3789.88  222.19
  -2  -7   1 3677.71  253.06
   2   7  -2 1137.54   91.82
  -2  -7   2 1034.37   78.29
   2  -7  -2 1032.71   69.88
   2  -7  -2  990.34   90.25
  -2  -7   2 1008.15   95.75
  -2  -7   2  984.59   77.61
  -2   7   2 1093.79   68.04
  -2   7   2 1120.65  109.96
  -2   7   2  995.72   60.93
   2  -7  -2 1192.34  100.64
   2  -7  -3 6507.89  306.15
  -2   7   3 7180.55  297.99
  -2  -7   3 6385.15  369.85
   2  -7  -3 6927.73  383.35
  -2   7   3 5854.84  241.78
  -2   7   3 6903.67  295.43
   2   7  -3 6421.71  353.68
  -2  -7   3 6719.68  339.08
  -2  -7   3 6821.04  313.54
   2  -7  -3 6939.49  319.19
  -2  -7   4 2930.72  222.12
  -2  -7   4 3126.33  180.38
  -2  -7   4 2565.12  180.67
   2  -7  -4 2756.41  155.04
  -2   7   4 3042.10  144.23
   2  -7  -4 2788.76  166.75
  -2   7   4 2939.36  176.96
   2   7  -4 2881.84  176.93
   2  -7  -4 3005.97  202.13
   2   7  -5 6697.94  341.88
  -2  -7   5 6130.58  323.98
   2   7  -5 6726.79  333.96
   2  -7  -5 6323.57  296.62
   2  -7  -5 6753.02  336.26
  -2   7   5 6638.66  280.34
  -2  -7   5 6607.25  388.22
  -2   7   5 6695.72  334.49
   2  -7  -5 6197.23  332.80
  -2   7   6 1988.58  124.80
  -2   7   6 1913.44  105.57
  -2  -7   6 1973.07  138.40
   2  -7  -6 1859.10  104.79
   2   7  -6 1387.01  127.17
   2   7  -6 1849.38  118.94
   2   7  -6 2019.44  175.56
   2  -7  -6 1851.16  121.21
   2  -7  -6 1882.12  117.37
   2   7  -7 2718.37  195.71
  -2   7   7 2385.03  124.80
   2   7  -7 2462.92  145.25
   2  -7  -7 2404.75  163.44
  -2  -7   7 2482.48  181.74
   2  -7  -7 2365.07  145.67
   2   7  -7 2416.42  170.80
  -2   7   7 2571.33  170.14
   2  -7  -7 2677.19  141.66
   2   7  -8 1609.79  140.61
   2   7  -8 1400.08   97.22
  -2   7   8 1523.07  121.51
   2  -7  -8 1329.97   98.95
   2  -7  -8 1438.49  128.17
  -2   7   8 1460.15   83.26
   2   7  -8 1250.83  113.21
  -2  -7   8 1415.90  112.53
   2  -7  -8 1241.89   82.46
  -2   7   9 9216.13  492.52
  -2   7   9 9583.81  376.11
  -2  -7   9 9239.19  466.79
   2   7  -9 8930.46  453.90
   2  -7  -9 9824.96  455.73
   2   7  -9 9044.26  394.46
   2  -7  -9 8893.19  393.45
   2   7  -9 8834.69  486.38
   2  -7  -9 9335.82  434.91
  -2   7  10  411.70   65.91
   2   7 -10  515.07   73.65
  -2   7  10  428.35   34.06
   2   7 -10  332.12   53.14
   2   7 -10  469.96   60.34
   2  -7 -10  367.05   61.02
   2  -7 -10  356.13   66.17
  -2  -7  10  366.22   68.19
   2  -7 -10  356.16   54.26
   2   7 -11  426.19   89.53
   2  -7 -11  418.12   63.24
   2   7 -11  429.38   66.84
   2   7 -11  384.95   60.36
   2  -7 -11  555.74   63.37
  -2   7  11  549.52   79.69
   2  -7 -11  443.84   60.29
  -2  -7  11  524.14   67.00
   2   7 -12 1951.18  124.98
   2   7 -12 1955.37  151.34
  -2   7  12 2258.90  193.89
   2   7 -12 1740.37  167.67
   2  -7 -12 1849.75  156.19
   2  -7 -12 1735.20  163.34
  -2  -7  12 1797.09  154.38
   2  -7 -12 1757.34  141.91
   2   7 -13 4763.11  348.09
   2   7 -13 4818.91  298.85
   2  -7 -13 4675.55  289.82
   2  -7 -13 4592.18  284.79
  -2   7  13 5297.80  356.90
   2  -7 -13 5239.61  276.99
  -2  -7  13 4936.60  333.58
   2   7 -13 4829.90  279.89
   2  -7 -14  580.55   63.46
  -2  -7  14  555.01   80.09
   2  -7 -14  606.61   85.42
   2  -7 -14  466.52   74.15
   2   7 -14  571.56   91.15
   2   7 -14  435.72   77.06
   2   7 -14  608.78   94.21
  -2   7  14  569.16   87.30
   2  -7 -15   41.14   50.69
   2   7 -15   21.93   49.32
  -2  -7  15  -23.71   52.74
  -2   7  15   -1.20   49.25
   2   7 -15   52.54   40.53
   2   7 -15   24.63   70.74
   2  -7 -15   14.73   48.34
   2  -7 -15   97.45   51.11
   2   7 -16   68.66   71.04
  -2  -7  16   -8.07   57.72
   2  -7 -16  -30.23   44.58
   2  -7 -16   43.63   54.56
  -2   7  16   75.26   62.44
   2   7 -16    6.71   39.90
   2   7 -16   32.28   61.12
   2  -7 -16   39.56   55.39
   2   7 -17 3768.12  280.13
   2   7 -17 4383.84  285.64
  -2   7  17 5028.65  370.50
  -2  -7  17 4463.74  299.61
   2  -7 -17 4653.66  370.48
   2  -7 -17 4291.96  295.01
   2  -7 -17 4585.33  338.71
   2   7 -17 4057.24  335.41
   2   7 -18  681.55  123.67
   2   7 -18  746.91  128.05
   2  -7 -18  696.38   86.01
   2  -7 -18  752.57  115.09
  -2  -7  18  770.36  116.88
   2  -7 -18  810.93  113.55
  -2   7  18  778.74  126.19
  -2   7  19  360.22   85.70
   2  -7 -19  333.79   81.12
   2  -7 -19  306.19   81.68
   2  -7 -19  360.54   84.84
   2   7 -19  292.33   78.95
   2   7 -19  307.09   86.75
  -2  -7  19  251.60   95.64
   2   8  -1 1638.53  130.45
  -2  -8   1 1577.94  103.24
  -2  -8   1 1502.61  129.15
   2  -8  -1 1528.25  105.38
   2  -8  -1 1654.46  131.93
  -2   8   1 1439.19  101.32
  -2  -8   1 1566.71  117.16
  -2   8   1 1494.82   86.90
   2  -8  -1 1437.74   98.66
  -2  -8   219074.05  867.82
  -2   8   218773.77  840.78
   2   8  -221399.01  894.79
   2  -8  -219786.52  736.50
   2  -8  -218651.31  710.33
  -2  -8   218852.75  775.06
  -2   8   219915.28  722.44
  -2  -8   219124.48  908.97
   2  -8  -220107.95  968.75
   2  -8  -3  228.59   34.77
   2   8  -3  345.82   55.96
  -2   8   3  223.45   44.80
   2  -8  -3  281.49   58.47
  -2  -8   3  268.70   62.96
  -2   8   3  306.14   46.72
  -2  -8   3  256.05   48.90
   2  -8  -3  321.47   48.93
  -2  -8   3  218.75   43.40
   2  -8  -4  813.27   66.04
   2  -8  -4  865.23   76.92
  -2   8   4  934.85   81.65
   2   8  -4  733.84   82.08
  -2   8   4  786.14   58.16
   2  -8  -4  954.80   73.78
  -2  -8   4  755.93   75.26
  -2  -8   4  757.07   92.17
  -2  -8   4  631.70   73.23
   2   8  -5 3161.31  203.58
  -2  -8   5 3045.60  235.75
   2  -8  -5 3062.18  173.57
   2   8  -5 2990.48  184.41
  -2  -8   5 3163.47  212.69
   2  -8  -5 3233.85  211.44
  -2   8   5 2993.05  192.27
  -2   8   5 3127.58  156.69
   2  -8  -5 2883.16  175.16
  -2  -8   610252.80  499.86
   2  -8  -611606.80  514.00
  -2   8   610598.96  432.64
   2  -8  -610165.15  487.19
   2   8  -610261.63  492.22
   2   8  -610390.83  461.29
  -2   8   610428.65  489.02
   2  -8  -610791.15  545.84
   2   8  -7 2361.64  135.08
   2   8  -7 2173.99  152.49
   2   8  -7 2427.54  197.57
   2  -8  -7 2445.86  132.85
   2  -8  -7 2390.35  149.51
  -2   8   7 2486.23  123.15
   2  -8  -7 2287.85  170.54
  -2   8   7 2562.88  159.68
  -2  -8   7 2622.82  171.38
   2   8  -8  670.34   74.00
   2   8  -8  653.35   84.74
  -2   8   8  622.39   66.06
   2  -8  -8  624.96   80.76
  -2  -8   8  542.02   73.53
  -2   8   8  628.93   53.46
   2   8  -8  517.32   90.61
   2  -8  -8  584.86   61.43
   2  -8  -8  607.53   71.83
  -2   8   9  331.78   53.89
   2   8  -9  410.76   56.76
   2  -8  -9  272.58   58.53
   2   8  -9  314.65   70.96
   2  -8  -9  331.92   63.50
  -2  -8   9  405.06   63.74
   2  -8  -9  261.91   49.81
  -2   8   9  310.42   40.60
   2   8  -9  369.75   54.31
   2   8 -10 7001.18  425.15
   2   8 -10 6866.75  384.22
   2  -8 -10 7024.97  410.73
   2  -8 -10 6881.97  367.68
  -2  -8  10 7054.11  420.16
   2   8 -10 7384.39  391.74
  -2   8  10 7482.20  388.80
   2  -8 -10 6911.41  396.66
   2  -8 -11 1661.66  153.31
   2   8 -11 1561.52  160.34
   2   8 -11 1533.57  122.72
  -2  -8  11 1524.06  137.63
   2  -8 -11 1479.70  122.92
  -2   8  11 1378.54  124.12
   2   8 -11 1539.60  140.33
   2  -8 -11 1610.06  138.28
   2   8 -12 3909.68  256.75
  -2   8  12 4273.95  270.30
   2   8 -12 3882.19  309.83
   2  -8 -12 3785.40  243.63
  -2  -8  12 3667.91  263.39
   2   8 -12 3800.34  258.96
   2  -8 -12 3595.29  240.79
   2  -8 -12 3898.77  262.14
   2   8 -13  192.14   60.43
   2   8 -13  104.01   62.40
   2   8 -13   95.71   73.11
   2  -8 -13  144.68   52.38
   2  -8 -13  231.90   62.77
  -2   8  13  178.22   59.58
   2  -8 -13  105.48   52.05
  -2  -8  13  175.13   65.02
   2   8 -14 1734.30  148.95
   2   8 -14 2061.97  177.45
  -2  -8  14 1980.76  180.81
   2   8 -14 1767.60  177.21
   2  -8 -14 2000.28  170.64
  -2   8  14 2344.00  190.02
   2  -8 -14 1786.92  162.94
   2  -8 -14 2093.02  184.46
  -2   8  15  377.14   78.90
  -2  -8  15  455.03   80.28
   2   8 -15  579.65   98.77
   2   8 -15  451.65   95.97
   2  -8 -15  485.87   82.64
   2  -8 -15  594.65   89.91
   2   8 -15  495.64   71.55
   2  -8 -15  468.54   85.80
  -2   8  16 1619.92  181.53
   2   8 -16 1614.11  189.46
   2   8 -16 1531.45  150.07
   2  -8 -16 1535.41  150.14
  -2  -8  16 1656.91  149.28
   2   8 -16 1550.40  151.27
   2  -8 -16 1505.75  170.84
   2  -8 -16 1663.29  170.02
   2  -8 -17   44.12   49.15
   2   8 -17   38.92   67.57
  -2   8  17   47.33   59.53
  -2  -8  17  -26.77   55.00
   2   8 -17   78.51   65.50
   2   8 -17   49.96   47.63
   2  -8 -17  101.50   45.36
   2  -8 -17   19.07   57.52
  -2  -8  18   87.86   55.96
   2  -8 -18    7.06   44.16
   2   8 -18  -16.12   62.12
   2   8 -18  -60.97   72.23
  -2   8  18   39.43   50.91
   2  -8 -18  -10.96   49.44
   2  -8 -18   57.25   51.02
   2  -9  -1  976.82   66.70
   2  -9  -1 1022.77   96.97
  -2   9   1 1095.04   90.51
  -2   9   1  958.56  102.58
  -2  -9   1 1062.03   89.16
   2  -9  -1  967.17   87.82
  -2  -9   1  951.58  116.08
  -2  -9   1 1003.92   99.56
   2   9  -1 1291.71  124.70
   2  -9  -2   66.14   36.01
  -2   9   2   17.60   37.69
  -2  -9   2   24.40   43.32
  -2  -9   2  -43.48   41.28
   2  -9  -2   59.02   21.41
   2  -9  -2    4.18   44.74
  -2  -9   2   14.74   36.59
  -2   9   2   33.88   31.85
   2   9  -2   12.15   46.75
  -2   9   3 8080.36  379.76
  -2  -9   3 6518.29  395.39
   2  -9  -3 6397.95  323.08
  -2   9   3 7309.49  314.68
  -2  -9   3 6644.49  404.51
  -2  -9   3 6719.59  341.14
   2   9  -3 7030.01  393.51
   2  -9  -3 7171.97  317.58
   2  -9  -3 7100.74  390.80
  -2   9   4 2169.99  141.35
   2  -9  -4 2195.73  134.71
  -2  -9   4 2336.05  159.76
   2  -9  -4 2236.20  198.72
   2   9  -4 2296.40  146.36
   2  -9  -4 2065.15  143.55
  -2  -9   4 2185.43  161.99
  -2  -9   4 2162.94  149.23
  -2   9   4 2334.67  130.15
   2   9  -5 3140.13  187.78
  -2  -9   5 3277.42  225.74
   2  -9  -5 3615.55  262.10
  -2   9   5 3321.55  162.46
   2  -9  -5 3737.84  213.70
  -2   9   5 3410.64  175.44
   2  -9  -5 3267.34  223.11
  -2  -9   5 3371.53  219.41
   2   9  -6  853.11   81.17
  -2  -9   6  752.11  103.44
   2  -9  -6  697.03   68.43
   2  -9  -6  775.69   79.64
  -2   9   6  682.02   57.44
  -2   9   6  774.39   77.74
   2  -9  -6  695.61   82.84
   2   9  -6  669.53   78.47
   2  -9  -7 2992.85  169.16
   2  -9  -7 2643.88  184.14
   2  -9  -7 3173.46  212.18
  -2   9   7 2862.67  166.28
   2   9  -7 3214.59  245.33
  -2   9   7 3254.09  160.81
   2   9  -7 3032.17  186.38
   2   9  -7 2910.85  200.14
  -2  -9   7 2804.71  209.00
  -2   9   8 1105.03   82.51
  -2  -9   8 1179.60  126.25
   2   9  -8 1110.01  109.54
  -2   9   8 1157.72  109.56
   2   9  -8 1250.75  153.63
   2  -9  -8 1348.20  115.20
   2  -9  -8 1171.11  112.48
   2  -9  -8  989.18   93.77
   2   9  -8 1226.66  102.99
   2  -9  -9 5428.97  332.40
   2  -9  -9 5940.04  361.56
  -2  -9   9 5931.68  381.19
   2   9  -9 5920.50  350.92
   2   9  -9 5668.88  314.39
   2   9  -9 5894.41  411.62
  -2   9   9 6160.15  337.77
   2  -9  -9 6320.40  351.34
  -2   9   9 5710.01  269.29
   2  -9 -10   51.06   46.16
   2  -9 -10   43.45   43.92
  -2  -9  10   64.59   58.87
   2  -9 -10   85.58   55.27
   2   9 -10   40.34   52.37
   2   9 -10   14.13   56.61
   2   9 -10   93.22   82.45
  -2   9  10   57.01   44.36
   2   9 -11 1459.46  147.81
  -2   9  11 1191.98  107.52
  -2  -9  11 1310.74  136.97
   2  -9 -11 1247.96  117.64
   2  -9 -11 1287.42  129.37
   2   9 -11 1490.52  149.18
   2   9 -11 1337.55  127.52
   2  -9 -11 1317.25  143.61
   2  -9 -12   37.20   45.89
  -2   9  12   55.71   42.97
   2   9 -12   12.01   53.15
   2   9 -12   69.43   54.95
   2  -9 -12   46.83   49.14
   2  -9 -12  -54.99   53.24
  -2  -9  12   78.37   60.76
   2   9 -12   47.81   71.44
   2   9 -13 4111.48  318.60
   2  -9 -13 4558.42  299.24
  -2  -9  13 4285.64  309.73
  -2   9  13 4839.32  332.41
   2   9 -13 4638.19  316.85
   2  -9 -13 4704.65  341.18
   2   9 -13 4029.93  304.26
   2  -9 -13 4327.52  278.31
  -2  -9  14  265.27   68.88
  -2   9  14  347.46   73.72
   2   9 -14  309.34   60.54
   2   9 -14  133.51   66.07
   2  -9 -14  149.00   56.23
   2  -9 -14  275.06   62.88
   2   9 -14  136.75   77.49
   2  -9 -14  172.32   53.37
  -2  -9  15   64.33   62.35
   2  -9 -15    0.23   62.34
   2   9 -15   26.21   61.22
   2  -9 -15  -39.12   62.72
   2  -9 -15  -11.70   62.39
   2   9 -15 -132.21   61.60
   2   9 -15  -11.05   62.88
  -2   9  15   -3.11   61.53
   2  -9 -16  419.51   83.95
   2  -9 -16  275.85   78.14
   2  -9 -16  233.10   67.88
  -2   9  16  231.83   68.96
  -2  -9  16  185.85   62.43
   2   9 -16  303.35   95.52
   2   9 -16  270.86   79.85
   2   9 -16  246.02   55.75
  -2  -9  17  839.28  124.88
   2   9 -17  583.15   99.23
   2   9 -17  625.53  103.87
  -2   9  17  906.91  122.33
   2   9 -17  655.08  123.85
   2  -9 -17  713.07   97.93
   2  -9 -17  743.88  100.42
   2  -9 -17  808.14  120.39
  -2  10   1 2119.83  150.45
   2 -10  -1 2571.98  198.18
  -2 -10   1 2146.59  146.07
  -2 -10   1 2255.07  222.65
   2  10  -1 2456.63  188.04
  -2  10   1 2136.09  172.28
  -2 -10   1 1820.89  170.19
   2 -10  -1 2093.14  151.42
   2 -10  -2 6848.73  382.49
   2  10  -2 5675.49  336.94
  -2  10   2 6313.21  307.86
   2 -10  -2 5704.63  276.41
  -2 -10   2 5550.94  299.59
  -2  10   2 6250.78  280.74
  -2 -10   2 5969.68  364.33
  -2 -10   2 5837.49  400.81
  -2 -10   3 1750.02  137.89
  -2 -10   3 1649.61  139.42
   2 -10  -3 1434.25  104.36
   2 -10  -3 1986.86  153.98
  -2  10   3 1825.24  129.90
   2 -10  -3 1883.05  122.39
  -2 -10   3 1620.22  145.77
   2  10  -3 1904.87  163.99
  -2  10   3 1762.45  129.76
  -2 -10   4  289.02   62.63
  -2 -10   4  319.70   48.98
  -2  10   4  294.78   47.48
  -2 -10   4  136.22   55.74
  -2  10   4  221.34   52.55
   2  10  -4  249.90   52.60
   2 -10  -4  405.24   57.36
   2 -10  -4  379.98   56.90
   2 -10  -4  229.07   42.43
   2 -10  -5 1446.44  131.62
   2  10  -5 1359.44  118.89
  -2  10   5 1540.21  109.36
   2 -10  -5 1188.31  102.25
  -2 -10   5 1152.52  119.83
  -2 -10   5 1319.26  130.89
  -2  10   5 1243.18   94.90
   2 -10  -5 1419.62  114.60
  -2  10   6 7226.01  335.52
   2 -10  -6 6498.67  314.99
   2  10  -6 7252.34  368.68
   2  10  -6 6753.43  418.50
   2 -10  -6 7323.35  420.47
   2 -10  -6 6942.70  363.03
  -2 -10   6 6712.41  386.93
  -2  10   6 6975.06  344.76
   2 -10  -7 1160.13   96.20
  -2 -10   7 1068.60  125.79
   2 -10  -7 1360.86  136.69
   2 -10  -7 1257.49   96.22
  -2  10   7 1257.14   95.66
   2  10  -7 1172.49  143.53
  -2  10   7 1092.16   89.98
   2  10  -7 1315.93  111.68
   2  10  -7 1037.93  132.77
   2  10  -8  147.41   71.04
   2 -10  -8   21.05   32.55
  -2  10   8   77.00   34.67
  -2 -10   8   69.84   60.83
  -2  10   8   25.17   37.87
   2  10  -8    2.36   63.05
   2  10  -8   16.94   52.21
   2 -10  -8   57.23   54.33
   2 -10  -8   55.66   51.52
   2  10  -9  371.28   84.14
   2  10  -9  371.47   87.11
   2  10  -9  364.21   74.47
   2 -10  -9  395.71   70.64
  -2 -10   9  333.71   73.13
   2 -10  -9  208.08   46.47
   2 -10  -9  413.67   78.40
  -2  10   9  385.07   68.43
  -2 -10  10 1736.17  163.19
   2 -10 -10 1523.55  133.69
   2 -10 -10 1739.31  166.63
   2 -10 -10 1662.95  167.30
   2  10 -10 1666.37  139.86
  -2  10  10 1898.80  136.75
   2  10 -10 1748.48  160.22
   2  10 -10 1956.43  203.15
   2  10 -11 1239.33  133.86
  -2  10  11 1750.63  132.71
   2  10 -11 1219.79  149.85
   2  10 -11 1258.16  131.02
   2 -10 -11 1445.71  143.76
   2 -10 -11 1195.28  118.95
   2 -10 -11 1466.90  137.08
  -2 -10  11 1271.76  153.45
   2  10 -12  -24.13   62.70
   2 -10 -12  149.11   60.97
   2 -10 -12   99.68   54.67
   2  10 -12   50.23   58.45
   2  10 -12   97.21   67.32
  -2  10  12   33.93   42.08
  -2 -10  12  100.73   57.66
   2 -10 -12   33.34   45.84
  -2  10  13  -13.08   43.82
  -2 -10  13   19.55   62.63
   2 -10 -13    3.16   44.09
   2 -10 -13   93.74   47.24
   2  10 -13   86.97   62.96
   2  10 -13   61.91   58.49
   2  10 -13   37.47   59.04
   2 -10 -13   79.59   62.47
   2  10 -14  806.19  111.75
   2  10 -14  729.55  116.17
   2  10 -14  748.23  116.36
  -2  10  14  731.15  110.37
   2 -10 -14  747.70   87.56
   2 -10 -14  902.08  127.86
  -2 -10  14  718.90  101.64
   2 -10 -14  917.77  117.41
  -2 -10  15  867.44  114.30
   2  10 -15  663.07  100.08
   2 -10 -15  735.63  103.90
   2 -10 -15  882.00  110.15
   2  10 -15  871.58  108.71
   2 -10 -15  884.00  117.82
   2  10 -15 1041.63  143.17
  -2  10  15  900.97  130.61
   2 -10 -16  941.41  122.80
   2 -10 -16  854.27  103.99
   2 -10 -16  756.05  107.75
   2  10 -16 1032.68  121.36
   2  10 -16  943.79  126.69
   2  10 -16  895.09  134.15
   2 -11  -1 1041.17   98.08
   2 -11  -1 1024.83  118.82
  -2 -11   1  838.66  105.67
  -2  11   1 1013.11  112.99
  -2 -11   1  913.35  107.80
  -2  11   1  901.17   96.86
   2  11  -1  902.14  113.05
  -2 -11   1  806.06   83.34
  -2  11   2   25.75   42.83
   2  11  -2  -42.83   53.17
   2 -11  -2  -16.37   38.27
  -2  11   2   -4.08   40.80
  -2 -11   2   -0.51   54.17
  -2 -11   2   10.19   52.47
   2 -11  -2   70.70   55.15
  -2 -11   2    7.55   40.95
   2 -11  -3 3735.14  241.11
  -2 -11   3 3336.37  250.76
  -2 -11   3 3577.36  223.68
  -2 -11   3 3332.68  240.30
   2 -11  -3 3832.00  280.96
  -2  11   3 3838.25  228.08
   2  11  -3 3580.20  230.55
  -2  11   3 3802.02  233.67
  -2  11   4 1520.87  119.77
  -2 -11   4 1517.82  142.76
  -2  11   4 1491.99  143.50
   2  11  -4 1473.50  144.51
  -2 -11   4 1525.38  136.32
  -2 -11   4 1302.68  129.20
   2 -11  -4 1500.00  129.15
   2 -11  -4 1641.17  157.85
   2  11  -5 4794.05  281.24
  -2  11   5 4601.92  271.31
  -2  11   5 4591.35  254.62
   2 -11  -5 4803.38  298.08
  -2 -11   5 4273.85  282.70
   2 -11  -5 4655.76  308.36
  -2 -11   5 4094.51  288.93
   2  11  -6   13.39   56.04
  -2  11   6  -32.18   39.95
  -2 -11   6    5.86   61.88
   2 -11  -6   38.29   57.75
   2 -11  -6  -25.57   54.20
   2  11  -6   54.64   49.89
   2 -11  -6   24.39   31.68
  -2  11   6  -27.93   38.19
   2  11  -7 1621.54  158.57
   2 -11  -7 1654.94  150.09
   2  11  -7 1610.81  179.41
   2  11  -7 1834.48  160.98
   2 -11  -7 1539.78  138.99
   2 -11  -7 1739.11  159.91
  -2 -11   7 1528.87  160.11
  -2  11   7 1737.93  118.81
  -2  11   7 1786.42  150.69
   2 -11  -8 1799.77  157.13
   2 -11  -8 1637.44  135.52
   2 -11  -8 1700.45  153.61
  -2 -11   8 1712.10  161.33
  -2  11   8 1817.54  144.26
   2  11  -8 1709.58  142.89
   2  11  -8 1897.06  182.56
   2  11  -8 1659.12  173.59
   2  11  -9 2561.19  218.48
  -2 -11   9 2782.46  228.76
  -2  11   9 2768.38  205.25
   2  11  -9 3243.25  240.62
   2 -11  -9 2573.33  191.28
   2 -11  -9 3111.92  229.39
   2  11  -9 2448.66  233.90
   2 -11  -9 3309.96  238.91
   2  11 -10 1056.54  142.02
   2 -11 -10 1102.04  126.20
  -2 -11  10 1027.86  147.05
   2  11 -10 1341.29  137.45
   2 -11 -10 1196.63  133.32
   2 -11 -10 1237.92  140.11
   2  11 -10 1099.93  114.02
  -2  11  10 1326.63  153.51
   2  11 -11   46.78   60.70
  -2  11  11  -59.27   50.79
   2 -11 -11   30.74   47.83
   2  11 -11  -12.91   61.56
   2  11 -11   67.27   61.62
  -2 -11  11   -8.87   61.62
   2 -11 -11   -9.38   53.81
   2 -11 -11   47.41   33.94
  -2  11  12 1427.00  172.18
  -2 -11  12 1225.29  167.28
   2 -11 -12 1121.60  135.90
   2  11 -12 1217.39  145.95
   2  11 -12 1336.14  141.90
   2 -11 -12 1144.62  136.91
   2 -11 -12 1136.11  137.20
   2  11 -12 1062.44  138.02
   2  11 -13 1501.26  159.56
   2 -11 -13 1576.07  164.23
  -2 -11  13 1559.66  175.52
  -2  11  13 1735.87  146.37
   2 -11 -13 1388.63  150.39
   2  11 -13 1259.44  169.03
   2 -11 -13 1690.68  162.14
   2  11 -13 1596.95  182.53
   2 -11 -14  426.57   85.20
   2  11 -14  374.32   92.02
   2  11 -14  394.23   72.86
   2  11 -14  254.52   73.31
  -2  11  14  426.47   87.27
   2 -11 -14  310.14   64.29
   2 -11 -14  295.50   69.23
  -2 -11  14  397.54   88.48
   2 -12  -1 1990.36  172.00
  -2  12   1 1933.72  174.83
   2  12  -1 2045.73  199.49
  -2 -12   1 1555.93  134.67
   2 -12  -1 1964.64  184.64
  -2 -12   1 1561.45  151.47
  -2 -12   1 1571.81  170.02
  -2  12   1 1776.43  149.54
   2 -12  -2 3293.10  261.22
   2  12  -2 2827.44  229.48
  -2 -12   2 2325.36  211.91
  -2 -12   2 2829.23  221.04
  -2  12   2 3004.62  237.54
  -2  12   2 2960.45  206.54
   2 -12  -2 2854.80  251.00
  -2 -12   2 2636.25  213.06
   2 -12  -3  403.34   69.37
  -2 -12   3  369.64   78.77
   2  12  -3  359.56   82.17
  -2 -12   3  395.67   81.77
  -2  12   3  450.78   69.50
   2 -12  -3  655.99   96.42
  -2 -12   3  287.79   68.68
  -2  12   3  459.42   76.91
  -2 -12   4   42.03   55.08
  -2  12   4   10.92   46.33
   2 -12  -4   38.29   58.89
   2 -12  -4   20.29   49.43
  -2 -12   4   26.90   64.96
  -2  12   4  -50.67   41.08
  -2 -12   4  -14.49   50.53
   2  12  -4   18.98   56.73
  -2 -12   5  267.82   74.58
  -2 -12   5  164.59   68.76
  -2  12   5  383.87   62.19
  -2  12   5  283.36   65.84
   2  12  -5  279.38   78.16
   2 -12  -5  450.78   81.48
   2 -12  -5  320.94   66.72
   2 -12  -6 2149.77  194.26
  -2 -12   6 1780.19  191.30
   2  12  -6 1826.27  211.10
  -2  12   6 1910.02  149.40
  -2  12   6 2073.29  172.31
   2  12  -6 1631.18  154.17
   2  12  -6 2187.65  190.87
   2 -12  -6 2284.55  199.79
   2 -12  -7 1053.27  128.00
   2  12  -7  765.97  113.54
   2  12  -7  898.48  123.97
   2  12  -7  580.85   96.51
  -2  12   7  836.95   98.31
   2 -12  -7  892.66  116.53
  -2 -12   7  589.60  110.54
   2  12  -8   51.55   53.31
   2 -12  -8    4.81   52.58
   2 -12  -8   15.00   55.54
  -2 -12   8   69.57   67.56
  -2  12   8   23.55   48.56
   2  12  -8   52.02   74.58
   2  12  -8  -23.79   56.32
  -2 -12   9   37.28   64.70
   2  12  -9  107.88   70.94
  -2  12   9  119.70   52.75
   2  12  -9   -5.22   64.01
   2  12  -9   96.72   69.15
   2 -12  -9   -2.50   48.52
   2 -12  -9   73.09   60.96
   2  12 -10 1821.16  167.60
  -2 -12  10 1954.81  215.10
   2 -12 -10 2129.33  220.20
   2 -12 -10 2218.48  215.27
   2  12 -10 2067.07  209.64
   2  12 -10 2223.39  183.19
  -2  12  10 2104.30  163.79
   2  12 -11  579.03   96.35
   2 -12 -11  728.01  105.39
   2  12 -11  714.55  117.86
  -2 -12  11  715.47  101.91
  -2  12  11  725.29   86.61
   2 -12 -11  682.00   87.79
   2  12 -11  766.32  107.63
   2 -12 -12  676.01   91.99
   2  12 -12  611.20   89.96
   2  12 -12  730.02  121.46
   2  12 -12 1439.55  191.87
  -2 -12  12  616.32  128.35
   2 -12 -12  740.61  104.34
   2 -12 -12  793.67  105.48
  -2  12  12  874.31  106.48
  -2  13   1  334.22   66.85
  -2 -13   1  239.87   63.06
  -2 -13   1  219.77   71.28
  -2 -13   1  327.47   78.45
   2  13  -1  363.74   88.49
  -2  13   1  351.11   71.93
   2 -13  -1  374.89   78.98
   2 -13  -1  296.08   75.51
  -2  13   2   95.66   56.55
  -2 -13   2  248.65   70.18
  -2 -13   2   91.29   63.06
  -2 -13   2  104.04   66.36
   2  13  -2  112.74   67.17
  -2  13   2  249.53   54.06
   2 -13  -2  137.61   61.47
   2 -13  -2  146.90   64.40
  -2 -13   3 1319.48  130.78
   2  13  -3 1481.15  157.52
  -2  13   3 1432.70  144.92
  -2 -13   3  979.92  141.61
  -2 -13   3 1078.97  129.69
   2 -13  -3 1728.77  187.92
   2 -13  -3 1610.70  175.81
  -2  13   3 1337.99  132.34
  -2 -13   4 1234.88  149.43
   2  13  -4 1978.79  193.52
  -2  13   4 1719.14  165.05
   2 -13  -4 2192.55  210.35
  -2  13   4 1686.01  150.28
  -2 -13   4 1666.95  171.12
  -2 -13   4 1458.48  159.69
   2 -13  -4 1843.14  186.27
   2  13  -5  357.91   85.05
  -2 -13   5  427.34   93.85
  -2  13   5  310.95   54.70
   2 -13  -5  261.61   71.77
  -2 -13   5  291.92   69.55
   2 -13  -5  463.49   84.45
   2  13  -5  340.21   84.83
  -2  13   5  382.64   68.95
  -2 -13   6  172.65   62.42
   2 -13  -6  151.55   56.00
  -2  13   6  150.81   55.08
   2  13  -6  181.07   75.96
   2  13  -6  117.47   73.56
   2 -13  -6  142.49   61.11
   2  13  -6  213.72   60.51
   2  13  -7  380.76   79.33
  -2  13   7  437.75   82.74
  -2 -13   7  255.31   79.18
   2  13  -7  409.53  100.42
   2  13  -7  437.07   97.24
   2 -13  -7  405.88   79.70
   2 -13  -7  605.97   80.80
   2  13  -8  823.92  107.74
   2  13  -8 1101.08  137.26
   2  13  -8  740.47  123.06
   2 -13  -8 1008.08  128.99
   2 -13  -8  967.87  112.00
  -2  13   8 1196.22  135.29
  -2 -13   8  869.51  111.89
   1   0  -1   -0.12   12.71
   1   0  -1   57.88   13.09
   1   0  -1    5.49   11.01
   1   0  -1    8.47    9.68
   1   0  -1    1.14    7.13
   1   0  -1   15.18    5.42
  -1   0   1    8.13    9.81
  -1   0   1   -4.92    9.26
  -1   0   1   20.81    4.90
  -1   0   1   -3.73   11.85
   1   0  -263878.55 2264.01
   1   0  -268067.59 2270.64
   1   0  -261992.96 2033.05
  -1   0   259825.28 2205.28
  -1   0   263485.22 2129.06
  -1   0   258032.60 1980.34
   1   0  -3   -6.38   14.26
   1   0  -3    2.16   12.95
   1   0  -3    7.88   11.77
   1   0  -3   -3.78    6.69
   1   0  -3   -1.26    6.28
   1   0  -3    2.51   10.21
  -1   0   3   -2.97   10.57
  -1   0   3   19.82   14.21
  -1   0   3   -0.12   10.24
  -1   0   3    5.44    8.36
   1   0  -431512.86 1160.63
   1   0  -430110.57 1161.12
   1   0  -428553.26 1077.74
   1   0  -426825.71  898.18
   1   0  -430258.13 1110.39
  -1   0   429082.91 1120.27
  -1   0   429829.98 1109.79
  -1   0   425751.65  987.54
  -1   0   425423.92  873.76
  -1   0   429374.25  949.78
   1   0  -5    0.04   14.85
   1   0  -5   -8.27   19.39
   1   0  -5    9.63   10.34
  -1   0   5   -1.72    8.30
   1   0  -5   -2.55    7.15
   1   0  -5    2.01   12.68
  -1   0   5   12.79   12.13
  -1   0   5  -11.06   14.17
  -1   0   5   -7.43   17.56
  -1   0   5    8.61    5.89
   1   0  -635952.20 1318.99
   1   0  -635170.39 1418.98
  -1   0   637157.17 1478.64
   1   0  -635675.45 1158.02
   1   0  -636254.60 1340.60
  -1   0   634966.61 1221.24
  -1   0   634642.29 1434.70
   1   0  -635176.78 1287.77
  -1   0   633267.13 1435.47
  -1   0   633716.10 1102.24
   1   0  -7   -4.57   22.44
   1   0  -7    3.67   22.64
  -1   0   7    1.68   22.48
  -1   0   7  -18.91   22.94
  -1   0   7   -7.52   22.84
  -1   0   7   12.28   23.03
   1   0  -7   17.82   22.53
   1   0  -7   -9.47   22.66
   1   0  -7    3.18   23.44
  -1   0   7   -1.65   22.62
  -1   0   8 2410.51   96.60
   1   0  -8 2755.39  183.37
   1   0  -8 2312.83  179.70
   1   0  -8 2264.41  160.44
   1   0  -8 2576.30  131.51
   1   0  -8 2606.58  150.97
  -1   0   8 2703.93  150.75
  -1   0   8 2465.57  128.76
  -1   0   8 2413.81  138.69
   1   0  -9   24.88   30.31
   1   0  -9   21.59   30.19
   1   0  -9   -7.56   31.71
   1   0  -9    0.95   30.60
  -1   0   9  -34.51   30.54
  -1   0   9   11.43   30.90
  -1   0   9   -4.74   30.62
   1   0 -1033721.07 1379.45
   1   0 -1031936.68 1162.04
   1   0 -1032792.64 1241.81
  -1   0  1033386.44 1512.61
  -1   0  1033258.50 1269.41
  -1   0  1030239.73 1082.24
   1   0 -11   -2.88   34.65
   1   0 -11   -0.61   36.04
   1   0 -11  -47.44   35.04
  -1   0  11  -50.01   34.94
  -1   0  11   -3.49   35.25
  -1   0  11   -9.89   34.80
   1   0 -12  594.00   70.81
   1   0 -12  664.01   51.23
   1   0 -12  673.67   75.48
  -1   0  12  658.33   54.14
  -1   0  12  657.21   61.08
  -1   0  12  512.33   41.15
   1   0 -13  -56.42   35.05
   1   0 -13  -23.27   36.13
   1   0 -13  -41.22   35.41
  -1   0  13  -45.79   35.30
  -1   0  13  -24.62   35.48
  -1   0  13   10.05   35.15
  -1   0  1430750.05 1285.61
   1   0 -1429873.08 1106.33
  -1   0  1428362.04 1024.67
   1   0 -1428315.13 1198.72
   1   0 -1426239.41 1052.68
  -1   0  1422744.47  991.81
   1   0 -15   -5.74   35.50
   1   0 -15   29.20   34.78
   1   0 -15   -8.64   35.09
  -1   0  15  -12.64   34.98
  -1   0  15  -22.35   35.05
   1   0 -16  289.24   53.62
   1   0 -16  199.68   34.01
   1   0 -16  250.55   55.07
  -1   0  16  155.59   44.18
  -1   0  16  231.65   52.88
   1   0 -17    6.15   40.16
   1   0 -17   -4.11   23.95
   1   0 -17   -6.07   49.75
  -1   0  17   45.65   40.21
  -1   0  17   22.39   46.05
   1   0 -18 3418.39  253.60
   1   0 -18 2679.64  163.96
   1   0 -18 3472.58  188.87
  -1   0  18 2961.55  182.96
  -1   0  18 3495.08  267.10
  -1   0  19    9.17   55.91
   1   0 -19   24.38   59.60
   1   0 -19   56.18   55.02
  -1   0  19   -1.59   38.26
   1   0 -20 2509.76  220.02
   1   0 -20 2591.01  192.10
  -1   0  20 2148.48  180.06
  -1   0  20 2811.14  238.59
   1   0 -21  -46.43   67.26
   1   0 -21   80.85   67.24
  -1   0  21  -25.26   67.38
  -1   0  21  -49.75   67.48
   1   0 -22 1826.97  188.27
   1   0 -22 1672.17  199.12
  -1   0  22 1344.58  144.69
  -1   0  22 1578.66  192.54
   1   0 -23  -62.97   62.63
   1   0 -23    0.15   62.40
  -1   0  23   37.14   62.93
  -1   1   1   26.30    8.45
  -1   1   1   18.02    8.45
  -1  -1   1    9.95    9.37
   1  -1  -1   -1.48   14.01
   1  -1  -1   20.58    9.09
   1  -1  -1    8.81    9.01
   1  -1  -1   21.76   13.10
   1   1  -1   12.99   13.77
   1   1  -1   20.10   10.96
   1   1  -1   33.54    9.14
   1   1  -1   39.03   16.30
   1   1  -1    9.86   10.41
   1   1  -1   25.00    7.01
   1   1  -1   18.02    5.88
  -1   1   1    7.73    7.93
  -1   1   1    0.55   12.77
  -1  -1   1   13.25   12.63
  -1  -1   1   10.29   11.00
   1  -1  -1   14.69   10.30
   1  -1  -1   18.48   10.73
   1  -1  -237537.13 1348.87
   1   1  -241402.99 1472.75
   1   1  -240762.25 1400.40
   1   1  -241367.88 1495.10
   1   1  -237613.84 1303.68
   1   1  -236208.47 1322.41
   1   1  -245559.69 1376.96
  -1   1   240416.57 1392.31
  -1   1   237987.98 1367.52
  -1   1   237500.12 1256.70
  -1  -1   239990.18 1428.09
  -1  -1   235299.12 1301.49
  -1  -1   234344.57 1302.50
   1  -1  -245470.32 1480.09
   1  -1  -244807.81 1516.44
   1  -1  -241233.68 1426.43
   1  -1  -242477.82 1331.25
   1   1  -382971.36 2893.10
   1   1  -393781.76 2941.23
   1   1  -381618.97 2625.82
   1   1  -374812.70 2636.31
  -1   1   393350.39 3005.13
  -1   1   380390.67 2779.09
  -1  -1   378412.34 2627.87
  -1  -1   376268.01 2609.08
   1  -1  -388961.86 2876.02
   1  -1  -384003.55 2774.59
   1   1  -4  535.29   44.61
   1   1  -4  438.09   42.78
   1   1  -4  434.15   34.44
   1   1  -4  449.41   28.96
   1   1  -4  583.78   49.45
  -1   1   4  421.51   39.91
  -1   1   4  461.38   37.58
  -1   1   4  398.78   29.67
  -1   1   4  508.68   46.75
  -1  -1   4  434.91   41.14
  -1  -1   4  502.63   39.86
  -1  -1   4  436.64   29.57
  -1  -1   4  385.94   22.02
  -1  -1   4  501.34   48.97
   1  -1  -4  480.72   45.44
   1  -1  -4  493.64   56.74
   1  -1  -4  517.29   42.64
   1  -1  -4  458.86   42.57
   1   1  -5 1460.36   90.22
   1   1  -5 1527.86   87.05
  -1  -1   5 1297.16  104.78
  -1  -1   5 1361.80   66.13
  -1  -1   5 1385.54   74.22
  -1   1   5 1406.89  109.42
  -1  -1   5 1526.35  113.09
  -1  -1   5 1379.23   99.18
   1  -1  -5 1579.30  114.81
   1   1  -5 1548.73  110.51
   1   1  -5 1474.10   83.63
   1   1  -5 1335.49   63.85
  -1   1   5 1374.97   93.04
  -1   1   5 1595.24  111.95
  -1   1   5 1298.75   92.91
   1  -1  -5 1444.20  115.89
   1  -1  -5 1466.29   98.30
   1  -1  -5 1426.36  100.33
   1   1  -6  136.79   20.58
  -1  -1   6  129.74   21.04
   1  -1  -6  235.80   35.45
   1  -1  -6  180.06   23.96
   1   1  -6  139.61   21.53
  -1   1   6  179.77    8.75
  -1  -1   6  141.86   30.32
  -1  -1   6  141.27   15.26
   1   1  -6  174.25   34.59
   1   1  -6  156.53   18.43
   1   1  -6  221.38   27.16
  -1   1   6  189.62   24.06
  -1   1   6  174.58   28.78
  -1   1   6  151.93   26.02
  -1   1   6  130.95   21.18
  -1  -1   6  138.48   24.16
  -1  -1   6  178.11   27.59
   1  -1  -6  198.14   25.46
   1  -1  -6  144.83   26.78
   1  -1  -733666.86 1335.24
   1  -1  -735990.39 1434.19
   1  -1  -734430.26 1125.34
   1   1  -735875.21 1386.76
   1   1  -734420.26 1365.69
   1   1  -733797.40 1354.76
   1   1  -734489.57 1209.75
   1   1  -738380.04 1400.91
  -1   1   733895.19 1374.62
  -1   1   737793.75 1455.20
  -1   1   737578.07 1296.77
  -1   1   733178.74 1083.21
  -1   1   733546.27 1503.84
  -1  -1   732629.77 1301.91
  -1  -1   735684.87 1390.28
  -1  -1   735075.73 1288.08
  -1  -1   732657.81 1138.44
  -1  -1   732467.30 1354.05
   1  -1  -737713.32 1490.22
   1  -1  -737515.72 1446.96
   1   1  -8 3550.94  222.57
   1   1  -8 2989.08  185.34
   1   1  -8 3299.06  162.21
   1   1  -8 3395.45  211.96
  -1   1   8 3329.76  188.55
  -1   1   8 3241.88  199.72
  -1   1   8 2962.37  119.59
  -1   1   8 2937.61  196.70
  -1  -1   8 3410.98  189.93
  -1  -1   8 3291.16  167.74
  -1  -1   8 3038.64  132.32
  -1  -1   8 2771.97  167.22
   1  -1  -8 3401.23  220.96
   1  -1  -8 3095.00  147.51
   1  -1  -8 3035.81  136.55
   1  -1  -8 3247.85  131.64
   1  -1  -8 3429.99  186.16
   1   1  -9 9579.38  452.17
   1   1  -9 8115.36  414.64
   1   1  -9 8624.63  350.08
   1   1  -9 9345.29  443.40
  -1   1   9 9635.73  429.03
  -1   1   9 8943.68  390.98
  -1   1   9 8294.12  304.32
  -1  -1   9 9151.95  465.12
  -1  -1   9 9062.04  380.20
  -1  -1   9 8418.88  312.74
   1  -1  -9 9102.32  476.92
   1  -1  -9 8543.20  318.66
   1  -1  -9 9298.63  460.79
   1   1 -10   45.62   32.74
  -1   1  10  -37.20   22.99
  -1  -1  10   13.77   28.44
  -1   1  10   27.50   20.13
   1   1 -10   33.89   29.83
   1   1 -10   21.61   14.18
  -1   1  10   19.50   11.58
  -1  -1  10   35.66   26.89
  -1  -1  10   31.46   17.49
   1  -1 -10   63.60   31.53
   1  -1 -10   19.74   12.83
   1  -1 -10   12.91   26.72
   1   1 -1110893.14  525.23
  -1   1  1110828.03  460.18
   1   1 -1110745.63  468.93
  -1  -1  1110880.76  468.98
  -1  -1  11 9832.09  383.51
  -1  -1  1111885.54  583.44
   1  -1 -1111284.83  506.35
   1  -1 -1110427.15  393.12
   1   1 -1111037.99  439.44
  -1   1  1111202.56  472.10
  -1   1  11 9495.32  376.98
   1  -1 -1110385.90  544.10
   1   1 -12  135.66   25.28
   1   1 -12  200.41   49.34
  -1  -1  12  121.22   34.92
  -1  -1  12  162.75   39.25
   1  -1 -12  157.24   45.77
   1  -1 -12  171.07   36.96
   1   1 -12  207.31   43.92
  -1   1  12  101.51   27.62
  -1   1  12  134.95   37.81
  -1   1  12  107.18   17.06
  -1  -1  12  129.14   21.86
   1  -1 -12  101.38   19.62
   1   1 -1311363.16  511.02
  -1   1  13 9566.46  410.37
  -1   1  1311595.83  557.88
   1  -1 -1311573.52  594.68
   1   1 -1311631.55  606.19
   1   1 -1311855.65  534.45
  -1   1  1311365.04  458.82
  -1  -1  1311564.66  536.50
  -1  -1  1312754.63  524.08
   1  -1 -1310937.57  442.08
   1  -1 -1311708.11  507.63
   1   1 -14 3516.65  229.61
   1   1 -14 3188.79  207.94
   1   1 -14 3210.02  228.41
  -1   1  14 3260.41  180.34
  -1   1  14 3477.62  239.18
  -1   1  14 2641.92  144.33
  -1  -1  14 3510.61  185.18
  -1  -1  14 3441.45  212.36
   1  -1 -14 3135.46  159.52
   1  -1 -14 3366.47  208.07
   1  -1 -14 3396.15  222.04
   1   1 -15 2667.59  205.98
   1   1 -15 2651.62  156.60
   1   1 -15 2688.97  151.39
  -1   1  15 2785.52  165.24
  -1   1  15 2880.79  188.32
  -1  -1  15 2853.37  167.98
  -1  -1  15 2927.52  198.18
   1  -1 -15 2887.31  201.01
   1  -1 -15 2603.68  151.01
   1  -1 -15 2706.97  171.97
   1   1 -16  199.83   62.57
   1   1 -16  204.09   35.86
   1   1 -16  178.29   53.95
  -1   1  16  231.99   49.20
  -1   1  16  258.33   63.76
  -1  -1  16  140.79   41.39
  -1  -1  16  247.53   49.58
   1  -1 -16  268.29   57.11
   1  -1 -16  114.85   31.87
   1  -1 -16  196.89   52.68
   1   1 -17 7883.28  474.96
   1   1 -17 7342.50  390.41
   1   1 -17 8409.49  509.05
  -1   1  17 8472.90  428.12
  -1   1  17 9110.03  510.31
  -1  -1  17 7970.44  453.55
  -1  -1  17 8745.31  485.14
   1  -1 -17 8325.41  507.73
   1  -1 -17 7331.52  355.82
   1  -1 -17 8330.82  411.54
   1   1 -18  138.51   58.81
   1   1 -18   83.50   28.61
   1   1 -18   31.46   53.51
  -1   1  18  106.53   43.85
  -1   1  18   29.30   62.88
  -1  -1  18  121.34   52.95
  -1  -1  18   55.45   46.10
   1  -1 -18   93.74   64.17
   1  -1 -18   98.40   55.13
   1   1 -19  307.01   69.18
  -1   1  19  202.51   52.49
  -1  -1  19  272.35   58.89
   1  -1 -19  265.49   61.26
  -1   1  19  273.55   74.23
   1   1 -19  166.49   51.00
  -1  -1  19  277.52   63.02
   1  -1 -19  299.20   78.68
   1   1 -20   67.45   63.44
   1   1 -20   53.05   56.90
  -1   1  20   61.47   31.26
  -1  -1  20   72.50   39.51
  -1   1  20   30.18   60.74
   1  -1 -20  107.74   57.62
  -1  -1  20  104.89   54.85
   1  -1 -20   37.10   53.60
   1   1 -21 3304.75  267.91
  -1   1  21 2924.14  241.91
  -1   1  21 3402.65  278.03
   1   1 -21 3183.27  254.38
   1  -1 -21 3693.06  306.24
  -1  -1  21 3078.42  223.51
  -1  -1  21 3554.98  285.30
   1  -1 -21 3097.57  236.44
   1   1 -22   57.85   60.20
   1   1 -22   98.17   55.38
  -1   1  22   73.91   37.94
  -1   1  22  192.21   72.15
  -1  -1  22  124.10   49.92
  -1  -1  22  164.46   66.57
   1  -1 -22   95.98   68.30
   1  -1 -22   86.17   61.66
   1   1 -23  -13.42   58.33
   1   1 -23    0.19   53.34
  -1   1  23   44.37   60.11
  -1  -1  23    2.32   41.65
  -1  -1  23   -4.86   65.19
   1  -1 -23  -10.11   67.75
   1  -1 -23    9.90   59.91
   1   2  -110126.20  415.52
   1   2  -111826.58  482.81
   1   2  -1 9898.33  413.96
   1  -2  -110028.72  436.93
   1  -2  -111128.40  494.17
  -1  -2   1 9364.46  386.47
  -1   2   110160.95  445.71
  -1   2   111410.99  438.81
  -1   2   110213.64  401.04
  -1  -2   1 9411.98  402.56
  -1  -2   111569.64  507.72
  -1   2   110573.23  397.34
   1   2  -1 9740.02  353.57
   1  -2  -111111.67  415.41
  -1  -2   1 9569.78  406.57
   1   2  -1 9908.95  360.11
   1   2  -1 9855.17  372.67
   1  -2  -110150.33  392.36
   1  -2  -111666.01  489.98
  -1   2   110136.26  415.74
   1   2  -2 9692.53  355.34
   1   2  -2 9654.46  405.37
   1   2  -210256.54  421.92
  -1   2   211707.14  423.19
  -1   2   210322.92  437.16
  -1   2   211497.98  420.71
  -1   2   211331.92  465.04
  -1  -2   211792.04  453.40
  -1  -2   210093.25  363.59
   1  -2  -210627.67  483.40
   1  -2  -210386.27  431.96
   1  -2  -211618.22  407.26
  -1  -2   2 9644.77  450.78
  -1  -2   210694.86  455.04
   1  -2  -210124.49  478.66
   1  -2  -211495.62  457.57
   1   2  -210096.84  467.37
   1   2  -211215.22  508.85
   1   2  -3 1507.21  107.67
   1   2  -3 1665.64  104.23
   1   2  -3 1292.16   61.51
   1   2  -3 1482.87   68.18
   1   2  -3 1827.59  105.81
   1   2  -3 1438.57   91.67
  -1   2   3 1673.88  107.73
  -1   2   3 1508.81   98.94
  -1   2   3 1588.88   74.86
  -1   2   3 1689.84   99.57
  -1  -2   3 1632.84   96.13
  -1  -2   3 1439.01   63.54
  -1  -2   3 1418.06   81.86
   1  -2  -3 1758.05   93.56
   1  -2  -3 1627.60  111.16
   1  -2  -3 1772.35  129.83
   1  -2  -3 1657.66   87.37
   1  -2  -3 1641.73   68.64
   1  -2  -3 1535.35  104.84
   1  -2  -410224.39  485.45
   1   2  -4 9052.77  429.35
   1  -2  -4 9064.59  318.03
   1   2  -4 8208.88  306.77
   1  -2  -4 8681.71  390.13
   1   2  -4 9275.22  454.67
   1   2  -4 7984.14  338.39
  -1   2   4 9130.83  398.85
   1   2  -4 9179.73  448.03
  -1   2   4 8108.11  341.12
  -1   2   4 9760.45  449.95
  -1  -2   4 7899.36  312.06
   1   2  -4 9566.14  479.61
   1   2  -4 9450.06  396.48
  -1   2   4 9077.21  310.55
  -1  -2   4 9237.14  401.23
  -1  -2   4 7973.64  343.33
   1  -2  -4 9739.70  412.59
   1  -2  -4 8631.92  420.78
   1  -2  -4 9684.04  432.89
   1   2  -5 2022.12  132.18
  -1   2   5 2049.92   76.22
  -1   2   5 2060.57  110.15
  -1   2   5 2302.99  141.49
  -1   2   5 1982.28  126.86
   1   2  -5 1879.12  101.62
   1   2  -5 1990.42  102.76
   1   2  -5 1916.92  124.86
   1  -2  -5 2081.32  148.91
   1  -2  -5 2042.58  141.77
  -1  -2   5 2017.94   88.37
  -1  -2   5 2215.31  154.01
  -1   2   5 2095.29  130.15
  -1  -2   5 1926.81  103.60
   1  -2  -5 2197.23  131.86
  -1  -2   5 1954.35  113.01
   1   2  -5 2249.45  142.12
   1   2  -5 2224.03  135.69
  -1   2   5 2082.15   77.71
   1  -2  -5 2206.04  138.40
   1  -2  -643396.86 1699.25
  -1  -2   646432.79 1730.83
   1   2  -646085.98 1624.60
  -1  -2   638474.10 1847.84
   1  -2  -642654.29 1596.44
  -1   2   646909.64 1709.45
  -1   2   644017.55 1492.38
   1   2  -646259.71 1856.04
  -1  -2   638193.28 1439.47
  -1   2   643106.09 1514.54
  -1  -2   639491.20 1529.74
   1  -2  -643432.95 1750.38
   1  -2  -643808.69 1516.58
  -1  -2   639132.32 1436.31
  -1   2   640438.43 1358.85
   1   2  -641510.57 1636.60
  -1   2   643081.32 1545.18
  -1   2   644281.14 1374.95
   1   2  -639298.18 1486.13
   1   2  -640450.77 1419.97
   1   2  -7  190.40   23.29
   1  -2  -7  273.28   35.32
   1   2  -7  217.17   28.54
  -1   2   7  244.34   34.51
   1  -2  -7  274.02   41.03
   1  -2  -7  232.26   33.24
  -1  -2   7  202.97   24.43
   1   2  -7  284.72   40.97
   1   2  -7  240.44   30.04
  -1   2   7  183.78   27.66
  -1   2   7  180.71   36.90
  -1   2   7  206.47   17.20
  -1   2   7  218.83   13.83
  -1   2   7  217.16   26.26
  -1  -2   7  207.66   32.03
  -1  -2   7  242.14   28.84
  -1  -2   7  160.17   18.76
   1  -2  -7  162.84   25.60
  -1  -2   8 3835.28  181.21
  -1  -2   8 4031.87  242.82
   1  -2  -8 3690.69  164.87
   1   2  -8 3750.42  229.62
   1   2  -8 3449.38  232.21
   1   2  -8 3755.66  177.68
   1   2  -8 4355.19  240.80
  -1   2   8 3963.51  217.05
  -1   2   8 3920.26  226.65
  -1   2   8 3747.45  159.33
  -1   2   8 3696.05  155.67
  -1  -2   8 3571.34  168.07
  -1  -2   8 3207.86  254.96
   1  -2  -8 3919.35  233.31
   1  -2  -8 4108.56  223.51
   1   2  -9   31.95   29.99
   1   2  -9   47.83   14.89
   1   2  -9   52.93   16.45
   1   2  -9   73.45   32.05
  -1   2   9   52.96   25.58
  -1   2   9   81.93   27.92
  -1   2   9   63.09   13.81
  -1   2   9   54.24   10.68
  -1  -2   9   80.25   24.26
  -1  -2   9   83.45   25.19
  -1  -2   9   66.51   21.02
   1  -2  -9   85.41   28.58
   1  -2  -9   32.30   32.65
  -1   2  1028272.62 1050.91
   1   2 -1029809.04 1340.53
   1   2 -1028021.11 1058.28
  -1  -2  1030468.89 1246.63
  -1   2  1026951.36  965.79
  -1   2  1027548.64 1203.57
   1   2 -1026480.40 1031.70
   1   2 -1031353.45 1125.44
  -1   2  1029224.77 1146.26
  -1  -2  1030836.57 1201.37
  -1  -2  1027608.18  956.99
   1  -2 -1029821.29 1235.19
   1  -2 -1031433.20 1233.62
   1  -2 -11  134.80   35.37
   1   2 -11  106.91   35.68
   1   2 -11   85.67   24.02
   1   2 -11  113.78   35.75
  -1   2  11  110.59   27.12
  -1   2  11  144.42   37.81
  -1  -2  11  143.78   40.78
  -1  -2  11  176.24   33.12
  -1  -2  11  109.92   24.58
   1  -2 -11   99.38   41.27
   1   2 -12  168.12   46.01
  -1   2  12  143.42   29.78
  -1   2  12  124.22   37.62
  -1   2  12  106.80   16.14
  -1  -2  12  144.98   31.22
   1   2 -12  148.42   28.28
   1  -2 -12  182.92   39.24
   1  -2 -12  133.49   22.62
  -1  -2  12   83.49   20.93
   1   2 -12  150.42   44.12
  -1  -2  12  233.45   39.90
   1  -2 -12  126.40   45.57
   1   2 -13  206.82   48.70
  -1  -2  13  247.50   42.45
   1  -2 -13  156.08   41.82
   1  -2 -13  193.96   46.75
  -1  -2  13  189.02   33.15
  -1   2  13  228.16   44.29
   1   2 -13  242.22   47.82
   1   2 -13  211.79   35.38
  -1   2  13  107.59   19.29
   1  -2 -13  193.75   25.49
  -1   2  13  155.30   36.60
  -1   2  14 7269.86  375.32
  -1  -2  14 6476.65  339.89
  -1  -2  14 6772.90  336.76
   1   2 -14 6424.01  409.63
   1  -2 -14 6779.04  307.65
   1  -2 -14 6454.68  277.16
   1   2 -14 6576.32  289.04
   1   2 -14 6250.40  341.13
  -1   2  14 6408.25  332.73
   1  -2 -14 6880.92  398.93
  -1   2  15  178.01   32.52
   1  -2 -15  186.30   56.35
   1   2 -15  112.79   56.51
   1   2 -15  229.10   50.76
   1  -2 -15  141.90   27.75
  -1   2  15  142.43   46.23
  -1  -2  15  162.78   38.49
   1   2 -15  173.12   38.40
  -1  -2  15  178.07   42.49
   1  -2 -15  159.39   49.91
   1   2 -16 1251.28  120.58
  -1  -2  16 1291.61  109.26
   1  -2 -16 1265.10   76.58
   1   2 -16 1233.84  107.30
   1   2 -16 1324.39  121.07
  -1   2  16 1513.13  127.91
   1  -2 -16 1188.42   99.79
   1  -2 -16 1283.32  125.96
  -1  -2  16 1255.34  113.73
  -1   2  16 1281.97   97.56
   1  -2 -17   95.76   31.18
   1  -2 -17   41.77   50.48
   1   2 -17   80.37   59.87
  -1   2  17   60.63   36.71
  -1   2  17  101.04   54.50
   1   2 -17  106.24   52.65
   1   2 -17   86.68   33.72
  -1  -2  17  113.13   45.69
  -1  -2  17  114.32   45.56
   1  -2 -17   20.71   56.22
   1   2 -18 6382.08  428.55
   1   2 -18 5165.17  314.73
   1   2 -18 6435.73  335.70
  -1   2  18 5750.59  351.38
  -1   2  18 6566.23  401.47
  -1  -2  18 6057.13  288.97
  -1  -2  18 6062.47  403.12
   1  -2 -18 6687.28  457.54
   1  -2 -18 5572.56  292.30
   1   2 -19  274.81   73.66
   1   2 -19  143.96   42.81
   1   2 -19  252.22   65.90
  -1   2  19  205.37   45.37
  -1   2  19   99.09   58.91
  -1  -2  19  187.09   57.10
  -1  -2  19  164.42   55.01
   1  -2 -19  213.42   67.29
   1  -2 -19  186.49   60.77
   1   2 -20  924.95  122.68
   1   2 -20  871.23   96.93
  -1   2  20  776.89   72.26
  -1   2  20  881.26  141.15
  -1  -2  20 1004.49  107.60
  -1  -2  20 1032.24  118.16
   1  -2 -20 1043.01  125.72
   1  -2 -20 1010.92  109.39
   1  -2 -21   26.07   49.05
   1  -2 -21   35.62   54.42
   1   2 -21    5.28   58.63
   1   2 -21   35.60   53.59
  -1   2  21   16.46   38.57
  -1   2  21   14.38   61.22
  -1  -2  21   30.74   36.78
  -1  -2  21   -9.58   52.82
   1   2 -22  539.17  110.14
   1  -2 -22  582.93   83.92
   1   2 -22  556.55   90.42
  -1   2  22  361.59   88.61
  -1  -2  22  504.18   70.93
  -1  -2  22  467.22   80.11
   1  -2 -22  539.69   91.13
   1   2 -23  112.42   74.95
  -1   2  23   39.25   61.34
  -1  -2  23  -15.15   50.71
   1  -2 -23    7.95   60.14
   1   2 -23   39.02   64.72
  -1  -2  23   69.88   43.97
   1  -2 -23  128.85   72.89
   1   3  -111978.73  526.83
   1   3  -112253.95  543.20
   1   3  -111302.75  410.96
   1   3  -111415.18  396.55
   1   3  -110544.01  502.04
   1   3  -111824.16  462.44
  -1   3   113316.99  503.62
  -1   3   111539.65  486.96
  -1   3   113007.20  511.46
  -1   3   113354.39  491.55
  -1   3   112177.18  454.78
  -1  -3   111742.15  496.94
  -1  -3   112910.04  496.57
  -1  -3   110860.94  447.24
  -1  -3   110379.25  450.98
   1  -3  -112101.93  442.52
   1  -3  -111154.44  472.83
   1  -3  -111990.66  488.90
   1  -3  -112492.66  537.08
   1  -3  -110930.62  482.77
   1   3  -2   42.71   17.85
   1   3  -2   41.14   15.11
   1   3  -2   19.25   19.93
   1   3  -2   62.48   16.65
  -1   3   2   64.62   13.48
  -1   3   2   53.13   14.02
  -1   3   2   57.21   19.78
  -1   3   2   80.91   17.25
  -1   3   2   68.71   18.39
  -1  -3   2   56.39   16.89
  -1  -3   2   61.96   16.96
  -1  -3   2   62.25   14.87
   1  -3  -2   65.97   14.29
   1  -3  -2   43.18   19.90
   1  -3  -2   41.72   17.55
   1  -3  -2   50.23   16.16
   1  -3  -2   54.57   21.50
   1   3  -350465.71 1896.59
   1   3  -350949.81 2024.45
   1   3  -343552.71 1641.26
   1   3  -348003.85 1794.00
  -1   3   352712.95 1826.23
  -1   3   347837.48 1720.06
  -1   3   345639.69 1804.21
  -1   3   348874.15 1701.49
  -1   3   352193.10 1736.47
  -1  -3   347575.44 1889.43
  -1  -3   349020.29 1751.61
  -1  -3   342820.47 1579.35
  -1  -3   350695.30 1770.30
   1  -3  -349903.02 1720.43
   1  -3  -355077.90 1931.44
   1  -3  -352253.63 1756.16
   1  -3  -348026.39 1671.93
   1  -3  -346084.72 1829.19
   1   3  -4  214.56   31.50
   1   3  -4  135.26   22.36
   1   3  -4  170.05   26.40
   1   3  -4  167.19   12.91
   1   3  -4  151.06   25.78
   1   3  -4  187.38   28.33
   1   3  -4  169.37   25.72
  -1   3   4  160.20   23.19
  -1   3   4  185.55   25.58
  -1   3   4  204.46   18.76
  -1   3   4  217.41   26.66
  -1  -3   4  166.48   26.18
  -1  -3   4  171.06   10.49
  -1  -3   4  146.97   23.33
   1  -3  -4  216.77   26.10
   1  -3  -4  215.02   27.91
   1  -3  -4  208.59   22.72
   1  -3  -4  171.47   28.06
   1  -3  -4  197.79   22.04
   1  -3  -4  198.37   28.76
   1   3  -5 1836.83  129.86
   1   3  -5 1662.64  116.26
   1   3  -5 1711.83   80.41
   1   3  -5 1658.08   82.50
   1   3  -5 2003.32  131.93
   1   3  -5 1790.75  103.88
  -1   3   5 1598.66  145.52
  -1   3   5 1698.67  100.36
  -1   3   5 1847.62   90.18
  -1   3   5 1864.94  116.83
  -1  -3   5 2065.76  126.16
  -1  -3   5 1562.87   70.88
  -1  -3   5 1498.41  100.60
   1  -3  -5 1728.66  105.23
   1  -3  -5 1809.47  138.13
   1  -3  -5 1908.87  106.08
   1  -3  -5 1789.37  130.96
   1   3  -5 1888.26  134.78
   1  -3  -5 1882.52  136.46
   1  -3  -5 1833.97  121.84
   1   3  -6 2219.43  150.51
   1   3  -6 1930.08  159.26
   1   3  -6 1970.24   97.03
   1   3  -6 2157.31  115.50
   1   3  -6 1774.57  151.16
  -1   3   6 1963.07  122.25
  -1   3   6 1965.62  127.73
  -1   3   6 1954.46   99.26
  -1   3   6 2061.95   97.94
  -1   3   6 2008.60  134.74
  -1  -3   6 2219.97  132.69
  -1  -3   6 1922.37   95.75
  -1  -3   6 1800.26  112.64
   1  -3  -6 2173.08  144.85
   1  -3  -6 2086.98  114.61
   1  -3  -6 2181.27  107.18
   1  -3  -6 2005.33  131.00
   1   3  -6 1976.82  108.58
   1   3  -729885.00 1203.38
   1   3  -725300.28  987.02
   1   3  -726076.83  954.01
   1   3  -728301.16  983.50
   1   3  -725780.63 1197.82
  -1   3   727516.71 1062.68
  -1   3   725679.11  938.37
  -1   3   728271.41  932.01
  -1  -3   730028.54 1175.55
  -1  -3   724009.07  976.89
  -1  -3   723668.30  991.20
   1  -3  -728987.31 1248.37
   1  -3  -727792.88 1120.90
   1  -3  -727872.51  963.31
   1  -3  -727442.81 1229.40
   1   3  -8  510.83   57.34
   1   3  -8  451.36   32.42
   1   3  -8  554.23   46.40
   1   3  -8  500.93   56.77
  -1   3   8  522.33   54.89
  -1   3   8  555.64   39.62
  -1   3   8  527.68   34.50
  -1  -3   8  516.27   58.88
  -1  -3   8  548.25   48.64
  -1  -3   8  462.71   38.90
   1  -3  -8  524.90   57.23
   1  -3  -8  493.07   44.77
   1   3  -9 4935.91  329.33
   1   3  -9 4460.01  227.59
   1   3  -9 5193.89  264.98
   1   3  -9 5139.61  249.28
  -1   3   9 5036.99  277.62
  -1   3   9 4870.16  239.22
  -1   3   9 4751.31  206.48
  -1  -3   9 5208.49  296.25
  -1  -3   9 5184.37  248.16
  -1  -3   9 4602.71  234.58
   1  -3  -9 5169.04  295.77
   1  -3  -9 4895.91  272.73
   1  -3  -9 5075.59  296.90
  -1   3  10  263.85   41.93
  -1   3  10  206.73   22.26
   1   3 -10  220.09   45.87
  -1  -3  10  221.42   34.82
   1   3 -10  193.22   28.10
   1   3 -10  206.07   32.71
   1   3 -10  257.81   40.66
  -1   3  10  282.90   35.40
   1  -3 -10  194.43   38.27
   1  -3 -10  163.21   43.64
  -1  -3  10  300.22   44.49
  -1   3  10  217.25   30.12
   1  -3 -1113034.55  664.98
   1   3 -1113280.09  546.57
  -1  -3  1112748.14  535.26
  -1   3  1111086.41  470.90
  -1  -3  1113544.05  604.90
  -1   3  1112554.74  514.74
   1   3 -1112681.49  648.88
   1   3 -1112293.55  557.92
  -1   3  1112540.76  555.29
  -1   3  1112813.56  612.13
   1  -3 -1112422.76  617.65
  -1   3  12  240.75   30.04
   1   3 -12  320.43   43.28
  -1   3  12  309.69   47.98
   1   3 -12  243.47   44.15
   1   3 -12  180.10   40.21
  -1   3  12  191.43   19.68
  -1  -3  12  220.52   38.72
  -1  -3  12  275.85   33.74
   1  -3 -12  290.45   57.59
   1  -3 -12  158.04   43.70
  -1   3  12  228.30   32.10
   1  -3 -13 8884.84  433.24
   1   3 -13 9502.80  529.05
   1   3 -13 8780.92  443.45
   1   3 -13 9450.39  424.34
  -1   3  13 8590.09  396.33
  -1   3  13 9684.71  518.27
  -1   3  13 8827.82  371.35
  -1  -3  13 9236.91  472.86
  -1  -3  13 9510.97  408.18
   1  -3 -13 9657.77  523.78
  -1   3  14   -5.01   44.67
  -1  -3  14  -24.15   45.71
  -1  -3  14    7.64   45.00
  -1   3  14    4.53   44.46
   1   3 -14  -40.32   44.67
   1   3 -14   29.45   45.24
   1   3 -14  -15.72   44.83
  -1   3  14    5.86   45.21
  -1   3  14    1.77   45.07
   1  -3 -14  -21.18   44.41
   1  -3 -14    7.43   44.67
   1   3 -15 1388.00  117.88
   1   3 -15 1280.11  114.90
   1   3 -15 1324.36  110.67
  -1   3  15 1170.57   80.40
  -1   3  15 1367.23  135.37
  -1   3  15 1203.02   85.48
  -1  -3  15 1345.11  104.41
  -1  -3  15 1179.07   97.80
   1  -3 -15 1327.15  142.02
   1  -3 -15 1265.71  111.72
  -1  -3  16  365.21   52.58
   1   3 -16  334.33   68.36
   1   3 -16  438.29   60.42
   1   3 -16  375.50   59.76
  -1   3  16  394.93   58.49
  -1   3  16  377.35   79.43
  -1  -3  16  368.76   61.08
   1  -3 -16  346.45   74.15
   1  -3 -16  332.57   69.69
  -1   3  16  387.30   38.57
   1   3 -17 6536.45  404.81
   1   3 -17 5275.72  314.42
   1   3 -17 5950.02  293.70
  -1   3  17 5973.20  343.28
  -1   3  17 6354.08  416.68
  -1   3  17 5298.27  284.12
  -1  -3  17 6162.94  343.25
  -1  -3  17 6033.84  386.21
   1  -3 -17 6578.87  421.88
   1  -3 -17 6165.17  342.01
   1   3 -18  308.10   74.29
   1   3 -18  242.38   43.35
   1   3 -18  410.30   74.57
  -1   3  18  282.01   46.60
  -1   3  18  358.37   75.00
  -1  -3  18  303.11   58.14
  -1  -3  18  330.03   55.31
   1  -3 -18  317.24   72.82
   1  -3 -18  320.25   63.32
   1   3 -19   31.38   63.06
   1   3 -19   22.13   31.03
   1   3 -19   27.93   49.03
  -1   3  19   11.79   53.17
  -1  -3  19   -5.68   42.67
  -1  -3  19  105.35   52.36
   1  -3 -19    4.56   53.67
   1  -3 -19  -43.62   50.13
   1   3 -20   62.83   58.55
   1   3 -20  229.37   71.29
  -1   3  20  103.36   63.94
  -1  -3  20  122.10   52.66
  -1  -3  20   67.34   52.89
   1  -3 -20  158.28   65.45
   1  -3 -20  104.94   59.51
   1   3 -21 2715.16  237.23
   1   3 -21 3167.35  276.99
  -1   3  21 3139.15  290.89
  -1  -3  21 2482.99  217.03
  -1  -3  21 2550.41  206.60
   1  -3 -21 2857.84  254.40
   1  -3 -21 2407.79  193.03
   1  -3 -21 2725.22  220.04
   1   3 -22   56.00   71.88
  -1   3  22  194.02   70.55
  -1  -3  22  148.18   51.23
  -1  -3  22  207.25   55.64
   1  -3 -22  117.07   68.31
   1  -3 -22  153.48   70.90
   1   3 -23   62.36   49.91
   1   3 -23   64.41   56.15
  -1   3  23  159.51   78.60
  -1  -3  23  115.32   45.76
  -1  -3  23   13.09   57.06
   1  -3 -23  108.43   63.08
   1   4  -1 6499.53  330.31
   1   4  -1 6774.55  382.00
   1   4  -1 5819.57  226.21
   1   4  -1 6628.84  331.40
  -1   4   1 7660.53  356.35
  -1   4   1 7796.84  372.54
  -1   4   1 6670.17  282.08
  -1   4   1 7138.95  313.07
  -1   4   1 7828.00  335.95
  -1  -4   1 7212.53  256.70
  -1  -4   1 5753.82  307.22
   1  -4  -1 7011.90  336.34
   1  -4  -1 7231.09  339.85
   1  -4  -1 7390.44  362.35
   1  -4  -1 6616.69  323.92
  -1  -4   1 6694.50  334.30
   1   4  -1 6354.58  287.98
  -1  -4   1 7649.79  344.28
  -1  -4   1 6033.77  269.87
   1  -4  -1 6780.85  274.88
   1   4  -221956.96  892.55
   1   4  -220987.91  824.88
   1   4  -220071.60  888.74
   1   4  -220167.99  886.80
  -1   4   225010.30  816.40
  -1   4   223981.76  928.06
  -1   4   221716.20  923.50
  -1   4   224921.17  894.64
  -1  -4   224132.57  992.41
  -1  -4   223915.79  957.52
  -1  -4   220552.09  848.57
   1  -4  -224395.23  921.39
   1  -4  -224795.25 1008.18
   1  -4  -224209.44  768.09
   1  -4  -225074.11  941.06
   1  -4  -222038.83  920.90
  -1   4   223250.84  827.35
  -1  -4   220104.81  781.16
   1   4  -3  232.92   34.86
   1   4  -3  164.49   26.98
   1   4  -3  258.65   34.08
   1   4  -3  263.08   35.62
  -1   4   3  258.41   25.74
  -1   4   3  259.03   29.16
  -1   4   3  237.30   31.36
  -1   4   3  267.74   29.68
  -1   4   3  304.12   28.57
  -1  -4   3  321.90   44.41
  -1  -4   3  256.68   32.30
  -1  -4   3  211.88   23.15
  -1  -4   3  257.19   34.70
   1  -4  -3  285.14   32.76
   1  -4  -3  294.78   34.20
   1  -4  -3  239.64   33.14
   1  -4  -3  265.15   25.71
   1  -4  -3  328.71   44.82
   1   4  -417451.67  819.14
   1   4  -417367.03  805.67
   1   4  -417104.40  687.51
   1   4  -416602.41  740.70
  -1   4   419420.21  753.18
  -1   4   420425.86  773.31
  -1   4   419158.11  840.32
  -1   4   418743.40  690.21
  -1   4   419366.69  747.87
  -1  -4   420239.92  864.39
  -1  -4   419055.87  810.95
  -1  -4   417528.83  721.25
   1  -4  -420258.34  876.48
   1  -4  -419359.69  787.45
   1  -4  -418973.05  756.84
   1  -4  -418760.44  830.20
   1   4  -5 6270.29  327.21
   1   4  -5 5713.90  319.13
   1   4  -5 7103.48  344.55
   1   4  -5 5605.20  309.39
  -1   4   5 5898.41  285.09
  -1   4   5 5936.52  278.87
  -1   4   5 6266.25  275.48
  -1  -4   5 6248.83  338.02
  -1  -4   5 5361.57  192.45
  -1  -4   5 5135.51  196.70
  -1  -4   5 5361.53  278.11
   1  -4  -5 6624.41  345.28
   1  -4  -5 6679.01  360.02
   1  -4  -5 6852.89  296.70
   1  -4  -5 6491.30  300.54
   1  -4  -5 6436.62  347.42
   1   4  -619892.62  818.86
   1   4  -618672.79  771.39
   1   4  -619654.15  849.33
   1   4  -617051.00  793.43
  -1   4   617968.17  756.51
  -1   4   619552.03  728.55
  -1  -4   620097.26  853.75
  -1  -4   617781.87  645.96
  -1  -4   616976.37  706.81
   1  -4  -619475.90  818.32
   1  -4  -620156.72  760.00
   1  -4  -620096.66  780.11
   1  -4  -620355.67  903.83
   1   4  -7 2834.97  182.09
   1   4  -7 2400.16  137.12
   1   4  -7 2615.27  156.66
   1   4  -7 2795.40  188.52
  -1   4   7 2738.15  166.07
  -1   4   7 2705.92  140.25
  -1   4   7 2825.52  133.78
  -1  -4   7 2940.08  168.83
  -1  -4   7 2534.16  123.78
   1  -4  -7 2688.00  161.94
   1  -4  -7 2787.95  168.14
   1  -4  -7 2780.06  191.03
   1   4  -8 2168.79  161.84
   1   4  -8 1661.27   89.79
   1   4  -8 1939.22  112.74
   1   4  -8 2257.81  128.01
  -1   4   8 2076.55  128.83
  -1   4   8 2126.15  111.47
  -1   4   8 1967.44  114.02
  -1  -4   8 2227.83  154.16
  -1  -4   8 2172.73  113.91
   1  -4  -8 1980.70  149.27
   1  -4  -8 2097.02  136.96
   1  -4  -8 2168.99  137.89
   1   4  -9 1969.99  153.57
   1   4  -9 1595.91  102.39
   1   4  -9 1841.16  116.01
   1   4  -9 2024.09  107.43
  -1   4   9 1958.43  126.99
  -1   4   9 1914.62  111.80
  -1   4   9 1838.70   99.07
  -1  -4   9 2187.56  189.00
  -1  -4   9 1958.04  115.56
   1  -4  -9 1766.94  153.94
   1  -4  -9 1819.89  139.88
   1  -4  -9 2030.87  131.62
   1   4 -1013915.04  675.86
   1   4 -1014220.93  640.68
   1   4 -1013781.95  573.90
  -1   4  1015030.40  711.43
  -1   4  1013288.09  548.15
  -1   4  1011871.16  518.27
  -1  -4  1014771.54  667.09
  -1  -4  1014035.02  581.43
   1  -4 -1013844.73  667.79
   1  -4 -1012682.66  653.06
   1  -4 -1014148.39  581.82
  -1  -4  11 1381.90  115.61
   1   4 -11 1314.24  114.90
   1   4 -11  898.52   72.81
   1   4 -11 1235.14   94.04
   1   4 -11 1429.76  103.18
  -1   4  11 1396.07  106.65
  -1   4  11 1212.96   81.27
  -1   4  11 1057.07   67.04
  -1  -4  11 1374.80   86.59
   1  -4 -11 1337.25  123.23
   1  -4 -11 1252.57   85.54
   1  -4 -11 1326.58  106.09
   1   4 -12    6.53   43.36
   1   4 -12   35.19   41.91
   1   4 -12   62.57   27.16
  -1   4  12   54.66   41.35
  -1   4  12   46.15   20.54
  -1   4  12   52.99   13.91
  -1  -4  12   30.85   41.97
  -1  -4  12   70.63   30.46
   1  -4 -12    2.75   35.04
   1  -4 -12   40.45   28.08
   1  -4 -12   43.32   35.13
   1   4 -13  834.99  101.32
   1   4 -13  779.73   74.62
   1   4 -13  838.77   70.83
  -1   4  13  841.89   83.65
  -1   4  13  769.79   64.25
  -1   4  13  576.96   55.12
  -1  -4  13  883.53   92.91
  -1  -4  13  798.56   60.32
   1  -4 -13  881.77   95.68
   1  -4 -13  735.23   74.23
   1  -4 -13  782.64   71.54
  -1   4  1411390.99  503.08
  -1  -4  1412430.96  559.25
   1   4 -1411891.40  643.40
   1   4 -1411276.50  582.11
   1   4 -1411748.62  485.49
  -1   4  1412461.30  652.07
  -1  -4  1412137.01  550.93
   1  -4 -1411868.32  678.62
   1  -4 -1411119.82  563.82
   1  -4 -1411428.49  590.74
   1   4 -15 1380.79  138.76
   1   4 -15 1165.41  107.59
   1   4 -15 1257.37  105.17
  -1   4  15 1212.08  123.71
  -1   4  15 1135.94   87.56
  -1  -4  15 1203.23  109.82
  -1  -4  15 1143.49   94.44
   1  -4 -15 1306.68  131.61
   1  -4 -15 1138.50   92.05
   1  -4 -15 1108.68   98.23
   1   4 -16 2467.60  201.70
   1   4 -16 2371.09  191.33
   1   4 -16 2467.62  152.83
  -1   4  16 2650.85  218.89
  -1   4  16 2323.29  133.99
  -1  -4  16 2600.36  205.25
  -1  -4  16 2349.65  184.21
   1  -4 -16 2445.52  209.38
   1  -4 -16 2285.53  156.07
   1  -4 -16 2610.20  172.28
   1  -4 -17   25.69   44.91
  -1  -4  17   31.96   44.33
   1   4 -17  -11.97   50.94
   1   4 -17   44.36   38.44
   1   4 -17  -26.19   38.74
  -1   4  17    5.50   52.74
  -1  -4  17  -48.33   41.07
   1  -4 -17  -14.96   54.04
   1  -4 -17   -2.05   35.87
   1   4 -18 3226.56  271.54
   1   4 -18 2648.75  191.89
   1   4 -18 3390.48  240.76
  -1   4  18 3338.63  312.73
  -1  -4  18 3522.00  232.11
  -1  -4  18 3458.60  235.99
   1  -4 -18 3404.32  274.22
   1  -4 -18 2921.35  203.69
   1  -4 -18 3290.86  228.41
  -1  -4  19  -41.94   66.33
   1   4 -19   17.98   66.14
   1   4 -19  -21.68   66.72
   1   4 -19   13.27   65.61
  -1   4  19   28.90   65.40
  -1  -4  19   10.48   67.44
   1  -4 -19   24.84   65.38
   1  -4 -19  -44.28   67.65
   1  -4 -19  -10.21   66.20
   1   4 -20 1875.68  195.00
   1   4 -20 2087.06  168.18
  -1   4  20 2218.07  230.76
  -1  -4  20 1924.88  180.23
  -1  -4  20 1764.54  168.50
   1  -4 -20 2274.28  186.46
   1  -4 -20 1608.57  142.03
   1  -4 -20 2275.36  196.24
   1   4 -21    7.88   68.74
   1  -4 -21   -6.13   56.73
   1   4 -21   57.40   63.11
  -1  -4  21   26.41   51.09
   1  -4 -21   25.27   60.30
  -1   4  21  -37.52   56.70
   1   4 -22  568.31   95.80
   1   4 -22  628.29   99.96
  -1   4  22  663.95  114.11
  -1  -4  22  561.49   86.11
   1  -4 -22  595.82  119.28
   1  -4 -22  654.80  105.20
   1   5  -1 1753.09   98.62
   1   5  -1 1639.26   70.87
   1   5  -1 1696.42  118.25
   1   5  -1 1756.17  113.27
  -1   5   1 2146.70  127.59
  -1   5   1 2048.98  145.37
  -1   5   1 2177.64  121.80
  -1  -5   1 2127.06  139.74
  -1  -5   1 2062.07  104.81
  -1  -5   1 1998.30   84.80
  -1  -5   1 1683.62   93.43
   1  -5  -1 2011.16  100.76
   1  -5  -1 2192.88  144.10
   1  -5  -1 1958.30  153.48
   1  -5  -1 2066.49  131.82
   1  -5  -1 1880.97  138.43
   1   5  -2  659.77   61.58
   1   5  -2  801.89   67.54
   1   5  -2  673.91   68.92
  -1   5   2  775.04   66.66
  -1   5   2  915.45   67.09
  -1   5   2  855.10   68.46
  -1  -5   2  742.42   70.20
  -1  -5   2  887.58   66.25
  -1  -5   2  769.50   62.50
   1  -5  -2  877.50   66.69
   1  -5  -2  860.87   70.97
   1  -5  -2  844.63   61.90
   1  -5  -2  816.96   70.15
   1   5  -315700.97  744.35
   1   5  -318034.25  804.80
  -1   5   319230.65  690.18
  -1   5   317815.82  788.27
  -1   5   319720.72  768.59
  -1  -5   320919.29  894.82
  -1  -5   319581.81  732.19
  -1  -5   318097.06  781.22
   1  -5  -318368.94  806.57
   1  -5  -319805.56  945.44
   1  -5  -318662.17  764.27
   1  -5  -318147.30  826.70
   1   5  -4 3963.52  219.01
   1   5  -4 4073.18  247.08
  -1   5   4 4182.05  219.02
  -1   5   4 4274.72  232.74
  -1   5   4 4560.70  220.85
  -1  -5   4 4133.01  236.98
  -1  -5   4 4428.77  233.82
  -1  -5   4 4846.37  270.93
   1  -5  -4 4322.63  229.62
   1  -5  -4 4500.99  243.25
   1  -5  -4 4508.33  220.81
   1  -5  -4 4526.41  285.12
  -1   5   5 1429.90  113.17
  -1   5   5 1235.64  107.49
   1   5  -5 1200.65  108.48
   1   5  -5 1281.97  108.40
  -1   5   5 1492.51   88.70
  -1  -5   5 1320.01  112.38
  -1  -5   5 1368.85  101.47
   1  -5  -5 1438.04   86.38
   1  -5  -5 1354.57  115.59
   1  -5  -5 1433.89   83.04
   1  -5  -5 1463.13  101.75
   1  -5  -6  452.92   55.04
   1  -5  -6  404.44   36.80
   1   5  -6  412.52   59.42
   1   5  -6  385.16   47.64
   1   5  -6  399.28   58.45
  -1   5   6  333.15   48.42
  -1   5   6  379.67   38.61
  -1  -5   6  400.91   42.31
  -1  -5   6  342.59   18.03
  -1  -5   6  357.62   18.62
   1  -5  -6  416.19   46.50
   1  -5  -6  400.72   43.54
  -1  -5   722467.67  973.71
  -1  -5   720532.07  727.86
   1   5  -721586.05 1024.90
   1   5  -722477.24  936.82
   1   5  -721343.56  875.20
  -1   5   721182.16  959.51
  -1   5   721772.49  838.63
  -1  -5   718614.53  693.73
   1  -5  -721425.71  946.53
   1  -5  -721216.86  869.70
   1  -5  -721096.04  995.89
   1   5  -8 1593.88  112.98
  -1   5   8 1695.70   94.04
   1   5  -8 1795.25  127.40
  -1   5   8 1773.14  135.21
  -1  -5   8 1770.78   89.19
  -1  -5   8 1392.53   81.83
   1   5  -8 1721.82  134.16
  -1   5   8 1645.63   89.16
  -1  -5   8 1613.54  117.03
   1  -5  -8 1619.15  117.40
   1  -5  -8 1719.62  120.37
   1  -5  -8 1713.88  118.82
  -1  -5   9 6493.44  372.55
  -1   5   9 6237.79  274.80
  -1   5   9 5663.58  224.39
  -1   5   9 6367.20  367.06
   1  -5  -9 6280.60  357.84
   1  -5  -9 6878.37  348.75
   1  -5  -9 6397.43  363.52
   1   5  -9 6364.63  370.25
   1   5  -9 6203.07  299.82
   1   5  -9 6514.26  301.89
  -1  -5   9 6414.81  268.73
  -1  -5   9 5141.47  256.78
  -1   5  10   82.27   20.14
   1   5 -10   75.24   31.37
   1  -5 -10  103.38   34.53
   1   5 -10   39.76   15.71
   1   5 -10  -22.63   34.26
   1   5 -10   46.67   31.13
  -1   5  10   94.91   39.49
  -1   5  10   58.03   14.32
   1  -5 -10   24.27   32.72
   1  -5 -10   18.65   28.23
  -1  -5  10   74.43   27.23
  -1  -5  10   74.07   40.65
   1  -5 -11 9356.79  446.57
  -1   5  11 7797.07  376.44
   1   5 -11 9998.17  456.59
   1   5 -11 9487.90  515.32
   1   5 -11 8814.13  453.31
  -1   5  1110294.43  490.46
  -1   5  11 9292.78  411.26
  -1  -5  11 9998.78  555.74
  -1  -5  11 9815.54  405.90
   1  -5 -11 9650.70  531.47
   1  -5 -11 9339.08  445.60
   1   5 -12 1834.50  143.69
   1   5 -12 1653.39  128.60
   1   5 -12 1726.39  130.79
  -1   5  12 1989.22  164.80
  -1   5  12 1337.37   88.00
  -1  -5  12 1929.07  151.05
   1  -5 -12 1579.70  133.28
   1  -5 -12 1561.04  117.23
   1  -5 -12 1846.45  118.89
  -1  -5  12 1919.61  112.16
  -1   5  12 1638.03  107.05
   1   5 -13 4482.14  310.61
   1   5 -13 4327.74  306.90
   1   5 -13 4763.63  232.09
  -1   5  13 5347.38  309.41
  -1   5  13 4011.34  230.66
  -1  -5  13 5159.53  262.92
  -1  -5  13 4775.08  229.65
   1  -5 -13 4453.28  274.68
   1  -5 -13 4481.50  272.86
   1  -5 -13 5069.45  325.97
   1   5 -14   67.40   57.56
   1   5 -14   47.23   38.85
   1   5 -14  102.05   40.81
  -1   5  14    8.84   51.56
  -1   5  14   -3.65   25.68
  -1  -5  14   13.12   39.76
  -1  -5  14   72.76   29.40
   1  -5 -14   19.50   48.06
   1  -5 -14   40.92   31.08
   1  -5 -14  -33.08   43.75
   1   5 -15 4504.92  307.82
   1   5 -15 4232.12  290.78
   1   5 -15 4544.26  233.62
  -1   5  15 4834.27  324.47
  -1   5  15 3939.39  223.95
  -1  -5  15 4622.11  259.43
  -1  -5  15 4116.23  248.69
   1  -5 -15 4488.70  315.51
   1  -5 -15 3980.02  240.56
   1  -5 -15 4381.38  257.74
   1   5 -16  611.41  102.91
   1   5 -16  516.96   82.81
   1   5 -16  575.25   88.18
  -1   5  16  657.51   97.15
  -1  -5  16  547.67   69.75
  -1  -5  16  548.79   69.91
   1  -5 -16  589.77   89.85
   1  -5 -16  523.36   61.28
   1  -5 -16  624.77   87.83
   1   5 -17 4351.89  321.32
   1   5 -17 3764.14  259.14
   1   5 -17 4229.61  222.79
  -1   5  17 4095.10  352.83
  -1  -5  17 4397.52  266.19
  -1  -5  17 4255.65  250.74
   1  -5 -17 4142.24  271.17
   1  -5 -17 3819.86  243.69
   1  -5 -17 4108.59  316.08
   1   5 -18   62.24   66.99
   1   5 -18   29.31   38.64
   1   5 -18   17.57   49.41
  -1   5  18  -49.92   58.28
  -1  -5  18  -12.52   46.69
  -1  -5  18   23.93   45.01
   1  -5 -18   31.74   49.49
   1  -5 -18  -22.15   35.56
   1  -5 -18  -30.92   56.69
   1   5 -19  280.16   75.52
   1   5 -19  158.70   49.63
   1   5 -19  353.15   90.25
  -1   5  19  180.63   70.07
  -1  -5  19  170.98   63.95
  -1  -5  19  147.34   47.02
   1  -5 -19  165.55   63.37
   1  -5 -19  229.04   45.92
   1  -5 -19  211.75   64.24
   1   5 -20  264.98   77.80
   1   5 -20  254.19   48.31
   1   5 -20  259.21   88.10
  -1   5  20  316.03   88.03
  -1  -5  20  338.28   65.46
   1  -5 -20  248.10   77.27
   1  -5 -20  305.56   74.24
   1   5 -21 2294.49  206.19
   1   5 -21 2109.26  222.13
  -1   5  21 2388.12  254.23
  -1  -5  21 2304.74  212.34
   1  -5 -21 2278.69  219.03
   1  -5 -21 2074.01  211.19
   1   5 -22   86.12   55.75
   1   5 -22   12.45   69.42
  -1   5  22  133.29   65.56
  -1  -5  22   95.60   60.71
   1  -5 -22   21.01   58.89
   1   6  -1 5213.25  219.63
   1   6  -1 5669.26  271.66
  -1   6   1 6753.44  281.02
  -1   6   1 6291.46  292.06
  -1   6   1 6468.92  342.48
  -1  -6   1 6347.74  355.65
  -1  -6   1 6315.59  280.67
  -1  -6   1 6315.06  249.09
  -1  -6   1 5762.33  280.62
   1  -6  -1 6115.31  243.03
   1  -6  -1 6216.59  313.17
   1  -6  -1 5879.47  310.31
   1   6  -221377.10  741.72
   1   6  -223944.70  950.34
  -1   6   224230.56  995.34
  -1   6   221990.06  962.69
  -1   6   223756.54 1017.95
  -1  -6   225727.23 1084.31
  -1  -6   224008.78  918.40
  -1  -6   222559.21  763.64
  -1  -6   224805.61  978.61
   1  -6  -225515.81  939.62
   1  -6  -224210.57 1084.44
   1  -6  -223403.15 1030.11
   1   6  -3  178.72   39.05
  -1   6   3  221.21   36.86
  -1   6   3  222.00   36.69
  -1   6   3  257.13   36.04
  -1  -6   3  271.08   38.89
  -1  -6   3  157.49   32.27
  -1  -6   3  292.73   46.87
   1  -6  -3  302.06   33.79
   1  -6  -3  225.42   38.92
   1  -6  -3  263.99   34.50
   1  -6  -3  302.83   42.68
   1   6  -420053.78  875.58
  -1   6   424865.92  901.78
  -1   6   424162.81  910.48
  -1  -6   423994.31  993.74
  -1  -6   424450.23 1011.86
  -1  -6   423447.40 1109.42
   1  -6  -424539.23  924.28
   1  -6  -424196.68 1134.86
   1  -6  -424334.89  891.71
   1  -6  -424755.70 1065.61
   1  -6  -5 4455.17  224.67
   1  -6  -5 4273.13  262.63
   1   6  -5 3883.55  227.02
  -1   6   5 4137.60  256.51
  -1   6   5 4113.14  197.24
  -1  -6   5 4018.88  242.00
  -1  -6   5 4007.02  232.77
  -1  -6   5 4209.32  247.08
   1  -6  -5 4090.29  202.30
   1  -6  -5 4316.00  272.47
   1   6  -623403.99 1026.58
   1   6  -622785.17 1031.73
   1   6  -622917.96  934.91
  -1   6   624419.04  951.18
  -1   6   622635.94  892.28
  -1  -6   622646.89  991.24
   1  -6  -623367.00  987.82
   1  -6  -624101.41  937.31
   1  -6  -624587.93  998.91
   1  -6  -623732.76 1055.07
   1   6  -7  230.43   44.54
   1   6  -7  299.11   52.79
   1   6  -7  235.40   41.39
  -1   6   7  196.98   39.97
  -1   6   7  185.69   30.89
  -1  -6   7  232.90   47.42
  -1  -6   7  180.73   15.09
  -1  -6   7  183.21   13.67
   1  -6  -7  206.71   40.48
   1  -6  -7  224.57   39.56
   1  -6  -7  208.24   30.41
   1  -6  -7  181.88   37.15
  -1   6   8 2153.62  102.00
   1  -6  -8 2126.11  138.32
   1   6  -8 2021.30  144.78
   1   6  -8 1732.95  135.61
   1   6  -8 1870.77  133.99
  -1   6   8 2070.61  140.36
  -1   6   8 2036.79  103.67
  -1  -6   8 1900.74  147.40
  -1  -6   8 1903.27   80.63
  -1  -6   8 1622.10   83.24
   1  -6  -8 1971.48  139.55
   1  -6  -8 2251.46  167.26
  -1   6   9 1608.80   93.09
   1   6  -9 1552.06  136.33
   1   6  -9 1513.99  119.67
   1   6  -9 1498.78  130.22
  -1   6   9 1843.24  140.69
  -1  -6   9 1560.08  119.33
  -1  -6   9 1551.56   80.16
   1  -6  -9 1580.92  146.20
   1  -6  -9 1669.20  116.30
   1  -6  -9 1581.00  117.66
   1   6 -1018704.46  966.15
   1   6 -1018475.96  841.73
   1   6 -1017962.82  724.11
  -1   6  1018129.73  834.03
  -1   6  1018676.44  746.54
  -1  -6  1019934.09  913.53
  -1  -6  1017542.93  687.24
   1  -6 -1018771.33  789.60
   1  -6 -1017819.77  746.74
   1  -6 -1019735.95  892.79
   1   6 -11 1561.25  156.93
   1   6 -11 1606.66  126.93
   1   6 -11 1659.65  143.52
  -1   6  11 1933.24  140.01
  -1   6  11 1612.69  107.08
  -1   6  11 1264.61   90.26
  -1  -6  11 1925.77  143.33
  -1  -6  11 1556.13   90.04
   1  -6 -11 1575.63  143.39
   1  -6 -11 1616.56  117.24
   1  -6 -11 1837.10  124.81
   1   6 -12  441.06   75.40
   1   6 -12  363.85   59.81
   1   6 -12  438.18   61.80
  -1   6  12  432.83   65.01
  -1   6  12  377.19   53.32
  -1  -6  12  462.42   65.88
  -1  -6  12  458.55   44.48
   1  -6 -12  369.40   55.90
   1  -6 -12  393.96   54.80
   1  -6 -12  464.83   70.90
   1   6 -13   47.13   59.25
   1   6 -13   21.11   35.97
   1   6 -13   27.06   44.36
  -1   6  13  -37.44   46.92
  -1   6  13   24.71   27.90
  -1  -6  13  -22.59   48.79
  -1  -6  13   13.94   27.92
   1  -6 -13   34.23   37.94
   1  -6 -13    2.71   31.41
   1  -6 -13   -7.01   50.32
   1   6 -14 9601.15  585.99
   1   6 -14 9894.10  547.60
   1   6 -14 9882.75  463.74
  -1   6  1410800.73  590.67
  -1   6  14 9391.73  453.92
  -1  -6  1410169.76  517.46
  -1  -6  14 9663.36  449.75
   1  -6 -1410293.62  595.76
   1  -6 -14 8912.77  430.51
   1  -6 -14 9522.66  498.78
   1   6 -15  294.03   69.42
   1   6 -15  256.36   59.59
   1   6 -15  360.48   68.27
  -1   6  15  337.50   74.72
  -1   6  15  249.96   39.36
  -1  -6  15  388.16   60.61
  -1  -6  15  217.98   47.14
   1  -6 -15  275.79   54.01
   1  -6 -15  277.71   50.49
   1  -6 -15  195.72   51.83
   1   6 -16  560.48   90.00
   1   6 -16  422.51   71.78
   1   6 -16  321.24   71.91
  -1   6  16  352.82   73.04
  -1  -6  16  376.07   62.07
  -1  -6  16  377.93   56.30
   1  -6 -16  487.76   76.61
   1  -6 -16  432.40   63.19
   1  -6 -16  335.89   71.68
   1   6 -17   -0.23   59.18
   1   6 -17   65.29   47.62
   1   6 -17   37.82   59.03
  -1   6  17   12.80   58.78
  -1  -6  17   44.68   48.91
   1  -6 -17  147.25   54.78
   1  -6 -17   69.30   38.59
   1  -6 -17   79.17   55.72
   1   6 -18 2138.49  205.85
   1   6 -18 1804.19  164.01
   1   6 -18 2192.32  175.95
  -1   6  18 2179.37  222.71
  -1  -6  18 1924.66  185.34
   1  -6 -18 2006.84  178.58
   1  -6 -18 1852.53  138.40
   1  -6 -18 2018.92  165.42
  -1   6  19  838.46  130.56
   1   6 -19  787.53  119.14
   1   6 -19  582.85   99.08
   1   6 -19  838.87  102.36
  -1  -6  19  722.32  111.13
   1  -6 -19  758.48  111.39
   1  -6 -19  621.67   95.50
   1   6 -20  735.61  112.69
   1   6 -20  703.35   89.46
   1   6 -20  934.17  130.45
  -1   6  20  817.49  125.89
  -1  -6  20  840.82  106.09
   1  -6 -20  926.98  114.43
   1  -6 -20  856.38   94.53
   1   6 -21  -24.23   59.55
   1   6 -21   48.27   68.86
  -1   6  21   33.64   57.81
  -1  -6  21   44.02   56.03
   1  -6 -21   25.19   60.77
   1  -6 -21  -66.28   67.51
   1   7  -1 1701.25   84.27
   1   7  -1 1971.85  129.82
  -1   7   1 2130.13  132.35
  -1   7   1 1998.90  111.95
  -1   7   1 1870.58  134.48
  -1  -7   1 2125.16  138.97
  -1  -7   1 2113.30  126.48
  -1  -7   1 2013.20  105.80
  -1  -7   1 2300.08  145.80
   1  -7  -1 1969.72  115.49
   1  -7  -1 2216.51  121.59
   1  -7  -1 2109.98  120.03
   1   7  -2 1693.74   70.99
   1   7  -2 2114.17  146.85
  -1   7   2 1619.62  110.77
  -1   7   2 1883.53  117.31
  -1   7   2 1922.82  138.70
  -1  -7   2 1969.45  141.20
  -1  -7   2 1769.71  118.45
  -1  -7   2 1739.68   87.75
  -1  -7   2 1912.36  151.23
   1  -7  -2 1929.85  105.49
   1  -7  -2 1867.63  142.33
   1  -7  -2 1839.25  126.02
   1   7  -342555.54 1598.43
  -1   7   341003.89 1536.19
  -1   7   343412.25 1634.53
  -1  -7   347345.77 1762.63
  -1  -7   340780.82 1631.61
  -1  -7   341606.50 1325.76
  -1  -7   346208.58 1876.51
   1  -7  -343376.39 1655.00
   1  -7  -345556.90 1812.37
   1  -7  -342773.81 1742.83
   1   7  -4  708.58   73.76
  -1   7   4  819.95   65.42
  -1   7   4  736.81   59.98
  -1  -7   4  814.92   78.90
  -1  -7   4  780.37   85.65
  -1  -7   4  818.13   76.41
   1  -7  -4  717.18   58.94
   1  -7  -4  771.90   89.01
   1  -7  -4  705.22   73.31
   1   7  -5 3187.85  179.45
  -1   7   5 3191.39  192.44
  -1   7   5 3193.27  156.04
  -1  -7   5 3140.42  218.68
  -1  -7   5 2713.95  186.47
  -1  -7   5 3095.11  232.43
   1  -7  -5 2921.33  148.92
   1  -7  -5 3122.82  241.24
   1  -7  -5 3425.66  243.62
   1   7  -6   -6.01   37.87
   1   7  -6   23.73   39.38
  -1   7   6   29.60   29.37
  -1   7   6  -21.62   25.77
  -1  -7   6   46.18   40.96
   1  -7  -6   43.45   30.09
   1  -7  -6  -12.11   34.86
   1  -7  -6  -45.23   33.51
   1   7  -719577.51  935.95
   1   7  -719027.68  907.75
   1   7  -718997.28  854.92
  -1   7   719716.53  809.55
  -1   7   720576.79  739.39
  -1  -7   718355.62  906.55
   1  -7  -719100.52  858.01
   1  -7  -719399.95  836.21
   1  -7  -719915.75  959.52
   1   7  -8 4377.46  248.09
  -1   7   8 4429.48  266.00
  -1   7   8 4531.62  216.94
  -1  -7   8 4691.31  259.54
  -1  -7   8 4263.12  160.32
   1  -7  -8 4565.94  261.45
   1  -7  -8 4876.38  287.04
   1  -7  -8 4578.07  298.73
   1   7  -8 4476.78  299.88
   1   7  -8 4445.34  226.47
   1   7  -9 5945.48  392.86
   1   7  -9 6522.13  340.76
   1   7  -9 6342.33  351.56
  -1   7   9 6632.40  328.50
  -1   7   9 6444.19  312.33
  -1  -7   9 6080.42  357.86
   1  -7  -9 6302.31  336.39
   1  -7  -9 6257.50  359.43
  -1  -7   9 5910.95  227.26
   1  -7  -9 6211.17  319.87
   1   7 -10 1015.49  101.39
   1   7 -10  911.32   91.01
  -1   7  10  994.82   80.32
  -1  -7  10  929.79   95.37
  -1  -7  10 1016.76   55.46
   1  -7 -10 1022.33  101.54
   1  -7 -10 1068.81   77.43
   1  -7 -10 1113.50   95.55
   1   7 -10 1037.96   90.33
  -1   7  10  996.55   97.89
   1   7 -11 8039.33  467.60
   1   7 -11 8176.82  479.70
   1   7 -11 8742.43  374.60
  -1   7  11 8393.95  536.39
  -1   7  11 7675.80  378.30
  -1  -7  11 7851.04  329.30
   1  -7 -11 8193.70  454.32
   1  -7 -11 8362.37  403.40
   1  -7 -11 8375.47  431.62
  -1  -7  11 8489.95  491.34
   1   7 -12 1036.27  127.91
   1   7 -12 1198.13  102.20
   1   7 -12 1078.96  105.20
  -1   7  12 1029.48  116.45
  -1   7  12 1038.64   82.02
  -1  -7  12 1075.88  124.16
  -1  -7  12  973.71   69.25
   1  -7 -12  991.98  100.43
   1  -7 -12 1093.81   92.41
   1  -7 -12 1043.21  100.68
   1   7 -13 7569.44  455.36
   1   7 -13 7236.22  408.43
   1   7 -13 7621.44  385.92
  -1   7  13 8178.73  508.26
  -1   7  13 7288.85  368.46
  -1  -7  13 7925.09  417.62
  -1  -7  13 7073.50  341.75
   1  -7 -13 7749.15  391.74
   1  -7 -13 7270.65  391.90
   1  -7 -13 7513.42  399.53
   1   7 -14  175.32   63.30
  -1   7  14  100.09   52.52
  -1   7  14   63.49   31.42
  -1  -7  14  190.69   62.28
   1  -7 -14  104.00   46.87
   1  -7 -14  117.63   34.79
   1  -7 -14   13.53   51.64
   1   7 -14  118.85   50.68
   1   7 -14  107.22   55.93
   1   7 -15  860.86  109.89
   1   7 -15  888.69   91.72
  -1   7  15  798.39   91.73
  -1  -7  15  754.41   96.84
   1  -7 -15  760.41  101.32
   1  -7 -15  744.92   79.86
   1  -7 -15  833.88   92.03
   1   7 -15  808.34  104.81
   1   7 -16  830.85  104.96
   1   7 -16  713.32   98.18
  -1   7  16  747.19  107.89
  -1  -7  16  883.70   95.60
   1  -7 -16  692.78   97.14
   1  -7 -16  713.33   83.86
   1  -7 -16  652.86   92.85
   1   7 -16  681.81   92.27
   1   7 -17 2915.82  241.07
   1   7 -17 2844.97  241.72
  -1  -7  17 2881.23  262.57
   1  -7 -17 2691.25  224.58
   1  -7 -17 2708.03  188.47
   1  -7 -17 2809.48  223.94
   1   7 -17 2623.83  195.71
  -1   7  17 2934.30  291.21
   1   7 -18  263.96   81.87
   1   7 -18  169.58   81.95
  -1   7  18  244.42   67.69
  -1  -7  18  281.22   68.59
   1  -7 -18  298.85   57.21
   1   7 -18  190.97   50.46
   1  -7 -18  389.39   70.99
   1   7 -19   32.27   63.73
   1   7 -19   88.02   49.17
   1   7 -19  -60.89   66.67
  -1   7  19   99.18   51.04
  -1  -7  19  -30.25   51.59
   1  -7 -19   42.74   51.28
   1  -7 -19   80.23   56.16
   1   7 -20   53.33   61.75
   1   7 -20   20.72   38.70
   1   7 -20   84.97   58.05
  -1   7  20  121.45   73.61
  -1  -7  20   83.65   58.04
   1  -7 -20   55.65   57.44
   1  -7 -20   98.72   58.83
   1  -8  -1 3860.65  242.25
   1   8  -1 3029.45  138.65
   1   8  -1 3897.30  222.70
  -1   8   1 3602.53  198.62
  -1   8   1 3607.02  197.40
  -1  -8   1 3662.80  233.00
  -1  -8   1 3791.46  199.58
  -1  -8   1 3076.48  156.13
  -1  -8   1 3639.86  218.14
   1  -8  -1 3379.00  189.08
   1  -8  -1 3342.63  183.08
   1  -8  -2 5657.97  298.79
   1   8  -2 4706.14  200.44
   1   8  -2 5220.60  260.92
  -1   8   2 5100.56  233.32
  -1   8   2 5567.74  316.32
  -1  -8   2 5359.09  312.59
  -1  -8   2 5393.29  304.46
  -1  -8   2 5072.57  206.59
  -1  -8   2 5361.41  325.22
   1  -8  -2 5359.74  292.21
   1  -8  -2 5541.35  279.35
  -1  -8   3  163.31   15.20
   1   8  -3  216.66   49.29
  -1   8   3  204.26   36.85
  -1   8   3  210.50   40.24
  -1  -8   3  133.17   38.42
  -1  -8   3  125.06   42.15
  -1  -8   3  133.79   13.36
  -1  -8   3  194.98   48.27
   1  -8  -3  182.30   26.24
   1  -8  -3  247.50   43.71
   1  -8  -3  192.70   40.19
   1   8  -4  601.45   70.59
  -1   8   4  633.58   52.15
  -1   8   4  553.57   53.11
  -1  -8   4  594.25   64.94
  -1  -8   4  632.41   73.76
  -1  -8   4  623.23   75.51
   1  -8  -4  539.98   52.35
   1  -8  -4  645.12   66.78
   1  -8  -4  587.92   66.79
   1  -8  -5 1379.23   84.18
   1  -8  -5 1593.27  118.10
   1   8  -5 1431.08  115.40
  -1   8   5 1375.06  103.40
  -1   8   5 1541.61  100.68
  -1  -8   5 1256.73  126.97
  -1  -8   5 1280.19  115.98
  -1  -8   5 1353.71  141.58
   1  -8  -5 1374.17  121.83
   1   8  -6 9324.28  488.67
  -1   8   6 9891.21  425.47
  -1   8   6 9332.69  384.48
  -1  -8   6 9172.88  476.57
  -1  -8   6 9287.24  492.91
   1  -8  -6 9254.97  426.02
   1  -8  -6 9510.56  453.08
   1  -8  -6 9971.25  486.34
   1   8  -7  -13.43   48.85
   1   8  -7   42.15   46.36
   1   8  -7  -62.14   38.31
  -1   8   7   44.06   34.50
  -1   8   7   19.79   26.13
  -1  -8   7  -21.62   39.54
   1  -8  -7    5.89   29.47
   1  -8  -7   45.77   38.15
   1  -8  -7   25.20   50.11
   1   8  -8 1912.30  165.22
   1   8  -8 2001.02  136.37
   1   8  -8 1892.92  137.14
  -1   8   8 2009.89  138.47
  -1   8   8 2218.49  125.95
  -1  -8   8 1826.07  163.24
   1  -8  -8 1839.94  127.92
   1  -8  -8 2094.33  144.90
   1  -8  -8 2055.99  146.84
   1   8  -9  504.01   77.98
   1   8  -9  493.56   65.00
   1   8  -9  436.36   64.69
  -1   8   9  464.33   64.70
  -1   8   9  399.54   49.19
  -1  -8   9  321.00   56.75
   1  -8  -9  428.52   51.11
   1  -8  -9  442.96   52.42
   1  -8  -9  443.23   70.36
   1   8 -10 7577.09  461.63
   1   8 -10 7991.18  430.46
   1   8 -10 7761.54  409.60
  -1   8  10 8530.04  401.81
  -1   8  10 8356.97  344.79
  -1  -8  10 7847.78  439.41
   1  -8 -10 8047.62  425.40
   1  -8 -10 7681.64  424.91
   1  -8 -10 8386.33  411.50
   1   8 -11   59.62   54.40
   1   8 -11  -15.33   39.38
   1   8 -11   -3.14   44.72
  -1   8  11   92.15   48.25
  -1   8  11  -26.86   29.83
  -1  -8  11    6.70   40.69
   1  -8 -11  -12.68   42.82
   1  -8 -11   -6.70   32.85
   1  -8 -11   11.83   45.91
   1   8 -12  824.93  110.86
   1   8 -12  818.73   87.27
   1   8 -12  989.86   91.88
  -1   8  12 1074.27  102.20
  -1   8  12  879.18   72.67
  -1  -8  12  833.47  107.76
   1  -8 -12  798.02   75.96
   1  -8 -12  926.04   88.05
   1  -8 -12  949.19   90.80
   1   8 -13  325.00   68.57
   1   8 -13  330.35   61.11
   1   8 -13  309.79   62.70
  -1   8  13  318.59   59.57
  -1   8  13  310.02   49.04
  -1  -8  13  351.37   70.71
   1  -8 -13  389.64   56.29
   1  -8 -13  267.78   52.13
   1  -8 -13  310.08   64.08
   1   8 -14 3930.38  259.84
   1   8 -14 3956.99  277.62
   1   8 -14 3887.49  252.17
  -1   8  14 4508.80  320.71
  -1  -8  14 4163.23  272.65
   1  -8 -14 4049.75  296.43
   1  -8 -14 3925.29  253.31
   1  -8 -14 4004.97  257.64
   1   8 -15 1276.35  148.41
   1   8 -15 1221.24  127.37
   1   8 -15 1229.05  136.38
  -1   8  15 1267.24  154.54
  -1  -8  15 1288.45  134.03
   1  -8 -15 1262.61  123.51
   1  -8 -15 1256.44  103.97
   1  -8 -15 1261.49  121.79
   1   8 -16  210.86   65.59
   1   8 -16  366.16   69.97
   1   8 -16  299.54   79.57
  -1   8  16  279.84   66.79
  -1  -8  16  254.52   68.22
   1  -8 -16  272.83   55.04
   1  -8 -16  261.50   51.76
   1  -8 -16  195.61   64.27
   1   8 -17   -7.21   66.40
   1   8 -17   -6.21   50.95
   1   8 -17   71.18   72.23
  -1   8  17   92.20   52.74
  -1  -8  17   -6.67   55.16
   1  -8 -17  -14.61   41.68
   1  -8 -17    4.63   57.95
   1   8 -18 4048.37  313.91
   1   8 -18 3603.86  292.02
   1   8 -18 3774.36  278.83
  -1   8  18 4315.76  349.94
  -1  -8  18 4117.89  330.19
   1  -8 -18 4092.15  307.55
   1  -8 -18 4251.80  318.35
   1   8 -19  410.32   91.17
   1   8 -19  362.20   79.43
   1   8 -19  399.50   97.30
  -1   8  19  494.88   99.65
  -1  -8  19  538.99   93.34
   1  -8 -19  542.47   89.95
   1  -8 -19  417.14  100.80
  -1  -9   1  463.54   64.97
  -1  -9   1  512.42   61.14
   1   9  -1  388.52   34.93
   1   9  -1  489.36   68.61
  -1   9   1  630.93   71.33
  -1  -9   1  374.46   35.69
  -1  -9   1  596.92   78.39
   1  -9  -1  516.67   46.99
   1  -9  -1  584.79   62.01
   1  -9  -1  421.18   60.84
  -1   9   1  447.79   49.30
   1   9  -2 1361.29   76.51
   1   9  -2 1724.45  145.29
  -1   9   2 1675.09  116.81
   1  -9  -2 1710.32  102.97
  -1   9   2 1568.46  102.07
  -1  -9   2 1600.45  138.75
  -1  -9   2 1566.90  135.07
  -1  -9   2 1407.51   79.31
  -1  -9   2 2274.32  183.61
   1  -9  -2 1831.18  131.95
   1  -9  -2 1817.65  110.65
  -1   9   311823.89  557.14
  -1   9   312497.03  606.16
   1   9  -313250.53  612.62
  -1  -9   311222.94  638.29
  -1  -9   312477.78  673.06
  -1  -9   312790.06  752.52
   1  -9  -312949.48  617.63
   1  -9  -312388.54  594.27
   1  -9  -312221.13  523.06
  -1   9   4 3682.24  182.13
  -1   9   4 3504.49  200.92
   1   9  -4 3359.68  210.23
  -1  -9   4 3355.39  234.31
  -1  -9   4 3365.66  212.16
  -1  -9   4 3750.88  264.92
   1  -9  -4 3604.78  200.55
   1  -9  -4 3571.02  242.60
   1  -9  -4 3542.29  212.20
  -1  -9   5   22.28   51.66
  -1  -9   5   46.81   52.02
   1   9  -5    2.84   52.08
  -1   9   5  -11.68   51.52
  -1   9   5  -25.93   52.29
  -1  -9   5  -19.74   51.87
   1  -9  -5  -14.05   51.89
   1  -9  -5    3.52   51.62
   1  -9  -5   35.23   51.75
  -1  -9   6 2202.70  170.79
  -1   9   6 2203.34  141.07
  -1  -9   6 1971.52  173.70
   1  -9  -6 2045.29  136.05
  -1   9   6 2377.18  131.99
   1   9  -6 1846.91  149.22
  -1  -9   6 1901.91  162.86
   1  -9  -6 2088.13  140.24
   1  -9  -6 2193.40  156.97
  -1   9   7 9536.60  440.95
   1  -9  -7 9031.17  417.55
   1   9  -7 8811.51  530.82
   1   9  -7 9797.81  523.91
   1   9  -7 8589.85  484.03
  -1   9   7 9790.10  379.50
  -1  -9   7 8957.43  504.01
   1  -9  -7 9242.96  430.46
   1  -9  -7 9907.31  525.03
   1   9  -8 1942.61  134.27
  -1  -9   8 1723.61  154.23
   1  -9  -8 1766.02  124.78
   1   9  -8 1531.70  149.40
   1   9  -8 1849.71  150.47
  -1   9   8 1720.01  116.98
  -1   9   8 1868.09  110.47
   1  -9  -8 1786.40  122.61
   1  -9  -8 1689.29  139.24
   1  -9  -9 1601.77  128.40
   1  -9  -9 1616.11  145.16
   1   9  -9 1621.75  139.88
   1   9  -9 1596.14  127.91
   1   9  -9 1581.46  144.15
  -1   9   9 1683.67  131.67
  -1   9   9 1644.44  112.45
  -1  -9   9 1609.55  130.85
   1  -9  -9 1712.47  121.95
  -1  -9  10  781.95   93.41
   1   9 -10  805.15  100.65
   1   9 -10  880.99  101.79
   1   9 -10  944.65   86.78
  -1   9  10  909.10   94.47
  -1   9  10  779.50   80.33
   1  -9 -10  876.25   84.99
   1  -9 -10  732.84   80.81
   1  -9 -10  867.55  100.02
   1   9 -11 1796.55  169.02
   1   9 -11 1953.15  157.31
   1   9 -11 1858.49  151.38
  -1   9  11 2113.73  142.34
  -1   9  11 1916.64  150.85
  -1  -9  11 1909.34  175.31
   1  -9 -11 2009.68  172.77
   1  -9 -11 1918.42  149.77
   1  -9 -11 1985.67  150.64
   1   9 -12 1765.32  149.29
   1   9 -12 1657.67  158.75
   1   9 -12 1850.37  159.49
  -1   9  12 1986.61  150.03
  -1   9  12 1766.62  134.26
  -1  -9  12 1879.57  154.36
   1  -9 -12 1968.31  166.77
   1  -9 -12 1817.24  142.91
   1  -9 -12 1956.92  180.17
   1   9 -13 2397.35  215.00
   1   9 -13 2594.39  209.47
   1   9 -13 2502.51  183.12
  -1   9  13 2743.34  203.02
  -1   9  13 2520.83  174.59
  -1  -9  13 2842.59  250.01
   1  -9 -13 2486.19  208.77
   1  -9 -13 2496.28  181.24
   1  -9 -13 2719.74  188.67
   1   9 -14    6.36   53.05
   1   9 -14   28.76   50.23
   1   9 -14  -63.46   63.57
  -1   9  14   47.12   49.21
  -1  -9  14   41.03   48.91
   1  -9 -14    0.43   48.46
   1  -9 -14  -33.61   36.36
   1  -9 -14   50.79   54.50
   1   9 -15  286.20   86.04
   1   9 -15  270.93   74.32
   1   9 -15  277.06   76.13
  -1   9  15  393.99   83.01
  -1  -9  15  313.04   70.66
   1  -9 -15  325.01   70.20
   1  -9 -15  338.67   54.75
   1  -9 -15  363.58   77.61
   1   9 -16   97.03   53.09
   1   9 -16   69.81   49.90
   1   9 -16   46.93   58.68
  -1   9  16  135.65   56.90
  -1  -9  16   98.37   66.37
   1  -9 -16  191.75   55.19
   1  -9 -16   57.29   55.73
   1   9 -17 2399.28  206.40
   1   9 -17 2535.95  219.28
   1   9 -17 2519.76  227.10
  -1   9  17 2890.58  200.70
  -1  -9  17 2817.33  218.74
   1  -9 -17 2551.94  235.21
   1  -9 -17 2473.48  207.72
   1   9 -18  122.98   81.05
   1   9 -18  110.45   54.52
   1   9 -18  107.29   73.10
  -1   9  18  191.36   76.52
  -1  -9  18  221.14   79.56
   1  -9 -18   39.26   57.94
   1  -9 -18   87.45   61.22
   1  10  -1 3014.17  174.09
   1  10  -1 3912.40  263.42
  -1  10   1 3657.71  218.18
  -1 -10   1 3599.17  230.76
  -1 -10   1 3659.15  209.70
  -1 -10   1 4029.78  260.08
   1 -10  -1 4466.04  265.97
   1 -10  -1 3642.11  219.90
   1 -10  -1 3662.57  200.83
  -1  10   1 4046.38  244.88
   1  10  -2 5516.50  321.84
  -1  10   2 4737.40  256.15
  -1  10   2 5206.00  278.09
  -1 -10   2 4811.08  343.70
  -1 -10   2 5118.77  367.89
   1 -10  -2 4883.07  270.62
   1 -10  -2 5711.99  336.76
   1 -10  -2 5617.85  293.19
  -1 -10   2 4726.30  255.17
   1  10  -3   21.61   56.09
  -1  10   3  -19.54   55.79
  -1  10   3   27.30   56.21
  -1 -10   3  -12.58   56.38
  -1 -10   3  -13.47   56.30
   1 -10  -3   13.26   55.74
   1 -10  -3  -13.89   55.62
   1 -10  -3  -12.94   55.69
  -1 -10   3   -7.66   56.27
  -1 -10   4 7117.52  430.81
   1 -10  -4 7458.19  352.47
   1 -10  -4 7990.13  455.72
  -1 -10   4 7452.17  423.61
   1 -10  -4 8270.17  419.59
  -1  10   4 8215.51  414.86
   1  10  -4 6927.03  403.83
  -1  10   4 7961.01  358.97
  -1 -10   4 6926.42  419.65
   1  10  -5 4082.76  285.51
  -1  10   5 3577.13  217.11
  -1  10   5 3895.29  216.71
  -1 -10   5 3877.96  239.92
  -1 -10   5 3535.37  251.79
  -1 -10   5 3794.56  287.72
   1 -10  -5 3815.00  212.35
   1 -10  -5 3828.59  265.17
   1 -10  -5 3789.13  245.41
   1 -10  -6 8419.40  401.88
   1  10  -6 9059.22  527.71
  -1  10   6 8825.23  409.07
  -1  10   6 9838.24  429.05
  -1 -10   6 8232.06  448.38
  -1 -10   6 8404.76  459.22
   1 -10  -6 8828.80  435.06
   1 -10  -6 8703.85  549.26
  -1 -10   6 8659.95  493.75
   1  10  -7  440.78   86.12
   1  10  -7  560.14   73.52
   1 -10  -7  375.60   63.54
   1  10  -7  370.34   68.75
  -1  10   7  516.48   61.32
  -1  10   7  388.00   50.92
  -1 -10   7  328.19   67.84
   1 -10  -7  464.90   64.41
   1 -10  -7  462.24   74.57
   1 -10  -8  215.61   60.76
   1  10  -8  246.54   69.75
   1 -10  -8  210.53   48.96
   1  10  -8   90.17   55.30
  -1  10   8   74.65   42.87
  -1  10   8  171.27   41.07
  -1 -10   8  169.81   49.98
   1  10  -8  202.88   59.29
   1 -10  -8  203.29   46.44
  -1  10   9 2379.05  170.35
   1  10  -9 1917.96  179.23
   1  10  -9 1913.76  152.23
   1  10  -9 2064.30  150.97
  -1  10   9 2483.64  157.38
  -1 -10   9 2087.10  183.22
   1 -10  -9 2212.29  168.55
   1 -10  -9 2368.49  160.75
   1 -10  -9 2452.38  184.65
  -1  10  10 6791.23  353.68
   1  10 -10 5962.66  398.19
  -1 -10  10 6081.15  390.31
   1 -10 -10 6302.14  343.93
  -1  10  10 6235.55  342.56
   1 -10 -10 6322.01  369.39
   1  10 -10 6113.35  376.32
   1  10 -10 6120.16  339.69
   1 -10 -10 6311.13  385.33
  -1 -10  11 1425.89  153.26
  -1  10  11 1449.06  121.81
   1 -10 -11 1446.43  123.59
   1  10 -11 1407.05  144.36
   1  10 -11 1478.98  134.65
  -1  10  11 1477.84  135.01
   1 -10 -11 1555.74  141.64
   1 -10 -11 1606.05  144.54
   1  10 -11 1477.61  133.55
   1  10 -12  225.25   69.30
   1  10 -12  266.69   68.67
   1  10 -12  158.57   64.32
  -1  10  12  163.29   50.58
  -1  10  12  177.52   46.42
  -1 -10  12  167.09   69.79
   1 -10 -12  187.92   45.95
   1 -10 -12  205.45   59.47
   1 -10 -12  122.01   56.65
   1  10 -13  469.52   84.91
   1  10 -13  414.45   82.12
  -1  10  13  413.53   72.68
  -1 -10  13  326.65   95.94
   1 -10 -13  340.51   73.29
   1 -10 -13  397.38   79.09
   1 -10 -13  453.55   55.42
   1  10 -13  508.81   90.03
   1 -10 -14 2328.28  162.99
   1  10 -14 2647.77  231.93
   1  10 -14 2864.08  250.39
   1  10 -14 2906.38  241.03
  -1  10  14 2856.80  254.63
  -1 -10  14 3002.07  245.28
   1 -10 -14 2989.40  246.50
   1 -10 -14 2904.61  227.26
   1 -10 -15  604.63   91.67
   1  10 -15  309.65   74.79
   1  10 -15  445.25  100.22
  -1  10  15  513.84   95.56
  -1 -10  15  539.57   92.96
   1 -10 -15  347.28   78.53
   1  10 -15  379.38   76.66
   1  10 -16  167.45   78.69
   1  10 -16  361.70   80.15
   1  10 -16  269.05   79.57
  -1  10  16  381.93   86.37
   1 -10 -16  313.12   55.19
   1 -10 -16  262.80   78.03
  -1 -10  16  234.14   59.16
   1  10 -17  183.27   61.16
   1  10 -17  154.59   59.39
   1  10 -17  166.83   72.25
  -1  10  17   18.78   59.40
  -1 -10  17  186.75   92.76
   1 -10 -17  162.21   57.13
   1 -10 -17  148.62   68.40
  -1  11   1   57.76   37.97
  -1 -11   1  108.40   59.92
   1  11  -1   46.68   54.39
  -1  11   1   95.31   56.69
  -1 -11   1   91.71   46.11
  -1 -11   1   60.55   51.22
   1 -11  -1   75.57   33.34
   1 -11  -1   58.86   51.32
   1 -11  -1   98.32   46.82
   1 -11  -2 2728.78  169.73
   1  11  -2 3330.01  223.29
  -1  11   2 3169.72  218.12
  -1  11   2 3248.43  193.72
  -1 -11   2 2545.61  230.50
  -1 -11   2 2913.22  206.35
  -1 -11   2 2918.35  256.12
   1 -11  -2 3639.26  242.15
   1 -11  -2 3450.29  238.75
  -1 -11   3 7093.39  427.02
   1 -11  -3 8342.32  470.08
   1  11  -3 7041.01  434.89
  -1  11   3 7844.80  389.62
  -1  11   3 7732.06  398.92
  -1 -11   3 6922.59  435.61
  -1 -11   3 7218.78  476.37
   1 -11  -3 6945.88  341.72
   1 -11  -3 7824.51  415.92
   1 -11  -4 2787.02  205.08
   1  11  -4 2651.95  216.92
  -1  11   4 2838.95  186.61
  -1  11   4 2664.88  170.63
  -1 -11   4 2560.72  195.20
  -1 -11   4 2617.08  216.87
  -1 -11   4 2573.93  230.33
   1 -11  -4 2635.57  172.97
   1 -11  -4 3023.29  235.84
  -1  11   5   79.70   38.98
   1  11  -5   75.00   57.53
  -1  11   5  116.11   37.82
  -1 -11   5   82.02   51.26
  -1 -11   5   69.72   57.44
   1 -11  -5   83.98   42.15
   1 -11  -5  101.04   54.27
   1 -11  -5   50.04   47.09
  -1 -11   5   70.66   54.01
  -1  11   6  179.56   47.71
   1  11  -6   63.15   61.51
  -1  11   6  177.87   46.39
  -1 -11   6   69.26   63.58
  -1 -11   6  197.83   59.13
   1 -11  -6  124.92   47.45
   1 -11  -6  132.31   52.44
   1 -11  -6  162.21   50.52
   1 -11  -7 2635.42  201.48
   1  11  -7 2438.77  197.76
   1  11  -7 2433.74  212.89
   1  11  -7 2675.38  203.72
  -1  11   7 3088.23  185.41
  -1  11   7 3075.58  186.03
  -1 -11   7 2449.92  214.04
   1 -11  -7 2974.38  187.85
   1 -11  -7 2814.18  194.72
  -1  11   8 1852.82  140.05
   1  11  -8 1646.39  158.44
   1  11  -8 1591.20  147.06
   1  11  -8 1454.60  154.29
  -1  11   8 1906.58  137.57
  -1 -11   8 1549.73  165.42
   1 -11  -8 1707.73  133.12
   1 -11  -8 1570.18  141.56
   1 -11  -8 1820.10  176.03
  -1  11   9  519.51   67.01
   1 -11  -9  457.24   73.82
   1  11  -9  429.98   80.71
   1  11  -9  602.87   86.59
   1  11  -9  542.89   89.22
  -1  11   9  528.66   72.02
  -1 -11   9  539.57   98.74
   1 -11  -9  444.58   67.82
   1 -11  -9  468.67   62.86
   1  11 -10  559.84   85.24
  -1  11  10  611.57   88.79
  -1 -11  10  531.83   91.91
   1  11 -10  337.23   95.15
   1  11 -10  369.83   90.75
  -1  11  10  443.82   72.47
   1 -11 -10  398.98   74.69
   1 -11 -10  465.03   71.78
   1 -11 -10  437.65   71.02
   1 -11 -11 1454.69  139.12
   1  11 -11 1247.90  131.54
   1  11 -11 1551.18  153.17
   1  11 -11 1413.91  143.72
  -1  11  11 1546.44  152.14
  -1  11  11 1373.24  126.72
  -1 -11  11 1440.08  162.00
   1 -11 -11 1446.50  135.65
   1 -11 -11 1680.48  156.19
   1 -11 -12 1440.97  124.73
   1  11 -12 1360.07  169.79
  -1 -11  12 1354.10  148.29
   1  11 -12 1175.29  134.16
   1  11 -12 1425.36  158.87
  -1  11  12 1418.76  153.17
   1 -11 -12 1250.56  121.61
   1 -11 -12 1250.38  138.09
   1 -11 -13  875.71   91.84
   1  11 -13 1056.40  121.03
   1  11 -13 1190.54  137.46
   1  11 -13 1029.31  152.49
  -1  11  13 1032.23  130.15
  -1 -11  13 1081.94  125.60
   1 -11 -13  983.71  119.21
   1 -11 -13 1035.11  131.96
   1 -11 -14  228.18   59.43
   1  11 -14  124.49   70.12
   1  11 -14  122.92   65.22
   1  11 -14    6.27   65.91
  -1  11  14   64.05   54.14
  -1 -11  14   39.34   65.31
   1 -11 -14  110.99   53.18
   1  11 -15  421.72   87.46
   1  11 -15  382.04   88.28
   1  11 -15  465.63   88.15
  -1  11  15  454.98   83.39
  -1 -11  15  397.45   98.62
   1 -11 -15  527.08   99.66
   1 -11 -15  385.57   73.48
   1  12  -1 2237.32  205.13
  -1 -12   1 2161.72  197.20
   1 -12  -1 2445.48  171.98
  -1  12   1 2127.46  157.41
  -1  12   1 2210.04  196.73
  -1 -12   1 2297.70  197.43
  -1 -12   1 2355.98  212.60
   1 -12  -1 2201.72  140.76
   1 -12  -1 2379.10  207.82
  -1  12   2 3125.72  201.12
   1  12  -2 3798.66  283.01
  -1  12   2 3493.73  234.20
  -1 -12   2 3205.29  254.58
  -1 -12   2 3008.13  218.65
  -1 -12   2 3124.70  270.84
   1 -12  -2 3227.38  180.82
   1 -12  -2 3767.61  263.08
   1 -12  -2 3592.00  244.64
  -1  12   3  893.83  103.24
   1 -12  -3  574.89   66.72
   1  12  -3  776.45  104.41
  -1  12   3  810.27   78.66
  -1 -12   3  590.04   87.97
  -1 -12   3  710.23  100.62
  -1 -12   3  668.76  102.93
   1 -12  -3  888.86  112.62
   1 -12  -3  711.96   90.49
  -1 -12   4 1286.02  140.31
  -1 -12   4 1374.48  155.92
   1  12  -4 1535.35  160.27
  -1  12   4 1308.81  106.42
  -1  12   4 1497.08  123.62
  -1 -12   4 1265.91  139.29
   1 -12  -4 1240.18   95.60
   1 -12  -4 1450.23  144.57
   1 -12  -4 1520.88  131.47
   1 -12  -5 2524.59  183.25
  -1 -12   5 1903.51  175.82
   1  12  -5 2150.71  201.05
  -1  12   5 2495.19  178.63
  -1  12   5 2649.15  181.54
  -1 -12   5 1978.22  169.52
  -1 -12   5 1952.14  173.38
   1 -12  -5 2263.33  151.85
   1 -12  -5 2636.51  169.04
  -1 -12   6 3332.74  260.60
   1  12  -6 3438.53  245.38
  -1  12   6 3456.45  242.09
  -1  12   6 3536.04  264.08
  -1 -12   6 2995.83  253.73
   1 -12  -6 3219.43  193.64
   1 -12  -6 3460.88  239.32
   1 -12  -6 3675.24  236.86
  -1 -12   7  857.93  129.31
   1  12  -7  704.06  104.85
   1  12  -7  870.96  116.98
   1  12  -7  868.78  117.72
  -1  12   7  980.76   93.08
  -1  12   7 1010.91  110.60
   1 -12  -7  887.70   82.55
   1 -12  -7  914.69   92.74
   1 -12  -7  939.96  109.06
   1  12  -8  435.08   88.12
  -1  12   8  564.40   75.65
  -1 -12   8  543.89   85.88
   1  12  -8  438.82   83.57
   1  12  -8  554.28   85.90
  -1  12   8  603.19   86.09
   1 -12  -8  488.77   72.93
   1 -12  -8  561.12   78.43
   1 -12  -8  611.36   85.76
   1 -12  -9 1741.15  144.70
  -1  12   9 1589.43  151.86
   1  12  -9 1427.21  144.49
   1  12  -9 1766.17  175.36
   1  12  -9 1296.60  166.40
  -1  12   9 1574.12  138.28
  -1 -12   9 1406.54  160.64
   1 -12  -9 1561.06  141.13
   1 -12  -9 1539.53  145.85
   1 -12 -10 3096.08  245.46
  -1  12  10 3094.06  220.00
   1  12 -10 2779.38  243.29
   1  12 -10 3115.92  266.42
   1  12 -10 3255.65  272.79
  -1  12  10 3056.99  227.87
  -1 -12  10 2633.43  247.56
   1 -12 -10 2809.56  208.50
   1 -12 -10 3084.46  227.25
   1  12 -11  459.75   91.20
   1  12 -11  652.66  109.62
   1  12 -11  472.53   93.56
  -1  12  11  610.00   95.63
  -1 -12  11  445.37  100.15
   1 -12 -11  518.50   75.10
   1 -12 -11  458.33   75.43
   1 -12 -11  524.35   96.38
  -1  12  12  -37.12   58.95
   1  12 -12   24.35   59.40
   1  12 -12   40.22   59.07
   1  12 -12   53.94   60.37
  -1 -12  12  -47.43   59.54
   1 -12 -12   53.38   60.41
   1 -12 -12  -73.04   59.44
   1 -12 -13  691.72  110.37
   1  12 -13  633.25   99.50
   1  12 -13  807.43  104.70
   1  12 -13  725.63  108.90
  -1  12  13  780.71  103.13
  -1 -12  13  678.00  111.95
   1 -12 -13  662.03   76.24
  -1  13   1   11.76   59.06
  -1  13   1   18.71   59.21
  -1 -13   1   18.03   59.52
   1 -13  -1  -61.40   59.05
   1  13  -1    8.93   59.47
   1 -13  -1  -37.90   59.01
  -1 -13   1   28.46   59.49
  -1 -13   1  -21.20   59.59
  -1  13   2 1008.05  104.79
  -1  13   2 1277.30  144.61
  -1 -13   2 1063.36  119.28
  -1 -13   2 1136.58  122.35
   1 -13  -2 1211.44  125.14
  -1 -13   2  926.70  121.24
   1  13  -2 1145.72  134.98
   1 -13  -2 1161.19  132.20
   1  13  -3 3934.80  285.34
  -1  13   3 4084.37  284.77
  -1 -13   3 2793.29  222.93
  -1 -13   3 2849.06  249.09
   1 -13  -3 3284.87  204.24
   1 -13  -3 4112.97  310.18
   1 -13  -3 3793.77  277.98
  -1  13   3 3627.83  221.78
  -1 -13   3 3045.02  247.61
   1  13  -4  731.27  103.77
  -1  13   4  630.16   68.66
  -1 -13   4  445.23   78.73
  -1 -13   4  589.06   93.88
  -1 -13   4  617.13   89.72
   1 -13  -4  482.62   72.17
   1 -13  -4  767.75  105.62
   1 -13  -4  599.66   81.61
  -1  13   4  732.20  106.70
   1  13  -5  525.89   81.92
  -1  13   5  532.33   64.82
  -1  13   5  604.03   88.42
  -1 -13   5  463.09  100.52
  -1 -13   5  531.39   83.81
   1 -13  -5  507.87   75.13
   1 -13  -5  513.33   82.16
  -1 -13   5  461.24   67.10
   1 -13  -5  623.88   95.29
   1  13  -6  948.08  122.82
  -1  13   6  858.08  104.77
  -1  13   6  845.38   99.73
  -1 -13   6  615.05  103.63
   1 -13  -6  789.54   95.26
   1 -13  -6  993.02  117.69
   1 -13  -6 1013.84  105.44
  -1 -13   6  630.22   97.53
   1  13  -6  715.34  114.82
   1  13  -7 2623.48  233.90
   1  13  -7 3289.32  276.71
   1  13  -7 2663.02  226.16
  -1  13   7 3069.72  238.87
  -1  13   7 3185.61  234.96
   1 -13  -7 2691.66  196.41
   1 -13  -7 3252.17  250.43
   1 -13  -7 3260.84  260.22
  -1 -13   7 2434.71  242.67
   1  13  -8 1141.71  146.81
   1  13  -8 1650.60  157.77
  -1  13   8 1583.38  154.39
  -1  13   8 1607.63  140.56
  -1 -13   8 1399.43  143.78
   1 -13  -8 1683.40  157.71
   1 -13  -8 1452.18  158.01
   1 -13  -8 1345.17  139.52
   1  13  -8 1454.76  142.72
   1  13  -9  649.44  100.28
   1  13  -9  775.46  125.49
   1  13  -9  649.20   96.29
  -1  13   9  751.63   90.82
  -1 -13   9  692.44  111.33
   1 -13  -9  672.97   97.25
  -1  13   9  711.67   83.52
   1 -13  -9  733.68  101.68
   1 -13  -9  702.29   86.65
   1  13 -10  -26.57   52.91
   1  13 -10   -0.31   67.13
   1  13 -10   69.19   61.62
  -1 -13  10  -15.62   62.31
   1 -13 -10   34.38   39.51
   1 -13 -10  -11.63   44.12
   1 -13 -10  -44.52   48.01
  -1  13  10   33.59   41.85
   1  13 -11  968.88  142.50
   1  13 -11 1510.12  153.22
   1  13 -11 1302.98  164.36
  -1  13  11 1362.87  133.48
   1 -13 -11 1409.47  142.54
  -1  14   1 2190.56  195.34
  -1 -14   1 1723.79  168.72
  -1 -14   1 1780.63  176.90
   1 -14  -1 2479.19  207.91
   1  14  -1 2243.13  218.87
  -1 -14   1 2145.31  207.88
   1 -14  -1 2394.79  207.21
   1  14  -2  616.31  107.59
  -1  14   2  646.95   98.61
  -1 -14   2  544.96   86.35
  -1 -14   2  633.19  104.29
   1 -14  -2  921.30  119.86
  -1 -14   2  532.21   89.97
   1 -14  -2  701.84   94.96
   1  14  -3  101.11   47.39
  -1  14   3  182.31   73.91
  -1 -14   3   66.59   54.73
  -1 -14   3  124.69   54.85
  -1 -14   3    1.63   48.58
   1 -14  -3   76.81   53.66
   1 -14  -3  132.08   51.36
   1  14  -4  681.61  108.54
  -1 -14   4  484.32   79.82
   1 -14  -4  913.80  102.35
  -1  14   4  721.81  110.33
   1 -14  -4  859.16  115.09
  -1 -14   4  620.53   88.46
  -1 -14   4  713.02  110.47
  -1  14   5 1433.07  146.72
  -1  14   5 1775.09  154.56
  -1 -14   5 1388.37  152.40
   1 -14  -5 1738.23  165.62
   1 -14  -5 1594.90  167.48
   1  14  -5 1859.22  181.93
  -1 -14   5 1258.05  145.13
   1  14  -6 1254.03  162.24
  -1  14   6 1212.82  124.00
  -1 -14   6 1103.32  127.29
   1 -14  -6 1314.33  174.49
   1 -14  -6 1054.29  128.08
   1  14  -6  919.81  114.48
  -1  14   6 1240.83  131.45
   1  14  -6 1045.50  139.97
   1  14  -7  204.08   66.93
   1  14  -7  187.67   77.19
  -1  14   7  246.65   57.60
  -1  14   7  291.53   68.60
  -1 -14   7  215.40   82.18
   1 -14  -7  348.13   68.38
   0   0  -1    5.18    4.62
   0   0   1   10.33    5.05
   0   0  -1   13.57    4.59
   0   0   1   12.69    3.14
   0   0   1    0.99    3.42
   0   0   1   11.62    4.97
   0   0  -1    2.14    2.95
   0   0   1   10.77    4.26
   0   0  -1   10.62    4.54
   0   0  -1   16.62    3.69
   0   0  -2 2412.39  120.24
   0   0  -2 2519.87  119.52
   0   0   2 3137.07  140.89
   0   0   2 2447.10  128.90
   0   0  -2 2758.70  125.38
   0   0  -2 2349.69  128.24
   0   0  -2 3114.22  148.43
   0   0   2 2431.70  100.98
   0   0   2 2558.88   91.10
   0   0   2 2565.48  115.19
   0   0  -3   -5.49    8.09
   0   0   3   -7.47    8.09
   0   0  -3    5.11    8.05
   0   0   3    3.50    8.27
   0   0  -3   -7.83    8.23
   0   0   3   -6.68    8.08
   0   0   3   -2.61    8.35
   0   0   3    0.52    8.35
   0   0  -3   23.98    8.44
   0   0  -3    8.92    8.35
   0   0  -460004.92 1989.47
   0   0   460554.18 1992.49
   0   0   460842.58 2136.68
   0   0   5   -1.60   10.73
   0   0   5  -20.44   10.92
   0   0   5   12.18   10.67
   0   0   5    9.99   10.99
   0   0   5    4.57   11.03
   0   0  -5   15.62   10.63
   0   0  -5  -10.79   10.83
   0   0  -5   -8.86   11.18
   0   0  -5  -28.19   10.71
   0   0  -5   -4.14   11.04
   0   0   628809.02 1130.57
   0   0   631399.46 1242.05
   0   0   630546.69 1127.35
   0   0  -630790.59 1187.81
   0   0   632147.67 1134.53
   0   0  -629518.60 1086.13
   0   0  -631194.11 1196.67
   0   0  -636213.74 1386.87
   0   0  -629236.55 1108.29
   0   0   629228.62 1172.87
   0   0   7   -6.45   14.08
   0   0   7    6.61   14.26
   0   0  -7  -10.05   14.02
   0   0   7  -14.08   13.96
   0   0   7  -11.97   14.32
   0   0   7    8.61   14.42
   0   0  -7  -15.57   13.91
   0   0  -7  -10.93   14.11
   0   0  -7  -21.29   14.65
   0   0  -7    8.70   14.44
   0   0   816696.68  706.29
   0   0   817620.88  690.98
   0   0   820556.32  780.94
   0   0   819033.41  756.98
   0   0   817461.76  609.20
   0   0  -817763.86  747.57
   0   0  -817749.50  783.24
   0   0  -817819.88  799.64
   0   0  -818122.82  746.55
   0   0  -820173.23  812.66
   0   0   9   -1.58   16.74
   0   0   9  -12.71   16.78
   0   0  -9  -29.03   16.37
   0   0  -9   14.74   16.53
   0   0  -9  -26.24   17.25
   0   0  -9  -23.58   16.97
   0   0   9  -49.73   16.44
   0   0  1020802.50  797.78
   0   0  1016917.50  714.96
   0   0 -1019476.67  806.68
   0   0 -1017268.39  732.48
   0   0 -1019654.99  845.80
   0   0  1020506.80  874.21
   0   0 -1021163.52  894.71
   0   0  11  -10.75   17.72
   0   0  11  -42.47   17.44
   0   0 -11  -36.85   17.36
   0   0 -11    2.06   17.47
   0   0 -11  -14.77   18.26
   0   0 -11   22.60   17.97
   0   0  12 1895.34  133.85
   0   0  12 1828.87  136.90
   0   0 -12 1825.74  125.65
   0   0 -12 1721.28  136.91
   0   0 -12 2016.83  160.64
   0   0 -13   17.59   23.76
   0   0  13  -20.18   23.44
   0   0 -13   32.26   23.01
   0   0 -13  -24.27   24.11
   0   0  13   17.82   23.12
   0   0 -14 5262.08  325.90
   0   0  14 5508.56  244.06
   0   0  14 5860.77  323.48
   0   0 -14 5781.52  351.01
   0   0 -14 5181.19  292.34
   0   0  15  100.27   46.57
   0   0 -15  -56.90   42.08
   0   0 -15   28.07   29.92
   0   0  15    4.27   32.59
   0   0 -15  -51.00   36.14
   0   0  16   82.16   51.82
   0   0 -16  131.06   53.72
   0   0  16   74.29   36.11
   0   0 -16   48.81   49.43
   0   0 -16  105.05   36.09
   0   0  17 -102.62   29.79
   0   0 -17   41.01   30.60
   0   0 -17   49.38   30.35
   0   0  17  -20.83   30.09
   0   0 -17  -42.96   29.59
   0   0 -18 6040.32  332.56
   0   0 -18 5548.31  334.94
   0   0  18 5142.85  278.58
   0   0  18 6168.01  395.99
   0   0 -18 6075.66  381.77
   0   0  19  -84.87   27.43
   0   0 -19  -48.97   27.23
   0   0 -19   17.33   27.90
   0   0  19  -16.25   27.67
   0   0 -19   49.55   27.79
   0   0  20  270.42   92.94
   0   0 -20  448.58   83.65
   0   0 -20  304.13   49.37
   0   0 -20  394.85   85.89
   0   0  20  350.19   55.77
   0   0 -21   22.60   58.74
   0   0 -21    1.63   37.88
   0   0 -21   43.02   65.96
   0   0  21   19.66   55.94
   0   0  22 1662.31  209.61
   0   0 -22 1762.58  185.43
   0   0 -22 1516.33  166.47
   0   0  23   17.68   58.91
   0   0 -23   23.02   57.51
   0   0 -23  -23.62   45.35
   0   1   0   37.49    9.10
   0   1   0   31.07    8.91
   0   1   0   23.94    6.06
   0   1   0   22.88    7.79
   0   1   0   18.21    6.78
   0  -1   0   11.76    5.90
   0  -1   0   24.95    6.93
   0  -1   0   34.82    7.77
   0  -1   0   22.85    7.04
   0  -1   0    4.66    6.59
   0   1   125202.88  826.45
   0   1   127893.57  796.71
   0   1   126259.62  857.45
   0   1   128365.64  832.57
   0   1  -123062.67  863.43
   0   1  -123667.97  870.94
   0  -1  -124218.98  819.87
   0  -1   124114.10  833.35
   0  -1   122127.95  849.02
   0   1  -211343.58  436.43
   0  -1  -2 9833.25  369.21
   0  -1   211240.85  381.85
   0   1   211521.69  436.54
   0   1  -211572.83  453.00
   0   1  -210234.20  434.49
   0   1  -2 9985.47  408.55
   0  -1  -210988.59  395.17
   0  -1  -211513.88  386.69
   0  -1  -2 9597.43  436.74
   0  -1  -211016.60  439.64
   0  -1   2 9269.61  370.70
   0  -1   2 8792.19  377.17
   0  -1   2 9059.89  412.45
   0  -1   211932.83  457.08
   0   1   2 9499.01  402.89
   0   1   2 9935.05  372.11
   0   1   211317.97  483.32
   0   1   339690.32 1447.33
   0   1  -340791.13 1419.91
   0   1  -337119.47 1347.06
   0   1  -339028.06 1406.60
   0   1  -335663.70 1364.66
   0  -1  -338516.16 1334.46
   0  -1  -339564.74 1446.41
   0  -1   340597.67 1419.88
   0  -1   340507.67 1281.04
   0  -1   338104.53 1284.85
   0  -1  -4 4620.48  232.58
   0  -1  -4 5035.16  263.76
   0  -1   4 4126.37  222.57
   0   1   4 3907.72  219.39
   0   1   4 5142.44  217.96
   0   1   4 4994.98  227.21
   0   1   4 5114.73  222.67
   0   1  -4 4153.36  227.77
   0   1  -4 4153.87  198.25
   0   1  -4 4162.79  215.82
   0   1  -4 5053.49  274.00
   0  -1  -4 4502.80  221.14
   0  -1  -4 4647.59  219.76
   0  -1   4 4560.87  257.91
   0  -1   4 4586.15  212.36
   0  -1   4 4074.77  226.79
   0  -1   4 5410.17  233.54
   0   1   4 4840.48  231.85
   0   1  -4 4256.18  207.88
   0  -1  -4 4232.80  214.40
   0   1  -510552.77  495.42
   0  -1   511130.47  518.73
   0  -1   511263.55  506.57
   0  -1   510412.86  456.14
   0   1   511484.05  448.27
   0   1   512583.84  482.27
   0   1   511744.27  519.91
   0   1   511674.87  541.67
   0   1   512562.73  469.47
   0   1  -510760.63  492.46
   0   1  -510741.81  497.61
   0   1  -511552.30  547.43
   0   1  -513827.36  570.94
   0  -1  -510680.94  449.52
   0  -1  -512338.92  500.61
   0  -1  -511133.63  537.77
   0  -1  -510973.36  468.90
   0  -1  -513022.32  494.89
   0  -1   511580.61  468.65
   0  -1   511949.86  463.03
   0   1  -6  642.99   49.97
   0   1   6  572.79   51.96
   0   1   6  670.58   47.69
   0   1   6  639.95   62.44
   0   1   6  575.64   53.23
   0   1   6  697.89   72.66
   0   1  -6  576.25   46.08
   0   1  -6  596.15   53.00
   0   1  -6  614.63   53.07
   0   1  -6  706.91   58.47
   0  -1  -6  658.17   56.43
   0  -1  -6  612.59   55.43
   0  -1  -6  711.45   70.13
   0  -1  -6  666.82   57.24
   0  -1  -6  665.17   57.21
   0  -1   6  585.81   49.81
   0  -1   6  656.43   59.06
   0  -1   6  549.29   41.66
   0  -1   6  613.97   42.53
   0  -1   6  623.75   57.33
   0  -1  -752673.93 1883.55
   0  -1   749994.37 1891.56
   0   1   753857.29 1759.03
   0   1   749596.28 1934.22
   0   1  -746957.97 1843.18
   0  -1   752132.14 1853.83
   0   1  -746272.56 1817.25
   0   1  -751191.93 1942.20
   0   1  -755030.34 1790.49
   0  -1  -746130.29 1760.40
   0  -1   748163.59 1926.65
   0  -1  -752860.90 1865.00
   0  -1   749943.03 1737.89
   0   1   746688.93 1724.90
   0  -1   753426.41 1948.19
   0   1   750127.00 1887.00
   0   1  -750323.87 1898.38
   0   1   750816.91 1847.59
   0  -1  -752788.52 1924.96
   0  -1  -748777.17 1813.30
   0   1   8  779.37   68.45
   0   1   8  773.95   59.70
   0   1   8  992.36   57.30
   0   1   8  960.02   81.04
   0   1   8  793.31   64.90
   0   1  -8  867.48   64.15
   0   1  -8  831.68   59.13
   0   1  -8  810.90   58.61
   0   1  -8  974.87   73.48
   0   1  -8  997.62   61.06
   0  -1  -8  903.94   72.29
   0  -1  -8  853.43   68.15
   0  -1  -8  772.22   74.75
   0  -1  -8  873.41   75.34
   0  -1  -8  906.64   69.36
   0  -1   8  777.81   64.88
   0  -1   8  952.86   72.19
   0  -1   8  854.57   79.31
   0  -1   8  784.34   59.81
   0  -1   8  846.27   59.21
   0   1   9  870.94   48.21
   0   1   9  981.86   75.89
   0   1   9  839.87   62.29
   0   1  -9  935.41   69.20
   0   1  -9  667.48   74.16
   0   1  -9  771.00   66.74
   0   1  -9  900.57   75.41
   0   1  -9  929.35   82.87
   0  -1  -9  785.67   60.35
   0  -1  -9  797.70   64.23
   0  -1  -9  850.06   76.65
   0  -1  -9  944.34   78.23
   0  -1   9  787.68   73.45
   0  -1   9  861.30   68.08
   0  -1   9  838.05   70.68
   0  -1   9  724.34   59.20
   0   1  10   -9.12   16.67
   0   1  10   59.25   27.65
   0   1  10   10.88   12.76
   0   1 -10  -13.70   23.56
   0   1 -10   12.24   15.04
   0   1 -10  -17.47   22.24
   0   1 -10   52.60   28.84
   0  -1 -10   -3.47   22.38
   0  -1 -10   -9.06   13.95
   0  -1 -10   -3.87   17.37
   0  -1 -10    3.02   27.47
   0  -1  10  -16.51   20.57
   0  -1  10  -11.71   25.68
   0  -1  10    6.47   11.77
   0   1  1129475.08 1114.99
   0   1  1132256.31 1289.50
   0   1  1125767.26 1165.55
   0   1 -1130611.24 1223.07
   0   1 -1129699.66 1171.27
   0  -1 -1130628.45 1182.41
   0  -1 -1125837.11 1236.22
   0  -1 -1127989.88 1280.81
   0  -1 -1131670.88 1320.16
   0  -1  1130504.44 1187.97
   0   1 -1130107.16 1193.93
   0  -1  1131859.45 1261.86
   0   1 -12 2318.81  165.28
   0   1 -12 2268.25  161.76
   0   1 -12 2585.80  164.13
   0  -1 -12 2264.43  143.56
   0  -1 -12 1952.79  123.62
   0  -1 -12 2186.74  140.02
   0  -1 -12 2397.83  167.10
   0  -1  12 2470.07  150.95
   0  -1  12 2521.63  180.44
   0   1  12 2453.49  141.31
   0   1  12 2348.64  176.37
   0   1  13  148.62   26.69
   0   1  13  100.32   46.33
   0   1 -13  173.86   37.06
   0   1 -13  163.88   36.98
   0   1 -13  220.49   47.92
   0  -1 -13  167.95   40.98
   0  -1 -13  188.07   31.02
   0  -1 -13  148.88   40.41
   0  -1  13  194.26   36.51
   0  -1  13  173.24   50.16
   0   1  14    0.59   24.83
   0   1  14    3.48   39.49
   0   1 -14   31.16   31.08
   0   1 -14   43.85   43.65
   0  -1 -14  -18.76   33.96
   0   1 -14   -8.74   39.60
   0  -1 -14   -3.75   27.02
   0  -1 -14  -43.08   43.60
   0  -1  14   -4.30   24.14
   0  -1  14    9.04   39.05
   0   1  1511188.25  482.98
   0   1  1512132.37  626.29
   0   1 -1511851.17  623.64
   0   1 -1510926.84  621.74
   0   1 -1511646.48  557.30
   0  -1 -1512105.63  588.93
   0  -1 -1510674.30  524.98
   0  -1 -1511703.95  566.89
   0  -1  1511379.57  481.42
   0  -1  1511946.50  693.91
   0   1  16   22.62   27.95
   0   1  16   20.61   51.73
   0   1 -16  -10.27   42.52
   0   1 -16    9.51   35.92
   0   1 -16   93.20   58.20
   0  -1 -16   -2.72   44.35
   0  -1 -16  -31.28   33.90
   0  -1 -16   16.24   34.65
   0  -1  16   12.48   32.57
   0  -1  16   31.86   53.98
   0   1  17 2849.34  233.45
   0   1 -17 2924.26  229.89
   0   1 -17 2566.24  195.73
   0   1 -17 2611.98  203.04
   0  -1  17 2780.91  233.93
   0   1  17 2501.96  164.49
   0  -1 -17 2743.21  196.37
   0  -1 -17 2503.62  200.75
   0  -1 -17 2721.66  226.72
   0  -1  17 2728.09  178.08
   0   1  18   -0.39   26.22
   0   1  18  -39.94   25.60
   0   1 -18  -86.34   25.60
   0   1 -18   24.32   26.25
   0   1 -18  -34.64   25.93
   0  -1 -18  -71.22   25.38
   0  -1 -18   -8.77   26.12
   0  -1  18   10.41   25.69
   0  -1  18  -92.65   25.73
   0  -1 -18   25.50   26.17
   0   1  19 1783.89  140.64
   0   1  19 2004.72  217.84
   0   1 -19 2266.12  210.29
   0   1 -19 1782.42  173.88
   0   1 -19 1874.60  158.46
   0  -1 -19 2027.43  195.83
   0  -1 -19 1945.25  133.46
   0  -1 -19 2107.00  178.14
   0  -1  19 2414.02  211.61
   0  -1  19 1898.76  145.79
   0   1 -20   31.21   61.84
   0   1 -20   29.29   33.20
   0  -1 -20   29.11   54.17
   0   1  20   64.98   65.87
   0   1 -20  -82.86   56.62
   0  -1 -20   52.01   34.17
   0  -1 -20  -11.08   64.56
   0  -1  20   21.75   33.27
   0  -1  20   55.35   73.45
   0   1  21 2728.81  252.76
   0   1 -21 2640.02  224.23
   0   1 -21 2297.64  206.46
   0   1 -21 2737.13  211.73
   0  -1 -21 2853.69  230.81
   0  -1 -21 2800.29  251.55
   0  -1  21 2144.01  155.27
   0  -1  21 2626.18  239.60
   0  -1 -22  150.83   71.21
   0   1  22  104.54   72.80
   0   1 -22  126.63   57.25
   0   1 -22   64.95   72.03
   0  -1 -22  106.22   55.60
   0  -1  22  208.11   76.19
   0   1 -23  159.20   70.97
   0  -1 -23   88.86   66.06
   0   1  23  223.75   86.06
   0   1 -23  166.02   64.69
   0  -1 -23  184.39   84.78
   0  -1  23  148.55   67.68
   0  -2   0 9925.12  407.61
   0   2   010501.82  432.62
   0   2   0 9976.63  422.97
   0   2   0 9470.97  370.42
   0   2   0 9120.57  375.11
   0   2   010501.51  443.88
   0  -2   0 9646.97  400.29
   0  -2   0 9697.05  369.45
   0  -2   0 9698.97  457.35
   0  -2   010080.73  398.46
   0   2   1   36.20    9.66
   0   2   1   62.51   14.61
   0   2  -1   39.18   10.74
   0   2  -1   42.26    9.44
   0   2  -1   47.36   14.31
   0  -2  -1   36.24   11.39
   0  -2  -1   51.73   13.92
   0  -2  -1   44.52   12.68
   0  -2   1   34.50   15.35
   0   2   1   52.37   13.33
   0   2   1   44.72   12.46
   0   2   1   27.04   10.74
   0   2  -1   38.42   13.58
   0   2  -1   48.25   12.90
   0  -2  -1   36.45   10.77
   0  -2  -1   50.77   12.59
   0  -2   1   46.98   11.23
   0  -2   1   36.03    8.03
   0  -2   1   55.35   16.17
   0  -2   1   64.10   10.98
   0   2   2  437.97   38.34
   0   2   2  424.63   32.95
   0   2   2  440.15   26.73
   0   2   2  404.83   36.23
   0   2   2  474.64   40.83
   0   2  -2  432.60   31.51
   0   2  -2  431.81   33.40
   0   2  -2  403.03   31.33
   0   2  -2  384.05   34.83
   0   2  -2  412.36   40.72
   0  -2  -2  432.82   35.14
   0  -2  -2  416.01   34.57
   0  -2  -2  474.75   51.43
   0  -2  -2  453.69   31.58
   0  -2  -2  442.69   35.79
   0  -2   2  462.00   38.63
   0  -2   2  385.73   31.13
   0  -2   2  447.15   33.69
   0  -2   2  361.43   39.78
   0  -2   2  444.75   35.78
   0  -2  -3 1436.33   97.94
   0  -2   3 1337.85   86.53
   0  -2   3 1326.88   84.86
   0  -2   3 1650.37   92.70
   0  -2   3 1208.74   88.15
   0   2  -3 1684.89  112.17
   0   2  -3 1593.43  135.93
   0  -2  -3 1559.17  104.01
   0   2   3 1350.13   84.57
   0   2   3 1623.65   85.81
   0   2   3 1398.39   97.91
   0   2   3 1525.11   99.85
   0   2   3 1586.28   85.23
   0   2   3 1730.98  100.82
   0   2  -3 1458.40   93.20
   0   2  -3 1564.70  118.56
   0   2  -3 1317.45   96.75
   0   2  -3 1466.94   91.32
   0  -2  -3 1354.86   78.82
   0  -2  -3 1507.09   84.00
   0   2   477713.75 2680.58
   0   2   481125.14 2772.71
   0   2  -471619.21 2812.15
   0   2  -488559.01 3147.45
   0  -2  -474404.78 2696.81
   0  -2  -483046.09 2831.99
   0  -2  -490062.87 2843.14
   0  -2   475972.45 2755.86
   0  -2   477606.77 2774.97
   0  -2   475963.76 2719.18
   0   2   486448.58 2701.84
   0   2  -485121.57 2976.93
   0  -2   487089.68 2934.27
   0  -2  -5  363.53   39.23
   0  -2   5  423.63   38.73
   0   2   5  425.52   36.46
   0   2   5  416.75   49.91
   0   2   5  452.05   38.84
   0   2   5  423.19   37.97
   0   2  -5  365.14   34.79
   0   2  -5  319.18   34.96
   0   2  -5  338.53   33.50
   0   2  -5  330.00   38.76
   0  -2  -5  391.74   27.18
   0  -2  -5  357.63   36.97
   0  -2  -5  357.91   32.25
   0  -2   5  323.35   34.51
   0  -2   5  393.36   39.35
   0  -2   5  375.96   34.88
   0  -2   5  415.71   42.41
   0  -2  -5  358.57   37.44
   0   2  -5  398.58   40.85
   0  -2  -5  374.89   37.45
   0   2   6 2194.25  137.82
   0   2   6 2280.50  143.91
   0   2   6 2257.13  149.84
   0   2   6 2013.22  121.67
   0   2   6 2190.70  128.93
   0  -2  -6 2123.08  106.26
   0   2  -6 1937.94  137.04
   0   2  -6 1834.25  133.85
   0   2  -6 1969.73  140.50
   0   2  -6 2002.99  134.54
   0   2  -6 2278.74  135.28
   0  -2  -6 2158.27  127.18
   0  -2  -6 1973.80  125.60
   0  -2   6 2141.28  126.36
   0  -2  -6 2172.73  130.76
   0  -2  -6 2319.62  143.07
   0  -2   6 1930.92  118.76
   0  -2   6 2194.10  131.35
   0  -2   6 1814.82  100.15
   0  -2   6 2016.85  138.64
   0   2   7   43.26   15.92
   0   2   7   36.77   13.47
   0   2   7   10.54   23.11
   0   2   7   33.48   12.68
   0   2   7   54.77   15.56
   0   2  -7   37.34   19.77
   0   2  -7   39.42   15.08
   0   2  -7   30.46   14.01
   0   2  -7   12.98   19.91
   0   2  -7   50.80   20.94
   0  -2  -7   41.10   21.36
   0  -2  -7   29.03   11.11
   0  -2  -7    8.28   14.41
   0  -2  -7   24.75   15.35
   0  -2  -7   35.22   18.80
   0  -2   7    6.32   13.93
   0  -2   7   78.96   24.22
   0  -2   7   18.62   18.39
   0  -2   7   25.96   15.24
   0  -2   7   21.20   13.55
   0   2   824757.33  894.52
   0   2   822821.09  968.14
   0   2   820003.35  829.04
   0   2  -823770.07  990.24
   0   2  -821845.49  937.22
   0   2  -820806.33 1037.50
   0   2  -823567.65  931.69
   0   2  -824095.38  878.46
   0  -2  -823549.16  986.85
   0  -2  -822721.81  876.11
   0  -2  -821752.63  888.67
   0  -2  -822948.63  966.83
   0  -2   820555.15  952.63
   0  -2   824922.15  982.52
   0  -2   823718.04  913.91
   0  -2   821358.51  857.40
   0   2   9   52.61   15.58
   0   2   9   13.81   31.46
   0   2   9   64.14   13.51
   0   2  -9   29.19   20.09
   0   2  -9   48.37   20.72
   0   2  -9   32.66   19.01
   0   2  -9    3.73   21.89
   0   2  -9   51.40   30.12
   0  -2  -9   37.93   26.33
   0  -2  -9   59.98   14.25
   0  -2  -9   43.41   18.55
   0  -2  -9   32.01   25.85
   0  -2   9   70.70   18.64
   0  -2   9   16.44   24.72
   0  -2   9   31.88   24.45
   0  -2   9   50.88   18.01
   0   2  1011992.85  512.36
   0   2  1012963.56  632.43
   0   2  1010222.06  507.25
   0   2 -1011923.98  579.20
   0   2 -1011624.03  551.45
   0   2 -1012219.83  480.57
   0  -2 -1012319.48  543.67
   0  -2 -1010815.81  500.53
   0  -2 -1011571.45  499.05
   0  -2 -1012207.60  533.81
   0  -2  1012708.83  553.62
   0  -2  1012590.38  578.78
   0   2  11  405.17   37.77
   0   2  11  498.77   54.01
   0   2  11  315.86   35.90
   0   2 -11  439.51   54.51
   0   2 -11  468.07   52.70
   0   2 -11  421.91   55.20
   0  -2 -11  399.13   42.85
   0  -2 -11  380.65   33.49
   0  -2 -11  377.33   46.17
   0  -2 -11  486.93   53.21
   0  -2  11  405.14   48.17
   0  -2  11  415.66   52.24
   0   2  12 7169.10  338.22
   0   2  12 7596.10  410.90
   0   2 -12 6467.01  391.81
   0   2 -12 7067.52  380.86
   0   2 -12 6971.66  409.02
   0  -2 -12 7152.01  353.77
   0  -2 -12 6804.76  321.45
   0  -2 -12 6947.72  314.91
   0  -2  12 7206.14  382.35
   0  -2  12 6905.03  409.97
   0   2  13   15.38   22.11
   0   2 -13  107.43   37.87
   0   2 -13    0.04   30.35
   0   2 -13   46.27   37.07
   0  -2 -13   18.07   39.10
   0  -2 -13   24.42   23.59
   0  -2 -13    1.93   32.73
   0  -2  13   46.95   29.25
   0  -2  13   41.12   35.99
   0   2  13   16.96   44.21
   0   2  1421392.18  882.74
   0   2  1424251.23 1147.95
   0   2 -1422417.88 1019.48
   0   2 -1420280.28  960.64
   0   2 -1422297.84 1039.78
   0  -2 -1421331.34  911.19
   0  -2 -1420144.90  855.24
   0  -2 -1421729.92  902.44
   0  -2  1422268.05  922.71
   0  -2  1422121.39 1018.94
   0   2  15 1608.41  110.49
   0   2  15 1721.55  171.52
   0   2 -15 1597.96  146.00
   0   2 -15 1569.46  136.82
   0  -2 -15 1291.89  108.28
   0  -2  15 1587.31  134.17
   0  -2  15 1657.75  143.79
   0  -2 -15 1629.79  135.47
   0   2 -15 1485.48  137.78
   0  -2 -15 1536.23  115.13
   0   2  16  416.06   51.85
   0   2  16  434.42   81.22
   0   2 -16  449.38   69.49
   0   2 -16  375.71   63.84
   0   2 -16  432.13   72.33
   0  -2 -16  513.39   66.81
   0  -2 -16  431.66   56.13
   0  -2 -16  333.92   62.35
   0  -2  16  442.23   63.26
   0  -2  16  532.40   73.11
   0   2  17  335.43   45.88
   0   2  17  342.49   77.41
   0   2 -17  410.28   71.72
   0   2 -17  324.12   62.17
   0   2 -17  354.40   74.49
   0  -2 -17  486.59   64.72
   0  -2 -17  375.50   58.37
   0  -2 -17  336.50   72.44
   0  -2  17  381.62   54.43
   0  -2  17  416.39   88.65
   0   2  18 6706.61  330.86
   0   2  18 7540.16  503.86
   0   2 -18 7371.06  447.64
   0   2 -18 6777.80  414.73
   0   2 -18 7058.29  433.03
   0  -2 -18 7547.51  459.05
   0  -2 -18 6355.82  370.61
   0  -2 -18 7253.96  406.81
   0  -2  18 6994.69  391.99
   0  -2  18 7600.01  435.74
   0   2  19   98.31   64.99
   0   2 -19   66.34   54.76
   0   2 -19   82.38   45.23
   0   2 -19   64.12   67.83
   0  -2 -19  122.49   60.65
   0  -2 -19   35.43   39.88
   0  -2 -19   49.91   61.78
   0  -2  19   86.99   40.36
   0  -2  19   69.53   60.37
   0   2  20  539.53   96.87
   0   2 -20  543.89   91.95
   0   2 -20  415.02   70.02
   0   2 -20  647.25   93.14
   0  -2 -20  543.61   82.93
   0  -2 -20  540.10   63.20
   0  -2 -20  548.61   90.03
   0  -2  20  514.37   63.28
   0  -2  20  610.38  102.64
   0   2  21   84.07   64.50
   0   2 -21 -122.33   60.59
   0   2 -21    4.96   38.80
   0   2 -21  -32.58   48.59
   0  -2 -21   64.64   61.60
   0  -2 -21  -20.45   64.82
   0  -2  21   23.31   45.92
   0  -2  21  103.10   71.86
   0   2  22 2080.31  234.26
   0   2 -22 1893.14  203.74
   0   2 -22 1454.18  148.80
   0   2 -22 1851.10  204.03
   0  -2 -22 2322.93  216.30
   0  -2 -22 1743.90  186.18
   0  -2  22 2107.21  227.08
   0   2  23   28.30   72.72
   0   2 -23   79.35   58.07
   0   2 -23   91.72   66.44
   0  -2 -23   73.20   60.77
   0  -2 -23    4.58   67.27
   0  -2  23   52.78   53.09
   0   3   0    5.81   12.42
   0   3   0   -8.85   16.50
   0   3   0    7.83    9.84
   0   3   0   -4.31   17.46
   0   3   0   34.27   15.29
   0  -3   0   -1.13   14.37
   0  -3   0    8.56   14.30
   0  -3   0   -0.44    9.19
   0  -3   0  -11.27   13.45
   0  -3   0    6.82   13.73
   0   3   148349.06 1670.87
   0   3   149821.54 1631.62
   0   3   145096.32 1552.98
   0   3   145263.97 1596.21
   0   3   152237.98 1751.61
   0   3  -145657.90 1672.73
   0   3  -146818.51 1650.77
   0   3  -143833.38 1593.57
   0   3  -144732.11 1662.75
   0   3  -147223.43 1752.93
   0  -3  -146427.16 1640.25
   0  -3  -146502.71 1578.23
   0  -3  -147149.68 1587.50
   0  -3  -146650.00 1692.51
   0  -3   144045.06 1609.51
   0  -3   144918.75 1592.09
   0  -3   147443.04 1592.47
   0  -3   146548.86 1579.54
   0  -3   147204.40 1632.46
   0  -3  -146821.03 1655.13
   0   3   2   23.52   13.96
   0   3   2   17.04   13.19
   0   3   2   -7.96   17.33
   0   3  -2   19.76   11.09
   0   3  -2    9.75   17.60
   0  -3  -2   49.43   17.48
   0  -3  -2   30.98   15.90
   0  -3  -2   31.10   13.05
   0  -3  -2    6.91   13.27
   0  -3  -2   22.19   15.53
   0  -3   2   17.68   13.54
   0  -3   2   18.92   13.46
   0  -3   2   21.86    8.95
   0  -3   2  -15.74   16.81
   0  -3   2   35.66   15.80
   0   3   2   29.88   16.06
   0   3   2   61.50   15.24
   0   3  -2    9.00   16.57
   0   3  -2   32.73   11.59
   0   3  -2   26.34   16.77
   0   3   384110.03 2803.50
   0   3   392150.71 2757.46
   0   3   373626.68 2835.22
   0   3   391099.26 2854.95
   0   3  -379557.43 2878.16
   0   3  -375584.83 2969.86
   0   3  -386730.82 2950.93
   0  -3  -384867.68 2979.98
   0  -3  -380183.23 2912.65
   0  -3  -389152.05 3016.05
   0  -3  -385756.78 2916.52
   0  -3   373524.15 2837.30
   0  -3   386917.16 2775.19
   0  -3   382239.56 2811.60
   0  -3   375610.66 2820.57
   0  -3   4  306.20   30.17
   0   3   4  292.29   28.10
   0   3   4  354.88   37.32
   0   3   4  326.60   32.69
   0   3   4  322.20   33.46
   0   3   4  290.74   34.63
   0   3  -4  335.43   37.26
   0   3  -4  333.52   29.95
   0   3  -4  279.02   34.01
   0   3  -4  299.55   40.14
   0   3  -4  306.84   42.14
   0   3  -4  330.00   36.49
   0  -3  -4  326.96   35.51
   0  -3  -4  294.56   27.32
   0  -3  -4  285.27   37.08
   0  -3   4  296.77   34.73
   0  -3   4  359.68   33.59
   0  -3   4  260.23   30.86
   0   3   4  324.35   27.03
   0  -3  -4  312.18   30.56
   0   3   5  336.42   31.03
   0   3   5  417.37   41.77
   0   3   5  393.96   39.17
   0   3   5  356.61   31.50
   0   3   5  367.25   38.33
   0   3  -5  305.12   39.13
   0   3  -5  343.42   36.55
   0   3  -5  259.88   39.83
   0   3  -5  357.17   43.01
   0   3  -5  342.18   44.97
   0   3  -5  335.53   43.75
   0  -3  -5  350.16   38.76
   0  -3  -5  379.75   35.04
   0  -3  -5  347.82   31.66
   0  -3  -5  309.16   33.45
   0  -3  -5  389.37   43.38
   0  -3   5  378.39   38.29
   0  -3   5  381.02   33.96
   0  -3   5  398.02   35.77
   0  -3   5  337.90   30.24
   0  -3   6   75.79   20.41
   0   3   6   25.96   17.86
   0   3   6   28.22   26.27
   0   3   6   53.59   17.46
   0   3   6   41.36   14.44
   0   3   6   52.96   15.01
   0   3  -6   17.09   21.37
   0   3  -6   23.56   15.51
   0   3  -6   47.10   14.14
   0   3  -6   65.12   22.38
   0   3  -6   62.88   20.08
   0   3  -6   16.54   15.60
   0  -3  -6   29.08   22.67
   0  -3  -6   18.36   15.11
   0  -3  -6   41.73   14.48
   0  -3  -6   29.03   14.69
   0  -3  -6   41.11   19.93
   0  -3   6   33.52   16.58
   0  -3   6   17.40   21.53
   0  -3   6   47.73   20.37
   0   3   738161.46 1556.40
   0   3  -738115.38 1589.24
   0  -3  -740690.20 1620.81
   0   3   741975.38 1539.01
   0   3   743176.05 1638.21
   0   3  -741795.45 1601.86
   0   3  -736529.11 1572.18
   0   3  -740493.62 1650.68
   0   3  -742224.77 1532.59
   0  -3  -743206.68 1603.42
   0  -3  -740559.33 1498.46
   0  -3  -744163.64 1612.51
   0  -3   739437.40 1585.83
   0  -3   744091.15 1790.53
   0  -3   741634.03 1546.51
   0  -3   738106.36 1634.52
   0   3   8 3504.43  190.48
   0   3   8 3464.33  204.70
   0   3   8 3100.33  167.23
   0   3  -8 3423.76  218.31
   0   3  -8 2893.63  201.74
   0   3  -8 3459.70  217.74
   0   3  -8 3551.63  191.57
   0  -3  -8 3309.55  175.05
   0  -3  -8 3337.84  187.13
   0  -3  -8 3381.17  159.11
   0  -3  -8 3310.63  208.17
   0  -3   8 2942.40  174.05
   0  -3   8 3457.94  194.92
   0  -3   8 3710.17  220.71
   0  -3  -9  783.53   79.42
   0  -3   9  487.25   52.05
   0  -3   9  802.75   75.07
   0   3   9  733.09   60.64
   0   3   9  633.65   49.64
   0   3  -9  709.11   70.93
   0   3  -9  536.08   48.39
   0   3  -9  710.19   69.38
   0   3  -9  846.76   70.37
   0  -3  -9  754.04   62.67
   0  -3  -9  658.54   63.23
   0  -3  -9  674.04   54.32
   0  -3  -9  604.44   59.45
   0  -3   9  711.61   74.37
   0   3 -10  778.42   65.22
   0  -3 -10  692.35   60.48
   0   3  10  745.70   69.50
   0   3  10  631.97   54.80
   0   3 -10  763.58   78.52
   0   3 -10  696.43   63.09
   0  -3 -10  671.54   59.22
   0  -3 -10  629.63   54.26
   0  -3 -10  700.07   76.21
   0  -3 -10  727.21   68.43
   0  -3  10  714.40   72.06
   0  -3  10  757.42   74.42
   0   3  1116774.47  755.26
   0   3 -1115542.45  730.63
   0   3 -1115450.09  754.00
   0   3 -1117234.63  754.38
   0  -3 -1116439.98  723.95
   0  -3 -1113036.37  588.78
   0  -3 -1114836.16  580.38
   0  -3 -1115592.65  708.57
   0  -3  1115760.29  728.92
   0  -3  1116102.67  777.58
   0   3  12   57.65   37.21
   0   3 -12   34.52   36.00
   0   3 -12  104.22   30.61
   0   3 -12   84.96   42.62
   0  -3 -12  138.32   38.06
   0  -3 -12   89.49   17.21
   0  -3 -12   45.79   26.87
   0  -3 -12   49.08   35.86
   0  -3  12  128.44   30.75
   0  -3  12   84.56   33.75
   0   3  13 6954.36  334.50
   0   3  13 7147.15  437.12
   0   3 -13 6912.44  393.40
   0   3 -13 6901.33  398.20
   0   3 -13 7195.63  393.37
   0  -3 -13 6971.07  385.72
   0  -3 -13 6874.41  310.23
   0  -3 -13 6837.56  402.88
   0  -3  13 7775.23  380.18
   0  -3  13 7056.68  406.94
   0   3  14  472.38   46.20
   0   3  14  656.46   77.97
   0   3 -14  545.59   70.35
   0   3 -14  485.00   64.50
   0   3 -14  436.73   76.31
   0  -3 -14  546.95   73.87
   0  -3 -14  460.36   49.75
   0  -3 -14  519.70   71.80
   0  -3  14  567.61   61.76
   0  -3  14  476.24   73.02
   0   3  15 5253.92  268.14
   0   3  15 5779.56  375.04
   0   3 -15 5228.65  313.64
   0   3 -15 5252.61  326.33
   0   3 -15 5602.43  350.76
   0  -3 -15 5431.19  340.24
   0  -3 -15 5147.63  279.08
   0  -3 -15 5232.63  335.75
   0  -3  15 5345.23  291.88
   0  -3  15 5646.50  315.37
   0   3  16  252.14   65.22
   0   3 -16  378.59   57.06
   0   3 -16  376.80   53.54
   0   3 -16  373.81   66.54
   0  -3 -16  457.88   67.67
   0  -3 -16  324.07   52.78
   0  -3 -16  240.10   57.62
   0  -3  16  281.90   40.19
   0  -3  16  289.70   66.67
   0   3  17 2460.67  240.50
   0   3 -17 2663.47  213.56
   0  -3 -17 2637.71  173.06
   0   3 -17 2135.23  189.08
   0   3 -17 2345.20  177.17
   0  -3 -17 2185.23  178.63
   0  -3 -17 2510.31  185.32
   0  -3  17 2477.04  168.86
   0  -3  17 2445.00  190.66
   0   3  18  -24.38   58.05
   0   3 -18   26.00   58.60
   0   3 -18   -8.53   59.45
   0   3 -18  -71.40   58.42
   0  -3 -18   26.32   57.43
   0  -3 -18   -0.16   58.90
   0  -3 -18  -33.95   59.42
   0  -3  18   87.85   58.57
   0  -3  18  -55.51   58.81
   0   3 -19 2341.01  210.04
   0   3 -19 2167.99  212.46
   0  -3 -19 2503.86  229.59
   0   3  19 2521.56  229.51
   0   3 -19 2397.90  210.27
   0  -3 -19 2205.95  156.73
   0  -3 -19 2355.28  201.16
   0  -3  19 2307.64  180.51
   0  -3  19 2353.23  212.64
   0   3 -20  127.10   60.67
   0   3 -20   79.79   40.93
   0  -3 -20   43.31   64.40
   0  -3  20   53.78   43.57
   0  -3  20  216.33   62.19
   0   3 -20  113.37   70.92
   0  -3 -20  135.51   59.34
   0   3  20   88.07   72.59
   0   3  21 1600.42  204.55
   0   3 -21 1581.41  169.00
   0   3 -21 1327.27  147.41
   0   3 -21 1537.93  180.44
   0  -3 -21 1680.50  174.49
   0  -3 -21 1592.52  174.55
   0  -3  21 1331.43  159.86
   0  -3  21 1353.85  134.43
   0   3  22   40.74   66.07
   0   3 -22   49.76   67.08
   0  -3 -22  -45.08   54.60
   0  -3  22  -17.16   36.14
   0  -3  22  -67.83   64.20
   0   3 -22    0.42   52.45
   0   3 -22   36.95   41.64
   0  -3 -22   31.69   54.63
   0   3  23  223.88   93.29
   0   3 -23   66.97   57.43
   0  -3 -23  161.67   71.84
   0  -3  23   46.51   58.52
   0   4   052619.38 1835.56
   0   4   051733.18 1758.28
   0   4   049704.75 1887.71
   0   4   057989.94 1910.84
   0  -4   050941.30 1801.61
   0  -4   053395.54 1795.23
   0  -4   052350.27 1743.44
   0  -4   053970.78 1842.56
   0  -4   052865.34 1940.22
   0   4   053669.28 1769.83
   0   4   122346.24  821.43
   0   4   124059.24  880.60
   0   4   124597.60  909.04
   0   4  -122071.97  866.20
   0   4  -123023.59  917.75
   0   4  -120758.96  799.97
   0   4  -121593.99  852.58
   0   4  -124398.76  957.83
   0  -4  -122729.68  890.00
   0  -4  -122540.67  770.62
   0  -4  -122543.85  866.22
   0  -4  -122947.40  909.19
   0  -4  -122180.19  888.04
   0  -4   121507.10  841.16
   0  -4   121702.33  788.25
   0  -4   122615.66  783.31
   0  -4   122758.24  875.81
   0  -4   123015.22  850.52
   0   4   121758.40  815.47
   0   4   121836.82  802.18
   0   4   2 7425.90  337.62
   0   4   2 7661.39  309.80
   0   4   2 8288.73  333.59
   0   4   2 7314.65  336.90
   0   4   2 7782.11  339.88
   0   4  -2 7476.68  341.76
   0   4  -2 7403.50  411.41
   0   4  -2 7488.71  299.70
   0   4  -2 7107.14  363.39
   0  -4  -2 7191.88  357.73
   0  -4  -2 7175.42  318.15
   0  -4  -2 7534.46  326.41
   0  -4  -2 8064.66  294.75
   0  -4  -2 7561.38  335.36
   0  -4   2 6467.85  334.35
   0  -4   2 7163.14  347.17
   0  -4   2 7529.86  331.73
   0  -4   2 6983.95  331.88
   0  -4   2 7316.62  313.67
   0   4  -2 7551.14  354.18
   0   4   3 1610.23   96.34
   0   4   3 1742.76  101.58
   0   4   3 1630.14  109.21
   0   4   3 1582.93  102.86
   0   4   3 1673.24  112.47
   0   4  -3 1310.25  109.40
   0   4  -3 1382.67  119.09
   0   4  -3 1598.43   81.56
   0   4  -3 1536.71  113.82
   0   4  -3 1544.59   73.70
   0  -4  -3 1621.64  123.84
   0  -4  -3 1593.83   94.62
   0  -4  -3 1723.01  114.68
   0  -4  -3 1622.15  107.52
   0  -4  -3 1584.87  110.21
   0  -4   3 1569.54   93.84
   0  -4   3 1476.11   98.57
   0  -4   3 1458.95  100.98
   0  -4   3 1437.30   86.21
   0  -4   3 1600.87   90.16
   0   4   426752.43 1020.83
   0   4   427910.15 1036.09
   0   4  -424678.28 1109.82
   0   4   425566.47  988.66
   0   4   428599.45  991.62
   0   4   426564.16 1045.08
   0   4  -422523.39  968.29
   0   4  -423633.61 1022.15
   0  -4  -424530.19  968.20
   0  -4  -426429.60 1076.73
   0   4  -422673.64 1030.31
   0  -4  -425835.05 1061.68
   0  -4  -423782.19  907.87
   0  -4  -425776.41 1020.91
   0  -4   424725.65 1044.73
   0  -4   427094.78 1039.90
   0  -4   424734.12  982.16
   0  -4   425304.01 1000.91
   0   4   5  942.51   76.57
   0   4   5 1084.60   71.38
   0   4   5 1089.34   78.20
   0   4   5 1244.37   78.46
   0   4   5 1122.00   73.70
   0   4   5 1125.20   85.87
   0   4  -5 1054.40   88.26
   0   4  -5  972.63   62.19
   0   4  -5  858.70   74.67
   0   4  -5 1017.79   94.25
   0   4  -5 1048.91  100.35
   0   4  -5  897.71   90.31
   0  -4  -5 1222.31   89.37
   0  -4  -5 1045.56   78.14
   0  -4  -5  999.02   94.94
   0  -4  -5 1143.67   95.85
   0  -4   5 1087.71   84.20
   0  -4   5 1075.31   82.44
   0  -4   5 1041.21   78.57
   0  -4   5  992.86   81.00
   0   4   612434.76  621.85
   0   4   612300.58  551.30
   0   4   611908.92  533.79
   0   4  -611876.15  573.23
   0   4  -611196.36  462.79
   0   4  -611423.68  596.32
   0   4  -613077.36  594.62
   0  -4  -611978.47  546.03
   0  -4  -612051.04  507.15
   0  -4  -612566.76  536.05
   0  -4  -611173.83  701.76
   0  -4  -611823.95  685.76
   0  -4   612214.73  534.97
   0  -4   611308.21  522.67
   0  -4   610945.52  507.63
   0   4   7  134.90   30.71
   0   4   7   86.61   25.37
   0   4   7   83.40   16.28
   0   4  -7  117.22   31.06
   0   4  -7   83.54   18.37
   0   4  -7  133.05   35.76
   0   4  -7  102.45   25.15
   0  -4  -7  112.27   30.69
   0  -4  -7  121.02   24.44
   0  -4  -7  115.42   19.49
   0  -4  -7   59.90   26.48
   0  -4   7   82.49   26.83
   0  -4   7  129.11   29.37
   0  -4   7   75.91   16.90
   0   4   815024.18  755.91
   0   4   815919.83  706.26
   0   4   814837.68  600.50
   0   4  -815687.28  754.72
   0   4  -814332.77  692.99
   0   4  -814733.71  730.21
   0   4  -816653.85  646.60
   0  -4  -817033.55  739.48
   0  -4  -816405.65  700.86
   0  -4  -815431.99  626.90
   0  -4  -816786.07  772.71
   0  -4   816844.05  818.72
   0  -4   815192.23  688.57
   0  -4   813369.23  575.84
   0   4   9 1221.63  115.41
   0   4   9 1176.50   76.75
   0   4   9  913.59   65.82
   0   4  -9 1024.07  111.66
   0   4  -9  911.26   77.34
   0   4  -9 1152.53  100.45
   0   4  -9 1161.49   93.43
   0  -4  -9 1078.32   93.12
   0  -4  -9 1039.43   80.99
   0  -4  -9 1063.23   68.66
   0  -4  -9 1085.02   87.03
   0  -4   9 1126.81  101.49
   0  -4   9 1042.08   89.87
   0   4  1014406.52  669.15
   0   4  1013404.26  589.95
   0   4 -1013128.52  647.73
   0   4 -1014070.98  662.96
   0   4 -1013533.90  605.95
   0  -4 -1013244.27  624.89
   0  -4 -1013088.91  593.88
   0  -4 -1011935.67  492.20
   0  -4 -1013158.39  547.62
   0  -4  1014079.12  662.86
   0  -4  1013356.80  613.55
   0   4  11  271.63   49.45
   0   4  11  228.87   30.50
   0   4 -11  205.97   38.61
   0   4 -11  225.39   49.63
   0   4 -11  193.90   43.10
   0  -4 -11  216.94   38.92
   0  -4 -11  217.94   29.04
   0  -4 -11  182.40   22.22
   0  -4 -11  249.50   46.04
   0  -4  11  282.47   40.31
   0  -4  11  206.42   38.64
   0   4  12 5134.81  295.87
   0   4  12 4463.71  224.43
   0   4 -12 4822.78  284.35
   0   4 -12 5050.98  290.73
   0   4 -12 5211.16  317.08
   0  -4 -12 5115.68  266.28
   0  -4 -12 4743.02  246.99
   0  -4 -12 3945.12  185.36
   0  -4 -12 4886.04  277.50
   0  -4  12 4858.66  276.00
   0  -4  12 5048.35  282.16
   0   4  13  390.12   59.24
   0   4  13  302.97   37.96
   0   4 -13  327.05   50.83
   0   4 -13  279.39   47.09
   0   4 -13  229.58   58.92
   0  -4 -13  333.69   52.93
   0  -4 -13  284.32   35.57
   0  -4 -13  197.22   38.77
   0  -4 -13  269.26   53.00
   0  -4  13  274.66   48.86
   0  -4  13  282.42   51.77
   0   4  14 8627.13  487.35
   0   4  14 7910.30  461.95
   0   4 -14 7969.83  411.16
   0   4 -14 7546.84  452.40
   0   4 -14 8227.02  396.84
   0  -4 -14 8536.26  412.80
   0  -4 -14 7451.49  409.75
   0  -4 -14 7904.49  381.27
   0  -4  14 8904.96  415.87
   0  -4  14 8116.64  431.71
   0   4  15   24.05   48.44
   0   4  15   98.05   33.21
   0   4 -15  102.58   45.17
   0   4 -15  149.82   43.43
   0   4 -15  140.12   49.77
   0  -4 -15   12.85   41.86
   0  -4 -15  104.55   28.65
   0  -4 -15  109.49   46.02
   0  -4  15   95.10   43.88
   0  -4  15  112.60   43.22
   0   4  16 1068.91   99.09
   0   4  16  828.40   71.76
   0   4 -16 1012.17  100.80
   0   4 -16  874.76   95.49
   0   4 -16  913.71  102.72
   0  -4 -16  968.65   97.28
   0  -4 -16  818.33   77.25
   0  -4 -16  891.61  109.04
   0  -4  16  915.97   92.92
   0  -4  16  951.20  112.33
   0   4  17   33.00   63.84
   0   4  17   19.49   64.80
   0   4 -17  -48.53   64.53
   0   4 -17   38.66   65.43
   0   4 -17  -44.41   64.35
   0  -4 -17  -58.13   63.15
   0  -4 -17   14.35   65.18
   0  -4 -17  -19.52   65.02
   0  -4  17   -0.74   64.89
   0  -4  17   59.95   64.75
   0   4  18 6881.44  474.34
   0   4  18 5392.93  289.79
   0   4 -18 6094.58  387.00
   0   4 -18 5489.95  407.74
   0   4 -18 6133.95  373.95
   0  -4 -18 6347.45  424.74
   0  -4 -18 6052.20  350.95
   0  -4  18 5856.00  363.66
   0  -4  18 6250.37  416.27
   0   4  19  -26.24   78.73
   0   4  19   91.58   40.37
   0   4 -19  147.78   63.61
   0   4 -19  101.84   52.72
   0   4 -19  113.32   57.51
   0  -4 -19  152.78   67.17
   0  -4 -19   81.19   73.04
   0  -4  19  125.91   49.00
   0  -4  19  141.60   65.21
   0   4  20   50.59   70.19
   0   4 -20   62.74   53.86
   0   4 -20  -12.69   44.31
   0   4 -20    1.38   62.30
   0  -4 -20   40.74   57.78
   0  -4 -20  161.04   68.82
   0  -4  20   11.56   45.03
   0  -4  20   54.42   55.50
   0   4  21  438.90   95.01
   0   4 -21  444.85   81.65
   0   4 -21  324.52   66.56
   0   4 -21  291.16   88.04
   0  -4 -21  338.40   94.81
   0  -4 -21  408.66   88.57
   0  -4  21  326.22   64.39
   0  -4  21  352.02   83.58
   0   4  22 2794.61  257.64
   0   4 -22 2597.06  222.56
   0   4 -22 2099.23  222.10
   0   4 -22 2741.74  248.12
   0  -4 -22 3116.84  264.47
   0  -4 -22 2658.84  210.30
   0  -4  22 2107.48  173.94
   0  -4  22 2554.02  228.22
   0   5   0   -6.77   18.19
   0   5   0   20.79   20.87
   0   5   0   15.16   13.90
   0   5   0   39.44   21.95
   0  -5   0    2.18   18.22
   0  -5   0  -16.99   19.53
   0  -5   0   10.95   15.10
   0  -5   0   19.03   17.84
   0  -5   0   22.36   20.07
   0   5   126835.96  999.28
   0   5   126943.53 1025.74
   0   5   125526.74 1056.39
   0   5   124962.51  934.43
   0   5   127684.04 1127.11
   0   5  -125035.30 1081.53
   0   5  -126375.72  948.96
   0   5  -124940.94  961.97
   0   5  -125050.90  972.21
   0   5  -126273.48 1260.50
   0  -5  -126066.19  942.81
   0  -5  -126061.03  925.71
   0  -5  -127307.36  942.57
   0  -5  -127152.84  958.57
   0  -5  -126924.06 1128.74
   0  -5   125123.75  997.47
   0  -5   125493.62  902.44
   0  -5   126716.45  957.57
   0  -5   127069.18 1013.15
   0  -5   125971.90  991.45
   0   5   2 8243.72  356.22
   0   5   2 8863.86  350.88
   0   5   2 8075.00  351.66
   0   5   2 8270.35  370.50
   0   5   2 8512.42  370.05
   0   5  -2 7503.82  351.63
   0   5  -2 7658.75  459.95
   0   5  -2 7987.46  353.74
   0   5  -2 7899.82  384.00
   0   5  -2 8232.93  486.09
   0  -5  -2 7966.93  385.50
   0  -5  -2 8294.07  342.26
   0  -5  -2 8171.91  326.93
   0  -5  -2 8468.43  353.96
   0  -5  -2 7898.29  431.76
   0  -5   2 7627.46  360.47
   0  -5   2 7740.75  441.06
   0  -5   2 8402.60  359.71
   0  -5   2 8225.21  415.04
   0  -5   2 8177.13  381.59
   0   5   336379.47 1162.91
   0   5   338180.55 1259.31
   0   5   333997.59 1252.66
   0   5   334623.93 1267.65
   0   5  -331226.00 1286.80
   0   5  -334794.99 1254.12
   0   5  -334069.70 1421.57
   0  -5  -334196.52 1310.79
   0  -5  -332820.89 1236.33
   0  -5  -335768.41 1261.41
   0  -5  -336339.91 1266.34
   0  -5  -334508.38 1290.57
   0  -5   333675.90 1273.21
   0  -5   330191.46 1289.83
   0  -5   335229.70 1297.65
   0  -5   332971.33 1321.25
   0   5   4  206.34   26.53
   0   5   4  190.11   30.43
   0   5   4  208.55   30.77
   0   5  -4  152.71   21.29
   0   5  -4  127.19   31.28
   0  -5  -4  245.26   34.26
   0  -5  -4  225.71   33.18
   0  -5  -4  147.43   29.40
   0  -5  -4  229.56   29.12
   0  -5  -4  260.06   31.52
   0  -5   4  225.55   28.45
   0  -5   4  183.50   29.73
   0  -5   4  184.89   22.65
   0  -5   4  202.15   27.19
   0  -5   4  170.73   34.78
   0   5   515214.56  562.94
   0   5   513636.71  591.65
   0   5   515099.75  631.64
   0   5  -513658.54  649.19
   0   5  -511342.44  494.69
   0   5  -513926.09  680.71
   0  -5  -514625.30  656.99
   0  -5  -513320.45  603.82
   0  -5  -514124.58  676.87
   0  -5  -514590.82  687.45
   0  -5   512832.70  645.29
   0  -5   514155.32  638.03
   0  -5   512430.05  560.76
   0  -5   514815.87  627.30
   0   5   6 4775.61  269.32
   0   5   6 4899.66  265.90
   0   5   6 5227.65  278.34
   0   5   6 4568.67  227.94
   0   5  -6 4561.36  285.05
   0   5  -6 3862.86  237.99
   0   5  -6 4675.08  307.37
   0   5  -6 5045.01  283.17
   0  -5  -6 4858.29  286.92
   0  -5  -6 4917.30  251.50
   0  -5  -6 4973.65  330.88
   0  -5   6 4496.79  265.73
   0  -5   6 4586.93  261.51
   0  -5   6 4023.78  233.51
   0   5   725202.75  986.46
   0   5   723466.19  958.82
   0   5  -721697.57 1038.43
   0   5  -721085.41  989.02
   0   5  -722593.44  884.77
   0  -5  -722460.71 1116.05
   0  -5  -722632.89  969.15
   0  -5  -722182.17  886.60
   0  -5  -722302.11 1000.85
   0  -5   722819.27 1116.11
   0  -5   722314.61  940.46
   0  -5   719069.80  806.10
   0   5   8  626.19   62.68
   0   5   8  634.32   71.49
   0   5  -8  608.80   70.94
   0   5  -8  583.17   72.63
   0   5  -8  654.50   68.05
   0  -5  -8  670.72   71.89
   0  -5  -8  702.35   57.20
   0  -5  -8  567.60   48.75
   0  -5  -8  735.18   72.09
   0  -5   8  621.74   76.80
   0  -5   8  560.18   61.55
   0  -5   8  503.25   51.40
   0   5   9  156.15   45.01
   0   5   9  165.27   33.84
   0   5  -9  140.00   32.13
   0   5  -9   89.29   42.70
   0   5  -9   75.38   44.55
   0  -5  -9   86.38   30.47
   0  -5  -9  115.66   28.48
   0  -5  -9  103.03   18.73
   0  -5  -9   73.33   33.33
   0  -5   9   97.97   36.29
   0  -5   9   94.87   25.77
   0  -5   9   86.64   19.35
   0   5  10 2979.24  225.27
   0   5  10 2678.52  158.02
   0   5 -10 2325.86  205.86
   0   5 -10 2548.73  176.56
   0   5 -10 2932.71  201.75
   0  -5 -10 3112.98  218.61
   0  -5 -10 2843.04  152.60
   0  -5 -10 2230.81  184.88
   0  -5 -10 2712.62  181.06
   0  -5  10 2905.99  216.09
   0  -5  10 2645.36  157.29
   0   5  1118288.09  899.83
   0   5  1116048.23  632.81
   0   5 -1115012.66  693.50
   0   5 -1115423.36  777.95
   0   5 -1115665.33  619.10
   0  -5 -1116540.06  770.10
   0  -5 -1115719.42  681.15
   0  -5 -1113217.92  600.53
   0  -5 -1115778.51  705.16
   0  -5  1116526.46  777.49
   0  -5  1116210.06  672.14
   0   5  12 1251.24  107.46
   0   5  12 1201.96   77.92
   0   5 -12 1283.21  106.12
   0   5 -12 1255.62  130.82
   0   5 -12 1269.88   99.75
   0  -5 -12 1245.12  109.56
   0  -5 -12 1114.23   82.95
   0  -5 -12  916.79   70.23
   0  -5 -12 1202.12  116.52
   0  -5  12 1200.38  104.76
   0  -5  12 1248.72  105.41
   0   5  13  519.17   75.36
   0   5  13  404.69   46.23
   0   5 -13  463.31   65.07
   0   5 -13  397.19   64.47
   0   5 -13  390.61   68.69
   0  -5 -13  317.16   59.33
   0  -5 -13  349.95   44.81
   0  -5 -13  297.84   63.62
   0  -5  13  382.74   51.80
   0  -5  13  484.53   58.76
   0   5  14   10.17   42.87
   0   5  14   17.29   29.21
   0   5 -14   -1.95   38.02
   0   5 -14   13.63   42.19
   0   5 -14   22.30   52.71
   0  -5 -14  -12.03   38.69
   0  -5 -14   11.34   24.25
   0  -5 -14   17.26   44.12
   0  -5  14   71.62   44.26
   0  -5  14   10.57   36.97
   0   5  15 8090.45  468.17
   0   5  15 7194.26  348.17
   0   5 -15 7524.23  429.43
   0   5 -15 7447.23  444.06
   0   5 -15 8464.92  463.68
   0  -5 -15 8108.86  439.09
   0  -5 -15 7256.43  355.98
   0  -5 -15 7375.49  452.28
   0  -5  15 7948.16  399.08
   0  -5  15 7542.34  392.15
   0   5  16  376.78   72.00
   0   5  16  304.10   48.67
   0   5 -16  294.56   51.84
   0  -5 -16  352.80   41.85
   0  -5  16  337.39   62.41
   0   5 -16  277.44   65.18
   0   5 -16  318.12   74.75
   0  -5 -16  320.87   75.14
   0  -5 -16  341.90   74.57
   0  -5  16  325.79   59.88
   0   5  17 3469.63  220.67
   0   5 -17 4184.93  293.95
   0   5 -17 3975.88  307.44
   0   5 -17 4274.55  278.17
   0  -5 -17 4196.62  289.22
   0  -5 -17 4072.01  297.86
   0  -5  17 4127.35  274.97
   0  -5  17 3847.13  302.49
   0   5  17 4026.19  314.99
   0   5  18   24.86   61.14
   0   5  18  -14.98   36.35
   0   5 -18   12.90   39.53
   0   5 -18   21.19   53.57
   0   5 -18  107.23   69.03
   0  -5 -18   48.07   46.29
   0  -5 -18   51.69   63.20
   0  -5  18   13.75   55.44
   0  -5  18   28.01   41.50
   0   5  19 1330.07  143.14
   0   5  19 1264.26  125.77
   0  -5 -19 1361.20  170.82
   0  -5  19 1460.81  127.35
   0  -5  19 1620.22  151.68
   0   5 -19 1435.29  138.64
   0   5 -19 1452.50  157.53
   0   5 -19 1338.53  137.70
   0  -5 -19 1520.50  166.80
   0   5  20   25.66   64.78
   0   5 -20   22.37   45.24
   0  -5 -20  -14.35   56.08
   0  -5 -20   14.14   64.70
   0  -5  20   24.53   43.96
   0  -5  20  -13.91   44.72
   0   5 -20   11.12   43.04
   0   5 -20   23.61   52.84
   0   5  21 1662.29  164.52
   0   5 -21 1491.12  147.77
   0   5 -21 1340.42  130.01
   0   5 -21 1710.74  135.56
   0  -5 -21 1703.43  170.70
   0  -5 -21 1495.38  172.11
   0  -5  21 1455.63  122.78
   0  -5  21 1571.01  159.49
   0   5  22  -81.23   61.55
   0   5 -22   48.82   61.95
   0   5 -22   20.02   62.27
   0   5 -22    2.28   61.27
   0  -5 -22   33.25   60.99
   0  -5 -22   -3.43   62.95
   0  -5  22   -6.39   61.71
   0  -5  22  -39.85   62.20
   0   6   063808.55 2221.94
   0   6   066245.47 2237.27
   0   6   064712.65 2224.33
   0  -6   063097.75 2249.56
   0  -6   065891.22 2248.19
   0  -6   068629.33 2145.98
   0  -6   064012.75 2512.86
   0   6   1  334.90   39.87
   0   6   1  354.60   33.85
   0   6   1  398.69   33.57
   0   6  -1  349.77   35.39
   0   6  -1  335.37   36.19
   0   6  -1  364.77   43.57
   0  -6  -1  366.12   36.30
   0  -6  -1  350.14   40.57
   0  -6  -1  357.94   34.90
   0  -6  -1  416.48   42.41
   0  -6   1  405.81   35.73
   0  -6   1  425.50   41.51
   0  -6   1  369.27   33.86
   0  -6   1  468.41   45.06
   0   6   2   76.07   21.46
   0   6   2   40.31   20.35
   0   6   2   69.23   25.18
   0   6  -2   59.66   20.75
   0   6  -2   67.73   17.07
   0   6  -2  136.65   29.08
   0  -6  -2   74.24   23.46
   0  -6  -2   48.95   26.28
   0  -6  -2   53.14   18.23
   0  -6  -2   61.30   26.49
   0  -6   2   48.14   23.24
   0  -6   2   90.56   26.85
   0  -6   2   99.17   19.66
   0  -6   2   63.70   26.28
   0   6   3 2130.01  121.37
   0   6   3 1991.22  116.62
   0   6   3 1948.17  119.71
   0   6  -3 1608.95  130.68
   0   6  -3 1989.59  114.51
   0   6  -3 1824.38  138.16
   0  -6  -3 2053.10  115.01
   0  -6  -3 2115.74  119.64
   0  -6  -3 1930.82  107.50
   0  -6  -3 2125.90  109.84
   0  -6   3 1856.14  104.45
   0  -6   3 2004.46  129.61
   0  -6   3 1795.98  114.11
   0  -6   3 1881.04  132.89
   0   6   437211.49 1348.92
   0   6   433946.54 1229.11
   0   6   434335.46 1374.91
   0   6  -428146.10 1216.56
   0   6  -432428.51 1163.05
   0   6  -432840.37 1291.83
   0  -6  -433571.34 1368.08
   0  -6  -435518.81 1320.14
   0  -6  -435884.56 1379.90
   0  -6   431967.72 1298.97
   0  -6   429537.67 1266.23
   0  -6   430776.16 1235.41
   0  -6   433036.31 1377.33
   0  -6  -5 3373.81  227.95
   0  -6   5 2811.29  167.23
   0   6   5 3253.44  197.54
   0   6   5 3268.69  190.92
   0   6   5 3539.81  221.70
   0   6  -5 2469.72  180.66
   0   6  -5 3108.15  211.83
   0  -6  -5 3371.94  184.74
   0  -6  -5 3373.75  214.97
   0  -6   5 2854.79  186.93
   0  -6   5 2956.59  154.41
   0  -6   5 3298.46  215.14
   0   6   611334.50  488.15
   0   6   612255.60  522.72
   0   6   611605.89  554.65
   0   6  -610424.36  539.25
   0   6  -6 8637.12  426.49
   0   6  -610648.81  582.36
   0  -6  -611529.41  558.39
   0  -6  -611386.61  494.96
   0  -6  -611190.87  668.48
   0  -6   610436.74  582.32
   0  -6   610719.32  470.58
   0  -6   6 9119.51  415.91
   0   6   7  762.73   71.93
   0   6   7  776.57   75.60
   0   6  -7  660.02   73.34
   0   6  -7  764.09   86.24
   0   6  -7  686.38   75.77
   0  -6  -7  704.74   72.93
   0  -6  -7  715.87   61.80
   0  -6  -7  659.36   61.89
   0  -6   7  655.33   68.16
   0  -6   7  661.54   60.70
   0  -6   7  597.27   78.14
   0   6   819113.01  800.63
   0   6   817237.15  818.30
   0   6  -816045.03  852.49
   0   6  -817984.48  938.99
   0   6  -818437.56  733.72
   0  -6  -818208.61  878.15
   0  -6  -817103.91  691.13
   0  -6  -817546.25  803.03
   0  -6  -818316.99  870.60
   0  -6   817211.18  864.84
   0  -6   817540.20  746.98
   0   6   9 2614.79  159.81
   0   6   9 2386.87  152.29
   0   6  -9 2414.71  161.87
   0   6  -9 2330.78  189.97
   0   6  -9 2495.69  159.31
   0  -6  -9 2438.68  191.75
   0  -6  -9 2151.70  131.90
   0  -6  -9 2091.20  141.23
   0  -6  -9 2234.60  179.73
   0  -6   9 2550.42  191.99
   0  -6   9 2312.81  147.00
   0   6  1012807.18  651.10
   0   6  1012347.75  537.16
   0   6 -1011226.81  612.39
   0   6 -1011379.93  640.19
   0   6 -1012466.04  553.36
   0  -6 -1012699.87  669.94
   0  -6 -1012616.09  531.87
   0  -6 -1010130.46  507.71
   0  -6 -1012352.66  619.26
   0  -6  1012725.67  641.64
   0  -6  1011421.22  524.58
   0   6  11  858.16   89.57
   0   6  11  863.92   76.72
   0   6 -11  668.83   90.01
   0   6 -11  803.43   90.87
   0   6 -11  936.66   82.55
   0  -6 -11  975.46   99.61
   0  -6 -11  834.51   70.57
   0  -6 -11  959.55   81.38
   0  -6  11  874.22   86.94
   0  -6  11  894.25   75.19
   0   6  12 5342.97  348.01
   0   6  12 4698.30  238.38
   0   6 -12 4895.54  280.91
   0   6 -12 4963.70  318.43
   0   6 -12 5005.33  287.04
   0  -6 -12 5217.22  344.30
   0  -6 -12 4626.67  242.07
   0  -6 -12 4903.90  278.71
   0  -6  12 4852.67  314.04
   0  -6  12 4986.20  266.52
   0   6 -13 2021.18  154.29
   0  -6  13 2150.91  154.14
   0   6  13 2288.35  164.18
   0   6  13 2122.46  129.21
   0   6 -13 2116.82  194.29
   0   6 -13 2370.02  154.02
   0  -6 -13 2093.89  157.95
   0  -6 -13 2167.20  129.41
   0  -6 -13 1870.56  161.77
   0  -6  13 2153.39  183.61
   0   6  14 5832.12  353.83
   0  -6  14 5174.67  324.23
   0   6  14 4896.71  274.41
   0   6 -14 5187.95  295.68
   0   6 -14 5224.19  334.71
   0   6 -14 5388.69  287.41
   0  -6 -14 5573.66  345.99
   0  -6 -14 5045.04  264.48
   0  -6 -14 5309.10  292.78
   0  -6  14 5259.31  281.98
   0   6  15  329.08   64.33
   0   6 -15  175.98   54.86
   0   6  15  215.99   43.56
   0   6 -15  186.15   50.05
   0   6 -15  197.28   73.26
   0  -6 -15  166.93   57.62
   0  -6 -15  210.82   34.00
   0  -6 -15  156.18   51.18
   0  -6  15  264.27   52.10
   0  -6  15  209.59   50.83
   0   6  16  -21.24   57.94
   0   6  16  -62.39   38.05
   0   6 -16   75.12   40.14
   0   6 -16  -23.23   39.11
   0   6 -16   52.38   66.22
   0  -6 -16   37.48   52.05
   0  -6 -16   45.55   44.81
   0  -6  16   43.54   43.70
   0  -6  16   61.43   37.64
   0   6  17 1147.82  121.34
   0   6  17  914.19   82.07
   0   6 -17  910.38  109.53
   0   6 -17 1013.95  128.58
   0   6 -17  963.18  140.36
   0  -6 -17 1145.04  131.69
   0  -6 -17 1028.37  113.86
   0  -6  17 1012.76  104.68
   0  -6  17 1042.38  107.10
   0   6  18 2389.23  199.56
   0   6  18 1768.77  133.44
   0   6 -18 2402.21  171.25
   0   6 -18 2246.47  220.88
   0   6 -18 2336.67  207.42
   0  -6 -18 2516.52  226.75
   0  -6 -18 2554.90  246.41
   0  -6  18 2340.68  182.87
   0  -6  18 2307.86  185.58
   0   6  19   28.81   48.73
   0   6 -19   54.42   51.41
   0   6 -19   53.44   53.99
   0   6 -19  120.83   65.15
   0  -6 -19   47.63   61.15
   0  -6 -19   82.21   54.26
   0  -6  19   32.69   44.49
   0  -6  19    6.59   37.65
   0   6  20  -13.38   55.59
   0   6 -20   -6.90   42.74
   0   6 -20   13.83   61.91
   0  -6 -20   10.81   50.93
   0  -6 -20   41.00   55.82
   0  -6  20   56.64   50.84
   0  -6  20   55.83   51.84
   0   6  21   34.46   54.77
   0   6 -21   67.61   50.44
   0   6 -21   98.44   69.91
   0  -6 -21   -3.86   58.12
   0  -6 -21  -41.55   60.09
   0  -6  21  -18.98   49.07
   0   7   0   -6.43   19.77
   0   7   0   -6.58   30.92
   0  -7   0    6.18   23.65
   0  -7   0    9.82   27.05
   0  -7   0    3.82   15.08
   0  -7   0    8.82   24.73
   0   7   115516.62  670.70
   0   7   115775.08  616.03
   0   7  -115542.62  666.77
   0  -7  -116048.44  616.71
   0  -7   115149.95  616.55
   0  -7   115891.59  615.33
   0   7  -115503.27  662.78
   0  -7  -114610.18  575.03
   0  -7  -115843.52  603.49
   0  -7  -116793.20  635.09
   0  -7   115424.97  595.52
   0  -7   116183.75  652.59
   0   7  -210205.66  446.58
   0  -7  -210102.74  400.85
   0  -7  -210740.68  432.17
   0  -7  -2 9639.17  423.30
   0   7   2 9795.29  433.28
   0   7   210076.56  422.50
   0   7  -2 9675.09  508.58
   0  -7  -2 9943.67  429.53
   0  -7   2 9582.96  400.52
   0  -7   2 9751.37  452.36
   0  -7   2 9009.73  417.46
   0  -7   2 9916.50  497.27
   0   7   321110.15  825.26
   0   7   319929.11  847.57
   0   7  -319388.51  781.33
   0   7  -319641.63  903.31
   0  -7  -320601.73  848.28
   0  -7  -322062.39  819.10
   0  -7  -320508.83  740.72
   0  -7   318906.10  780.22
   0  -7   320407.95  947.07
   0  -7   319681.50  827.76
   0  -7   320257.65  806.51
   0   7   4 4624.54  218.29
   0   7   4 4716.10  242.55
   0   7  -4 4451.80  212.82
   0   7  -4 4794.02  261.20
   0  -7  -4 4446.04  276.98
   0  -7  -4 4868.73  228.14
   0  -7  -4 4788.23  308.07
   0  -7   4 4398.36  222.49
   0  -7   4 4537.62  269.41
   0  -7   4 4068.92  223.51
   0  -7   4 4612.03  251.32
   0   7   5 3518.00  262.70
   0   7   5 3601.11  231.64
   0   7  -5 3184.37  222.75
   0  -7  -5 3303.65  228.27
   0  -7  -5 3304.60  181.84
   0  -7  -5 3562.00  235.89
   0  -7   5 3273.92  226.24
   0  -7   5 3697.01  217.80
   0  -7   5 3163.21  195.11
   0  -7   5 2624.48  186.19
   0  -7   5 3672.25  204.67
   0   7   6 2742.51  185.47
   0   7   6 3144.96  174.94
   0   7  -6 2515.93  173.58
   0   7  -6 2585.14  193.97
   0  -7  -6 2790.56  195.82
   0  -7  -6 2770.79  160.45
   0  -7  -6 2906.65  190.36
   0  -7   6 2593.84  196.93
   0  -7   6 2621.11  157.85
   0  -7   6 2204.45  143.37
   0  -7   6 2666.29  162.85
   0   7  -715804.44  755.28
   0  -7  -719433.86  925.20
   0  -7  -717872.06  729.66
   0  -7   716882.70  736.81
   0   7   717914.02  834.92
   0   7   719054.93  819.26
   0   7  -718035.45  943.30
   0   7  -718200.14  769.76
   0  -7  -718444.38  840.55
   0  -7   717679.60  875.64
   0   7   8  486.61   49.06
   0   7   8  402.31   46.72
   0   7  -8  338.70   56.61
   0  -7  -8  401.10   55.26
   0   7  -8  345.66   53.10
   0   7  -8  362.68   58.62
   0  -7  -8  504.06   42.07
   0  -7  -8  503.53   59.50
   0  -7   8  368.38   62.06
   0  -7   8  428.24   39.55
   0  -7   8  300.52   36.02
   0   7   9 1768.93  137.14
   0   7   9 1710.63  123.66
   0   7  -9 1618.16  121.25
   0   7  -9 1637.57  130.59
   0   7  -9 1520.89  135.63
   0  -7  -9 1572.02  130.82
   0  -7  -9 1580.70  108.94
   0  -7  -9 1607.98  138.45
   0  -7   9 1706.80  162.15
   0  -7   9 1609.41  111.66
   0   7  10  481.05   50.03
   0   7  10  404.42   47.69
   0   7 -10  344.33   52.28
   0   7 -10  363.41   71.11
   0   7 -10  452.04   88.48
   0  -7 -10  370.12   60.26
   0  -7 -10  421.96   44.33
   0  -7 -10  382.09   60.21
   0  -7  10  336.31   66.87
   0  -7  10  332.34   48.45
   0   7  1113319.55  640.13
   0   7  1112162.83  582.88
   0   7 -1112350.50  657.26
   0   7 -1112080.68  669.67
   0   7 -1112709.37  592.31
   0  -7 -1114025.09  684.75
   0  -7 -1112167.32  569.00
   0  -7 -1111903.50  664.90
   0  -7  1112973.19  633.00
   0  -7  1112284.17  534.44
   0   7  12 1517.10  125.86
   0   7  12 1500.28  116.32
   0   7 -12 1428.52  123.84
   0   7 -12 1433.61  134.83
   0   7 -12 1412.10  139.96
   0  -7 -12 1570.62  146.37
   0  -7 -12 1493.78  105.77
   0  -7 -12 1521.73  135.69
   0  -7  12 1622.17  135.38
   0  -7  12 1356.13  110.89
   0   7 -13  832.09   91.72
   0   7  13  753.68   99.76
   0   7  13  760.69   76.38
   0   7 -13  798.56   89.48
   0   7 -13  784.38  105.63
   0  -7 -13  844.10  102.62
   0  -7 -13  771.03   68.75
   0  -7 -13  826.24   92.13
   0  -7  13  750.65   78.80
   0  -7  13  817.34   87.94
   0   7  14  -51.14   43.23
   0   7  14  -15.44   43.58
   0   7 -14  -39.24   43.32
   0   7 -14   -5.83   43.64
   0   7 -14    5.92   43.73
   0  -7 -14   -8.32   43.14
   0  -7 -14   19.67   42.84
   0  -7 -14   41.42   43.49
   0  -7  14   23.58   43.54
   0  -7  14   19.08   43.34
   0   7  15 4063.12  254.46
   0   7  15 4394.23  295.01
   0   7 -15 4460.42  254.83
   0   7 -15 4385.17  312.51
   0   7 -15 4544.59  287.45
   0  -7 -15 4872.77  328.69
   0  -7 -15 4523.84  304.85
   0  -7  15 4128.30  289.51
   0  -7  15 4021.39  242.01
   0   7  16  297.06   65.36
   0   7  16  337.75   58.46
   0   7 -16  388.77   70.09
   0   7 -16  379.29   82.96
   0   7 -16  439.09   97.97
   0  -7 -16  422.36   64.56
   0  -7 -16  359.49   81.17
   0  -7  16  418.58   76.97
   0  -7  16  357.59   58.71
   0   7  17  798.11  108.45
   0   7  17  560.94   68.11
   0   7 -17  728.80   92.65
   0   7 -17  710.58  108.86
   0   7 -17  837.45  115.94
   0  -7 -17  567.42   90.05
   0  -7 -17  711.67   98.55
   0  -7  17  788.85  100.45
   0  -7  17  631.82   80.30
   0   7  18   36.23   56.29
   0   7 -18  125.51   48.67
   0   7 -18   44.85   49.24
   0   7 -18  116.55   52.90
   0  -7 -18  120.59   57.20
   0  -7 -18  119.25   67.79
   0  -7  18   93.40   62.54
   0  -7  18   72.20   48.02
   0   7  19 1311.23  148.09
   0   7 -19 1116.56  120.57
   0   7 -19 1288.54  156.98
   0   7 -19 1325.86  148.58
   0  -7 -19 1560.05  158.88
   0  -7 -19 1543.89  153.67
   0  -7  19 1611.22  158.65
   0   7 -20  369.72   86.45
   0   7  20  398.96   77.00
   0   7 -20  354.60   87.49
   0  -7 -20  411.05   76.22
   0  -7 -20  413.62   85.11
   0  -7  20  272.13   78.97
   0   8   018556.60  812.58
   0   8   019318.20  746.06
   0  -8   020599.92  760.91
   0  -8   020046.62  786.13
   0  -8   018671.58  800.27
   0  -8   018949.30  713.41
   0   8  -1 4342.95  226.53
   0   8  -1 4311.12  233.79
   0  -8  -1 4097.90  207.15
   0  -8  -1 4207.43  225.56
   0  -8   1 4243.68  222.55
   0  -8   1 4480.00  231.65
   0  -8   1 4173.46  207.17
   0  -8   1 4204.00  224.06
   0  -8  -1 4604.33  254.95
   0   8   1 4332.61  208.95
   0   8   1 4338.98  232.29
   0   8   2 2058.77  122.97
   0   8   2 2040.31  118.29
   0   8  -2 1826.79  114.17
   0   8  -2 1994.13  137.85
   0  -8  -2 1997.64  132.51
   0  -8  -2 2321.96  136.56
   0  -8  -2 2116.89  129.38
   0  -8   2 1967.35  107.28
   0  -8   2 2016.10  118.99
   0  -8   2 1792.83  103.24
   0  -8   2 2096.35  126.45
   0   8   3   43.09   25.48
   0   8   3   78.51   36.04
   0   8  -3   48.71   27.24
   0   8  -3   78.61   41.90
   0  -8  -3   47.95   28.57
   0  -8  -3   25.33   33.00
   0  -8  -3   94.66   32.31
   0  -8   3   94.16   30.93
   0  -8   3   37.01   32.89
   0  -8   3   70.13   20.52
   0  -8   3   66.20   36.51
   0   8   428556.02 1121.04
   0   8  -428291.83 1073.91
   0   8  -429722.74 1291.23
   0  -8  -428977.12 1216.42
   0  -8  -430454.99 1281.51
   0  -8   426636.36 1153.61
   0  -8   427474.51 1223.59
   0  -8   428057.01 1167.84
   0   8   430312.28 1191.29
   0  -8  -432284.80 1225.34
   0   8   5 3489.06  216.14
   0   8   5 3576.59  213.42
   0   8  -5 3112.07  233.03
   0  -8  -5 3424.76  200.86
   0  -8  -5 3840.17  230.49
   0  -8  -5 3434.96  240.83
   0  -8   5 3120.37  184.55
   0  -8   5 3531.52  227.87
   0  -8   5 3189.00  168.17
   0  -8   5 3192.18  184.64
   0   8   6 3410.25  200.33
   0   8   6 3481.95  221.45
   0   8  -6 3063.38  202.71
   0   8  -6 3291.99  234.47
   0  -8  -6 3641.91  229.17
   0  -8  -6 3296.87  185.76
   0  -8  -6 3170.07  219.33
   0  -8   6 3271.83  231.98
   0  -8   6 2938.77  177.69
   0  -8   6 3107.43  223.58
   0   8   7   14.92   36.00
   0   8   7   34.23   38.12
   0   8  -7   17.06   31.73
   0   8  -7  -81.59   41.32
   0   8  -7   25.37   48.87
   0  -8  -7    3.00   36.73
   0  -8  -7   12.05   26.58
   0  -8  -7   55.27   38.29
   0  -8   7   68.09   49.10
   0  -8   7   16.39   24.37
   0  -8   7   18.38   14.74
   0   8   8 5894.50  373.23
   0   8   8 5749.43  303.70
   0   8  -8 5373.76  317.60
   0   8  -8 6010.14  378.35
   0   8  -8 5740.93  279.65
   0  -8  -8 5932.65  353.08
   0  -8  -8 5359.89  282.59
   0  -8  -8 5644.16  338.49
   0  -8   8 5656.30  345.13
   0  -8   8 5273.84  298.46
   0   8   9 3434.94  212.53
   0   8   9 3263.29  206.90
   0   8  -9 3093.20  217.68
   0   8  -9 3050.51  237.17
   0   8  -9 3515.09  239.61
   0  -8  -9 3444.98  225.04
   0  -8  -9 3326.67  197.44
   0  -8  -9 3210.37  230.52
   0  -8   9 3436.99  259.55
   0  -8   9 3138.67  183.81
   0   8  10 4260.20  240.13
   0   8  10 4408.56  231.94
   0   8 -10 3849.48  245.02
   0   8 -10 4257.76  304.22
   0   8 -10 3892.33  251.08
   0  -8 -10 4241.30  272.28
   0  -8 -10 4075.55  250.32
   0  -8 -10 4103.01  239.81
   0  -8  10 4449.02  291.62
   0  -8  10 3865.03  234.87
   0   8  11  656.85   83.08
   0   8  11  608.26   66.43
   0   8 -11  773.05   82.85
   0   8 -11  610.91   76.80
   0   8 -11  695.45   90.28
   0  -8 -11  823.24   96.30
   0  -8 -11  680.78   63.73
   0  -8 -11  722.47   97.06
   0  -8  11  746.59  108.38
   0  -8  11  643.00   64.08
   0   8  12 1056.55  112.89
   0   8 -12  962.75   95.45
   0  -8 -12  987.82   80.21
   0  -8 -12  947.66   94.43
   0  -8  12  918.43  106.65
   0  -8  12  839.86   83.43
   0   8  12 1076.38   99.37
   0   8 -12  947.68  103.42
   0   8 -12 1026.67   95.44
   0  -8 -12 1055.34  114.12
   0  -8 -13  883.45   74.60
   0  -8  13  943.66   86.27
   0  -8  13 1024.79  114.17
   0   8  13  798.23  105.46
   0   8  13  846.33   89.75
   0   8 -13  904.87   92.05
   0   8 -13 1028.27  113.60
   0   8 -13  941.59  117.66
   0  -8 -13 1061.74  133.20
   0  -8 -13  970.73  114.96
   0   8  14 5548.34  299.02
   0   8  14 6271.78  354.41
   0   8 -14 5696.00  360.57
   0   8 -14 5602.58  401.15
   0  -8 -14 6312.95  365.55
   0  -8 -14 6105.60  377.64
   0  -8  14 6174.16  360.61
   0  -8  14 5164.52  301.80
   0   8 -14 5614.71  349.20
   0   8  15   89.09   57.75
   0   8  15   57.47   47.17
   0   8 -15  177.20   52.27
   0   8 -15  166.08   60.42
   0   8 -15  153.86   54.80
   0  -8 -15  134.67   57.13
   0  -8 -15  145.44   58.86
   0  -8  15  178.32   54.88
   0  -8  15  102.46   42.36
   0   8  16  444.61   89.10
   0   8  16  374.50   63.52
   0   8 -16  568.02   78.86
   0   8 -16  457.09   91.23
   0   8 -16  400.74   82.98
   0  -8 -16  500.67   76.53
   0  -8 -16  561.00   93.54
   0  -8  16  403.33   71.07
   0   8  17  187.09   66.90
   0   8  17  186.60   50.01
   0   8 -17  226.81   53.04
   0   8 -17  237.67   60.39
   0   8 -17  158.53   72.13
   0  -8 -17  211.52   75.13
   0  -8 -17  176.80   63.56
   0  -8  17  356.79   81.43
   0   8  18 1772.22  181.55
   0   8 -18 1869.61  150.14
   0   8 -18 1944.01  196.99
   0   8 -18 2004.73  190.34
   0  -8 -18 2222.08  204.62
   0  -8 -18 1780.47  160.28
   0  -8  18 1956.41  194.99
   0   8  19  244.20   85.85
   0   8 -19  293.95   81.09
   0   8 -19  321.27   90.14
   0  -8 -19  276.15   73.43
   0  -8 -19  257.66   71.68
   0  -8  19  204.26   64.35
   0   8 -20   47.57   46.37
   0  -8  20  -16.23   53.75
   0   9   0  -42.25   23.74
   0   9   0   32.01   23.65
   0  -9   0  -28.94   23.97
   0  -9   0    5.94   23.56
   0  -9   0  -21.42   23.88
   0   9   1 4649.28  222.93
   0   9   1 4950.47  255.33
   0   9  -1 4503.67  291.02
   0   9  -1 4641.07  228.81
   0  -9  -1 4513.52  214.63
   0  -9  -1 4691.71  228.89
   0  -9  -1 4960.10  214.52
   0  -9   1 4445.95  221.90
   0  -9   1 4671.96  236.12
   0  -9   1 4726.51  266.58
   0   9   2 1334.11   86.08
   0   9   2 1536.94  107.18
   0   9  -2 1307.02  108.89
   0   9  -2 1423.27  111.00
   0  -9  -2 1317.92   76.54
   0  -9  -2 1443.23  103.83
   0  -9  -2 1359.82   98.79
   0  -9   2 1299.15   90.93
   0  -9   2 1391.67  102.03
   0  -9   2 1409.14  106.41
   0   9  -313878.47  730.92
   0  -9  -314465.97  593.20
   0  -9   313538.27  574.91
   0   9   313939.18  596.21
   0   9   314495.87  586.38
   0   9  -313042.50  586.31
   0  -9  -313986.66  537.11
   0  -9  -313803.46  596.77
   0  -9   312506.54  583.30
   0  -9   314784.55  731.14
   0   9   4  837.09   78.34
   0   9   4  679.08   74.61
   0  -9  -4  847.83   89.42
   0   9  -4  629.34   52.18
   0  -9   4  706.45   55.63
   0   9  -4  608.05   83.58
   0  -9  -4  752.76   66.77
   0  -9  -4  855.74   70.23
   0  -9   4  844.00   85.72
   0  -9   4  510.64   49.17
   0  -9   4  706.79   86.77
   0   9   5  409.16   52.79
   0   9   5  414.34   66.99
   0   9  -5  342.90   68.10
   0  -9  -5  337.38   55.94
   0  -9  -5  386.26   51.88
   0  -9  -5  328.29   57.28
   0  -9   5  351.21   49.65
   0  -9   5  437.86   67.07
   0  -9   5  310.03   34.47
   0  -9   5  363.57   60.43
   0   9   6 1622.54  109.05
   0   9   6 1532.95  122.52
   0   9  -6 1232.76  112.39
   0   9  -6 1406.63  135.92
   0  -9  -6 1406.77  115.99
   0  -9  -6 1625.40  105.34
   0  -9  -6 1521.39  138.05
   0  -9   6 1536.25  130.25
   0  -9   6 1221.80   92.70
   0  -9   6 1381.18  114.28
   0   9   714747.83  766.09
   0   9   715114.30  622.20
   0   9  -712450.30  632.44
   0   9  -713967.38  768.24
   0  -9  -714548.84  627.47
   0  -9  -714167.35  644.70
   0  -9  -714034.37  698.60
   0  -9   712801.35  676.61
   0  -9   712228.13  583.95
   0   9   8 1307.29  106.13
   0   9   8 1249.46  109.81
   0   9  -8 1164.42  107.02
   0   9  -8 1135.06  124.90
   0   9  -8 1216.72  102.92
   0  -9  -8 1380.67  106.24
   0  -9  -8 1123.59   93.43
   0  -9  -8 1196.99  109.94
   0  -9   8 1270.96  123.95
   0  -9   8 1093.23   83.64
   0   9   9  305.73   57.79
   0   9   9  351.17   64.02
   0   9  -9  271.22   53.45
   0   9  -9  364.41   65.07
   0   9  -9  332.13   73.75
   0  -9  -9  298.91   52.33
   0  -9  -9  233.76   39.59
   0  -9  -9  265.46   54.97
   0  -9   9  358.78   65.99
   0  -9   9  273.95   38.75
   0   9  10 3152.16  212.18
   0   9  10 3148.65  187.40
   0   9 -10 2716.35  203.99
   0   9 -10 2857.41  239.40
   0   9 -10 2970.76  218.04
   0  -9 -10 3167.23  225.26
   0  -9 -10 3141.57  185.09
   0  -9 -10 3008.57  199.94
   0  -9  10 3478.38  252.03
   0  -9  10 2749.26  166.32
   0   9  11 5350.56  307.89
   0   9  11 5193.22  302.25
   0   9 -11 4603.37  284.49
   0   9 -11 5183.20  366.33
   0   9 -11 5374.18  300.49
   0  -9 -11 5743.25  333.37
   0  -9 -11 5035.27  270.79
   0  -9 -11 5325.75  372.17
   0  -9  11 5104.28  329.79
   0  -9  11 4446.74  270.64
   0   9  12  706.96   84.73
   0   9  12  632.34   72.03
   0   9 -12  785.08   82.51
   0   9 -12  746.22   96.31
   0   9 -12  748.50  106.94
   0  -9 -12  824.06  105.16
   0  -9 -12  716.06   67.26
   0  -9 -12  616.71   88.39
   0  -9  12  601.03   88.23
   0  -9  12  474.40   69.82
   0   9  13  298.58   59.44
   0   9  13  266.99   57.51
   0   9 -13  277.04   56.87
   0   9 -13  345.68   71.79
   0   9 -13  402.48   79.67
   0  -9 -13  373.91   57.27
   0  -9 -13  328.34   75.98
   0  -9  13  346.18   70.18
   0   9  14  276.10   67.21
   0   9  14  255.57   56.73
   0   9 -14  234.99   51.04
   0   9 -14  278.77   63.76
   0   9 -14  208.29   81.52
   0  -9 -14  220.36   65.81
   0  -9 -14  164.55   70.20
   0  -9  14  260.33   63.55
   0   9  15 2787.08  215.23
   0   9  15 2519.73  183.59
   0   9 -15 2427.81  187.19
   0   9 -15 2676.47  258.22
   0   9 -15 2858.64  234.24
   0  -9 -15 2895.26  244.41
   0  -9 -15 2567.69  194.49
   0  -9  15 2494.05  222.58
   0   9  16 2732.98  246.83
   0   9  16 2202.37  175.30
   0   9 -16 2164.91  166.34
   0   9 -16 2345.71  227.90
   0   9 -16 2741.45  251.81
   0  -9 -16 2748.72  227.69
   0  -9 -16 2416.42  225.13
   0  -9  16 2409.95  218.39
   0   9  17  929.37  128.76
   0   9 -17  846.15  123.37
   0   9 -17  630.77  105.14
   0  -9 -17  667.30  103.01
   0  -9 -17  682.34   94.89
   0  -9  17  576.40  104.51
   0   9  18   19.89   58.56
   0   9 -18   83.36   64.40
   0   9 -18  106.06   58.35
   0  -9 -18   44.70   52.74
   0  -9 -18   26.33   55.31
   0  -9  18   35.90   57.97
   0  10   017681.75  758.24
   0  10   018537.89  763.25
   0 -10   016607.13  653.45
   0 -10   017255.67  795.31
   0 -10   018336.98  755.41
   0  10   1 3725.04  232.33
   0  10   1 3864.64  204.33
   0  10  -1 3645.72  220.11
   0  10  -1 3616.35  222.08
   0 -10  -1 3695.26  204.29
   0 -10  -1 3921.99  227.82
   0 -10  -1 3727.33  204.20
   0 -10   1 3620.62  203.09
   0 -10   1 4149.65  238.47
   0 -10   1 3749.67  218.46
   0  10   2   30.97   29.91
   0  10   2   -7.88   52.88
   0  10  -2   43.06   29.23
   0  10  -2   -2.15   52.36
   0 -10  -2   27.32   34.71
   0 -10  -2   51.51   41.79
   0 -10  -2    6.97   42.61
   0 -10   2   55.74   38.34
   0 -10   2   16.10   41.13
   0 -10   2    4.70   43.73
   0  10   3 3065.48  189.09
   0  10   3 3263.84  192.62
   0  10  -3 2626.31  165.29
   0  10  -3 3029.62  233.19
   0 -10  -3 2908.36  160.50
   0 -10  -3 3182.69  192.99
   0 -10  -3 3524.30  204.17
   0 -10   3 2897.27  189.79
   0 -10   3 3190.77  221.12
   0 -10   3 2957.21  188.41
   0  10   4 4799.94  256.89
   0  10   4 5147.50  306.95
   0  10  -4 4213.63  244.69
   0  10  -4 4595.89  324.16
   0 -10  -4 5128.52  292.30
   0 -10  -4 5200.22  285.27
   0 -10  -4 4833.88  284.04
   0 -10   4 4287.77  253.65
   0 -10   4 5044.19  336.52
   0 -10   4 4733.80  292.66
   0  10   5 4849.93  237.99
   0  10   5 5384.57  307.71
   0  10  -5 4524.64  351.07
   0 -10  -5 4324.17  283.59
   0 -10  -5 4831.67  266.50
   0 -10  -5 4419.92  343.32
   0 -10   5 4059.35  243.80
   0 -10   5 4112.42  270.80
   0 -10   5 3909.54  205.56
   0 -10   5 4053.73  247.13
   0  10   6 1321.31  118.47
   0  10   6 1287.99  113.52
   0  10  -6  905.28   95.68
   0  10  -6  954.23  122.28
   0 -10  -6 1048.81  116.43
   0 -10  -6 1167.19  105.59
   0 -10  -6 1175.86  100.22
   0 -10   6 1134.15  128.25
   0 -10   6  911.50   71.46
   0 -10   6 1157.70  103.04
   0  10   7   14.81   33.97
   0  10   7   33.20   47.15
   0  10  -7  -51.45   39.47
   0  10  -7  -22.23   52.94
   0 -10  -7   18.80   31.30
   0 -10  -7  -23.93   34.94
   0 -10  -7   14.32   52.86
   0 -10   7   91.19   53.81
   0 -10   7   14.90   25.29
   0 -10   7    4.64   48.94
   0  10   8 5045.05  279.26
   0  10   8 5185.50  299.11
   0  10  -8 4125.01  255.14
   0  10  -8 5153.32  375.38
   0  10  -8 4598.83  294.28
   0 -10  -8 5137.76  305.73
   0 -10  -8 5305.29  275.49
   0 -10  -8 5296.79  315.32
   0 -10   8 4803.47  350.78
   0 -10   8 4299.16  231.27
   0  10   9 2473.42  160.19
   0  10   9 2338.11  187.91
   0  10  -9 1936.23  157.50
   0  10  -9 2099.31  197.89
   0  10  -9 2235.57  180.67
   0 -10  -9 2469.32  183.90
   0 -10  -9 2379.72  159.76
   0 -10  -9 2459.36  202.91
   0 -10   9 2218.49  186.05
   0 -10   9 1776.70  124.38
   0  10  10 4076.62  274.97
   0  10  10 4197.98  271.45
   0  10 -10 3400.40  229.80
   0  10 -10 3757.40  277.46
   0  10 -10 3612.80  263.62
   0 -10 -10 4300.21  270.62
   0 -10 -10 4147.19  236.12
   0 -10 -10 3873.71  290.16
   0 -10  10 3902.19  291.26
   0  10  11  132.89   48.50
   0  10  11  147.21   53.19
   0  10 -11  211.14   50.30
   0  10 -11  127.62   44.83
   0  10 -11   75.10   57.77
   0 -10 -11  182.11   54.90
   0 -10 -11  131.39   37.62
   0 -10 -11  145.54   49.27
   0 -10  11   74.16   63.03
   0  10  12  634.53   93.13
   0  10  12  596.15   86.01
   0  10 -12  598.47   81.59
   0  10 -12  746.22   86.30
   0  10 -12  642.52  101.95
   0 -10 -12  734.89   94.57
   0 -10 -12  573.64   98.67
   0 -10  12  716.29  104.36
   0  10  13  893.98  122.27
   0  10  13  858.43   92.00
   0  10 -13  818.03  104.09
   0  10 -13  719.91  111.82
   0  10 -13  868.18  110.31
   0 -10 -13 1192.90  119.56
   0 -10 -13  993.24  117.79
   0 -10  13 1036.14  113.70
   0  10  14 3005.03  248.60
   0  10  14 2745.57  211.23
   0  10 -14 2439.07  205.65
   0  10 -14 2914.22  263.24
   0  10 -14 2870.22  196.21
   0 -10 -14 3093.89  254.68
   0 -10 -14 2947.98  256.95
   0 -10  14 3065.68  257.04
   0  10  15  308.16   70.21
   0  10  15  274.18   63.00
   0  10 -15  274.63   81.97
   0  10 -15  239.99   76.79
   0 -10 -15  137.37   62.07
   0 -10 -15  256.31   73.33
   0 -10  15  234.45   66.17
   0  10  16   15.30   54.82
   0  10 -16   14.08   46.82
   0  10 -16  -17.53   53.13
   0 -10 -16   28.12   57.09
   0 -10 -16  -41.37   56.35
   0 -10  16    9.61   46.99
   0  10  17   43.10   41.67
   0  10 -17  132.24   76.57
   0  10 -17   44.43   77.60
   0 -10 -17   66.11   53.72
   0 -10 -17  194.10   73.27
   0 -10  17  122.07   63.89
   0  11   0  -33.88   28.87
   0  11   0  -27.20   28.76
   0 -11   0    2.82   28.95
   0 -11   0  -64.18   28.50
   0 -11   0   25.12   28.92
   0  11   1 3325.92  195.62
   0  11   1 3467.91  214.21
   0  11  -1 2963.81  206.46
   0  11  -1 3432.73  229.69
   0 -11  -1 2918.01  178.12
   0 -11  -1 3803.03  212.95
   0 -11  -1 3183.22  191.16
   0 -11   1 3324.92  204.67
   0 -11   1 3771.80  240.35
   0 -11   1 3513.94  209.04
   0  11   2 5463.47  281.13
   0  11   2 6014.91  311.19
   0  11  -2 4732.77  279.06
   0  11  -2 5700.04  381.67
   0 -11  -2 5499.80  299.16
   0 -11  -2 6019.56  312.04
   0 -11  -2 6030.15  332.81
   0 -11   2 5135.12  303.19
   0 -11   2 6218.61  332.81
   0 -11   2 5497.42  356.22
   0  11   3 5592.97  278.82
   0  11   3 5886.05  335.58
   0  11  -3 4738.82  258.23
   0  11  -3 5496.17  383.16
   0 -11  -3 5391.63  285.62
   0 -11  -3 5909.87  268.49
   0 -11  -3 5547.91  330.45
   0 -11   3 5294.98  323.77
   0 -11   3 5926.55  377.05
   0 -11   3 5397.87  361.32
   0  11   4 2129.72  150.16
   0  11   4 2486.53  178.48
   0  11  -4 1622.34  123.78
   0  11  -4 2040.81  188.82
   0 -11  -4 2370.20  135.38
   0 -11  -4 2205.03  184.92
   0 -11  -4 2271.35  186.04
   0 -11   4 1861.03  141.48
   0 -11   4 1994.97  195.84
   0 -11   4 1822.41  163.10
   0  11   5 1084.57   88.73
   0  11   5 1158.30  115.63
   0  11  -5  967.87  125.93
   0 -11  -5  859.64   87.07
   0 -11  -5  938.91   93.34
   0 -11  -5  944.11  100.54
   0 -11   5  699.57   77.25
   0 -11   5  903.64  109.49
   0 -11   5  747.94   68.33
   0 -11   5  787.93  103.58
   0  11   6 2892.72  203.72
   0  11   6 3405.85  227.51
   0  11  -6 2423.18  178.90
   0  11  -6 3059.45  258.82
   0 -11  -6 2976.90  191.23
   0 -11  -6 3330.75  220.21
   0 -11  -6 3026.59  225.41
   0 -11   6 2944.35  259.80
   0 -11   6 2828.55  213.08
   0  11   7 5949.20  361.29
   0  11   7 6898.58  399.01
   0  11  -7 4930.12  297.16
   0  11  -7 5984.15  434.55
   0 -11  -7 5901.94  332.66
   0 -11  -7 6684.05  368.47
   0 -11  -7 6094.76  370.83
   0 -11   7 5916.24  380.27
   0 -11   7 5355.42  334.74
   0  11   8  645.21   85.30
   0  11   8  633.46   91.54
   0  11  -8  438.84   71.18
   0  11  -8  694.48  115.03
   0  11  -8  559.29   80.81
   0 -11  -8  558.27   75.87
   0 -11  -8  607.87   70.58
   0 -11  -8  648.45   83.71
   0 -11   8  615.21   98.70
   0  11   9   21.51   48.90
   0  11   9  -48.60   52.43
   0  11  -9  -36.79   40.37
   0  11  -9   47.14   52.78
   0  11  -9  -17.48   55.35
   0 -11  -9   21.63   44.09
   0 -11  -9   44.79   34.96
   0 -11  -9   48.95   52.02
   0 -11   9   72.77   67.35
   0  11  10  735.46   94.69
   0  11  10  962.67  106.00
   0  11 -10  784.37   94.42
   0  11 -10 1008.95  113.68
   0  11 -10  951.61  106.35
   0 -11 -10  692.24   84.99
   0 -11 -10  856.21   86.91
   0 -11 -10  956.36  102.88
   0 -11  10  884.97  109.76
   0  11  11 5502.28  381.55
   0  11  11 4946.25  329.19
   0  11 -11 4575.18  296.08
   0  11 -11 5371.29  382.99
   0  11 -11 5265.54  339.12
   0 -11 -11 5453.63  375.96
   0 -11 -11 5713.00  403.33
   0 -11  11 5576.26  369.06
   0  11  12  929.80   95.62
   0  11  12  922.07  113.28
   0  11 -12  984.76  118.08
   0  11 -12  937.75  124.67
   0 -11 -12 1027.58  135.61
   0 -11 -12  943.44  131.40
   0 -11  12  866.37  115.66
   0  11  13  201.98   47.25
   0  11  13  188.29   63.29
   0  11 -13  291.36   62.96
   0  11 -13  173.73   78.79
   0 -11 -13  307.69   71.14
   0 -11 -13  301.82   70.79
   0 -11  13  243.93   67.72
   0  11  14  262.79   69.36
   0  11  14  239.88   58.28
   0  11 -14  252.78   84.24
   0  11 -14  307.89   77.66
   0 -11 -14  246.20   65.19
   0 -11 -14  283.04   68.77
   0 -11  14  274.08   79.67
   0  11  15  822.06  116.95
   0  11 -15 1019.18  129.17
   0  11 -15  789.06  122.23
   0 -11 -15  998.59  131.28
   0 -11 -15  996.55  118.34
   0 -11  15  807.87  111.45
   0  11  16   49.53   61.98
   0  11 -16   59.22   65.82
   0  12   0 4829.23  258.72
   0  12   0 6048.35  344.83
   0 -12   0 5346.04  282.44
   0 -12   0 6027.33  372.75
   0 -12   0 5283.75  348.50
   0  12   1 1931.04  130.89
   0  12   1 2295.32  164.13
   0  12  -1 2187.38  198.53
   0 -12  -1 1989.02  162.90
   0 -12  -1 2351.59  169.28
   0 -12  -1 1963.16  171.55
   0 -12   1 1879.52  144.89
   0 -12   1 2372.19  206.58
   0 -12   1 1992.17  168.42
   0  12   2  106.23   32.80
   0  12   2  110.90   65.47
   0  12  -2   62.77   58.00
   0 -12  -2   44.04   43.88
   0 -12  -2   74.55   48.42
   0 -12  -2  209.20   67.45
   0 -12   2  100.70   39.49
   0 -12   2  168.38   66.14
   0 -12   2  138.31   62.37
   0  12   3 1286.80  114.81
   0  12   3 1419.56  130.94
   0  12  -3 1393.64  158.39
   0 -12  -3 1322.84  127.87
   0 -12  -3 1382.94  119.46
   0 -12  -3 1671.23  149.43
   0 -12   3 1062.29  109.57
   0 -12   3 1579.45  159.35
   0 -12   3 1368.84  138.72
   0  12   4 6915.64  349.88
   0  12   4 7722.12  442.03
   0  12  -4 7210.77  490.26
   0 -12  -4 6927.04  401.45
   0 -12  -4 8153.83  422.47
   0 -12  -4 7775.77  429.79
   0 -12   4 5962.26  345.71
   0 -12   4 7731.09  499.42
   0 -12   4 7443.25  463.31
   0  12   5 1765.24  143.27
   0  12   5 2031.24  169.85
   0  12  -5 1544.59  161.79
   0 -12  -5 1828.79  150.42
   0 -12  -5 1780.03  149.73
   0 -12  -5 1844.35  163.16
   0 -12   5 1447.72  125.83
   0 -12   5 1629.22  173.80
   0 -12   5 1744.37  149.89
   0  12   6 1344.92  120.79
   0  12   6 1641.49  150.69
   0  12  -6 1109.13  111.46
   0  12  -6 1479.73  171.29
   0 -12  -6 1505.68  149.37
   0 -12  -6 1496.95  134.39
   0 -12  -6 1523.61  163.70
   0 -12   6 1393.96  160.25
   0 -12   6 1338.49  129.78
   0  12   7  640.99   84.39
   0  12   7  771.24  104.64
   0  12  -7  569.35   81.91
   0  12  -7  876.75  109.00
   0 -12  -7  580.91   79.75
   0 -12  -7  636.69   84.86
   0 -12  -7  832.89   97.44
   0 -12   7  668.03  113.76
   0  12   8 1344.27  108.68
   0  12   8 1719.32  163.63
   0  12  -8 1158.58  120.08
   0  12  -8 1407.86  148.35
   0  12  -8 1379.22  145.92
   0 -12  -8 1475.34  147.16
   0 -12  -8 1445.43  119.17
   0 -12  -8 1739.49  157.41
   0 -12   8 1595.72  172.23
   0  12   9 1017.97  104.32
   0  12   9 1176.45  124.21
   0  12  -9  750.74   97.97
   0  12  -9 1032.88  121.22
   0  12  -9 1018.13  117.81
   0 -12  -9  956.56  111.18
   0 -12  -9 1037.60  105.60
   0 -12  -9 1135.23  146.28
   0 -12   9  980.75  130.69
   0  12  10  847.09   96.96
   0  12  10  884.86  114.35
   0  12 -10  897.66  129.72
   0  12 -10  875.88  110.40
   0 -12 -10 1055.67  106.11
   0 -12 -10  971.96  124.55
   0 -12  10  919.15  133.90
   0  12  11   95.67   52.73
   0  12  11  -33.01   55.42
   0  12 -11   91.20   64.37
   0  12 -11   22.32   62.55
   0 -12 -11   71.26   45.72
   0 -12 -11   86.36   57.26
   0 -12  11   75.68   67.27
   0  12  12  783.62   94.73
   0  12  12  833.00  115.43
   0  12 -12  903.11  124.52
   0  12 -12  927.49  129.29
   0 -12 -12  891.59  125.23
   0 -12 -12  807.07  107.47
   0 -12  12 1051.37  122.89
   0  12  13  661.38   94.00
   0  12  13  597.09   92.26
   0  12 -13  633.90  114.88
   0  12 -13  637.98  118.22
   0 -12 -13  693.86  105.22
   0 -12 -13  635.96   79.97
   0 -12  13  800.52   92.61
   0  12  14  506.50   76.28
   0 -12 -14  647.14  108.56
   0  13   0   13.25   58.47
   0 -13   0   21.68   38.58
   0 -13   0   69.45   64.03
   0 -13   0   31.11   51.52
   0  13   1 3478.38  234.26
   0  13  -1 3247.96  272.69
   0 -13  -1 2956.09  207.96
   0 -13  -1 3643.93  253.02
   0 -13  -1 3125.98  233.12
   0 -13   1 2575.80  174.28
   0 -13   1 3193.36  243.90
   0 -13   1 3249.53  259.68
   0  13   2 2410.47  203.85
   0  13  -2 2287.10  206.67
   0 -13  -2 2109.35  148.55
   0 -13  -2 2422.93  186.84
   0 -13  -2 2621.48  214.69
   0 -13   2 1930.15  150.94
   0 -13   2 2666.49  217.06
   0 -13   2 2317.78  198.17
   0  13   3 4573.45  326.29
   0  13  -3 4364.23  348.22
   0 -13  -3 3837.87  264.20
   0 -13  -3 4642.40  277.67
   0 -13  -3 4475.88  308.95
   0 -13   3 3344.77  250.06
   0 -13   3 4308.14  317.20
   0 -13   3 4035.48  287.72
   0  13   4  563.64   89.12
   0  13  -4  483.21  101.95
   0 -13  -4  457.36   60.07
   0 -13  -4  524.18   79.86
   0 -13  -4  578.97   89.75
   0 -13   4  348.38   59.99
   0 -13   4  618.53   94.21
   0 -13   4  448.51   74.22
   0  13   5  426.53   82.92
   0  13  -5  512.42  103.31
   0 -13  -5  434.85   66.49
   0 -13  -5  545.02   76.76
   0 -13  -5  618.60   92.13
   0 -13   5  547.61  100.20
   0 -13   5  497.92   88.10
   0  13   6 1882.80  152.33
   0  13   6 2416.06  199.89
   0  13  -6 1666.77  151.05
   0  13  -6 2168.34  209.74
   0 -13  -6 2289.61  184.40
   0 -13  -6 2187.08  175.17
   0 -13  -6 2184.15  202.97
   0 -13   6 2140.96  215.42
   0 -13   6 1872.35  175.71
   0  13   7 2310.66  161.65
   0  13   7 2976.15  258.42
   0  13  -7 2388.14  227.22
   0  13  -7 2235.34  196.35
   0 -13  -7 2396.88  178.91
   0 -13  -7 2685.89  199.44
   0 -13  -7 2684.90  221.82
   0 -13   7 2345.89  253.74
   0  13   8 1096.58  114.10
   0  13   8 1260.34  154.75
   0  13  -8 1364.26  143.47
   0  13  -8 1151.53  151.49
   0 -13  -8 1394.39  122.87
   0 -13  -8 1304.84  134.71
   0 -13   8 1250.10  158.17
   0  13   9   27.76   35.92
   0  13   9    7.78   61.70
   0  13  -9   82.23   63.11
   0  13  -9   42.02   57.95
   0 -13  -9   75.21   48.79
   0 -13  -9   56.05   59.65
   0 -13   9   63.56   62.31
   0  13  10  302.19   53.05
   0  13  10  335.03   81.67
   0  13 -10  244.64   79.75
   0  13 -10  338.40   74.53
   0 -13 -10  331.68   72.76
   0 -13 -10  215.36   77.17
   0 -13  10  220.55   80.44
   0  13  11  500.21   84.69
   0  13  11  642.11  103.05
   0  13 -11  566.92  116.59
   0  13 -11  538.73  118.37
   0 -13 -11  717.26   92.18
   0 -13 -11  704.47  104.58
   0 -13  11  644.41  118.90
   0  14   0 1988.29  179.87
   0 -14   0 1719.55  153.64
   0 -14   0 2252.27  199.58
   0 -14   0 1852.80  190.19
   0  14   1 1007.09  121.66
   0  14  -1  869.23  123.76
   0 -14  -1  630.88   78.00
   0 -14  -1  896.57  124.46
   0 -14  -1  936.83  108.91
   0 -14   1  705.03   84.68
   0 -14   1  920.76  126.79
   0 -14   1  867.83  131.20
   0  14   2  247.44   66.56
   0  14  -2  555.30   97.82
   0 -14  -2  325.11   64.31
   0 -14  -2  386.06   79.67
   0 -14  -2  388.01   72.55
   0 -14   2  344.11   88.48
   0 -14   2  436.45   86.22
   0  14   3  220.75   67.08
   0  14  -3  297.47   79.23
   0 -14  -3  209.26   51.94
   0 -14  -3  354.88   71.22
   0 -14  -3  273.32   71.63
   0 -14   3  282.20   80.93
   0 -14   3  202.13   69.75
   0  14   4 1876.86  182.13
   0  14  -4 1934.48  207.70
   0 -14  -4 1699.69  149.13
   0 -14  -4 1807.99  152.17
   0 -14  -4 1959.44  180.66
   0 -14   4 1756.36  175.69
   0 -14   4 1604.60  175.52
   0  14   5 1055.82  121.27
   0  14  -5  909.12  132.25
   0 -14  -5  837.88  107.98
   0 -14  -5 1048.67  113.15
   0 -14  -5  829.16  113.05
   0 -14   5  898.73  105.70
   0 -14   5  820.06  118.41
   0  14   6  292.81   86.00
   0  14  -6  240.35   84.58
   0 -14  -6  366.85   55.82
   0 -14  -6  203.73   60.78
   0 -14   6  168.61   71.01
   0 -14   6  167.32   67.02
   0  14   7  -53.11   49.26
   0  14  -7   77.08   59.26
   0  14  -7   73.65   64.00
   0 -14  -7   72.02   41.62
   0 -14  -7   68.67   52.30
   0 -14   7   36.08   72.85
   0  14   8 1550.43  156.69
   0 -14  -8 1349.82  148.34
   1   0   0 4800.87  229.46
   1   0   0 5062.39  239.91
   1   0   0 5087.43  181.40
   1   0   0 5472.51  264.48
  -1   0   0 5180.17  209.45
  -1   0   0 4606.86  221.87
  -1   0   0 4506.18  216.76
  -1   0   0 5127.96  224.35
  -1   0   0 5130.51  174.19
   1   0   1    1.89   12.23
   1   0   1   -0.35   10.85
   1   0   1   -1.18    9.65
   1   0   1   23.48   13.99
   1   0   1  -17.47   10.78
  -1   0  -1   11.12    9.08
  -1   0  -1   13.72   13.56
  -1   0  -1    3.93   12.51
  -1   0  -1   -5.63    6.58
   1   0   2 1072.06   59.08
   1   0   2  878.26   49.13
   1   0   2 1115.47   83.23
   1   0   2 1093.68   95.50
   1   0   2 1117.19   73.02
   1   0   2 1172.67   66.71
  -1   0  -2 1077.34   60.26
  -1   0  -2 1012.39   54.94
  -1   0  -2 1079.74   73.50
  -1   0  -2 1175.05   75.53
   1   0   3    7.35    8.69
   1   0   3    3.54   11.06
   1   0   3    8.28   17.62
   1   0   3    6.24   12.08
   1   0   3    0.16    7.51
  -1   0  -3   14.00   12.36
  -1   0  -3  -10.42    8.15
  -1   0  -3    4.17   14.92
  -1   0  -3    2.84   15.87
  -1   0  -3    3.46   11.73
   1   0   449236.31 1687.22
   1   0   449402.65 1670.37
   1   0   455539.94 1997.90
   1   0   455413.27 2011.42
   1   0   456327.32 1847.88
  -1   0  -449577.54 1654.30
  -1   0  -448866.23 1631.26
  -1   0  -451578.62 1947.57
  -1   0  -455620.89 2069.95
  -1   0  -455850.73 1942.70
   1   0   5  -14.34   10.12
   1   0   5   -8.10   10.29
   1   0   5    2.79   10.18
   1   0   5    5.49   10.37
   1   0   5  -21.68   10.42
  -1   0  -5  -16.58   10.10
  -1   0  -5   -9.88   10.19
  -1   0  -5  -17.17   10.51
  -1   0  -5   -8.94   10.16
  -1   0  -5  -12.10   10.38
   1   0   6 3311.73  161.46
   1   0   6 3805.34  158.01
   1   0   6 3424.69  190.55
   1   0   6 3624.36  174.80
  -1   0  -6 3852.02  161.65
  -1   0  -6 3558.24  146.05
  -1   0  -6 3712.29  232.67
  -1   0  -6 4054.43  235.57
  -1   0  -6 4255.67  245.59
   1   0   6 4084.21  198.23
   1   0   7   -5.65   11.07
   1   0   7   12.65   11.05
   1   0   7  -24.29   11.05
   1   0   7  -11.48   11.28
  -1   0  -7   -6.01   10.93
  -1   0  -7   15.28   11.31
  -1   0  -7  -33.16   11.42
   1   0   7   -8.71   11.32
  -1   0  -7  -13.06   11.37
   1   0   834132.83 1357.65
   1   0   839044.24 1349.52
   1   0   842059.67 1585.57
  -1   0  -838024.18 1300.18
  -1   0  -837963.55 1390.84
  -1   0  -841330.72 1541.60
  -1   0  -839549.36 1627.26
   1   0   9   -3.61   12.99
   1   0   9    9.37   12.97
   1   0   9   -8.60   12.93
  -1   0  -9   -7.96   12.79
  -1   0  -9  -11.98   13.44
  -1   0  -9   -6.86   13.28
  -1   0  -9   -6.75   13.37
   1   0  10 1063.13   68.70
   1   0  10  956.16   79.16
  -1   0 -10  916.19   73.22
  -1   0 -10  937.84   64.92
  -1   0 -10  990.44   93.53
  -1   0 -10 1052.69   96.65
   1   0  11   -6.28   15.59
   1   0  11   21.70   35.40
  -1   0 -11   31.95   27.60
  -1   0 -11   -6.91   15.89
  -1   0 -11   14.45   29.05
  -1   0 -11  -12.77   29.40
   1   0  12 9448.45  383.12
   1   0  1210254.52  563.31
  -1   0 -12 8753.18  381.12
  -1   0 -12 7951.60  390.99
  -1   0 -12 9328.90  484.70
  -1   0 -12 9309.55  459.12
   1   0  13   15.92   20.60
   1   0  13   25.32   20.45
  -1   0 -13   -3.27   20.16
  -1   0 -13  -12.49   21.31
  -1   0 -13   30.41   20.99
  -1   0 -13  -64.56   21.03
   1   0  14 1704.49   86.45
   1   0  14 1568.41  175.73
  -1   0 -14 1654.42  118.55
  -1   0 -14 1265.39  102.19
  -1   0 -14 1667.78  163.37
  -1   0 -14 1680.70  134.79
   1   0  15   -4.01   19.99
   1   0  15   25.66   48.67
  -1   0 -15   -3.96   37.95
  -1   0 -15   12.82   34.14
  -1   0 -15    7.19   43.56
   1   0  16 4428.02  252.88
   1   0  16 5295.07  345.43
  -1   0 -16 4569.33  278.17
  -1   0 -16 4417.30  332.95
  -1   0 -16 4616.11  291.05
   1   0  17   30.69   26.99
   1   0  17   22.55   50.47
  -1   0 -17  -52.58   39.19
  -1   0 -17   22.40   35.63
  -1   0 -17    4.05   53.65
   1   0  18 3268.99  286.84
  -1   0 -18 3186.56  236.47
  -1   0 -18 2970.90  212.39
  -1   0 -18 3040.83  244.20
   1   0  19  -63.59   52.37
  -1   0 -19  -27.38   51.61
  -1   0 -19    1.89   53.13
  -1   0 -19  -48.25   53.09
   1   0  20  203.81   84.50
  -1   0 -20  162.78   54.60
  -1   0 -20  222.59   56.22
  -1   0 -20  220.17   65.54
   1   0  21    9.52   64.27
  -1   0 -21  -20.91   63.48
  -1   0 -21    8.04   64.83
  -1   0 -21  -27.52   64.84
   1   0  22 1598.36  224.24
  -1   0 -22 1654.72  165.21
  -1   0 -22 1327.21  146.77
  -1   0 -22 1572.16  140.80
  -1   0 -23  -49.42   48.05
  -1   0 -23   12.58   48.61
   1   1   013128.06  438.18
  -1   1   012230.95  519.66
  -1  -1   012220.74  462.83
   1   1   012519.76  482.76
   1   1   011687.53  461.45
   1   1   012427.57  503.56
   1   1   011100.00  391.73
  -1   1   011631.67  506.02
  -1   1   013615.97  530.93
  -1   1   012782.34  455.47
  -1  -1   012369.88  456.23
  -1  -1   011654.05  477.46
  -1  -1   011609.26  394.60
   1  -1   013272.44  461.93
   1  -1   013020.36  444.86
   1  -1   011802.17  498.65
   1  -1   011900.18  473.64
   1  -1   013487.17  522.35
   1  -1   011156.01  419.07
   1   1   199999.00 3258.62
   1   1   2 2098.76  110.60
   1   1   2 1767.28   81.71
   1   1   2 2229.91  100.25
   1   1   2 2039.18  105.18
   1   1   2 2105.81  128.55
   1   1   2 2251.91  118.49
  -1   1  -2 2027.17   85.54
  -1   1  -2 1889.71  102.35
  -1   1  -2 2229.56  131.39
  -1   1  -2 2149.77  135.62
  -1   1  -2 2142.30  115.64
  -1   1  -2 2000.21  100.96
  -1  -1  -2 1875.94   91.63
  -1  -1  -2 2017.91  126.75
  -1  -1  -2 2056.42  127.21
  -1  -1  -2 1904.68   98.74
   1  -1   2 1857.42   78.45
   1  -1   2 1915.56  120.79
   1  -1   2 2129.06  126.96
   1  -1   2 2081.54  139.90
   1   1   3 7036.92  287.18
   1   1   3 6281.13  240.98
   1   1   3 7442.44  250.65
   1   1   3 7660.54  369.59
   1   1   3 7309.04  348.09
   1   1   3 7938.45  344.24
  -1   1  -3 6854.85  266.49
  -1   1  -3 6711.46  329.44
  -1   1  -3 7599.95  378.15
  -1   1  -3 7767.86  311.22
  -1   1  -3 7001.21  364.96
  -1  -1  -3 7122.22  287.95
  -1  -1  -3 7389.45  335.05
  -1  -1  -3 8025.23  387.44
  -1  -1  -3 6566.91  294.75
   1  -1   3 6673.90  248.14
   1  -1   3 6384.85  270.97
   1  -1   3 7253.61  370.56
   1  -1   3 7888.88  342.37
   1  -1   3 7762.67  369.06
   1   1   4  408.64   33.89
   1   1   4  442.07   19.97
   1   1   4  501.16   47.80
   1   1   4  390.44   39.44
   1   1   4  524.22   42.06
  -1   1  -4  449.48   28.57
  -1   1  -4  435.28   35.56
  -1   1  -4  477.64   47.11
  -1   1  -4  518.58   47.07
  -1  -1  -4  485.24   32.06
  -1  -1  -4  475.16   46.53
  -1  -1  -4  506.67   43.67
  -1  -1  -4  493.14   45.87
   1  -1   4  400.34   30.29
   1  -1   4  443.21   29.48
   1  -1   4  513.43   51.05
   1  -1   4  455.50   45.36
   1  -1   4  464.42   39.57
   1  -1   4  426.49   39.59
   1   1   526654.21  982.81
   1   1   528643.83  881.41
   1   1   531280.27 1245.90
   1   1   526747.31 1089.53
   1   1   528458.26 1028.12
  -1   1  -528070.85  948.45
  -1   1  -528713.29 1055.58
  -1   1  -527624.21  866.17
  -1   1  -530571.07 1310.43
  -1   1  -530385.23 1128.27
  -1  -1  -525253.57  990.77
  -1  -1  -524835.61  871.45
  -1  -1  -528752.37 1140.71
  -1  -1  -531537.55 1172.88
  -1  -1  -529587.55 1141.69
   1  -1   526750.72  969.75
   1  -1   527654.36  988.87
   1  -1   531249.95 1106.97
   1  -1   528442.75 1166.92
   1  -1   529484.74 1177.82
   1   1   6 1893.25  132.09
   1   1   6 2321.53   80.22
   1   1   6 2291.07  163.42
   1   1   6 2131.11  128.12
   1   1   6 2115.45  102.35
  -1   1  -6 2078.68   93.20
  -1   1  -6 2013.27  118.63
  -1   1  -6 1928.37  120.21
  -1   1  -6 2199.55  148.46
  -1   1  -6 2413.45  134.37
  -1  -1  -6 2204.40  124.56
  -1  -1  -6 1845.39   83.11
  -1  -1  -6 2052.76  142.39
  -1  -1  -6 2204.53  151.68
  -1  -1  -6 2086.59  131.22
   1  -1   6 2130.85   96.75
   1  -1   6 2043.78  107.63
   1  -1   6 2168.75  131.32
   1  -1   6 1876.44  135.48
   1  -1   6 2053.24  129.84
   1   1   714405.94  564.22
   1   1   716028.05  532.72
   1   1   715975.06  730.45
   1   1   714691.78  686.60
  -1   1  -715129.27  566.61
  -1   1  -715060.80  630.24
  -1   1  -715669.80  749.08
  -1   1  -717282.74  734.94
  -1  -1  -715700.08  639.26
  -1  -1  -713902.17  505.73
  -1  -1  -715756.35  727.90
  -1  -1  -716256.85  701.13
   1  -1   714714.70  642.38
   1  -1   716082.91  598.25
   1  -1   717546.51  771.78
   1  -1   714513.78  565.01
   1  -1   8 2300.58  162.25
   1   1   8 1873.63   98.48
   1   1   8 2429.70  101.86
   1   1   8 2564.97  158.84
  -1   1  -8 2377.99  124.77
  -1   1  -8 2215.55  111.63
  -1   1  -8 2336.86  173.61
  -1   1  -8 2372.64  175.79
  -1  -1  -8 2126.18  123.63
  -1  -1  -8 2179.64   95.47
  -1  -1  -8 2451.12  170.72
  -1  -1  -8 2182.66  132.96
   1  -1   8 2093.44  127.15
   1  -1   8 2408.03  135.54
   1   1   9 7871.46  289.66
   1   1   9 8107.50  402.51
  -1   1  -9 7247.58  309.42
  -1   1  -9 6811.17  322.78
  -1   1  -9 7578.92  425.70
  -1   1  -9 7623.62  417.76
  -1  -1  -9 7513.03  331.07
  -1  -1  -9 6919.76  296.71
  -1  -1  -9 7528.94  390.59
  -1  -1  -9 7386.01  411.07
   1  -1   9 6612.09  316.77
   1  -1   9 7757.67  333.39
   1  -1   9 7803.54  381.23
   1  -1  10  153.76   22.12
   1  -1  10   84.21   34.58
   1   1  10   92.90   18.76
   1   1  10   39.23   37.59
  -1   1 -10   64.54   25.33
  -1   1 -10   95.59   19.72
  -1   1 -10  123.75   33.28
  -1   1 -10  100.52   30.30
  -1  -1 -10   95.81   31.75
  -1  -1 -10   80.41   17.47
  -1  -1 -10   55.86   27.23
  -1  -1 -10   44.31   28.99
   1  -1  10   68.49   18.98
   1   1  1115307.54  564.39
   1   1  1115081.12  646.04
  -1   1 -1114781.14  556.68
  -1   1 -1112748.03  624.52
  -1   1 -1115152.46  777.99
  -1   1 -1114416.51  670.91
  -1  -1 -1115038.51  616.87
  -1  -1 -1113648.82  565.81
  -1  -1 -1114997.65  738.05
  -1  -1 -1114046.19  709.11
   1  -1  1114193.05  608.48
   1  -1  1115096.93  694.95
   1   1  12  427.22   37.83
   1   1  12  515.39   64.71
  -1   1 -12  358.24   41.88
  -1   1 -12  348.96   39.12
  -1   1 -12  438.54   53.96
  -1   1 -12  442.17   56.21
  -1  -1 -12  375.35   42.67
  -1  -1 -12  374.55   33.57
  -1  -1 -12  433.74   54.29
  -1  -1 -12  405.42   51.14
   1  -1  12  467.54   44.72
   1  -1  12  531.34   68.74
   1   1  13   58.10   19.48
   1   1  13   95.33   40.59
  -1   1 -13   61.77   30.98
  -1   1 -13   94.36   35.78
  -1   1 -13  120.74   41.13
  -1  -1 -13  113.30   37.41
  -1  -1 -13   36.44   18.22
  -1  -1 -13   68.52   37.24
  -1  -1 -13   55.19   38.50
   1  -1  13   36.17   25.17
   1  -1  13  149.35   46.56
   1   1  14   76.12   22.43
   1   1  14   84.94   49.31
  -1   1 -14   79.92   36.93
  -1   1 -14   50.79   42.10
  -1   1 -14  140.18   46.89
  -1  -1 -14  136.99   42.86
  -1  -1 -14   40.31   20.55
  -1  -1 -14  123.63   43.14
  -1  -1 -14  152.11   49.32
   1  -1  14   92.22   28.68
   1  -1  14  114.49   47.05
   1   1  15 9531.58  420.34
   1   1  1510788.10  644.80
  -1   1 -1510331.52  475.00
  -1   1 -1510065.25  536.14
  -1   1 -1510277.58  545.20
  -1  -1 -1510255.96  517.21
  -1  -1 -15 9762.16  570.55
  -1  -1 -1510241.25  581.24
   1  -1  15 9473.97  421.28
   1  -1  1510913.01  574.06
   1   1  16    2.51   19.01
   1   1  16   -2.49   43.42
  -1   1 -16  -31.18   38.11
  -1   1 -16    3.02   37.01
  -1   1 -16   -6.57   51.71
  -1  -1 -16   25.12   46.33
  -1  -1 -16   23.13   39.08
   1  -1  16   -7.65   28.90
   1  -1  16   48.52   45.36
   1   1  17  238.37   60.97
  -1   1 -17  137.78   40.84
  -1   1 -17  176.89   46.35
  -1   1 -17   97.87   38.90
  -1  -1 -17  165.46   54.42
  -1  -1 -17  153.51   45.07
  -1  -1 -17  142.22   57.25
   1  -1  17  196.70   34.54
   1  -1  17  179.43   58.53
   1   1  18  508.04   84.54
  -1   1 -18  413.72   68.56
  -1   1 -18  378.82   63.89
  -1   1 -18  348.52   81.47
  -1  -1 -18  442.64   79.63
  -1  -1 -18  446.08   80.21
  -1  -1 -18  451.58   72.49
   1  -1  18  427.17   59.75
   1  -1  18  516.02   99.32
   1   1  19 3735.22  312.85
  -1   1 -19 3833.78  250.45
  -1   1 -19 3437.30  274.87
  -1   1 -19 3450.41  264.88
  -1  -1 -19 3839.82  279.28
  -1  -1 -19 3490.64  237.84
  -1  -1 -19 3380.40  293.01
   1  -1  19 3557.48  308.94
   1   1  20  184.09   76.74
  -1   1 -20   49.48   47.95
  -1   1 -20  103.51   46.02
  -1   1 -20   89.05   48.60
  -1  -1 -20  145.83   49.38
  -1  -1 -20   85.63   45.04
  -1  -1 -20  147.80   66.48
   1  -1  20  133.33   57.92
   1   1  21  202.90   82.51
  -1   1 -21  194.73   66.88
  -1   1 -21  170.12   55.19
  -1   1 -21  230.91   70.12
  -1  -1 -21  244.98   78.08
  -1  -1 -21  134.12   46.14
  -1  -1 -21  140.38   70.11
   1  -1  21  179.12   75.67
   1   1  22   99.92   73.27
  -1   1 -22   17.77   51.75
  -1   1 -22   44.77   50.68
  -1   1 -22   67.82   59.52
  -1  -1 -22   40.15   48.62
  -1  -1 -22  -30.55   45.69
  -1  -1 -22   10.89   67.71
   1  -1  22    0.19   61.70
   1   2   069258.88 2238.56
   1   2   067992.97 2197.92
   1   2   068995.02 2176.57
   1   2   062196.39 2319.75
   1   2   066070.77 2300.47
   1   2   064073.38 2161.43
  -1   2   064318.27 2330.42
  -1   2   073080.63 2190.85
  -1   2   068266.91 2359.42
  -1  -2   067492.19 2209.39
  -1  -2   075169.73 2328.53
  -1  -2   060119.88 2137.59
   1  -2   059592.33 2236.59
   1  -2   066547.80 2210.82
   1   2   1  261.07   37.08
   1   2   1  307.97   23.33
   1   2   1  313.85   25.57
   1   2   1  306.26   36.34
   1   2   1  217.86   36.54
   1   2   1  271.55   21.94
  -1   2  -1  302.28   27.97
  -1   2  -1  341.38   39.95
  -1   2  -1  314.64   30.77
  -1   2  -1  298.62   28.89
  -1  -2  -1  310.31   27.33
  -1  -2  -1  336.76   31.49
  -1  -2  -1  259.41   20.80
  -1  -2  -1  280.75   21.48
   1  -2   1  246.70   10.51
   1  -2   1  276.33   38.60
   1  -2   1  300.54   32.50
   1  -2   1  315.22   30.07
   1  -2   1  323.74   30.51
   1  -2   1  283.01   11.28
   1   2   213024.58  490.70
   1   2   213806.12  465.68
   1   2   214333.87  563.01
  -1   2  -213078.06  519.67
  -1   2  -213247.41  611.07
  -1   2  -214602.00  640.40
  -1   2  -212286.09  582.85
  -1  -2  -212377.59  486.25
  -1  -2  -214204.55  516.55
  -1  -2  -213559.11  574.42
  -1  -2  -212191.92  504.24
   1  -2   211648.95  557.88
   1  -2   214095.90  574.37
   1  -2   213314.22  640.88
   1  -2   213765.58  546.48
   1   2   213854.10  593.45
   1   2   212331.40  498.21
   1   2   3 2156.77  105.84
   1   2   3 2093.63   79.54
   1   2   3 2388.82  148.77
   1   2   3 2241.04  148.31
   1   2   3 2124.70  100.31
  -1   2  -3 2110.07   77.95
  -1   2  -3 2141.73  113.84
  -1   2  -3 2429.65  154.62
  -1   2  -3 2255.62  138.37
  -1   2  -3 2427.95  133.03
  -1   2  -3 2203.69  141.19
  -1  -2  -3 2037.04  100.59
  -1  -2  -3 2130.01   79.57
  -1  -2  -3 1992.90  114.68
  -1  -2  -3 2239.82  150.11
  -1  -2  -3 1917.90  107.68
   1  -2   3 2299.88   90.55
   1  -2   3 2065.86  119.58
   1  -2   3 2250.70  137.87
   1  -2   3 2194.00  125.03
   1   2   441518.39 1452.86
   1   2   443848.32 1603.86
   1   2   444947.82 1746.18
   1   2   445029.28 1600.28
  -1   2  -440065.00 1367.51
  -1   2  -437743.91 1561.19
  -1   2  -445285.69 1798.32
  -1   2  -445586.23 1572.56
  -1   2  -444164.98 1593.08
  -1  -2  -442229.96 1458.44
  -1  -2  -441810.93 1588.41
  -1  -2  -444403.34 1709.72
  -1  -2  -443548.77 1554.45
   1  -2   443567.79 1459.01
   1  -2   441922.60 1493.92
   1  -2   440442.08 1631.11
   1  -2   444162.94 1624.10
   1  -2   444731.61 1657.39
   1   2   5  478.53   36.03
   1   2   5  544.77   51.15
   1   2   5  493.69   48.06
   1   2   5  489.28   50.62
  -1   2  -5  494.44   34.31
  -1   2  -5  465.92   43.56
  -1   2  -5  552.64   52.81
  -1   2  -5  493.50   45.97
  -1   2  -5  454.03   56.72
  -1  -2  -5  418.72   33.81
  -1  -2  -5  416.71   47.39
  -1  -2  -5  510.80   52.20
  -1  -2  -5  526.14   45.87
   1  -2   5  516.01   36.36
   1  -2   5  502.92   39.19
   1  -2   5  496.97   50.52
   1  -2   5  465.86   46.70
   1  -2   5  473.00   44.59
   1   2   6  260.52   25.47
   1   2   6  315.79   43.11
   1   2   6  286.04   29.93
   1   2   6  257.43   30.72
  -1   2  -6  294.92   26.35
  -1   2  -6  228.33   31.44
  -1   2  -6  272.91   40.62
  -1   2  -6  339.54   36.60
  -1  -2  -6  306.19   30.00
  -1  -2  -6  212.76   31.49
  -1  -2  -6  240.74   39.19
  -1  -2  -6  267.70   37.93
   1  -2   6  264.44   26.06
   1  -2   6  221.51   31.32
   1  -2   6  249.45   40.83
   1  -2   6  292.94   34.55
   1  -2   6  243.71   34.81
   1   2   7  967.06   65.64
   1   2   7 1240.07   96.48
   1   2   7 1022.46   72.66
  -1   2  -7 1020.91   60.07
  -1   2  -7 1011.09   63.30
  -1   2  -7 1179.93  101.87
  -1   2  -7 1149.31   74.66
  -1  -2  -7 1117.15   75.28
  -1  -2  -7 1087.01   94.84
  -1  -2  -7 1075.46   99.71
   1  -2   7  977.91   65.19
   1  -2   7 1103.61   79.35
   1  -2   7 1207.96   84.39
   1  -2   7 1026.90   67.68
   1   2   831791.59 1307.14
  -1   2  -828208.11 1005.16
  -1   2  -825963.77 1066.83
  -1   2  -829595.14 1342.37
  -1   2  -831339.96 1242.41
  -1  -2  -830018.15 1013.34
  -1  -2  -828321.46  891.30
  -1  -2  -829065.64 1265.90
  -1  -2  -829243.20 1305.28
   1  -2   826778.30 1049.30
   1  -2   828904.05 1077.07
   1  -2   826683.03 1128.26
   1   2   9 1848.36  147.60
  -1   2  -9 1700.64   91.35
  -1   2  -9 1486.58  106.82
  -1   2  -9 1856.55  139.07
  -1   2  -9 1767.45  122.28
  -1  -2  -9 1791.61  101.27
  -1  -2  -9 1571.46   67.15
  -1  -2  -9 1669.28  146.27
  -1  -2  -9 1745.40  128.85
   1  -2   9 1441.51   93.23
   1  -2   9 1738.83  117.04
   1  -2   9 1733.03  127.49
   1   2  10  829.18   44.15
   1   2  10  915.06  103.58
  -1   2 -10  818.58   71.09
  -1   2 -10  710.58   63.55
  -1   2 -10  782.96   82.25
  -1   2 -10  813.14   82.71
  -1  -2 -10  721.42   58.02
  -1  -2 -10  820.14   41.15
  -1  -2 -10  719.81   69.77
  -1  -2 -10  831.51   79.34
   1  -2  10  654.27   61.77
   1  -2  10  855.52   67.35
   1  -2  10  839.58   81.12
   1   2  11 1032.37   53.49
   1   2  11 1114.66  111.92
  -1   2 -11  992.51   67.57
  -1   2 -11 1000.75   96.47
  -1   2 -11  941.45   96.33
  -1  -2 -11  937.18   71.07
  -1  -2 -11  917.22   49.83
  -1  -2 -11  964.73  101.19
  -1  -2 -11  983.80   92.61
   1  -2  11  939.70   83.88
   1  -2  11  942.85  104.57
   1   2  1220299.20  740.01
   1   2  1222085.00 1045.68
  -1   2 -1220574.82  771.99
  -1   2 -1219791.17  956.04
  -1   2 -1220327.41  833.10
  -1  -2 -1218354.40  716.77
  -1  -2 -1219587.07  869.47
  -1  -2 -1220063.91 1028.51
   1  -2  1220551.61  921.05
  -1  -2 -1221041.69  834.30
   1  -2  1219970.14  842.75
   1   2  13 2265.61  113.96
   1   2  13 2441.63  187.41
  -1   2 -13 2346.73  129.80
  -1   2 -13 2366.70  189.33
  -1   2 -13 2191.54  128.90
  -1  -2 -13 2439.48  156.62
  -1  -2 -13 2019.73  100.03
  -1  -2 -13 2266.38  161.92
  -1  -2 -13 2345.42  159.56
   1  -2  13 2466.75  151.22
   1  -2  13 2378.50  202.47
   1   2  14 4463.51  200.74
   1   2  14 4823.03  297.26
  -1   2 -14 4420.36  202.05
  -1   2 -14 4497.02  290.80
  -1   2 -14 4675.82  291.40
  -1  -2 -14 4791.17  275.36
  -1  -2 -14 4130.49  305.70
  -1  -2 -14 4470.71  258.72
   1  -2  14 5030.41  289.95
   1  -2  14 5157.08  322.12
  -1  -2 -15  156.83   50.09
   1   2  15  186.26   27.25
   1   2  15  192.16   50.82
  -1   2 -15  136.80   35.41
  -1   2 -15  158.83   44.90
  -1   2 -15  260.41   52.86
  -1  -2 -15   89.52   37.64
  -1  -2 -15  156.40   56.31
   1  -2  15  178.51   38.59
   1  -2  15  115.17   59.20
   1   2  16 3741.07  271.43
  -1   2 -16 3516.00  217.35
  -1   2 -16 3306.03  243.36
  -1   2 -16 3582.42  224.24
  -1  -2 -16 3589.85  247.40
  -1  -2 -16 3311.98  252.98
  -1  -2 -16 3509.17  265.62
   1  -2  16 3569.35  188.40
   1  -2  16 3543.32  269.28
   1   2  17  -58.26   56.35
  -1   2 -17  -13.46   55.97
  -1   2 -17   22.32   57.12
  -1   2 -17  -27.74   56.84
  -1  -2 -17   29.34   55.44
  -1  -2 -17  -38.03   57.61
  -1  -2 -17  -48.01   57.62
   1  -2  17   64.64   56.06
   1  -2  17   65.92   56.43
   1   2  18 4286.69  313.66
  -1   2 -18 4254.13  244.28
  -1   2 -18 3743.38  292.84
  -1   2 -18 4090.11  293.98
  -1  -2 -18 4026.31  289.14
  -1  -2 -18 3877.59  293.72
  -1  -2 -18 3767.13  309.99
   1  -2  18 3456.41  208.05
   1  -2  18 3848.60  318.47
   1   2  19  187.15   85.02
  -1   2 -19  268.72   55.66
  -1   2 -19  202.25   63.81
  -1   2 -19  248.30   63.01
  -1  -2 -19  206.60   58.34
  -1  -2 -19  275.75   54.98
  -1  -2 -19  183.32   63.52
   1  -2  19  193.03   69.29
   1   2  20  561.89  111.52
  -1   2 -20  595.92   82.52
  -1   2 -20  568.39   95.26
  -1   2 -20  723.83  100.99
  -1  -2 -20  678.16   93.09
  -1  -2 -20  539.57   86.28
  -1  -2 -20  456.40   95.01
   1  -2  20  565.79  105.67
   1   2  21  150.36   86.08
  -1   2 -21  164.21   52.59
  -1   2 -21  196.93   56.50
  -1   2 -21  155.92   72.33
  -1  -2 -21  136.40   66.05
  -1  -2 -21  138.31   47.53
  -1  -2 -21  180.43   66.56
   1  -2  21  150.83   69.33
   1   2  22 2221.68  229.73
  -1   2 -22 1930.62  168.61
  -1   2 -22 1885.15  197.87
  -1   2 -22 1854.01  210.83
  -1  -2 -22 2157.51  198.27
  -1  -2 -22 1818.53  148.05
  -1  -2 -22 2191.85  206.33
   1  -2  22 2205.21  234.51
   1   3   0 9443.34  439.08
   1   3   011229.67  464.00
   1   3   011152.69  437.90
   1   3   0 8579.49  464.19
   1   3   0 9326.64  366.60
  -1   3   011175.13  395.68
  -1   3   0 9788.54  382.02
  -1   3   010030.13  480.52
  -1   3   010728.06  385.53
  -1   3   011074.73  444.05
  -1  -3   010169.64  401.89
  -1  -3   011130.66  387.43
  -1  -3   0 9870.53  401.29
  -1  -3   0 9342.98  424.73
  -1  -3   0 9021.43  372.73
   1  -3   0 9236.22  364.14
   1  -3   0 9503.11  530.57
   1  -3   0 9769.69  419.96
   1  -3   010495.00  447.60
   1  -3   0 9946.82  392.06
   1   3   119133.26  794.52
   1   3   121548.76  755.96
   1   3   122890.17  775.32
   1   3   119270.21  854.22
   1   3   120565.64  758.44
  -1   3  -119927.25  642.03
  -1   3  -119544.68  728.91
  -1   3  -119786.53  871.05
  -1   3  -121407.73  933.72
  -1   3  -120090.54  787.86
  -1  -3  -119679.11  722.84
  -1  -3  -120014.66  730.69
  -1  -3  -120148.84  834.23
  -1  -3  -118216.54  733.61
   1  -3   119388.50  659.89
   1  -3   120407.66  772.33
   1  -3   120740.27  782.66
   1  -3   120945.77  833.01
   1  -3   119026.13  786.92
   1   3   2 5837.01  277.68
   1   3   2 5933.62  248.04
   1   3   2 7386.89  302.71
   1   3   2 6142.76  315.05
   1   3   2 6757.90  319.70
   1   3   2 6021.31  269.96
  -1   3  -2 6810.41  203.20
  -1   3  -2 5922.64  282.80
  -1   3  -2 6183.44  358.10
  -1   3  -2 6541.14  310.04
  -1   3  -2 5886.00  409.32
  -1  -3  -2 6244.79  266.01
  -1  -3  -2 6448.44  247.12
  -1  -3  -2 6288.71  305.77
  -1  -3  -2 5972.64  255.18
   1  -3   2 5716.60  304.06
   1  -3   2 6441.15  327.33
   1  -3   2 6420.25  368.26
   1  -3   2 5828.61  325.86
   1   3   316406.73  600.63
   1   3   314115.61  522.21
   1   3   317503.45  674.23
   1   3   317717.87  738.45
   1   3   315922.25  690.02
   1   3   316088.38  651.62
  -1   3  -315435.65  488.23
  -1   3  -314633.85  496.35
  -1   3  -314308.28  561.61
  -1   3  -316944.49  718.58
  -1   3  -315808.24  709.52
  -1   3  -316292.93  682.51
  -1  -3  -314943.31  576.97
  -1  -3  -316604.50  537.16
  -1  -3  -316203.22  725.03
  -1  -3  -314026.21  644.30
   1  -3   314365.67  632.09
   1  -3   315591.21  624.95
   1  -3   315459.20  677.00
   1  -3   315610.06  729.65
   1   3   4  305.74   28.47
   1   3   4  266.49   15.39
   1   3   4  302.66   31.00
   1   3   4  298.05   40.41
   1   3   4  307.73   36.36
   1   3   4  320.57   33.70
  -1   3  -4  269.20   16.98
  -1   3  -4  295.76   18.32
  -1   3  -4  248.34   27.78
  -1   3  -4  286.99   38.29
  -1   3  -4  312.90   34.12
  -1   3  -4  250.56   43.26
  -1  -3  -4  248.49   29.00
  -1  -3  -4  335.07   20.79
  -1  -3  -4  245.33   33.39
  -1  -3  -4  268.89   28.66
   1  -3   4  271.62   33.13
   1  -3   4  275.96   33.59
   1  -3   4  271.18   34.99
   1  -3   4  236.14   33.76
   1   3   523551.39  919.70
   1   3   528331.71 1147.71
   1   3   524840.99 1069.83
   1   3   526677.44 1004.01
  -1   3  -525395.09  868.60
  -1   3  -524223.09 1101.81
  -1   3  -526941.74 1090.03
  -1   3  -527050.22  953.04
  -1   3  -524145.02  955.05
  -1  -3  -525160.09  900.12
  -1  -3  -525607.73 1031.94
  -1  -3  -524598.35 1053.42
   1  -3   524063.06  958.12
   1  -3   525810.85 1054.07
   1  -3   526333.53 1029.27
   1  -3   523257.10 1203.57
   1   3   6 2322.03  156.03
   1   3   6 1890.30  134.09
  -1   3  -6 2133.21  104.95
  -1   3  -6 1944.33  131.46
  -1   3  -6 2125.73  165.27
  -1   3  -6 2272.39  150.89
  -1   3  -6 1934.22  118.12
  -1  -3  -6 2145.69  108.93
  -1  -3  -6 2067.03  142.12
  -1  -3  -6 2091.18  125.41
  -1  -3  -6 2124.75  134.05
   1  -3   6 1900.96  112.42
   1  -3   6 1928.37  127.93
   1  -3   6 2047.98  134.20
   1   3   714732.33  712.88
  -1   3  -713315.93  530.67
  -1   3  -713352.62  593.80
  -1   3  -714828.91  741.19
  -1   3  -714054.35  641.32
  -1  -3  -713855.85  520.36
  -1  -3  -714392.45  650.68
  -1  -3  -714767.98  706.20
   1  -3   713081.90  558.20
   1  -3   714463.41  608.94
   1  -3   713784.47  617.95
   1   3   8  -18.01   30.04
  -1   3  -8   -4.66   29.88
  -1   3  -8   15.13   30.37
  -1   3  -8   -6.61   30.60
  -1  -3  -8   33.67   29.93
  -1  -3  -8    1.25   30.12
  -1  -3  -8   -1.13   30.08
   1  -3   8  -16.56   31.13
   1  -3   8   24.33   30.22
   1  -3   8  -57.02   30.20
   1   3   9 5031.02  295.57
  -1   3  -9 4770.50  222.87
  -1   3  -9 4997.24  321.23
  -1   3  -9 5048.83  224.77
  -1  -3  -9 4532.59  228.30
  -1  -3  -9 4616.29  241.40
  -1  -3  -9 4765.26  299.20
   1  -3   9 3842.40  212.29
   1  -3   9 4853.34  257.27
   1  -3   9 4728.84  272.83
   1   3  10  300.38   46.98
  -1   3 -10  269.16   35.08
  -1   3 -10  370.47   56.28
  -1   3 -10  303.80   44.93
  -1  -3 -10  215.76   37.37
  -1  -3 -10  245.55   39.31
  -1  -3 -10  252.99   41.03
   1  -3  10  203.35   27.00
   1  -3  10  261.43   40.22
   1  -3  10  253.93   42.53
   1   3  1120649.86  941.25
  -1   3 -1119091.50  727.34
  -1   3 -1120009.16  990.54
  -1   3 -1118726.53  804.10
  -1  -3 -1119996.35  754.36
  -1  -3 -1118298.71  583.30
  -1  -3 -1117286.85  619.54
  -1  -3 -1118089.59  851.14
  -1  -3 -1118365.41  881.55
   1  -3  1120127.69  839.56
   1  -3  1118827.64  799.92
   1   3  12 2017.34  153.57
  -1   3 -12 1791.56  110.15
  -1   3 -12 1693.13  141.73
  -1   3 -12 2010.02  136.04
  -1  -3 -12 1878.56  115.70
  -1  -3 -12 1612.35   73.55
  -1  -3 -12 1644.08   69.29
  -1  -3 -12 1677.56  121.65
  -1  -3 -12 1676.30  137.74
   1  -3  12 1826.96  115.79
   1  -3  12 1891.80  159.06
   1   3  13 4161.61  248.40
  -1   3 -13 3536.36  228.78
  -1   3 -13 4056.88  258.17
  -1   3 -13 3741.31  225.18
  -1  -3 -13 3807.37  230.09
  -1  -3 -13 3396.68  142.36
  -1  -3 -13 3281.02  137.13
  -1  -3 -13 3725.17  199.91
  -1  -3 -13 3458.39  238.87
   1  -3  13 3991.60  243.41
   1  -3  13 4013.66  271.11
   1   3  14  -43.36   52.96
  -1   3 -14    0.74   52.86
  -1   3 -14   22.26   53.86
  -1   3 -14    7.25   53.69
  -1  -3 -14    1.80   52.26
  -1  -3 -14  -13.35   52.86
  -1  -3 -14  -28.49   53.81
  -1  -3 -14   13.64   53.71
   1  -3  14  -26.71   53.10
   1  -3  14  -25.45   53.00
   1   3  1510220.57  594.19
  -1   3 -15 9420.13  430.48
  -1   3 -15 9204.70  547.91
  -1   3 -15 9641.21  509.24
  -1  -3 -15 9825.15  524.49
  -1  -3 -15 8578.07  416.75
  -1  -3 -15 8978.22  553.18
   1  -3  1510012.30  512.13
   1  -3  1510514.57  597.52
   1   3  16  137.58   67.09
  -1   3 -16  146.73   35.83
  -1   3 -16  228.21   47.93
  -1   3 -16  174.18   64.70
  -1  -3 -16  186.09   55.11
  -1  -3 -16  110.48   39.23
  -1  -3 -16  124.37   54.72
   1  -3  16  164.34   47.08
   1  -3  16  106.97   66.19
   1   3  17   -8.33   61.48
  -1   3 -17   11.18   32.72
  -1   3 -17   14.29   41.58
  -1   3 -17   32.14   50.73
  -1  -3 -17    9.66   56.30
  -1  -3 -17    4.82   45.52
  -1  -3 -17   12.96   48.76
   1  -3  17   -0.74   34.43
   1  -3  17    2.68   66.09
   1   3  18  -19.62   61.68
  -1   3 -18   10.77   36.95
  -1   3 -18   70.37   47.20
  -1   3 -18  -32.13   54.95
  -1  -3 -18   30.72   48.65
  -1  -3 -18   49.04   44.58
  -1  -3 -18   21.56   52.49
   1  -3  18   40.55   31.92
   1  -3  18  -83.65   58.38
   1   3  19 5131.17  386.50
  -1   3 -19 4770.96  285.08
  -1   3 -19 4939.22  382.39
  -1   3 -19 4391.66  355.91
  -1  -3 -19 5476.90  337.35
  -1  -3 -19 4629.22  314.51
  -1  -3 -19 5047.75  337.56
   1  -3  19 4237.51  282.06
   1  -3  19 5097.91  391.92
   1   3  20  -16.81   70.84
  -1   3 -20   -0.96   70.64
  -1   3 -20    1.32   71.31
  -1   3 -20    5.62   70.74
  -1  -3 -20  -62.89   69.98
  -1  -3 -20  -67.52   72.07
  -1  -3 -20    6.81   72.35
   1  -3  20   55.34   71.00
   1   3  21  901.75  121.85
  -1   3 -21  650.79   80.58
  -1   3 -21  594.37   94.15
  -1   3 -21  721.36  130.22
  -1  -3 -21  731.65  105.73
  -1  -3 -21  600.29   84.65
  -1  -3 -21  645.02  121.65
   1  -3  21  809.98  119.42
   1   3  22  156.72   78.26
  -1   3 -22  153.69   55.41
  -1   3 -22   42.00   76.16
  -1  -3 -22   43.38   50.49
  -1  -3 -22  123.61   54.71
  -1  -3 -22  148.50   64.46
   1  -3  22   77.91   66.53
   1   4   053381.63 1838.45
   1   4   051316.56 1855.64
   1   4   044356.52 1662.75
   1   4   052770.44 1866.03
   1   4   050024.26 1663.63
  -1   4   050439.64 1676.00
  -1   4   052822.61 1800.64
  -1   4   051083.89 1964.99
  -1   4   054498.63 1751.51
  -1   4   047818.46 1848.28
  -1  -4   046069.67 1736.47
  -1  -4   052666.23 1738.51
  -1  -4   052355.04 1680.47
  -1  -4   044559.26 1791.06
   1  -4   045570.95 1693.58
   1  -4   048559.93 1706.12
   1  -4   051963.06 1960.80
   1  -4   054656.08 1906.35
   1  -4   050253.29 1791.91
   1   4   1   14.72   15.47
   1   4   1    9.64   15.34
   1   4   1   26.45   13.76
   1   4   1   16.99   23.47
   1   4   1   12.41   16.56
  -1   4  -1   20.42    8.65
  -1   4  -1    0.27   17.40
  -1   4  -1   22.76   23.46
  -1   4  -1    7.46   19.36
  -1   4  -1   22.69   19.36
  -1  -4  -1  -19.87   21.43
  -1  -4  -1   -5.73   15.46
  -1  -4  -1   13.41   11.89
  -1  -4  -1  -11.09   13.58
  -1  -4  -1   34.87   21.53
   1  -4   1   15.27    9.28
   1  -4   1   15.62   24.71
   1  -4   1   12.53   16.40
   1  -4   1    8.10   13.69
   1  -4   1  -14.02   19.38
   1   4   2 8760.16  451.48
   1   4   2 9048.67  384.98
   1   4   210112.64  421.59
   1   4   210128.40  497.64
   1   4   2 8314.18  390.68
  -1   4  -2 8814.22  342.86
  -1   4  -2 8888.24  384.42
  -1   4  -2 9793.79  461.88
  -1   4  -210049.38  479.47
  -1   4  -2 9897.74  483.82
  -1  -4  -2 8809.25  371.81
  -1  -4  -2 9921.94  412.08
  -1  -4  -2 9603.59  428.97
  -1  -4  -2 9203.92  445.60
  -1  -4  -2 9021.10  409.68
   1  -4   210024.86  339.36
   1  -4   2 9484.19  422.49
   1  -4   210148.26  473.99
   1  -4   2 8631.49  466.10
   1  -4   210140.10  449.08
   1   4   3  285.55   30.36
   1   4   3  325.10   27.77
   1   4   3  367.75   36.37
   1   4   3  314.88   40.34
   1   4   3  302.94   36.01
   1   4   3  334.61   26.25
  -1   4  -3  352.50   27.63
  -1   4  -3  286.49   21.06
  -1   4  -3  248.92   27.36
  -1   4  -3  396.80   48.30
  -1   4  -3  303.95   40.81
  -1   4  -3  255.90   36.41
  -1  -4  -3  339.51   35.55
  -1  -4  -3  347.95   30.15
  -1  -4  -3  278.91   35.33
  -1  -4  -3  355.40   34.20
   1  -4   3  321.30   38.41
   1  -4   3  260.03   31.01
   1  -4   3  268.31   33.35
   1  -4   3  328.76   44.26
   1   4   445907.70 1599.56
   1   4   454491.21 1902.05
   1   4   453612.51 2160.95
   1   4   447933.62 1801.12
  -1   4  -451658.76 1686.03
  -1   4  -448043.63 1641.75
  -1   4  -450777.10 1952.41
  -1   4  -450309.63 2013.46
  -1   4  -448792.35 1880.82
  -1  -4  -450555.52 1682.23
  -1  -4  -449922.09 1665.54
  -1  -4  -448423.15 1938.96
  -1  -4  -443636.65 1758.79
   1  -4   447648.50 1851.64
   1  -4   447980.70 1913.08
   1  -4   452907.58 1847.07
   1   4   5 1277.73   59.83
   1   4   5 1467.85  100.38
   1   4   5 1504.41  117.28
   1   4   5 1317.10  106.06
  -1   4  -5 1384.29   76.69
  -1   4  -5 1267.78   68.08
  -1   4  -5 1466.99  116.91
  -1   4  -5 1479.16  103.28
  -1  -4  -5 1270.83   88.49
  -1  -4  -5 1373.96   62.05
  -1  -4  -5 1243.88   91.27
  -1  -4  -5 1332.15   96.40
   1  -4   5 1407.07   93.70
   1  -4   5 1549.08  120.50
   1  -4   5 1261.05   99.74
   1   4   6   15.63   24.03
   1   4   6    7.06   23.46
  -1   4  -6   30.64   15.17
  -1   4  -6   27.02   12.17
  -1   4  -6   58.11   26.19
  -1   4  -6   65.25   22.30
  -1  -4  -6   24.60   23.18
  -1  -4  -6   31.71    8.66
  -1  -4  -6   57.23    6.70
  -1  -4  -6   32.89   18.83
   1  -4   6   44.45   24.40
   1  -4   6   18.86   22.11
   1   4   7  969.07   79.82
   1   4   7  795.63   78.63
  -1   4  -7  750.61   52.29
  -1   4  -7  755.95   48.10
  -1   4  -7  888.74   92.55
  -1   4  -7  881.66   75.59
  -1  -4  -7  851.71   58.12
  -1  -4  -7  731.93   71.43
   1  -4   7  839.92   71.00
   1  -4   7  828.93   77.21
   1   4   827603.76 1145.41
   1   4   827403.77 1127.12
  -1   4  -825678.85  989.64
  -1   4  -827527.04 1284.80
  -1   4  -828706.52 1217.75
  -1  -4  -826068.38 1021.88
  -1  -4  -825583.71 1104.14
   1  -4   828222.57 1129.23
   1  -4   827300.82 1135.50
   1   4   9  549.71   65.81
   1   4   9  449.03   45.61
  -1   4  -9  420.04   38.92
  -1   4  -9  501.67   65.97
  -1   4  -9  505.04   57.13
  -1  -4  -9  490.29   49.55
  -1  -4  -9  479.54   53.51
   1  -4   9  297.18   44.87
   1  -4   9  498.65   50.58
   1  -4   9  421.33   50.75
   1   4  10 5789.74  365.86
  -1   4 -10 5157.62  253.44
  -1   4 -10 5424.90  376.39
  -1   4 -10 5703.05  333.90
  -1  -4 -10 5942.74  277.78
  -1  -4 -10 5568.26  319.30
   1  -4  10 5574.13  290.82
   1  -4  10 5962.48  363.27
   1   4  11   86.79   44.20
  -1   4 -11   49.99   22.07
  -1   4 -11  110.50   47.15
  -1   4 -11  135.98   35.37
  -1  -4 -11   47.29   36.68
  -1  -4 -11   83.22   36.19
  -1  -4 -11   49.42   36.21
   1  -4  11   34.26   16.73
   1  -4  11   72.08   32.61
   1  -4  11  107.24   48.35
   1   4  12 8770.38  466.88
  -1   4 -12 8032.22  371.83
  -1   4 -12 7730.95  469.28
  -1   4 -12 7654.82  372.99
  -1  -4 -12 7476.37  346.34
  -1  -4 -12 7287.27  364.90
  -1  -4 -12 7467.32  422.15
   1  -4  12 7777.46  455.41
   1  -4  12 7970.69  451.01
   1   4  13  478.95   66.49
  -1   4 -13  416.15   44.29
  -1   4 -13  408.20   69.54
  -1   4 -13  425.63   66.29
  -1  -4 -13  452.67   57.74
  -1  -4 -13  318.05   62.47
  -1  -4 -13  346.28   53.33
   1  -4  13  381.17   53.04
   1  -4  13  452.97   78.51
   1   4  14 5125.20  321.62
  -1   4 -14 4706.21  230.26
  -1   4 -14 4536.23  309.86
  -1   4 -14 4511.08  299.00
  -1  -4 -14 4896.68  275.56
  -1  -4 -14 4684.43  285.00
  -1  -4 -14 4403.27  270.25
   1  -4  14 4602.48  267.25
   1  -4  14 4833.26  301.02
   1   4  15  -17.84   50.65
  -1   4 -15  -37.69   50.75
  -1   4 -15   -2.25   51.53
  -1   4 -15    0.04   51.16
  -1  -4 -15  -30.95   50.09
  -1  -4 -15   10.34   51.33
  -1  -4 -15  -36.51   51.21
   1  -4  15  -19.57   50.81
   1  -4  15  -33.20   50.65
   1   4  16 2959.89  245.56
  -1   4 -16 2933.97  190.65
  -1   4 -16 2792.48  234.28
  -1   4 -16 2909.42  206.55
  -1  -4 -16 3238.67  204.06
  -1  -4 -16 2666.35  184.46
  -1  -4 -16 2966.86  215.25
   1  -4  16 2962.34  230.73
   1  -4  16 3151.65  233.79
   1   4  17  770.89  104.07
  -1   4 -17  632.34   67.86
  -1   4 -17  790.69   95.42
  -1   4 -17  687.47  102.77
  -1  -4 -17  622.15   84.76
  -1  -4 -17  606.42   79.57
  -1  -4 -17  646.65   91.50
   1  -4  17  608.05   76.00
   1  -4  17  636.59  102.91
   1   4  18 2790.19  246.89
  -1   4 -18 2337.56  175.39
  -1   4 -18 2341.97  206.81
  -1   4 -18 2168.89  246.01
  -1  -4 -18 2919.73  214.39
  -1  -4 -18 2427.42  205.46
   1  -4  18 2257.67  154.63
   1  -4  18 2639.15  236.62
   1   4  19  147.09   74.59
  -1   4 -19   27.01   36.61
  -1   4 -19  133.28   67.42
  -1   4 -19   66.07   61.87
  -1  -4 -19   42.88   51.84
  -1  -4 -19  -11.91   53.46
   1  -4  19   53.87   40.56
   1  -4  19   90.59   65.88
   1   4  20  883.01  125.01
   1   4  20  750.36   97.50
  -1   4 -20  575.26   76.21
  -1   4 -20  628.66  109.32
  -1   4 -20  646.90  109.33
  -1  -4 -20  712.72  116.55
  -1  -4 -20  700.94  104.95
   1  -4  20  586.24  111.91
   1   4  21  104.45   64.09
   1   4  21   17.80   44.59
  -1   4 -21  -13.14   56.58
  -1   4 -21   11.28   65.48
  -1  -4 -21  151.95   60.23
  -1  -4 -21  -25.03   62.02
   1  -4  21   78.47   69.62
   1   4  22  519.03   78.46
  -1   4 -22  569.61  102.85
  -1  -4 -22  694.25  116.87
  -1  -4 -22  594.85  111.83
   1  -4  22  597.78   98.54
   1   5   0 1162.54  109.02
   1   5   0 1176.97   57.59
   1   5   0 1203.41  114.62
   1   5   0 1247.34   79.71
  -1   5   0 1499.47   90.44
  -1   5   0 1321.47   87.65
  -1   5   0 1448.45   83.98
  -1  -5   0 1351.26   85.80
  -1  -5   0 1423.65   85.22
  -1  -5   0 1320.78   69.14
  -1  -5   0 1269.90   84.13
   1  -5   0 1390.21   73.67
   1  -5   0 1633.97  116.65
   1  -5   0 1379.57   96.04
   1  -5   0 1407.57  113.11
   1  -5   0 1374.81   96.70
   1   5   144600.43 1645.60
   1   5   142305.36 1548.10
   1   5   141770.28 1597.77
   1   5   143205.58 1558.50
  -1   5  -142727.46 1527.46
  -1   5  -143263.16 1694.75
  -1   5  -147220.21 1568.50
  -1  -5  -144977.56 1614.21
  -1  -5  -147254.42 1611.77
  -1  -5  -145520.57 1596.57
   1  -5   140990.27 1454.61
   1  -5   140447.60 1586.17
   1  -5   146564.28 1958.57
   1  -5   144082.76 2035.46
   1  -5   146149.05 1641.77
   1   5   2   21.80   15.34
   1   5   2   38.16   16.29
   1   5   2   28.10   25.53
   1   5   2   25.83   15.89
  -1   5  -2   27.25   11.60
  -1   5  -2   -7.25   22.85
  -1   5  -2   12.90   24.46
  -1  -5  -2   47.02   26.40
  -1  -5  -2  -14.37   21.24
  -1  -5  -2   19.56   18.06
  -1  -5  -2   12.25   22.00
   1  -5   2   35.21   12.63
   1  -5   2  -26.60   22.57
   1  -5   2   54.90   26.24
   1   5   3 5303.03  249.32
   1   5   3 5427.07  288.83
   1   5   3 5726.28  375.09
   1   5   3 5938.76  323.77
  -1   5  -3 5044.23  223.14
  -1   5  -3 5697.74  271.10
  -1   5  -3 5421.60  283.98
  -1  -5  -3 4919.93  241.43
  -1  -5  -3 5879.62  289.91
  -1  -5  -3 5452.27  259.93
  -1  -5  -3 5133.61  254.44
   1  -5   3 5297.75  275.00
   1  -5   3 5285.41  342.92
   1  -5   3 5689.95  345.64
   1   5   4 1029.50   50.76
   1   5   4 1206.52   91.60
   1   5   4 1265.92  113.65
  -1   5  -4 1178.54   81.55
  -1   5  -4 1054.84   57.15
  -1   5  -4 1111.79   87.47
  -1   5  -4  998.86   99.05
  -1  -5  -4 1088.81   68.43
  -1  -5  -4 1153.80   81.86
  -1  -5  -4 1041.27   81.67
  -1  -5  -4 1151.81   83.34
   1  -5   4 1103.42   87.18
   1  -5   4 1223.20   98.80
   1   5   514219.74  524.22
   1   5   517293.12  713.21
   1   5   517621.68  861.46
  -1   5  -515257.56  615.28
  -1   5  -514918.81  591.24
  -1   5  -515925.63  759.50
  -1  -5  -515136.49  589.50
  -1  -5  -515256.50  594.95
  -1  -5  -514352.88  640.90
  -1  -5  -515244.73  725.02
   1  -5   514570.13  697.28
   1  -5   515082.77  753.18
   1  -5   517785.81  860.96
   1   5   6 1062.89   52.00
   1   5   6 1139.91   74.02
   1   5   6 1056.73   88.63
  -1   5  -6 1005.75   66.90
  -1   5  -6  897.13   66.45
  -1   5  -6 1143.09  100.04
  -1   5  -6  942.69   77.89
  -1  -5  -6 1075.26   76.97
  -1  -5  -6 1055.07   57.49
  -1  -5  -6  955.73   81.55
   1  -5   6 1001.94   88.23
   1  -5   6 1162.26   87.85
   1   5   722409.42  907.27
   1   5   721472.12 1102.93
  -1   5  -720758.14  785.68
  -1   5  -717744.92  744.57
  -1   5  -721106.90 1016.66
  -1   5  -720430.01  817.34
  -1  -5  -719550.90  799.40
  -1  -5  -720412.65  704.02
  -1  -5  -718886.50  687.23
  -1  -5  -719811.38  926.00
   1  -5   719213.57  918.63
   1  -5   720122.49  949.18
   1   5   8  905.94   76.53
   1   5   8  912.60   83.38
  -1   5  -8  825.88   67.35
  -1   5  -8  724.30   50.94
  -1   5  -8  891.15  101.62
  -1   5  -8  911.81   86.52
  -1  -5  -8  930.01   67.89
  -1  -5  -8  888.25   40.40
  -1  -5  -8  796.72   39.68
  -1  -5  -8  853.58   82.93
   1  -5   8  987.09   83.49
   1  -5   8 1030.55   81.81
   1   5   916211.25  671.43
   1   5   914750.07  620.35
  -1   5  -914777.11  560.99
  -1   5  -912156.97  559.10
  -1   5  -915345.59  748.53
  -1   5  -915162.00  668.04
  -1  -5  -914173.17  591.46
  -1  -5  -914675.59  472.02
  -1  -5  -912848.83  447.03
  -1  -5  -914600.47  694.80
   1  -5   915358.71  767.18
   1  -5   915763.13  786.81
   1   5  10  943.54   84.91
   1   5  10 1005.70   77.11
  -1   5 -10  870.39   65.18
  -1   5 -10  703.77   56.53
  -1   5 -10 1015.35  112.05
  -1   5 -10  963.34   81.40
  -1  -5 -10  986.31   80.72
  -1  -5 -10 1046.64   87.93
   1  -5  10  896.26   75.80
   1  -5  10 1055.29  101.98
   1   5  1111928.39  579.37
   1   5  1111306.11  523.49
  -1   5 -1111599.72  535.77
  -1   5 -1112180.55  685.65
  -1   5 -1112442.23  579.56
  -1  -5 -1111708.17  519.09
  -1  -5 -1111580.87  570.12
   1  -5  1112073.63  552.95
   1  -5  1112243.24  641.70
   1   5  12   77.98   49.12
   1   5  12   -9.82   39.11
  -1   5 -12    4.83   22.90
  -1   5 -12    7.16   38.84
  -1   5 -12   50.96   42.71
  -1  -5 -12  -19.72   45.25
  -1  -5 -12   -0.31   38.83
   1  -5  12   -2.02   33.53
   1  -5  12   35.74   39.51
   1   5  13  185.14   53.19
   1   5  13  184.63   51.60
  -1   5 -13  127.47   29.49
  -1   5 -13  136.22   51.58
  -1   5 -13  259.18   58.41
  -1  -5 -13  234.58   48.42
  -1  -5 -13  170.40   48.42
   1  -5  13  188.12   41.40
   1  -5  13  105.64   51.23
   1   5  14  831.89  100.28
   1   5  14  863.56   77.09
  -1   5 -14  798.55   63.27
  -1   5 -14  894.70  110.67
  -1   5 -14  808.50  102.54
  -1  -5 -14  922.40   93.39
  -1  -5 -14  737.45  108.43
   1  -5  14  800.13   91.74
   1  -5  14  807.47   86.40
   1   5  15 8468.27  468.34
   1   5  15 7449.16  378.15
  -1   5 -15 7574.50  390.03
  -1   5 -15 7908.70  454.08
  -1   5 -15 7938.14  403.09
  -1  -5 -15 8542.57  480.49
  -1  -5 -15 7563.08  478.45
   1  -5  15 7547.91  423.42
   1  -5  15 7767.62  478.20
   1   5  16  418.67   79.96
   1   5  16  373.52   60.59
  -1   5 -16  339.44   52.23
  -1   5 -16  454.65   80.20
  -1   5 -16  436.94   76.26
  -1  -5 -16  497.50   74.07
  -1  -5 -16  474.93   86.19
   1  -5  16  465.26   74.00
   1  -5  16  433.17   78.50
   1   5  17   33.45   58.80
   1   5  17  111.32   52.06
  -1   5 -17   37.85   36.18
  -1   5 -17   64.53   51.99
  -1   5 -17   85.48   55.41
  -1  -5 -17   59.27   58.54
  -1  -5 -17   84.52   51.34
   1  -5  17   88.89   51.86
   1  -5  17   88.16   65.20
   1   5  18   20.91   54.56
   1   5  18  100.86   45.76
  -1   5 -18   80.22   39.05
  -1   5 -18   17.13   48.10
  -1   5 -18   16.56   64.54
  -1  -5 -18    7.22   50.14
  -1  -5 -18  101.90   55.88
   1  -5  18   14.34   40.85
   1  -5  18   63.85   60.85
   1   5  19 1670.22  194.18
   1   5  19 1668.83  155.49
  -1   5 -19 1766.55  173.32
  -1   5 -19 1852.47  195.42
  -1  -5 -19 2247.12  191.24
  -1  -5 -19 1820.53  199.11
   1  -5  19 1833.02  160.19
   1  -5  19 1924.36  197.52
   1   5  20  300.51   80.65
   1   5  20  329.65   63.01
  -1   5 -20  416.96   64.36
  -1   5 -20  315.27   95.38
  -1  -5 -20  309.09   67.21
  -1  -5 -20  348.66   77.12
   1  -5  20  282.47   57.62
   1  -5  20  476.65   96.59
   1   5  21  259.91   86.67
   1   5  21  229.74   59.17
  -1   5 -21  257.92   81.86
  -1   5 -21  231.03   67.71
  -1  -5 -21  229.89   71.43
  -1  -5 -21  267.27   71.56
   1  -5  21  230.35   92.10
   1   6   021396.98  938.06
   1   6   025378.39 1039.33
  -1   6   022975.54  878.71
  -1   6   022942.35  989.68
  -1   6   023467.07  900.04
  -1  -6   024401.57  958.01
  -1  -6   024138.81  898.37
  -1  -6   022783.15  850.76
  -1  -6   020128.00  872.39
   1  -6   021656.29  826.80
   1  -6   022837.57 1007.54
   1  -6   023966.83  960.30
   1   6   1  395.59   45.95
   1   6   1  406.85   37.47
   1   6   1  439.34   58.22
  -1   6  -1  476.54   38.41
  -1   6  -1  411.21   45.70
  -1   6  -1  491.92   45.97
  -1  -6  -1  553.17   52.58
  -1  -6  -1  514.49   47.10
  -1  -6  -1  482.68   40.14
  -1  -6  -1  422.69   43.77
   1  -6   1  419.36   35.53
   1  -6   1  461.64   50.92
   1  -6   1  446.74   51.48
   1   6   2 1958.93  116.65
   1   6   2 2063.67  136.47
   1   6   2 2374.80  178.98
  -1   6  -2 1983.79  116.87
  -1   6  -2 2142.09  126.46
  -1   6  -2 2196.28  143.08
  -1  -6  -2 2033.09  119.07
  -1  -6  -2 2291.02  133.18
  -1  -6  -2 2041.67  107.33
  -1  -6  -2 1999.35  124.64
   1  -6   2 2117.04  107.88
   1  -6   2 2080.52  121.05
   1  -6   2 2290.15  162.51
   1   6   3 8048.07  369.33
   1   6   3 9286.66  471.08
   1   6   3 9508.63  516.62
  -1   6  -3 8464.96  371.63
  -1   6  -3 8648.23  441.49
  -1   6  -3 8766.24  449.75
  -1  -6  -3 8616.76  402.36
  -1  -6  -3 9307.20  432.08
  -1  -6  -3 8354.15  381.93
  -1  -6  -3 8209.48  385.55
   1  -6   3 9232.56  369.04
   1  -6   3 8360.16  398.34
   1  -6   3 9420.07  524.45
   1   6   416755.52  675.28
   1   6   419184.26  737.70
   1   6   421014.33 1084.79
  -1   6  -417447.78  676.68
  -1   6  -417193.34  700.16
  -1   6  -418256.24  709.66
  -1   6  -418396.15  821.89
  -1  -6  -417891.65  709.17
  -1  -6  -418648.77  750.79
  -1  -6  -416657.77  709.39
  -1  -6  -419623.67  854.39
   1  -6   417730.38  767.82
   1  -6   419956.58  934.59
   1   6   5  537.10   42.79
   1   6   5  574.28   59.20
   1   6   5  469.91   61.04
  -1   6  -5  514.55   41.78
  -1   6  -5  476.98   48.48
  -1   6  -5  556.97   56.33
  -1   6  -5  584.64   69.79
  -1  -6  -5  483.64   52.16
  -1  -6  -5  561.33   47.56
  -1  -6  -5  611.15   61.14
   1  -6   5  606.43   65.99
   1  -6   5  623.06   66.47
   1   6   6  757.85   47.96
   1   6   6  769.05   66.83
   1   6   6  791.62   76.52
  -1   6  -6  746.14   55.60
  -1   6  -6  664.78   54.54
  -1   6  -6  742.43   79.93
  -1   6  -6  744.06   68.83
  -1  -6  -6  796.40   65.41
  -1  -6  -6  777.77   53.97
  -1  -6  -6  764.49   75.38
   1  -6   6  672.89   80.26
   1  -6   6  664.77   78.05
   1   6   7  262.43   44.50
   1   6   7  267.44   44.31
  -1   6  -7  246.86   34.42
  -1   6  -7  250.58   29.31
  -1   6  -7  339.73   50.90
  -1   6  -7  275.82   45.26
  -1  -6  -7  318.25   39.99
  -1  -6  -7  276.85   27.16
  -1  -6  -7  304.71   50.96
   1  -6   7  262.66   53.97
   1  -6   7  322.83   43.72
   1   6   810123.29  465.45
   1   6   8 9934.73  400.28
  -1   6  -8 9690.45  431.29
  -1   6  -8 9571.67  490.92
  -1   6  -8 9620.33  505.37
  -1  -6  -810093.72  461.14
  -1  -6  -8 9516.58  377.01
  -1  -6  -8 8797.93  364.88
  -1  -6  -8 9374.66  493.63
   1  -6   8 9794.47  480.34
   1  -6   8 9408.21  460.48
   1   6   9  344.39   53.65
   1   6   9  360.94   51.69
  -1   6  -9  319.10   37.46
  -1   6  -9  264.84   58.55
  -1   6  -9  356.76   58.88
  -1  -6  -9  313.01   51.52
  -1  -6  -9  307.91   24.53
  -1  -6  -9  267.47   22.05
  -1  -6  -9  339.77   47.49
   1  -6   9  314.99   53.54
   1  -6   9  299.09   41.55
   1   6  10   12.93   35.28
   1   6  10   27.48   40.32
  -1   6 -10   24.46   27.92
  -1   6 -10  -47.01   41.54
  -1   6 -10   24.82   39.71
  -1  -6 -10   -0.43   34.35
  -1  -6 -10   21.14   11.16
  -1  -6 -10   25.51    7.72
  -1  -6 -10   16.43   38.65
   1  -6  10  -15.24   35.91
   1  -6  10   77.54   33.82
   1   6  11   35.66   37.57
   1   6  11   14.55   39.97
  -1   6 -11   13.49   24.69
  -1   6 -11   54.77   39.15
  -1   6 -11   -9.92   50.70
  -1  -6 -11    9.70   41.99
  -1  -6 -11   11.23   49.30
   1  -6  11   27.07   40.73
   1  -6  11   30.29   47.11
   1   6  12 6007.77  344.85
   1   6  12 5982.71  312.52
  -1   6 -12 5861.94  280.82
  -1   6 -12 6146.34  397.94
  -1   6 -12 6069.98  314.07
  -1  -6 -12 6018.82  326.34
  -1  -6 -12 5750.96  364.67
   1  -6  12 5352.71  326.00
   1  -6  12 6244.38  346.16
   1   6  13 2006.84  164.31
   1   6  13 1971.48  130.11
  -1   6 -13 1909.11  129.11
  -1   6 -13 2337.21  189.46
  -1   6 -13 2136.43  156.67
  -1  -6 -13 2324.56  176.46
  -1  -6 -13 1942.54  162.46
   1  -6  13 2125.48  175.57
   1  -6  13 2083.85  168.14
   1   6  14 1962.39  168.00
   1   6  14 1797.55  125.78
  -1   6 -14 1871.50  148.51
  -1   6 -14 2005.69  185.89
  -1   6 -14 2000.35  164.56
  -1  -6 -14 2053.68  151.68
  -1  -6 -14 1878.28  160.30
   1  -6  14 2001.64  165.91
   1  -6  14 2003.07  144.75
   1   6  15   32.62   52.75
   1   6  15   -5.19   50.46
  -1   6 -15  -11.55   31.38
  -1   6 -15  -32.67   52.15
  -1   6 -15   47.43   53.19
  -1  -6 -15   44.27   49.28
  -1  -6 -15   28.48   57.00
   1  -6  15   10.38   41.34
   1  -6  15   50.24   54.72
   1   6  16 3201.32  229.62
   1   6  16 3132.62  219.94
  -1   6 -16 3315.42  203.10
  -1   6 -16 3478.37  268.05
  -1   6 -16 3464.66  281.24
  -1  -6 -16 3730.90  267.41
  -1  -6 -16 3293.99  260.15
   1  -6  16 3142.23  249.22
   1  -6  16 3399.00  285.14
   1   6  17  -44.34   52.36
   1   6  17   15.24   51.37
  -1   6 -17  -30.71   46.97
  -1   6 -17   55.43   59.44
  -1  -6 -17  -30.50   43.69
  -1  -6 -17   21.49   53.85
   1  -6  17   35.12   54.69
   1  -6  17   17.75   52.48
   1   6  18 2399.86  239.94
   1   6  18 2164.39  180.97
  -1   6 -18 2440.37  258.93
  -1   6 -18 2528.59  218.21
  -1  -6 -18 2925.05  240.22
  -1  -6 -18 2430.59  221.41
   1  -6  18 2235.97  219.84
   1  -6  18 2329.16  222.22
   1   6  19  124.02   62.09
   1   6  19   59.30   56.50
  -1   6 -19  151.72   68.02
  -1   6 -19   51.28   65.55
  -1  -6 -19  115.37   64.17
  -1  -6 -19   79.60   62.86
   1  -6  19   51.66   47.03
   1  -6  19   50.36   65.38
   1   6  20  261.12   82.84
   1   6  20  314.90   72.15
  -1   6 -20  397.78   73.56
  -1   6 -20  205.77   85.71
  -1  -6 -20  442.30   93.01
  -1  -6 -20  367.49   94.70
   1  -6  20  323.09   62.68
   1  -6  20  382.12   92.55
  -1   6 -21  245.75   80.51
  -1  -6 -21  164.69   67.50
   1  -6  21  201.47   64.35
   1   7   0   86.92   20.57
   1   7   0  154.14   42.25
  -1   7   0  135.70   22.67
  -1   7   0  142.11   33.52
  -1   7   0  146.40   37.12
  -1  -7   0  118.68   35.82
  -1  -7   0  124.48   36.38
  -1  -7   0  122.20   26.28
  -1  -7   0  131.83   31.99
   1  -7   0  192.54   25.71
   1  -7   0  116.11   30.93
   1  -7   0  215.03   39.34
   1   7   118857.71  731.98
   1   7   119793.54  914.71
  -1   7  -118017.69  761.74
  -1   7  -119397.75  843.74
  -1   7  -119100.12  771.31
  -1  -7  -120675.60  830.42
  -1  -7  -120159.67  803.55
  -1  -7  -118746.85  716.71
  -1  -7  -118310.12  816.51
   1  -7   119982.21  739.60
   1  -7   121368.86  827.09
   1  -7   120980.53  895.15
   1   7   2 3698.35  208.43
   1   7   2 3966.34  264.41
  -1   7  -2 3341.65  167.80
  -1   7  -2 3474.63  215.45
  -1   7  -2 3774.39  221.86
  -1  -7  -2 3325.65  208.81
  -1  -7  -2 3946.75  206.02
  -1  -7  -2 3297.88  152.06
  -1  -7  -2 3692.64  195.97
   1  -7   2 3738.16  179.32
   1  -7   2 3307.34  195.09
   1  -7   2 3866.83  246.18
   1   7   3 3627.24  207.72
   1   7   3 4667.17  261.68
   1   7   3 4612.13  306.18
  -1   7  -3 3959.32  204.11
  -1   7  -3 4223.05  232.14
  -1   7  -3 4718.96  250.68
  -1  -7  -3 4427.80  217.54
  -1  -7  -3 4521.13  238.35
  -1  -7  -3 3920.27  199.91
  -1  -7  -3 4051.92  226.01
   1  -7   3 4450.74  215.78
   1  -7   3 4333.49  273.05
   1  -7   3 4593.28  323.50
   1   7   4   29.40   16.27
   1   7   4   47.33   25.56
   1   7   4   82.56   38.58
  -1   7  -4   14.73   13.35
  -1   7  -4    8.18   26.06
  -1   7  -4   31.48   34.38
  -1  -7  -4   20.35   29.81
  -1  -7  -4  -31.56   22.85
  -1  -7  -4   35.12   29.46
   1  -7   4   54.47   33.71
   1  -7   4   63.27   38.42
   1   7   512924.44  574.50
   1   7   514758.25  685.62
   1   7   516638.22  971.17
  -1   7  -514392.57  603.83
  -1   7  -512964.67  551.77
  -1   7  -514587.87  665.78
  -1   7  -514659.29  691.69
  -1  -7  -515680.38  577.88
  -1  -7  -515354.78  603.29
  -1  -7  -516066.32  720.86
   1  -7   515284.90  732.49
   1  -7   515743.80  715.99
   1   7   6 3025.22  148.63
   1   7   6 3089.57  180.66
   1   7   6 3299.47  255.43
  -1   7  -6 2818.02  173.70
  -1   7  -6 2550.96  152.72
  -1   7  -6 3065.71  230.92
  -1  -7  -6 3348.36  174.16
  -1  -7  -6 3111.56  162.10
  -1  -7  -6 3313.83  220.19
   1  -7   6 2934.20  215.38
   1  -7   6 3002.11  167.81
   1  -7   6 2861.24  219.85
   1   7   7 6416.71  280.59
   1   7   7 6688.92  336.36
   1   7   7 7144.18  396.36
  -1   7  -7 6474.30  324.10
  -1   7  -7 5397.12  291.58
  -1   7  -7 6485.05  389.42
  -1   7  -7 6927.70  343.83
  -1  -7  -7 7099.07  328.10
  -1  -7  -7 6823.20  285.30
  -1  -7  -7 6799.47  403.91
   1  -7   7 6574.32  398.85
   1  -7   7 6905.97  340.66
   1   7   8  977.92   84.29
   1   7   8  993.70   95.61
  -1   7  -8  767.97   70.72
  -1   7  -8  893.97   98.82
  -1   7  -8  963.62   82.76
  -1  -7  -8  985.10   78.84
  -1  -7  -8  844.71   54.40
  -1  -7  -8  776.72   52.57
  -1  -7  -8  819.36   90.78
   1  -7   8  942.78   97.08
   1  -7   8  928.59   71.87
   1   7   9 1068.36   99.15
   1   7   9 1247.15  108.54
  -1   7  -9 1028.54   76.93
  -1   7  -9 1266.70  134.22
  -1   7  -9 1169.46  104.23
  -1  -7  -9 1271.41   99.28
  -1  -7  -9 1052.46   58.50
  -1  -7  -9  895.84   65.59
  -1  -7  -9 1258.16  110.99
   1  -7   9  984.87  102.87
   1  -7   9 1078.91   92.26
   1   7  10 2956.09  191.79
   1   7  10 3222.27  212.91
  -1   7 -10 2894.09  164.84
  -1   7 -10 3048.19  246.27
  -1   7 -10 3091.62  187.40
  -1  -7 -10 3529.38  218.48
  -1  -7 -10 2857.00  126.96
  -1  -7 -10 2977.15  209.51
   1  -7  10 3159.12  226.37
   1  -7  10 2935.73  195.64
   1   7  11 6491.82  392.23
   1   7  11 6508.64  338.39
  -1   7 -11 5770.86  313.59
  -1   7 -11 6273.57  433.69
  -1   7 -11 6057.48  373.74
  -1  -7 -11 7096.22  364.69
  -1  -7 -11 6098.84  384.57
   1  -7  11 6230.44  377.13
   1  -7  11 6012.80  363.80
   1   7  12  -19.19   44.33
   1   7  12  -13.20   52.18
  -1   7 -12  102.08   24.30
  -1   7 -12   67.54   48.13
  -1   7 -12  100.64   57.43
  -1  -7 -12  116.07   57.68
  -1  -7 -12  -13.53   51.46
   1  -7  12   11.29   39.76
   1  -7  12   63.82   43.04
   1   7  13  789.11   87.49
   1   7  13  685.14   76.55
  -1   7 -13  602.70   57.21
  -1   7 -13  818.15   91.55
  -1   7 -13  642.12   97.68
  -1  -7 -13  690.94   91.59
  -1  -7 -13  649.00   87.37
   1  -7  13  750.93   89.73
   1  -7  13  531.21   80.48
   1   7  14  562.88   72.71
   1   7  14  422.37   70.69
  -1   7 -14  419.51   49.27
  -1   7 -14  604.88   95.68
  -1   7 -14  599.36   91.72
  -1  -7 -14  566.76   88.52
  -1  -7 -14  460.48   91.53
   1  -7  14  540.80   85.33
   1  -7  14  486.43   73.66
   1   7  15 2805.10  209.19
   1   7  15 2477.13  201.46
  -1   7 -15 2866.35  239.22
  -1   7 -15 3036.98  277.60
  -1  -7 -15 3125.87  212.60
  -1  -7 -15 2835.81  216.47
   1  -7  15 2997.38  223.12
   1  -7  15 2693.81  207.49
   1   7  16  -15.01   50.55
   1   7  16   20.43   47.58
  -1   7 -16   21.09   50.53
  -1   7 -16   63.39   61.00
  -1  -7 -16   -7.62   56.55
  -1  -7 -16  -72.85   47.58
   1  -7  16   13.49   50.71
   1  -7  16    5.93   46.33
   1   7  17  -12.24   60.51
   1   7  17   33.65   49.82
  -1   7 -17   18.10   48.76
  -1   7 -17   31.34   63.50
  -1  -7 -17    0.27   61.57
  -1  -7 -17   11.46   56.43
   1  -7  17   58.89   46.65
   1  -7  17   24.02   52.10
   1   7  18  153.12   66.92
   1   7  18  138.16   51.14
  -1   7 -18  266.05   79.13
  -1   7 -18   97.16   72.62
  -1  -7 -18  100.97   69.13
  -1  -7 -18   52.91   58.93
   1  -7  18  111.99   53.95
   1  -7  18  118.77   58.95
   1   7  19 1128.21  173.60
   1   7  19 1231.31  117.13
  -1   7 -19 1155.56  134.01
  -1   7 -19 1167.84  134.17
  -1  -7 -19 1479.62  159.11
  -1  -7 -19 1154.42  142.26
   1  -7  19 1251.87  133.59
   1  -7  19 1026.49  135.96
   1   7  20  150.34   70.97
   1   7  20   96.04   58.39
  -1   7 -20   88.97   65.84
  -1  -7 -20  154.33   60.98
  -1  -7 -20  168.32   69.83
   1  -7  20   39.77   52.14
   1  -7  20   34.76   61.51
   1   8   010345.21  413.50
   1   8   012438.09  585.06
  -1   8   010757.45  500.68
  -1   8   011166.70  553.82
  -1   8   012093.82  513.99
  -1  -8   010945.46  490.87
  -1  -8   011537.46  457.07
  -1  -8   010100.85  425.42
  -1  -8   010245.91  467.91
   1  -8   011140.88  462.90
   1  -8   012706.60  495.66
   1  -8   011705.29  549.62
   1   8   1  349.26   37.16
   1   8   1  454.13   61.72
  -1   8  -1  331.41   37.81
  -1   8  -1  414.96   50.88
  -1   8  -1  481.32   57.47
  -1  -8  -1  384.85   49.82
  -1  -8  -1  373.73   41.73
  -1  -8  -1  319.98   34.21
  -1  -8  -1  426.11   55.52
   1  -8   1  387.36   35.54
   1  -8   1  362.26   46.97
   1  -8   1  437.84   55.27
   1   8   210092.74  449.29
   1   8   210566.17  577.07
  -1   8  -2 7965.47  370.12
  -1   8  -2 8846.65  413.39
  -1   8  -2 9809.66  471.03
  -1  -8  -2 9734.41  429.84
  -1  -8  -2 9398.19  413.42
  -1  -8  -2 8004.19  354.51
  -1  -8  -2 9758.31  440.91
   1  -8   2 9217.94  397.03
   1  -8   2 9842.06  434.17
   1  -8   210039.33  518.97
   1   8   3 3471.97  217.18
   1   8   3 3810.88  293.64
  -1   8  -3 3094.01  167.48
  -1   8  -3 3422.65  197.95
  -1   8  -3 3501.81  217.13
  -1  -8  -3 3791.55  201.17
  -1  -8  -3 3772.59  216.54
  -1  -8  -3 3318.42  180.10
   1  -8   3 3724.65  193.53
   1  -8   3 3606.83  218.55
   1  -8   3 4125.60  253.81
   1   8   417055.85  735.04
   1   8   418100.68  957.20
  -1   8  -416600.63  772.47
  -1   8  -416144.82  793.73
  -1  -8  -416068.63  705.84
  -1  -8  -417552.73  760.04
  -1  -8  -418415.60  881.64
   1  -8   416024.61  637.80
   1  -8   415943.60  778.78
   1  -8   417950.36  786.43
   1   8   5  494.84   52.53
   1   8   5  607.04   86.01
  -1   8  -5  569.87   56.44
  -1   8  -5  394.17   48.56
  -1   8  -5  523.85   64.30
  -1   8  -5  653.64   81.24
  -1  -8  -5  825.14   69.34
  -1  -8  -5  641.17   56.76
  -1  -8  -5  672.82   78.18
   1  -8   5  669.22   79.53
   1  -8   5  626.77   79.34
   1   8   6   39.57   33.37
   1   8   6   74.02   43.16
  -1   8  -6   63.35   25.10
  -1   8  -6   42.98   18.65
  -1   8  -6   -4.68   40.81
  -1  -8  -6   92.49   39.45
  -1  -8  -6  137.97   30.17
  -1  -8  -6   68.00   39.92
   1  -8   6    9.52   48.45
   1  -8   6  125.03   32.76
   1  -8   6   66.50   34.16
   1   8   7 2061.90  136.48
   1   8   7 2251.21  181.67
  -1   8  -7 2103.20  145.01
  -1   8  -7 2222.96  186.84
  -1   8  -7 2091.55  159.05
  -1  -8  -7 2260.69  163.03
  -1  -8  -7 2277.53  130.61
  -1  -8  -7 2451.89  185.61
   1  -8   7 2321.55  171.57
   1  -8   7 2293.53  131.57
   1   8   815938.61  698.30
   1   8   817007.92  792.73
  -1   8  -815068.26  672.92
  -1   8  -816095.02  874.65
  -1   8  -815802.96  764.18
  -1  -8  -818499.78  811.36
  -1  -8  -815645.00  661.52
  -1  -8  -817111.02  804.82
   1  -8   816635.88  803.95
   1  -8   815774.77  740.30
   1   8   9 2732.10  182.11
   1   8   9 2737.82  181.04
  -1   8  -9 2593.70  155.12
  -1   8  -9 2672.42  234.41
  -1   8  -9 2743.17  168.32
  -1  -8  -9 2907.11  207.81
  -1  -8  -9 2553.00  138.37
  -1  -8  -9 2748.40  231.12
   1  -8   9 2722.83  203.53
   1  -8   9 2658.89  179.20
   1   8  10  864.86   86.55
   1   8  10 1004.70  104.57
  -1   8 -10  815.53   66.63
  -1   8 -10  907.23  110.02
  -1   8 -10  946.87   83.36
  -1  -8 -10 1091.30   96.87
  -1  -8 -10  944.33  109.95
   1  -8  10  920.16   97.72
   1  -8  10  965.88   85.31
   1   8  11   77.64   43.57
   1   8  11   40.93   57.48
  -1   8 -11   45.66   26.18
  -1   8 -11   88.03   53.67
  -1   8 -11  105.16   55.59
  -1  -8 -11  126.75   56.73
  -1  -8 -11   42.41   54.93
   1  -8  11   33.07   46.27
   1  -8  11   50.87   39.73
   1   8  12 7768.43  448.74
   1   8  12 7611.39  423.90
  -1   8 -12 7036.45  368.16
  -1   8 -12 8215.63  521.55
  -1   8 -12 7834.65  497.55
  -1  -8 -12 8794.79  498.96
  -1  -8 -12 7782.05  454.56
   1  -8  12 8148.03  471.39
   1  -8  12 7434.28  426.63
   1   8  13 1266.41  138.66
   1   8  13 1359.21  120.08
  -1   8 -13 1168.49  137.16
  -1   8 -13 1519.36  154.68
  -1  -8 -13 1558.64  163.35
  -1  -8 -13 1195.75  129.50
   1  -8  13 1492.44  144.38
   1  -8  13 1276.30  131.47
   1   8  14 1947.70  162.61
   1   8  14 1941.85  154.52
  -1   8 -14 2145.15  193.13
  -1   8 -14 2044.00  189.08
  -1  -8 -14 2124.70  182.16
  -1  -8 -14 2042.95  190.05
   1  -8  14 1866.48  159.10
   1  -8  14 1812.11  150.01
   1   8  15   33.56   56.41
   1   8  15   -9.52   45.70
  -1   8 -15  109.93   52.86
  -1   8 -15  -22.39   66.43
  -1  -8 -15  -13.97   63.30
  -1  -8 -15   62.39   59.21
   1  -8  15   44.86   51.74
   1  -8  15   44.91   43.87
   1   8  16  558.77   85.46
   1   8  16  553.10   78.53
  -1   8 -16  676.22  103.88
  -1   8 -16  709.77  107.51
  -1  -8 -16  690.13  100.78
  -1  -8 -16  566.13   95.65
   1  -8  16  575.97   96.36
   1  -8  16  578.35   93.39
   1   8  17 1458.11  155.71
   1   8  17 1263.83  142.95
  -1   8 -17 1623.44  195.47
  -1   8 -17 1649.79  149.58
  -1  -8 -17 1810.74  163.01
  -1  -8 -17 1303.32  133.83
   1  -8  17 1447.32  159.09
   1  -8  17 1303.07  135.27
   1   8  18  966.78  131.96
   1   8  18  906.96   98.23
  -1   8 -18 1144.29  138.52
  -1   8 -18 1134.54  165.52
  -1  -8 -18 1310.10  126.44
  -1  -8 -18 1127.61  141.05
   1  -8  18  985.50  136.24
   1  -8  18 1047.35  131.63
   1   8  19  105.76   55.83
   1   8  19  -15.51   51.04
  -1   8 -19   17.94   50.74
  -1  -8 -19   20.11   61.40
   1  -8  19   -0.42   47.43
   1   9   0 1206.04   72.45
   1   9   0 1309.25  120.70
  -1   9   0 1176.18   84.09
  -1   9   0 1474.50  117.47
  -1  -9   0 1432.44  103.88
  -1  -9   0 1450.47  103.12
  -1  -9   0 1049.58   77.94
  -1  -9   0 1463.29   92.76
   1  -9   0 1535.82   87.29
   1  -9   0 1762.34  123.94
   1  -9   0 1537.46  114.97
   1   9   120916.37 1000.73
  -1   9  -119286.23  870.97
  -1   9  -119391.43  813.71
  -1  -9  -121106.95  877.54
  -1  -9  -120005.27  865.65
  -1  -9  -121958.18  903.92
   1  -9   120341.99  800.98
   1  -9   122746.86  913.85
   1  -9   122005.54  919.10
   1   9   2 4496.66  230.09
   1   9   2 5288.44  336.18
  -1   9  -2 4607.68  258.41
  -1   9  -2 4975.60  318.20
  -1  -9  -2 5199.23  240.66
  -1  -9  -2 4997.78  277.54
  -1  -9  -2 5514.58  294.11
   1  -9   2 4865.92  238.88
   1  -9   2 5231.92  277.07
   1  -9   2 5121.17  270.06
   1   9   3 4565.04  250.95
   1   9   3 4830.51  308.76
  -1   9  -3 4768.38  254.27
  -1   9  -3 4433.52  295.87
  -1  -9  -3 4819.88  250.93
  -1  -9  -3 4587.00  236.85
  -1  -9  -3 4534.30  253.79
   1  -9   3 4142.96  219.55
   1  -9   3 4505.04  289.36
   1  -9   3 5109.83  293.68
   1   9   4  240.96   41.78
   1   9   4  258.11   57.61
  -1   9  -4  283.97   41.21
  -1   9  -4  316.95   56.70
  -1  -9  -4  360.31   52.59
  -1  -9  -4  235.48   36.52
  -1  -9  -4  268.71   58.13
   1  -9   4  199.64   30.26
   1  -9   4  365.63   56.40
   1  -9   4  336.03   58.59
   1   9   5 6729.02  375.62
   1   9   5 6919.99  522.42
  -1   9  -5 5693.70  280.33
  -1   9  -5 6449.45  343.26
  -1   9  -5 7042.06  419.10
  -1  -9  -5 7521.74  353.01
  -1  -9  -5 6794.21  344.22
  -1  -9  -5 6715.19  371.98
   1  -9   5 6978.68  415.37
   1  -9   5 7142.97  378.18
   1   9   6 4100.58  241.54
   1   9   6 3984.47  267.38
  -1   9  -6 3504.99  211.39
  -1   9  -6 3785.88  273.71
  -1  -9  -6 4574.96  239.86
  -1  -9  -6 4186.81  231.76
  -1  -9  -6 4344.00  284.55
   1  -9   6 3822.16  261.14
   1  -9   6 4099.74  247.00
   1  -9   6 3969.38  259.60
   1   9   7 3989.05  235.98
   1   9   7 4302.26  248.33
  -1   9  -7 3640.24  211.52
  -1   9  -7 4414.01  309.61
  -1   9  -7 3956.70  249.03
  -1  -9  -7 5146.13  272.11
  -1  -9  -7 4050.24  238.89
  -1  -9  -7 4435.03  278.55
   1  -9   7 4522.77  316.69
   1  -9   7 4161.42  231.06
   1   9   8  -65.47   40.13
   1   9   8  -28.82   40.16
  -1   9  -8   -0.23   40.35
  -1   9  -8  -13.08   40.03
  -1   9  -8  -38.27   39.85
  -1  -9  -8    6.37   40.29
  -1  -9  -8   15.98   41.41
  -1  -9  -8  -82.42   40.48
   1  -9   8  -39.78   40.09
   1  -9   8   23.63   40.74
   1   9   9 1394.64  125.43
   1   9   9 1598.14  138.39
  -1   9  -9 1323.73  112.22
  -1   9  -9 1671.90  174.57
  -1   9  -9 1534.15  157.73
  -1  -9  -9 1793.79  125.82
  -1  -9  -9 1403.66  103.27
  -1  -9  -9 1590.03  147.19
   1  -9   9 1882.78  161.51
   1  -9   9 1388.12  112.67
   1   9  10 1519.60  127.45
   1   9  10 1493.66  133.98
  -1   9 -10 1594.05  173.45
  -1   9 -10 1661.22  137.34
  -1  -9 -10 1746.11  147.06
  -1  -9 -10 1660.97  141.09
   1  -9  10 1520.09  162.46
   1  -9  10 1453.13  120.47
   1   9  11 5606.35  323.33
   1   9  11 6126.62  366.38
  -1   9 -11 5793.88  429.83
  -1   9 -11 6355.90  356.94
  -1  -9 -11 6276.90  351.22
  -1  -9 -11 6493.50  417.73
   1  -9  11 6251.87  398.93
   1  -9  11 5518.07  324.42
   1   9  12  503.13   71.01
   1   9  12  588.20   85.61
  -1   9 -12  766.63  107.44
  -1   9 -12  706.21   97.51
  -1  -9 -12  598.31   80.94
  -1  -9 -12  744.46  101.42
   1  -9  12  612.77   87.83
   1  -9  12  574.08   73.40
   1   9  13   38.94   50.34
   1   9  13  -11.62   46.51
  -1   9 -13  120.31   61.87
  -1   9 -13   86.73   49.42
  -1  -9 -13  114.63   64.99
  -1  -9 -13   37.41   54.91
   1  -9  13  111.78   52.66
   1  -9  13  145.15   46.51
   1   9  14  823.15  111.23
   1   9  14  788.96  103.95
  -1   9 -14  980.61  120.76
  -1   9 -14 1014.65  142.97
  -1  -9 -14 1381.04  138.65
  -1  -9 -14  842.00  105.00
   1  -9  14  952.53  126.73
   1  -9  14  866.12  108.17
   1   9  15 2731.98  235.05
   1   9  15 2527.73  190.60
  -1   9 -15 2923.55  279.94
  -1   9 -15 3029.01  248.01
  -1  -9 -15 3538.94  265.37
  -1  -9 -15 3019.27  238.76
   1  -9  15 3427.29  264.93
   1  -9  15 2596.80  207.24
   1   9  16  213.95   66.50
   1   9  16  168.10   76.95
  -1   9 -16  370.59   85.03
  -1   9 -16  464.78   90.70
  -1  -9 -16  374.74   84.82
  -1  -9 -16  323.26   80.41
   1  -9  16  438.67   79.04
   1  -9  16  264.49   66.04
   1   9  17   23.11   55.02
   1   9  17   32.36   53.95
  -1   9 -17   40.30   54.88
  -1   9 -17  -56.93   50.82
  -1  -9 -17  -11.15   50.87
  -1  -9 -17   12.86   48.26
   1  -9  17   65.20   55.99
   1   9  18   91.30   61.05
   1   9  18  136.20   53.25
  -1   9 -18  145.29   65.08
  -1  -9 -18  136.42   68.43
   1  -9  18  102.06   55.15
   1  10   0 7268.39  328.56
   1  10   0 9057.01  472.26
  -1  10   0 8468.27  416.71
  -1  10   0 8211.92  392.19
  -1 -10   0 8361.35  441.40
  -1 -10   0 7709.60  403.27
  -1 -10   0 8129.76  469.43
   1 -10   0 8246.79  370.21
   1 -10   0 8959.86  470.72
   1 -10   0 9413.32  438.15
   1  10   1  112.74   24.76
   1  10   1  184.04   59.94
  -1  10  -1   54.05   37.34
  -1  10  -1   92.78   54.12
  -1 -10  -1  172.27   44.19
  -1 -10  -1  114.25   42.83
  -1 -10  -1  220.13   56.98
   1 -10   1  171.39   31.32
   1 -10   1  170.40   52.86
   1 -10   1  134.15   53.41
   1  10   2  227.10   33.39
   1  10   2  306.33   70.43
  -1  10  -2  237.89   48.16
  -1  10  -2  350.12   64.80
  -1 -10  -2  322.19   48.43
  -1 -10  -2  241.33   43.73
  -1 -10  -2  298.05   60.84
   1 -10   2  212.90   41.37
   1 -10   2  273.51   49.06
   1 -10   2  380.27   63.32
   1  10   3 1002.22   96.49
   1  10   3 1072.81  102.51
  -1  10  -3 1026.58   96.86
  -1  10  -3 1195.37  115.74
  -1 -10  -3 1167.46  104.42
  -1 -10  -3  977.46   91.77
  -1 -10  -3 1171.46  108.69
   1 -10   3  991.54   76.90
   1 -10   3 1121.49  101.71
   1 -10   3 1155.25  127.70
   1  10   410119.66  547.33
   1  10   411066.65  597.90
  -1  10  -4 9765.67  474.63
  -1  10  -4 9902.18  556.14
  -1 -10  -410530.79  447.63
  -1 -10  -410834.38  513.14
  -1 -10  -410299.74  505.24
   1 -10   4 8975.23  439.74
   1 -10   411360.34  584.60
   1 -10   410407.39  544.35
   1  10   5 1109.85   93.13
   1  10   5 1294.19  119.59
  -1  10  -5  937.26   81.75
  -1  10  -5  971.23   99.20
  -1  10  -5 1032.62  122.16
  -1 -10  -5 1200.13   96.71
  -1 -10  -5 1055.67   90.55
  -1 -10  -5 1295.21  118.07
   1 -10   5 1112.52  116.41
   1 -10   5 1017.16  110.21
   1  10   6   80.59   33.80
   1  10   6   78.51   54.01
  -1  10  -6   79.86   31.12
  -1  10  -6   60.92   50.20
  -1 -10  -6   95.80   45.88
  -1 -10  -6   58.35   33.45
  -1 -10  -6   80.07   49.10
   1 -10   6   56.39   55.93
   1 -10   6   76.67   38.22
   1 -10   6   88.71   48.18
   1  10   7 1142.17   98.17
   1  10   7 1067.63  114.52
  -1  10  -7  783.77   79.80
  -1  10  -7 1070.84  128.63
  -1 -10  -7 1152.35   95.77
  -1 -10  -7 1015.38   87.18
  -1 -10  -7 1206.22  116.82
   1 -10   7 1116.43  116.79
   1 -10   7  985.75   88.09
   1  10   8 5688.85  360.63
   1  10   8 6730.85  399.74
  -1  10  -8 6434.19  411.48
  -1  10  -8 6338.68  417.40
  -1 -10  -8 7055.64  354.41
  -1 -10  -8 6236.83  330.09
  -1 -10  -8 6851.00  411.35
   1 -10   8 7765.96  500.69
   1 -10   8 5881.58  326.29
   1  10   9  378.12   59.62
   1  10   9  366.88   79.14
  -1  10  -9  368.07   79.27
  -1  10  -9  514.73   84.86
  -1 -10  -9  390.19   76.07
  -1 -10  -9  433.29   71.01
   1 -10   9  435.45   83.81
   1 -10   9  393.68   57.15
   1  10  10  478.96   73.19
   1  10  10  504.03   80.64
  -1  10 -10  563.88   96.93
  -1  10 -10  547.64   94.04
  -1 -10 -10  489.60   81.70
  -1 -10 -10  502.08   79.49
   1 -10  10  521.07   89.68
   1 -10  10  468.74   67.91
   1  10  11  793.42   80.07
   1  10  11 1041.65  107.94
  -1  10 -11  995.93  120.86
  -1  10 -11  939.24  138.86
  -1 -10 -11  895.89  116.99
  -1 -10 -11  921.27  118.41
   1 -10  11  933.73  106.91
   1 -10  11  897.17   91.08
   1  10  12 2486.09  185.66
   1  10  12 2471.01  194.34
  -1  10 -12 2604.91  240.22
  -1  10 -12 2646.27  253.48
  -1 -10 -12 2880.03  209.99
  -1 -10 -12 2355.18  217.64
   1 -10  12 2655.68  223.95
   1 -10  12 2487.45  170.98
   1  10  13  491.93   77.18
   1  10  13  509.15   86.85
  -1  10 -13  631.74   81.84
  -1  10 -13  526.05  104.75
  -1 -10 -13  573.24   84.87
  -1 -10 -13  616.70  102.90
   1 -10  13  757.47  110.95
   1 -10  13  574.71   84.79
   1  10  14  240.45   65.84
   1  10  14  242.00   73.27
  -1  10 -14  276.84   75.68
  -1  10 -14  295.67   79.98
  -1 -10 -14  255.40   73.85
  -1 -10 -14  156.80   64.09
   1 -10  14  288.55   72.51
   1  10  15  -15.71   59.39
   1  10  15  -22.75   59.44
  -1  10 -15  -50.62   59.83
  -1  10 -15   -8.42   59.96
  -1 -10 -15  -16.57   59.59
  -1 -10 -15   22.31   60.45
   1 -10  15   13.04   59.37
   1  10  16 1399.51  177.92
   1  10  16 1218.77  136.92
  -1  10 -16 1610.86  184.91
  -1  10 -16 1580.60  144.61
  -1 -10 -16 1721.58  175.67
  -1 -10 -16 1640.60  169.38
   1 -10  16 1409.06  161.05
   1  11   0 2137.23  177.05
  -1  11   0 2027.46  149.19
  -1  11   0 2098.42  159.31
  -1 -11   0 1862.91  147.44
  -1 -11   0 1795.64  129.16
  -1 -11   0 2102.07  170.74
   1 -11   0 2083.09  124.94
   1 -11   0 2242.24  167.38
   1 -11   0 2310.48  167.54
   1  11   1 6349.46  432.64
  -1  11  -1 6316.91  355.75
  -1  11  -1 6402.59  372.02
  -1 -11  -1 6106.47  317.84
  -1 -11  -1 5860.56  320.54
  -1 -11  -1 6563.30  366.54
   1 -11   1 5710.55  316.66
   1 -11   1 6864.78  386.64
   1 -11   1 5949.40  347.91
   1  11   2 2059.28  209.41
  -1  11  -2 1708.54  127.18
  -1  11  -2 1898.83  175.80
  -1 -11  -2 1834.46  141.63
  -1 -11  -2 1742.31  127.42
  -1 -11  -2 1830.59  137.55
   1 -11   2 1640.23  121.65
   1 -11   2 1982.00  166.93
   1 -11   2 2130.29  167.35
   1  11   3  299.16   38.82
   1  11   3  350.59   75.86
  -1  11  -3  416.12   58.63
  -1  11  -3  320.25   75.20
  -1 -11  -3  397.46   58.93
  -1 -11  -3  361.23   49.60
  -1 -11  -3  439.05   69.71
   1 -11   3  293.99   44.10
   1 -11   3  381.52   65.16
   1 -11   3  335.06   76.37
   1  11   4 1674.89  130.70
   1  11   4 1841.02  206.05
  -1  11  -4 1651.41  132.48
  -1  11  -4 1920.34  165.54
  -1 -11  -4 2000.60  173.76
  -1 -11  -4 1996.50  143.82
  -1 -11  -4 2288.46  160.90
   1 -11   4 1974.49  141.11
   1 -11   4 2053.39  174.98
   1  11   5 3721.23  244.00
   1  11   5 4002.07  279.19
  -1  11  -5 4001.59  306.39
  -1 -11  -5 4517.98  262.73
  -1 -11  -5 4240.84  253.03
  -1 -11  -5 4017.46  279.14
   1 -11   5 5093.57  363.59
   1 -11   5 4032.83  239.26
   1  11   6 2028.75  131.83
   1  11   6 2102.47  179.47
  -1  11  -6 2215.48  201.38
  -1 -11  -6 2076.41  146.54
  -1 -11  -6 1960.65  136.49
  -1 -11  -6 2141.14  185.63
   1 -11   6 2217.03  207.44
   1 -11   6 1947.73  139.03
   1 -11   6 2144.30  158.24
   1  11   7 2543.16  178.48
   1  11   7 2770.98  218.69
  -1  11  -7 2839.82  244.05
  -1 -11  -7 3097.63  208.38
  -1 -11  -7 3064.15  234.27
   1 -11   7 3146.17  268.97
   1 -11   7 2533.12  149.90
   1  11   8   46.39   35.82
   1  11   8   31.40   62.19
  -1  11  -8   62.37   59.75
  -1  11  -8   58.30   48.37
  -1 -11  -8   53.28   41.86
  -1 -11  -8   96.42   60.63
   1 -11   8   94.80   59.85
   1 -11   8   55.53   38.60
   1  11   9 2335.44  174.79
   1  11   9 2631.42  218.87
  -1  11  -9 2448.54  227.48
  -1  11  -9 2525.65  206.16
  -1 -11  -9 2860.04  188.56
  -1 -11  -9 2453.84  217.38
   1 -11   9 2484.81  229.54
   1 -11   9 1981.97  176.36
   1  11  10  532.49   75.55
   1  11  10  663.05   93.76
  -1  11 -10  647.54  106.64
  -1  11 -10  670.15  102.47
  -1 -11 -10  809.45   85.67
  -1 -11 -10  817.41  108.16
   1 -11  10  773.80  119.68
   1 -11  10  606.14   79.92
   1  11  11 1558.37  159.33
   1  11  11 1948.30  184.33
  -1  11 -11 2003.47  197.44
  -1  11 -11 1912.66  189.07
  -1 -11 -11 2074.10  171.25
  -1 -11 -11 1873.22  186.53
   1 -11  11 1948.73  190.22
   1  11  12  175.99   53.29
   1  11  12  148.02   59.56
  -1  11 -12  118.35   58.89
  -1  11 -12  200.98   74.04
  -1 -11 -12  111.34   57.48
  -1 -11 -12  169.34   59.48
   1 -11  12   54.65   64.15
   1  11  13   15.60   46.17
   1  11  13  196.19   67.79
  -1  11 -13   69.01   53.80
  -1  11 -13   14.96   62.15
  -1 -11 -13   87.86   58.60
  -1 -11 -13  -54.46   58.41
   1 -11  13   42.03   58.55
   1  11  14  142.47   45.50
   1  11  14  163.27   71.71
  -1  11 -14  138.44   64.12
  -1  11 -14  116.62   67.35
  -1 -11 -14  104.59   53.40
  -1 -11 -14  102.07   58.25
   1 -11  14   10.01   65.38
   1  11  15 1886.54  183.91
   1  11  15 1852.08  165.28
  -1 -11 -15 2244.36  194.01
   1 -11  15 2422.38  249.24
   1  12   0 4374.88  323.40
  -1  12   0 4175.51  258.84
  -1  12   0 4402.58  314.70
  -1 -12   0 4089.96  277.25
  -1 -12   0 3638.70  279.44
  -1 -12   0 4074.97  290.63
   1 -12   0 3901.99  212.01
   1 -12   0 5025.38  306.05
   1 -12   0 4506.52  293.82
   1  12   1  187.07   67.44
  -1  12  -1  111.69   41.30
  -1  12  -1  207.44   68.80
  -1 -12  -1  189.27   47.12
  -1 -12  -1  100.87   47.57
  -1 -12  -1  202.49   56.81
   1 -12   1  288.76   62.57
   1 -12   1  156.30   62.61
   1  12   2 2240.02  192.61
  -1  12  -2 1675.44  141.59
  -1  12  -2 2055.71  174.27
  -1 -12  -2 1920.00  162.39
  -1 -12  -2 1622.39  138.68
  -1 -12  -2 2135.07  171.52
   1 -12   2 2314.90  175.26
   1 -12   2 2048.17  152.66
   1  12   3 3677.14  302.28
  -1  12  -3 3338.09  213.28
  -1  12  -3 3872.70  284.25
  -1 -12  -3 3861.55  270.20
  -1 -12  -3 3698.11  243.26
  -1 -12  -3 4195.91  305.90
   1 -12   3 4611.73  306.36
   1 -12   3 4153.58  299.54
   1  12   4 5239.47  384.14
  -1  12  -4 4057.07  222.13
  -1  12  -4 4778.32  360.60
  -1 -12  -4 5159.81  320.57
  -1 -12  -4 4386.96  277.53
  -1 -12  -4 5319.98  358.29
   1 -12   4 5282.36  384.69
   1 -12   4 4920.63  296.97
   1  12   5  909.41  109.30
  -1  12  -5  933.62  101.64
  -1 -12  -5  925.64   97.60
  -1 -12  -5  909.53   87.34
  -1 -12  -5  874.48  101.15
   1 -12   5 1005.05  131.73
   1 -12   5  764.52   83.39
   1 -12   5  785.80   98.24
   1  12   6  -48.74   61.69
  -1  12  -6    0.04   51.74
  -1 -12  -6   14.11   44.11
  -1 -12  -6   35.46   51.69
   1 -12   6   16.51   58.72
   1 -12   6    4.46   35.56
   1 -12   6   -7.54   53.56
   1  12   7 1011.77  115.41
  -1  12  -7  893.08  118.37
  -1  12  -7  940.04  122.95
  -1 -12  -7 1060.93  105.89
  -1 -12  -7  945.60  120.17
   1 -12   7  916.54  134.88
  -1  12  -8 2262.78  221.46
  -1 -12  -8 2797.07  197.15
  -1 -12  -8 2391.40  215.27
   1 -12   8 2705.42  233.22
   1  12   8 2381.43  228.03
  -1  12  -8 2755.62  256.38
   1  12   9 1079.92  100.43
   1  12   9 1430.37  159.06
  -1  12  -9 1443.28  180.15
  -1  12  -9 1593.64  160.96
  -1 -12  -9 1597.29  157.70
  -1 -12  -9 1399.60  156.15
   1 -12   9 1377.80  178.17
   1  12  10  123.96   47.11
   1  12  10  126.48   67.08
  -1  12 -10  169.71   66.28
  -1  12 -10   30.91   63.99
  -1 -12 -10  125.93   54.22
  -1 -12 -10  196.60   61.34
   1 -12  10  178.24   63.34
   1  12  11  -28.41   38.46
   1  12  11   44.58   64.10
  -1  12 -11  112.68   60.29
  -1  12 -11   44.04   58.96
  -1 -12 -11   17.54   48.66
  -1 -12 -11   72.07   52.76
   1 -12  11   34.89   60.97
   1  12  12  674.38   73.87
   1  12  12  619.84   98.96
  -1  12 -12  956.80  129.90
  -1  12 -12  925.21  131.50
  -1 -12 -12 1032.95  144.07
  -1 -12 -12  822.89  114.00
   1 -12  12  927.52  131.22
   1  12  13  469.28   67.95
   1  12  13  652.68   96.08
  -1 -12 -13  538.49  101.78
   1  13   0  945.89  116.32
  -1  13   0  724.58   77.11
  -1  13   0  741.99  106.82
  -1 -13   0  860.63  102.62
  -1 -13   0  576.50   88.12
  -1 -13   0  755.30  104.76
   1 -13   0  917.71  105.23
   1 -13   0  757.44   93.77
   1  13   1 3097.05  284.02
  -1  13  -1 2458.42  179.56
  -1  13  -1 2902.91  243.23
  -1 -13  -1 2799.39  214.80
  -1 -13  -1 2379.92  197.18
  -1 -13  -1 2986.56  221.43
   1 -13   1 3030.47  263.47
   1 -13   1 2831.95  191.30
   1  13   2 2362.06  238.50
  -1  13  -2 2018.83  200.34
  -1 -13  -2 2121.89  186.84
  -1 -13  -2 1913.90  162.58
  -1 -13  -2 2328.42  194.77
   1 -13   2 2582.12  206.55
   1 -13   2 2329.00  178.97
   1  13   3  768.80  101.64
  -1  13  -3  915.12  107.18
  -1 -13  -3  790.40   92.24
  -1 -13  -3  805.61   79.19
  -1 -13  -3  903.78  102.47
   1 -13   3  916.40  127.37
   1 -13   3  789.41   99.82
   1  13   4   77.66   55.53
  -1  13  -4   30.94   62.41
  -1 -13  -4   74.19   49.73
  -1 -13  -4   93.15   47.71
  -1 -13  -4  111.72   53.52
   1 -13   4   94.36   67.95
   1 -13   4  153.28   60.74
   1  13   5 2078.23  180.09
  -1  13  -5 2221.33  215.41
  -1 -13  -5 2342.57  203.62
  -1 -13  -5 2292.39  213.49
   1 -13   5 2174.04  224.78
   1 -13   5 1911.36  154.72
   1  13   6  428.28   95.91
  -1  13  -6  407.69   86.05
  -1 -13  -6  639.16   90.17
  -1 -13  -6  509.70   92.76
   1 -13   6  656.03   97.38
   1 -13   6  522.29   87.89
   1  13   7  669.93  100.14
  -1  13  -7  727.13  108.95
  -1  13  -7  538.87  102.79
  -1 -13  -7  718.46   97.49
  -1 -13  -7  787.00  112.62
   1 -13   7  930.70  122.01
   1  13   8   -1.62   59.40
  -1  13  -8   90.68   55.06
  -1  13  -8    2.97   55.73
  -1 -13  -8   41.57   51.30
  -1 -13  -8   24.55   50.32
   1 -13   8   99.16   60.40
   1  13   9  196.79   73.74
  -1  13  -9   97.19   54.17
  -1  13  -9  165.39   72.22
  -1 -13  -9  176.17   64.39
  -1 -13  -9  180.23   56.35
   1 -13   9  263.41   66.53
   1  13  10  809.11  119.73
  -1 -13 -10  947.21  120.94
  -1 -13 -10  852.72  114.47
   1  14   0 1813.82  203.90
  -1  14   0 1776.84  177.49
  -1 -14   0 1553.78  157.75
  -1 -14   0 1370.56  154.09
  -1 -14   0 1588.65  152.49
   1 -14   0 1777.89  159.41
   1 -14   0 1836.00  187.93
   1  14   1  526.92   92.77
  -1  14  -1  453.84   93.98
  -1 -14  -1  387.86   75.65
  -1 -14  -1  298.75   70.39
  -1 -14  -1  390.49   76.34
   1 -14   1  406.88   80.11
   1 -14   1  370.57   75.21
   1  14   2  722.35  117.71
  -1  14  -2  704.16  109.91
  -1 -14  -2  686.71  101.98
  -1 -14  -2  549.15   91.92
  -1 -14  -2  817.41  107.59
   1 -14   2  753.04  121.09
   1 -14   2  754.00  100.58
   1  14   3  424.63   91.50
  -1  14  -3  634.37   98.65
  -1 -14  -3  537.48   86.30
  -1 -14  -3  576.94   83.30
   1 -14   3  519.02  105.76
   1 -14   3  468.91   91.66
   1  14   4  832.40  122.91
  -1  14  -4  890.41  107.89
  -1 -14  -4  752.53  108.79
  -1 -14  -4  910.22  101.08
   1 -14   4 1035.26  121.89
   1 -14   4  894.29  106.62
   1  14   5  842.72  115.28
  -1  14  -5  620.18  106.75
  -1 -14  -5  791.00  104.02
  -1 -14  -5  629.18   98.00
   1 -14   5  724.47  128.45
   1 -14   5  631.01  110.58
   1  14   6  284.36   86.18
  -1  14  -6  312.12   76.52
  -1 -14  -6  233.26   67.98
  -1 -14  -6  303.59   70.54
   1 -14   6  202.81   75.34
   2   0   0 4774.00  199.75
   2   0   0 4821.43  233.95
   2   0   0 5331.65  272.74
   2   0   0 5033.50  267.58
   2   0   0 4660.65  229.27
  -2   0   0 5404.95  275.45
  -2   0   0 4908.08  235.67
  -2   0   0 4975.01  244.90
   2   0   1   14.04   12.66
   2   0   1    3.51   16.86
   2   0   1    1.18   13.11
   2   0   1   -0.39   12.51
   2   0   1   18.25   14.87
  -2   0  -1    0.16   17.27
  -2   0  -1   15.98   18.81
  -2   0  -1   -6.68   17.62
  -2   0  -1   11.72    5.78
  -2   0  -1   31.67    5.90
   2   0   224580.68  891.16
   2   0   221973.48  853.28
   2   0   226917.17 1013.52
   2   0   225785.62  990.52
   2   0   223311.84  928.83
   2   0   222210.42  939.88
  -2   0  -224383.47  897.60
  -2   0  -224749.82  956.76
  -2   0  -225100.64  862.79
  -2   0  -223395.71  799.32
   2   0   3  -12.47   11.86
   2   0   3    8.70   11.59
   2   0   3    0.40   11.59
   2   0   3   25.74   11.39
  -2   0  -3  -13.81   11.50
  -2   0  -3  -13.43   11.61
  -2   0  -3    1.36   11.69
  -2   0  -3   -0.93   11.38
   2   0   4 4889.96  206.29
   2   0   4 4762.39  202.95
   2   0   4 5301.62  222.55
   2   0   4 5371.28  276.24
   2   0   4 4902.92  210.11
  -2   0  -4 5119.56  227.44
  -2   0  -4 5237.92  269.69
  -2   0  -4 5108.84  251.79
   2   0   5    3.06   14.09
   2   0   5  -46.17   14.40
   2   0   5   19.23   14.15
   2   0   5  -52.41   13.98
   2   0   5    0.98   14.04
  -2   0  -5   36.88   14.25
  -2   0  -5   43.01   14.22
  -2   0  -5   -4.12   14.35
   2   0   6 4260.11  217.25
   2   0   6 4776.64  198.74
   2   0   6 5423.00  289.70
   2   0   6 4400.25  223.83
  -2   0  -6 4974.98  224.00
  -2   0  -6 4564.86  198.86
  -2   0  -6 4976.34  283.33
  -2   0  -6 4704.54  231.26
   2   0   7  -18.96   14.76
   2   0   7   -5.50   15.03
   2   0   7   19.30   14.76
   2   0   7    0.83   14.97
  -2   0  -7  -22.99   15.19
  -2   0  -7    3.12   14.84
  -2   0  -7   30.14   15.03
  -2   0  -7  -15.75   15.19
   2   0   8 6824.40  338.29
   2   0   8 7425.15  309.36
   2   0   8 8026.07  441.99
  -2   0  -8 7966.38  338.97
  -2   0  -8 6978.24  284.89
  -2   0  -8 7841.76  407.24
  -2   0  -8 7664.96  365.45
   2   0   9   -3.84   15.13
   2   0   9   16.10   15.09
  -2   0  -9  -45.40   15.63
  -2   0  -9   -1.63   15.10
  -2   0  -9   13.31   15.41
  -2   0  -9   26.08   15.58
   2   0  10 1201.56   71.58
   2   0  10 1365.00  112.00
  -2   0 -10 1394.06   80.42
  -2   0 -10 1089.45   52.05
  -2   0 -10 1231.66  111.11
  -2   0 -10 1291.24   99.69
   2   0  11  -17.68   15.32
   2   0  11   34.95   15.27
  -2   0 -11   -2.08   15.87
  -2   0 -11   -0.73   15.28
  -2   0 -11  -23.45   15.63
  -2   0 -11  -14.91   15.78
   2   0  1212739.69  467.46
   2   0  1213673.36  678.46
  -2   0 -1213678.65  522.08
  -2   0 -1213053.78  652.39
  -2   0 -1212283.00  549.05
   2   0  13   -8.26   18.05
   2   0  13   17.21   17.75
  -2   0 -13  -43.35   18.44
  -2   0 -13    5.32   18.18
  -2   0 -13   -7.15   18.31
   2   0  14  369.26   76.34
  -2   0 -14  482.21   56.09
  -2   0 -14  367.24   57.18
  -2   0 -14  350.16   59.00
   2   0  15   17.80   65.87
  -2   0 -15   21.74   40.93
  -2   0 -15   25.31   46.25
  -2   0 -15   -2.45   49.03
   2   0  16 8570.30  535.46
  -2   0 -16 8330.76  420.33
  -2   0 -16 7757.16  444.25
  -2   0 -16 8011.77  450.40
   2   0  17   -0.84   65.25
  -2   0 -17   14.55   39.61
  -2   0 -17   31.51   46.02
  -2   0 -17   72.77   52.45
   2   0  18  985.22  133.43
  -2   0 -18  837.66   89.01
  -2   0 -18  914.09  123.33
  -2   0 -18  935.25  108.07
   2   0  19  -72.94   65.59
  -2   0 -19  -39.20   67.75
  -2   0 -19  -23.93   66.81
  -2   0 -19  -50.31   66.79
   2   0  20 1139.48  145.39
  -2   0 -20 1200.18  112.84
  -2   0 -20 1142.45  127.50
  -2   0 -20 1185.63  149.93
   2   0  21  -16.31   71.94
  -2   0 -21   67.21   57.01
  -2   0 -21   23.50   51.91
   2   1   0   11.70   12.53
   2   1   0   -1.10   10.21
   2   1   0   17.28   16.46
   2   1   0   -0.59    9.60
  -2   1   0   -0.39   18.94
  -2   1   0   -4.61   16.78
  -2   1   0   -2.74    7.85
  -2  -1   0    0.51   18.26
  -2  -1   0   16.05   18.66
  -2  -1   0    7.95   20.44
  -2  -1   0    5.94   16.60
   2  -1   0   15.67   14.36
   2  -1   0    3.28   13.70
   2  -1   0    6.61   16.26
   2  -1   0   -3.47   10.55
   2  -1   0   17.48   16.70
   2  -1   0    4.27   12.13
   2  -1   0  -15.47    9.28
   2   1   125691.40  963.92
   2   1   125827.10  971.09
   2   1   124471.40  998.08
   2   1   126864.59  980.29
   2   1   124230.41 1049.48
  -2   1  -127405.54  977.63
  -2   1  -126261.11 1038.68
  -2   1  -125882.71  908.84
  -2   1  -125972.46  901.39
  -2  -1  -127282.16 1092.00
  -2  -1  -124282.08  947.72
   2  -1   126636.62  928.14
   2  -1   125426.19  873.11
   2  -1   124151.31  943.16
   2  -1   128936.95 1029.14
   2  -1   126346.99  990.60
   2  -1   124257.27  926.72
   2   1   2   -1.29   15.60
   2   1   2   12.56   12.99
   2   1   2   10.46   12.11
   2   1   2   14.60   20.99
   2   1   2   18.29   15.40
   2   1   2    8.36   10.21
   2   1   2   10.83    7.35
  -2   1  -2   12.71   13.83
  -2   1  -2   19.91   25.46
  -2   1  -2    2.11   19.88
  -2   1  -2    6.60   14.42
  -2   1  -2   11.77    9.03
  -2  -1  -2   -8.66   19.27
  -2  -1  -2  -20.37   16.28
  -2  -1  -2   -0.98    8.01
   2  -1   2   10.55   10.95
   2  -1   2   11.66   14.68
   2  -1   2   25.98   15.84
   2  -1   2    0.12   15.67
   2   1   3   90.08   19.90
   2   1   3   95.62   15.89
   2   1   3   64.04   14.37
   2   1   3   -2.81   27.49
   2   1   3   71.35   22.30
   2   1   3   77.51   13.04
  -2   1  -3   58.65   17.45
  -2   1  -3   61.25   12.97
  -2   1  -3   36.13   22.99
  -2   1  -3   97.24   18.03
  -2   1  -3   85.91   16.15
  -2  -1  -3   88.52   24.44
  -2  -1  -3   49.85   22.58
  -2  -1  -3   84.21   14.17
   2  -1   3   70.80   12.74
   2  -1   3   83.69   20.14
   2  -1   3  138.83   37.28
   2   1   4  303.61   32.82
   2   1   4  329.08   25.57
   2   1   4  255.47   27.15
   2   1   4  329.38   36.38
   2   1   4  337.33   28.16
  -2   1  -4  388.63   36.03
  -2   1  -4  319.39   31.88
  -2   1  -4  315.65   40.09
  -2   1  -4  381.57   37.87
  -2   1  -4  341.04   34.86
  -2  -1  -4  362.95   35.49
  -2  -1  -4  302.06   37.50
  -2  -1  -4  361.24   34.33
   2  -1   4  309.44   21.78
   2  -1   4  283.53   27.81
   2  -1   4  331.04   46.71
   2   1   532162.74 1130.66
   2   1   530623.41 1053.28
   2   1   534459.27 1145.77
   2   1   534010.85 1442.73
   2   1   530894.43 1159.84
  -2   1  -533436.36 1186.69
  -2   1  -533101.46 1091.24
  -2   1  -533488.98 1352.03
  -2   1  -531692.52 1216.13
  -2   1  -529611.75 1200.90
  -2  -1  -533568.84 1213.82
  -2  -1  -532204.77 1327.79
  -2  -1  -533647.96 1263.02
   2  -1   531061.02 1030.62
   2  -1   531609.91 1094.94
   2  -1   534913.64 1460.89
   2   1   6 1374.29   72.81
   2   1   6 1330.01   61.30
   2   1   6 1472.68   75.40
   2   1   6 1516.66  112.17
   2   1   6 1307.43   74.21
  -2   1  -6 1665.10   93.45
  -2   1  -6 1385.12   88.36
  -2   1  -6 1477.59  106.27
  -2   1  -6 1433.79   94.89
  -2   1  -6 1197.58   94.51
  -2  -1  -6 1502.50   84.07
  -2  -1  -6 1503.00  110.49
  -2  -1  -6 1465.26   99.95
   2  -1   6 1238.93   67.84
   2  -1   6 1390.71   75.42
   2  -1   6 1534.07  112.73
   2   1   7  729.27   40.09
   2   1   7  761.36   45.16
   2   1   7  890.89   90.87
   2   1   7  623.87   51.33
  -2   1  -7  809.07   59.05
  -2   1  -7  731.57   43.96
  -2   1  -7  743.57   71.65
  -2   1  -7  755.26   69.31
  -2  -1  -7  731.92   55.50
  -2  -1  -7  743.84   77.99
  -2  -1  -7  748.59   66.72
   2  -1   7  678.73   42.89
   2  -1   7  728.62   60.39
   2  -1   7  815.22   78.97
   2  -1   7  690.88   54.68
   2   1   8  341.42   22.01
   2   1   8  356.96   23.70
   2   1   8  356.00   55.27
  -2   1  -8  352.35   39.34
  -2   1  -8  314.96   28.62
  -2   1  -8  320.49   54.12
  -2   1  -8  318.57   36.41
  -2  -1  -8  321.37   38.12
  -2  -1  -8  354.45   53.52
  -2  -1  -8  319.40   43.33
   2  -1   8  267.69   28.75
   2  -1   8  350.87   40.51
   2  -1   8  342.46   58.51
   2   1   914784.85  514.43
   2   1   915897.04  547.62
   2   1   917168.07  822.98
  -2   1  -917054.91  672.60
  -2   1  -914772.43  552.26
  -2   1  -916209.77  786.76
  -2   1  -916009.95  637.27
  -2  -1  -917170.80  676.05
  -2  -1  -916136.50  795.13
  -2  -1  -915767.01  712.91
   2  -1   916595.99  617.66
   2  -1   917427.89  736.09
   2   1  10    7.89    8.05
   2   1  10    7.99   44.26
  -2   1 -10   51.73   27.71
  -2   1 -10   10.13   17.76
  -2   1 -10    2.95   33.47
  -2   1 -10  -41.55   28.25
  -2  -1 -10   -4.51   28.84
  -2  -1 -10    3.56   35.31
  -2  -1 -10  -10.30   32.83
   2  -1  10    4.33   16.07
   2  -1  10   18.61   22.99
   2  -1  10   -1.93   42.56
   2   1  11 5513.39  200.35
   2   1  11 6143.03  344.63
  -2   1 -11 5957.77  254.15
  -2   1 -11 4889.44  220.16
  -2   1 -11 5594.22  372.20
  -2   1 -11 5557.86  298.72
  -2  -1 -11 5827.37  251.07
  -2  -1 -11 5475.05  336.85
  -2  -1 -11 5360.38  296.82
   2  -1  11 5641.12  256.29
   2  -1  11 5946.25  340.70
   2   1  12  979.94   44.87
   2   1  12 1289.32  117.63
  -2   1 -12 1135.43   74.04
  -2   1 -12  979.53  106.36
  -2   1 -12 1046.21  100.12
  -2  -1 -12 1232.75   86.29
  -2  -1 -12  951.15   94.61
  -2  -1 -12 1009.23  103.46
   2  -1  12 1005.98   74.15
   2  -1  12 1203.56  121.95
   2   1  13 5929.46  353.12
  -2   1 -13 5668.68  272.64
  -2   1 -13 5399.31  324.42
  -2   1 -13 5380.06  280.11
  -2  -1 -13 5880.03  280.46
  -2  -1 -13 5666.31  323.03
  -2  -1 -13 5007.86  298.54
   2  -1  13 5246.45  250.97
   2  -1  13 5587.60  336.90
   2   1  14  182.55   64.02
  -2   1 -14  170.10   42.49
  -2   1 -14  140.02   55.93
  -2   1 -14  212.24   55.94
  -2  -1 -14  169.16   44.10
  -2  -1 -14  136.00   59.18
  -2  -1 -14  209.52   49.63
   2  -1  14  264.54   39.20
   2  -1  14  421.03   70.85
   2   1  15 4147.94  279.24
  -2   1 -15 4174.61  228.35
  -2   1 -15 3680.55  265.51
  -2   1 -15 3830.95  249.37
  -2  -1 -15 3983.52  216.50
  -2  -1 -15 3807.88  250.16
  -2  -1 -15 3775.56  249.99
   2  -1  15 4303.84  287.14
   2   1  16  -14.08   63.50
  -2   1 -16   55.28   39.18
  -2   1 -16  120.74   55.40
  -2   1 -16   36.31   53.10
  -2  -1 -16   26.66   41.53
  -2  -1 -16   44.52   45.70
  -2  -1 -16   69.52   52.57
   2  -1  16  100.29   83.01
   2   1  17  786.07  101.34
  -2   1 -17  665.40   69.82
  -2   1 -17  670.80   77.45
  -2   1 -17  462.42   78.26
  -2  -1 -17  540.44   75.79
  -2  -1 -17  624.93   81.10
  -2  -1 -17  585.55  101.22
   2  -1  17  594.15   97.67
   2   1  18   37.55   56.67
  -2   1 -18    7.65   34.73
  -2   1 -18   64.27   56.37
  -2   1 -18  -26.64   53.70
  -2  -1 -18    8.58   41.30
  -2  -1 -18   30.47   49.21
  -2  -1 -18   30.97   58.80
   2  -1  18   70.80   67.78
   2   1  19 2409.03  248.06
  -2   1 -19 2480.64  197.24
  -2   1 -19 2577.25  227.36
  -2   1 -19 2601.32  246.00
  -2  -1 -19 2853.28  207.76
  -2  -1 -19 2668.11  230.70
  -2  -1 -19 2483.78  230.94
   2  -1  19 2692.47  227.69
   2   1  20   -1.34   60.60
  -2   1 -20   20.82   61.27
  -2   1 -20   -5.62   61.34
  -2  -1 -20  -36.72   62.30
  -2  -1 -20  -38.99   61.98
  -2  -1 -20  -19.74   61.62
   2  -1  20   32.39   60.54
   2   1  21   49.24   73.20
  -2   1 -21  -31.55   57.51
  -2   1 -21  -57.03   54.68
  -2  -1 -21  -13.35   47.12
  -2  -1 -21   55.66   51.52
  -2  -1 -21   29.81   62.07
   2  -1  21  -17.33   83.35
   2   2   0 8293.70  401.45
   2   2   0 8767.25  367.01
   2   2   0 9333.06  361.75
   2   2   0 8716.64  361.41
   2   2   0 8385.24  376.44
   2   2   0 8642.32  452.98
   2   2   0 7895.01  272.87
   2   2   0 8581.65  283.90
  -2   2   0 8763.44  410.08
  -2   2   0 9317.09  413.21
  -2   2   0 9454.55  369.13
  -2  -2   0 8510.37  428.09
  -2  -2   0 8652.66  376.90
   2  -2   0 8485.84  345.40
   2  -2   0 9100.49  342.14
   2  -2   0 8827.58  398.01
   2  -2   0 9348.51  394.44
   2  -2   0 8245.20  361.18
   2  -2   0 8660.13  341.26
   2   2   1  840.93   73.31
   2   2   1  762.38   55.62
   2   2   1  903.70   65.75
   2   2   1  847.35   63.47
   2   2   1  795.54   77.73
   2   2   1  872.07   42.28
  -2   2  -1  813.97   60.98
  -2   2  -1  854.99   70.57
  -2   2  -1  853.10   71.55
  -2   2  -1  892.28   53.89
  -2  -2  -1  883.63   60.04
  -2  -2  -1  846.54   61.83
  -2  -2  -1  875.01   36.99
   2  -2   1  839.93   49.12
   2  -2   1  805.48   40.68
   2  -2   1  867.56   64.46
   2  -2   1  796.46   63.27
   2  -2   1  906.11   48.59
   2   2   223397.49  881.03
   2   2   223660.75  898.40
   2   2   222914.77  924.24
   2   2   224205.63  853.87
   2   2   223348.47  810.70
  -2   2  -223148.69  904.98
  -2   2  -224973.63  965.19
  -2   2  -224789.29  954.79
  -2   2  -224795.43  927.89
  -2   2  -223209.97  895.84
  -2  -2  -222812.14  898.72
  -2  -2  -221429.00  839.46
  -2  -2  -223616.97  948.87
  -2  -2  -221577.15  778.45
   2  -2   223256.63  789.49
   2  -2   222829.36  770.75
   2  -2   222091.68  845.21
   2  -2   221400.65  902.33
   2   2   3  603.46   49.53
   2   2   3  569.43   36.21
   2   2   3  625.64   40.36
   2   2   3  637.07   55.77
   2   2   3  605.13   58.44
   2   2   3  594.81   35.82
  -2   2  -3  576.58   40.50
  -2   2  -3  729.99   64.50
  -2   2  -3  707.95   57.81
  -2   2  -3  677.17   59.02
  -2   2  -3  592.77   50.47
  -2  -2  -3  637.38   52.06
  -2  -2  -3  679.67   60.40
  -2  -2  -3  669.85   43.82
   2  -2   3  611.61   33.58
   2  -2   3  552.28   31.37
   2  -2   3  618.72   46.57
   2   2   419560.33  889.03
   2   2   419271.41  663.13
   2   2   420434.52  722.04
   2   2   420937.81  832.79
   2   2   418798.38  739.23
  -2   2  -420671.85  676.21
  -2   2  -419691.92  827.01
  -2   2  -419659.87  862.70
  -2   2  -421265.18  818.04
  -2   2  -419453.95  770.41
  -2  -2  -419931.52  773.70
  -2  -2  -420093.51  854.31
  -2  -2  -419125.07  747.53
   2  -2   419388.95  660.13
   2  -2   419898.88  745.30
   2  -2   421464.67  898.09
   2   2   5  418.89   27.46
   2   2   5  411.87   26.30
   2   2   5  457.91   54.28
   2   2   5  395.18   31.83
  -2   2  -5  430.52   32.46
  -2   2  -5  440.69   39.20
  -2   2  -5  456.50   48.88
  -2   2  -5  516.33   42.07
  -2   2  -5  373.59   46.00
  -2  -2  -5  381.33   43.11
  -2  -2  -5  381.05   48.37
  -2  -2  -5  358.47   35.18
   2  -2   5  381.94   21.85
   2  -2   5  381.14   36.91
   2  -2   5  468.50   58.97
   2   2   6 8868.88  281.18
   2   2   6 9249.61  417.00
   2   2   6 8257.36  346.96
  -2   2  -6 9343.33  361.00
  -2   2  -6 8463.79  349.56
  -2   2  -6 9186.37  484.27
  -2   2  -6 9083.42  378.04
  -2   2  -6 8029.91  410.47
  -2  -2  -6 9322.11  364.13
  -2  -2  -6 8494.61  457.84
  -2  -2  -6 8896.73  410.86
   2  -2   6 8028.05  314.25
   2  -2   6 8430.88  358.99
   2  -2   6 9409.73  505.52
   2   2   7  388.25   46.25
   2   2   7  295.41   36.63
  -2   2  -7  267.03   34.95
  -2   2  -7  284.95   34.82
  -2   2  -7  292.44   49.56
  -2   2  -7  332.35   34.78
  -2  -2  -7  367.19   44.44
  -2  -2  -7  289.85   41.72
  -2  -2  -7  326.03   37.10
   2  -2   7  258.56   23.94
   2  -2   7  337.27   39.96
   2  -2   7  346.48   47.25
   2   2   820845.80  849.41
  -2   2  -819696.85  759.74
  -2   2  -818037.82  737.52
  -2   2  -820486.04  945.62
  -2   2  -820414.56  749.86
  -2  -2  -819847.28  730.39
  -2  -2  -819476.13  960.10
  -2  -2  -819085.83  778.68
   2  -2   816093.24  663.53
   2  -2   818734.37  738.14
   2  -2   819560.55  952.42
   2   2   9  338.82   57.65
  -2   2  -9  339.76   36.80
  -2   2  -9  324.21   58.68
  -2   2  -9  430.76   41.26
  -2  -2  -9  212.95   40.69
  -2  -2  -9  305.01   53.20
  -2  -2  -9  327.72   43.90
   2  -2   9  167.29   33.10
   2  -2   9  337.86   40.34
   2  -2   9  344.17   47.79
   2   2  10  366.29   55.48
  -2   2 -10  350.11   37.21
  -2   2 -10  421.50   54.75
  -2   2 -10  318.25   48.36
  -2  -2 -10  383.93   47.42
  -2  -2 -10  321.78   55.97
  -2  -2 -10  329.95   51.49
   2  -2  10  392.10   46.84
   2  -2  10  276.45   55.51
   2   2  11  -51.81   42.90
  -2   2 -11   18.47   25.51
  -2   2 -11   21.23   38.22
  -2   2 -11   24.05   40.16
  -2  -2 -11   25.69   33.32
  -2  -2 -11  -46.57   37.84
  -2  -2 -11   -0.43   30.48
   2  -2  11   -3.41   29.03
   2  -2  11   53.25   46.49
   2   2  12 9812.33  507.23
  -2   2 -12 9302.96  405.96
  -2   2 -12 9096.61  520.59
  -2   2 -12 8826.59  419.52
  -2  -2 -12 9418.78  427.14
  -2  -2 -12 8820.16  464.38
  -2  -2 -12 8443.62  448.65
   2  -2  12 9259.65  440.16
   2  -2  12 9461.34  485.55
   2   2  13   23.90   51.15
  -2   2 -13  -10.02   32.78
  -2   2 -13  106.17   42.63
  -2   2 -13   17.18   39.04
  -2  -2 -13  -27.14   39.33
  -2  -2 -13  -10.34   39.45
  -2  -2 -13   25.21   36.98
   2  -2  13   37.60   26.85
   2  -2  13   45.45   51.92
   2   2  14  -20.92   50.59
  -2   2 -14  -23.31   52.78
  -2   2 -14  -11.57   51.33
  -2   2 -14  -17.87   51.80
  -2  -2 -14   -7.21   52.03
  -2  -2 -14   38.56   52.03
  -2  -2 -14   39.52   51.63
   2  -2  14  -15.52   50.56
   2  -2  14  -14.50   50.49
   2   2  15   53.68   59.30
  -2   2 -15   48.66   39.03
  -2   2 -15   21.43   42.43
  -2   2 -15   85.02   53.58
  -2  -2 -15  119.52   45.38
  -2  -2 -15   13.04   40.35
  -2  -2 -15    7.82   45.98
   2  -2  15   45.27   29.87
   2  -2  15   24.38   53.49
   2   2  16 4080.64  269.55
  -2   2 -16 3633.31  217.96
  -2   2 -16 3722.57  240.61
  -2   2 -16 3937.14  300.54
  -2  -2 -16 4193.89  238.24
  -2  -2 -16 3789.99  237.68
  -2  -2 -16 3588.47  279.78
   2  -2  16 4272.63  316.64
   2   2  17    3.96   58.31
  -2   2 -17    1.36   38.18
  -2   2 -17  120.82   48.28
  -2   2 -17  -17.83   65.95
  -2  -2 -17   -3.39   51.38
  -2  -2 -17  -48.50   42.64
  -2  -2 -17   49.70   49.78
   2  -2  17  -10.73   63.92
   2   2  18  297.44   84.62
  -2   2 -18  167.52   54.41
  -2   2 -18  214.36   71.90
  -2  -2 -18  151.25   47.16
  -2  -2 -18  177.32   62.10
  -2  -2 -18  146.61   61.34
   2  -2  18  278.98   79.75
   2   2  19  309.42   77.31
  -2   2 -19  496.09   78.71
  -2   2 -19  434.01   72.99
  -2  -2 -19  419.91   72.30
  -2  -2 -19  403.05   78.07
  -2  -2 -19  353.66   88.12
   2  -2  19  386.01   90.38
   2   2  20 2024.21  223.81
  -2   2 -20 1913.61  183.02
  -2   2 -20 2094.21  213.85
  -2  -2 -20 2168.16  189.40
  -2  -2 -20 1843.30  176.90
  -2  -2 -20 2064.33  229.67
   2  -2  20 2055.29  214.66
  -2   2 -21  108.07   56.82
  -2   2 -21  -47.36   52.09
  -2  -2 -21   40.40   47.63
  -2  -2 -21   32.79   53.95
  -2  -2 -21   -0.23   48.46
   2  -2  21   84.14   76.09
   2   3   0   -5.26   10.24
   2   3   0   23.62   17.69
   2   3   0   21.97   15.24
   2   3   0   33.39   24.62
   2   3   0   19.65    9.31
  -2   3   0   58.40   25.77
  -2   3   0   35.62   21.41
  -2   3   0   14.17   15.96
  -2  -3   0   34.53   26.40
  -2  -3   0   42.68   22.16
  -2  -3   0   27.37   13.63
   2  -3   0   20.13   11.29
   2  -3   0   28.81   10.01
   2  -3   0   -9.82   21.40
   2  -3   0   31.99   16.24
   2  -3   0   13.48   19.60
   2   3   135418.80 1304.47
   2   3   136861.35 1239.74
   2   3   137190.02 1240.54
   2   3   135176.66 1422.35
   2   3   133286.03 1160.18
  -2   3  -139574.70 1394.22
  -2   3  -137825.59 1492.20
  -2   3  -137005.02 1434.11
  -2  -3  -137716.22 1350.04
  -2  -3  -137330.49 1324.58
  -2  -3  -133936.55 1201.96
   2  -3   134599.04 1157.93
   2  -3   136467.89 1141.26
   2  -3   134506.41 1352.06
   2  -3   132130.79 1325.13
   2  -3   138006.56 1317.00
   2   3   2   88.44   16.72
   2   3   2   99.22   25.05
   2   3   2  104.59   20.59
   2   3   2   84.34   33.73
   2   3   2   95.19   14.34
  -2   3  -2  106.82   29.61
  -2   3  -2   98.37   26.49
  -2   3  -2  137.46   24.09
  -2  -3  -2   63.35   27.71
  -2  -3  -2   91.45   18.60
  -2  -3  -2  124.65   19.95
   2  -3   2   69.03   30.03
   2  -3   2   99.79   19.70
   2   3   3 1113.55   68.95
   2   3   3 1297.64   95.41
   2   3   3 1334.75   95.23
   2   3   3 1191.97   86.81
  -2   3  -3 1383.16  133.59
  -2   3  -3 1298.99  104.59
  -2   3  -3 1437.31   84.76
  -2   3  -3 1136.07   79.77
  -2  -3  -3 1290.34   79.43
  -2  -3  -3 1354.03   72.05
   2  -3   3 1409.04   86.55
   2   3   4  436.22   26.31
   2   3   4  399.50   31.39
   2   3   4  446.51   40.72
   2   3   4  389.11   40.25
  -2   3  -4  468.07   53.76
  -2   3  -4  558.63   46.03
  -2   3  -4  501.27   49.83
  -2  -3  -4  520.85   46.43
  -2  -3  -4  529.49   37.87
   2  -3   4  517.42   41.00
   2   3   517656.31  612.46
   2   3   518339.01  607.58
   2   3   521437.39  798.80
   2   3   517867.27  747.83
  -2   3  -519716.15  855.50
  -2   3  -520936.55  742.72
  -2   3  -517777.37  830.24
  -2  -3  -521042.00  739.01
  -2  -3  -520598.29  868.82
  -2  -3  -518409.79  780.19
   2  -3   520312.30  718.20
   2  -3   520273.25  840.51
   2   3   6  381.55   46.25
   2   3   6  307.41   36.04
  -2   3  -6  400.32   20.67
  -2   3  -6  371.87   49.67
  -2   3  -6  410.32   41.95
  -2  -3  -6  398.56   41.67
  -2  -3  -6  340.21   48.51
  -2  -3  -6  357.71   35.12
   2  -3   6  420.46   43.61
   2  -3   6  340.20   50.20
   2   3   7 2925.92  206.78
   2   3   7 2016.93  191.19
  -2   3  -7 2809.18  115.85
  -2   3  -7 2869.90  195.22
  -2   3  -7 2879.51  157.29
  -2  -3  -7 2908.32  155.75
  -2  -3  -7 2811.02  184.53
  -2  -3  -7 2645.46  156.36
   2  -3   7 2379.67  116.85
   2  -3   7 2608.92  174.98
   2  -3   7 2832.33  155.95
   2   3   8 1598.37  110.57
  -2   3  -8 1457.33   82.99
  -2   3  -8 1573.47  137.78
  -2   3  -8 1553.08   94.70
  -2  -3  -8 1655.38  118.68
  -2  -3  -8 1542.54  112.78
  -2  -3  -8 1526.92  106.09
   2  -3   8 1278.80   75.06
   2  -3   8 1513.94  110.71
   2  -3   8 1631.13  122.06
   2   3   918014.84  762.86
  -2   3  -916873.41  628.36
  -2   3  -917071.48  826.10
  -2   3  -916318.57  749.21
  -2  -3  -916841.40  718.89
  -2  -3  -915958.46  852.76
  -2  -3  -915295.18  692.41
   2  -3   916983.26  711.01
   2  -3   917329.10  903.58
   2   3  10 1942.60  149.59
  -2   3 -10 1888.36  109.83
  -2   3 -10 1817.36  145.46
  -2   3 -10 1878.94  129.96
  -2  -3 -10 2015.92  118.56
  -2  -3 -10 1624.19  125.70
  -2  -3 -10 1660.27  133.46
   2  -3  10 1856.73  137.88
   2  -3  10 1946.47  160.93
   2   3  11  652.68   81.47
  -2   3 -11  671.41   55.51
  -2   3 -11  660.74   80.49
  -2   3 -11  727.48   74.27
  -2  -3 -11  637.53   70.65
  -2  -3 -11  689.83   68.29
  -2  -3 -11  546.79   64.37
   2  -3  11  659.57   74.60
   2  -3  11  688.35   76.34
   2   3  12    5.18   43.96
  -2   3 -12    3.95   26.38
  -2   3 -12   82.59   49.64
  -2   3 -12   60.19   42.44
  -2  -3 -12    2.85   39.76
  -2  -3 -12   61.24   37.99
  -2  -3 -12   53.51   32.92
   2  -3  12   16.15   35.82
   2  -3  12   89.56   44.86
   2   3  13 5303.60  359.29
  -2   3 -13 5546.23  242.64
  -2   3 -13 5458.33  361.73
  -2   3 -13 4987.45  305.44
  -2  -3 -13 5655.82  317.22
  -2  -3 -13 4789.29  283.63
  -2  -3 -13 4744.70  291.28
   2  -3  13 5255.68  311.65
   2  -3  13 5197.92  332.97
   2   3  14  194.78   53.50
  -2   3 -14  205.17   39.34
  -2   3 -14  126.44   59.90
  -2   3 -14  194.71   63.67
  -2  -3 -14  135.06   52.48
  -2  -3 -14  161.75   43.43
  -2  -3 -14  153.98   44.75
   2  -3  14  224.24   45.11
   2  -3  14  226.61   76.12
   2   3  15 4465.22  305.50
  -2   3 -15 4373.69  230.31
  -2   3 -15 4798.85  320.17
  -2   3 -15 4614.52  319.76
  -2  -3 -15 4601.51  271.99
  -2  -3 -15 4249.57  305.86
  -2  -3 -15 4208.49  316.48
   2  -3  15 3984.29  230.84
   2  -3  15 4726.04  325.43
   2   3  16  -36.95   52.26
  -2   3 -16  -19.03   52.86
  -2   3 -16  -30.13   53.00
  -2  -3 -16   24.38   53.40
  -2  -3 -16  -24.93   53.82
  -2  -3 -16   30.90   53.05
   2  -3  16   12.64   52.18
   2  -3  16   30.51   52.05
   2   3  17 1387.17  146.23
  -2   3 -17 1263.41  142.15
  -2   3 -17 1200.94  145.85
  -2  -3 -17 1503.98  136.43
  -2  -3 -17 1393.42  143.69
  -2  -3 -17 1413.76  138.72
   2  -3  17 1298.37  144.32
   2   3  18    6.98   65.91
  -2   3 -18   46.36   49.65
  -2   3 -18   10.61   55.55
  -2  -3 -18   -6.97   51.72
  -2  -3 -18   64.60   61.51
  -2  -3 -18   55.43   59.41
   2  -3  18   12.58   67.45
   2   3  19 1656.30  175.16
  -2   3 -19 1973.29  217.12
  -2   3 -19 2006.52  203.06
  -2  -3 -19 1939.72  185.60
  -2  -3 -19 1897.98  150.84
  -2  -3 -19 1730.52  179.79
   2  -3  19 1974.39  230.08
   2   3  20   78.97   61.47
  -2   3 -20   99.27   58.89
  -2   3 -20   61.64   52.37
  -2  -3 -20   56.16   58.85
  -2  -3 -20  191.70   59.12
  -2  -3 -20  107.00   65.00
   2  -3  20    7.93   72.79
  -2   3 -21  358.56   98.28
  -2   3 -21  261.94   82.07
  -2  -3 -21  305.41   65.01
  -2  -3 -21  280.61   63.55
   2  -3  21  330.01   81.19
   2   4   0 1857.98  128.22
   2   4   0 2121.58  114.13
   2   4   0 2035.50  117.70
   2   4   0 2100.89  143.90
   2   4   0 2123.60   99.44
  -2   4   0 2235.00  145.74
  -2   4   0 2254.05  131.83
  -2   4   0 2388.92  138.00
  -2  -4   0 2366.80  143.74
  -2  -4   0 2135.99  128.84
  -2  -4   0 2191.44  111.89
   2  -4   0 2136.57   87.42
   2  -4   0 2034.39  144.42
   2  -4   0 1865.95  141.20
   2  -4   0 2294.33  125.40
   2   4   1    0.27   11.06
   2   4   1   14.99   15.34
   2   4   1   -7.23   12.83
   2   4   1   47.79   28.46
   2   4   1    8.21    9.27
  -2   4  -1    9.75   31.96
  -2   4  -1    6.41   24.30
  -2   4  -1  -13.57   15.61
  -2  -4  -1  -40.14   27.16
  -2  -4  -1    3.90   16.56
  -2  -4  -1    0.40   14.75
   2  -4   1  -16.32   25.90
   2  -4   1   20.75   23.62
   2   4   218554.17  701.52
   2   4   220101.17  765.94
   2   4   221362.99  973.38
   2   4   218955.51  705.49
  -2   4  -220631.20  907.09
  -2   4  -220193.62  899.19
  -2   4  -219353.24  812.49
  -2  -4  -219019.61  741.39
  -2  -4  -218605.96  739.46
  -2  -4  -218989.93  718.53
   2  -4   218652.47  777.00
   2  -4   219034.92  785.37
   2   4   3 1296.30   72.60
   2   4   3 1389.98   84.67
   2   4   3 1555.43  123.42
   2   4   3 1364.67   80.16
  -2   4  -3 1518.30  119.37
  -2   4  -3 1598.20  102.47
  -2  -4  -3 1384.15   89.60
  -2  -4  -3 1399.84   77.69
  -2  -4  -3 1336.63  102.16
  -2  -4  -3 1378.36   82.34
   2  -4   3 1519.60   94.65
   2  -4   3 1573.51  103.34
   2   4   4 9822.80  378.43
   2   4   411851.50  477.90
   2   4   411198.79  589.18
   2   4   4 9989.18  443.06
  -2   4  -412194.39  598.87
  -2   4  -411445.43  542.38
  -2   4  -411514.49  463.22
  -2  -4  -410752.65  474.21
  -2  -4  -410884.78  404.60
  -2  -4  -410592.90  412.75
   2  -4   411505.50  460.73
   2   4   5  740.31   31.62
   2   4   5  830.89   57.79
   2   4   5  831.94   80.52
   2   4   5  676.54   64.81
  -2   4  -5  757.90   71.74
  -2   4  -5  789.28   72.42
  -2  -4  -5  773.25   58.44
  -2  -4  -5  766.29   58.87
   2  -4   5  764.18   62.38
   2  -4   5  828.55   72.25
   2   4   612293.63  566.87
   2   4   612360.48  618.11
   2   4   6 9861.01  455.59
  -2   4  -611486.75  592.62
  -2   4  -611750.09  550.79
  -2  -4  -611748.54  501.78
  -2  -4  -611691.98  478.25
   2  -4   611826.43  492.97
   2  -4   611793.75  534.30
   2   4   7   46.73   33.00
   2   4   7   10.21   35.03
  -2   4  -7    7.50   30.12
  -2   4  -7   53.79   29.76
  -2  -4  -7   62.41   35.74
  -2  -4  -7   17.06   24.86
   2  -4   7   89.72   30.39
   2  -4   7   17.46   37.61
   2   4   816757.16  786.31
  -2   4  -816738.35  782.99
  -2   4  -817403.16  678.73
  -2  -4  -816770.55  689.24
  -2  -4  -816717.25  697.24
   2  -4   817014.37  756.51
   2  -4   817345.54  794.51
   2   4   9  102.87   39.21
  -2   4  -9   55.03   13.27
  -2   4  -9   60.03   11.04
  -2   4  -9   55.37   36.71
  -2   4  -9   95.89   34.23
  -2  -4  -9   93.89   41.62
  -2  -4  -9  106.12   42.80
  -2  -4  -9   90.36   29.77
   2  -4   9  127.16   37.09
   2  -4   9  113.82   43.45
   2   4  10 4423.45  236.58
  -2   4 -10 4341.33  186.72
  -2   4 -10 4400.06  297.58
  -2   4 -10 4395.85  231.15
  -2  -4 -10 4819.02  259.09
  -2  -4 -10 4742.73  298.32
  -2  -4 -10 4175.81  268.90
   2  -4  10 4447.68  245.66
   2  -4  10 4679.84  312.01
   2   4  11  237.02   54.68
  -2   4 -11  216.76   28.52
  -2   4 -11  300.19   62.46
  -2   4 -11  148.22   51.14
  -2  -4 -11  182.97   48.76
  -2  -4 -11  348.68   58.90
  -2  -4 -11  239.38   43.78
   2  -4  11  189.45   49.51
   2  -4  11  187.47   53.79
   2   4  1213766.24  622.16
  -2   4 -1213488.19  547.81
  -2   4 -1213429.29  745.77
  -2   4 -1214273.61  646.16
  -2  -4 -1214766.04  678.21
  -2  -4 -1212614.41  598.03
  -2  -4 -1212815.52  593.79
   2  -4  1213354.90  661.05
   2  -4  1213878.44  733.59
   2   4  13 1212.18  122.45
  -2   4 -13 1200.16   83.42
  -2   4 -13 1331.94  125.41
  -2   4 -13 1287.87  113.13
  -2  -4 -13 1201.41  109.52
  -2  -4 -13 1091.93  108.51
  -2  -4 -13 1139.22  101.20
   2  -4  13 1050.59  112.00
   2  -4  13 1394.54  135.82
   2   4  14   -6.79   47.45
  -2   4 -14  -13.74   48.11
  -2   4 -14   -4.91   48.28
  -2  -4 -14   15.20   48.27
  -2  -4 -14  -91.24   48.50
  -2  -4 -14  -87.36   47.95
   2  -4  14   21.59   47.30
   2  -4  14  -30.40   47.30
   2   4  15  615.43   89.27
  -2   4 -15  714.31   91.00
  -2   4 -15  810.09  119.84
  -2  -4 -15  792.86   91.48
  -2  -4 -15  618.07   82.18
  -2  -4 -15  682.67   85.78
   2  -4  15  762.02   86.89
   2  -4  15  843.20   95.91
   2   4  16 4814.58  310.04
  -2   4 -16 4551.03  288.61
  -2   4 -16 4370.88  346.46
  -2  -4 -16 4715.89  292.98
  -2  -4 -16 4276.29  306.48
  -2  -4 -16 4349.60  308.51
   2  -4  16 4035.72  248.90
   2  -4  16 4599.11  360.08
   2   4  17  158.70   71.52
  -2   4 -17  236.23   76.74
  -2   4 -17  276.13   66.18
  -2  -4 -17  165.85   69.86
  -2  -4 -17  147.07   59.45
  -2  -4 -17  189.61   57.16
   2  -4  17   47.36   73.03
   2   4  18  609.19  100.20
  -2   4 -18  648.78   98.80
  -2   4 -18  606.97   98.18
  -2  -4 -18  815.18  102.94
  -2  -4 -18  574.91   87.24
  -2  -4 -18  627.54  102.10
   2  -4  18  733.81  122.97
   2   4  19   88.82   70.69
  -2   4 -19  109.25   65.07
  -2   4 -19  182.29   64.09
  -2  -4 -19  194.25  109.95
  -2  -4 -19   67.24   56.06
   2  -4  19  126.64   76.96
   2   4  20  428.85  101.83
   2   4  20  507.75   86.94
  -2   4 -20  648.75   88.95
  -2   4 -20  611.77  111.14
  -2  -4 -20  568.49  101.64
  -2  -4 -20  608.98  101.65
   2  -4  20  732.19  130.44
   2   5   0 2449.62  151.50
   2   5   0 2745.87  140.06
   2   5   0 2613.73  123.38
   2   5   0 2922.66  192.98
   2   5   0 2370.11  138.44
  -2   5   0 2720.66  112.08
  -2   5   0 2896.01  202.92
  -2   5   0 2956.54  161.74
  -2  -5   0 2850.38  154.51
  -2  -5   0 2649.33  159.43
  -2  -5   0 2810.84  129.22
   2  -5   0 2684.90  106.29
   2  -5   0 3009.76  207.88
   2  -5   0 2858.78  164.15
   2   5   124210.99 1022.75
   2   5   127780.57 1078.29
   2   5   126846.71  992.71
   2   5   131147.67 1287.30
   2   5   125718.74 1003.25
  -2   5  -128825.57 1225.86
  -2   5  -129389.31 1114.53
  -2  -5  -129094.82 1105.30
  -2  -5  -126584.10  996.47
  -2  -5  -127919.24  969.05
   2  -5   129511.52 1105.01
   2  -5   128297.59 1062.84
   2   5   2 1385.76   91.93
   2   5   2 1615.98   96.45
   2   5   2 1805.87  140.79
   2   5   2 1399.49  103.97
  -2   5  -2 1773.15  124.86
  -2   5  -2 1695.94  117.59
  -2  -5  -2 1666.40  100.51
  -2  -5  -2 1626.72   94.34
  -2  -5  -2 1545.87   95.74
  -2  -5  -2 1763.24   92.90
   2  -5   2 1861.56  129.83
   2  -5   2 1702.47  107.83
   2   5   3   10.79   15.35
   2   5   3   13.31   23.37
   2   5   3   -8.99   32.65
   2   5   3   -7.48   13.71
  -2   5  -3   16.49   32.75
  -2   5  -3  -12.56   22.38
  -2  -5  -3   -3.22   33.89
  -2  -5  -3   -1.13   14.41
  -2  -5  -3    6.92   18.51
  -2  -5  -3   22.22   22.78
   2  -5   3   -9.62   25.68
   2  -5   3   26.39   23.99
   2   5   4  283.34   36.20
   2   5   4  277.95   32.64
   2   5   4  408.23   51.92
   2   5   4  235.64   30.67
  -2   5  -4  328.49   59.95
  -2   5  -4  359.46   39.00
  -2  -5  -4  247.59   42.18
  -2  -5  -4  263.07   28.44
  -2  -5  -4  301.75   31.46
   2  -5   4  319.74   47.85
   2  -5   4  317.92   47.76
   2   5   519745.71  659.69
   2   5   521105.26  768.44
   2   5   522603.47 1015.32
  -2   5  -521269.79  951.64
  -2   5  -522794.68  888.57
  -2  -5  -521057.08  812.73
  -2  -5  -520344.71  689.17
  -2  -5  -522093.62  812.09
   2  -5   519711.40  799.68
   2   5   6 1142.85   92.91
   2   5   6 1071.52  104.76
  -2   5  -6 1099.68  101.50
  -2   5  -6 1080.72   83.46
  -2  -5  -6 1188.13   78.48
  -2  -5  -6 1049.24   77.39
   2  -5   6 1126.44   87.90
   2  -5   6 1129.91   95.29
   2   5   7   54.21   37.31
   2   5   7   51.61   40.13
  -2   5  -7    4.52   34.20
  -2   5  -7   83.55   37.98
  -2  -5  -7   27.65   28.63
  -2  -5  -7    5.73   23.57
   2  -5   7    7.32   28.33
   2  -5   7  -28.89   38.28
   2   5   8  692.16   60.80
   2   5   8  581.37   71.68
  -2   5  -8  546.37   68.71
  -2   5  -8  600.51   60.90
  -2  -5  -8  635.64   64.79
  -2  -5  -8  503.83   52.55
   2  -5   8  656.17   66.75
   2  -5   8  553.02   75.52
   2   5   9 5524.35  294.05
   2   5   9 5574.36  340.47
  -2   5  -9 5416.06  331.87
  -2   5  -9 6040.84  322.05
  -2  -5  -9 5698.33  270.57
  -2  -5  -9 5310.42  299.80
   2  -5   9 5865.61  322.21
   2  -5   9 5645.53  341.73
   2   5  10   56.55   47.18
   2   5  10   62.69   50.29
  -2   5 -10   39.27   12.53
  -2   5 -10   66.30   49.49
  -2   5 -10   62.81   46.32
  -2  -5 -10  138.13   45.73
  -2  -5 -10   57.61   32.45
   2  -5  10   76.82   30.70
   2  -5  10  -21.59   42.71
   2   5  11 7879.21  398.38
   2   5  11 7965.93  396.78
  -2   5 -11 7931.89  464.45
  -2   5 -11 7662.84  420.84
  -2  -5 -11 7932.22  402.97
  -2  -5 -11 7267.25  425.75
   2  -5  11 8275.02  476.57
   2  -5  11 7737.86  428.22
   2   5  12  130.05   48.35
   2   5  12  163.58   52.99
  -2   5 -12  140.78   59.38
  -2   5 -12  122.85   57.07
  -2  -5 -12  170.33   54.85
  -2  -5 -12  149.35   45.02
   2  -5  12  218.45   58.97
   2  -5  12  149.35   53.35
   2   5  13 2624.21  185.58
   2   5  13 2588.26  216.54
  -2   5 -13 2592.69  222.73
  -2   5 -13 2500.45  224.04
  -2  -5 -13 2738.67  184.98
  -2  -5 -13 2488.48  184.39
   2  -5  13 2869.25  221.24
   2  -5  13 2457.04  206.26
   2   5  14  -38.29   50.92
   2   5  14   64.93   50.03
  -2   5 -14   59.75   46.05
  -2   5 -14   19.50   62.82
  -2  -5 -14   66.48   57.80
  -2  -5 -14   55.68   51.26
   2  -5  14   92.04   45.15
   2  -5  14   75.30   59.08
   2   5  15 2111.97  184.32
   2   5  15 1902.62  174.63
  -2   5 -15 2119.96  203.51
  -2   5 -15 2311.46  208.97
  -2  -5 -15 2190.62  186.70
  -2  -5 -15 1920.41  151.93
   2  -5  15 2253.04  187.37
   2  -5  15 2161.35  212.50
   2   5  16   -9.31   49.59
   2   5  16  -40.38   50.78
  -2   5 -16  -42.74   50.41
  -2   5 -16   26.24   50.26
  -2  -5 -16  -29.77   50.23
  -2  -5 -16    6.07   50.19
   2  -5  16  -16.70   49.48
   2  -5  16   45.66   49.41
   2   5  17  583.39   97.40
   2   5  17  696.75  102.20
  -2   5 -17  619.76   98.83
  -2   5 -17  715.15  102.34
  -2  -5 -17  710.85   90.18
  -2  -5 -17  695.14   91.76
   2  -5  17  613.46   83.54
   2  -5  17  673.50  118.66
   2   5  18   13.17   63.00
   2   5  18   29.44   53.88
  -2   5 -18   53.32   64.75
  -2   5 -18  142.36   67.86
  -2  -5 -18  -29.81   44.64
  -2  -5 -18   22.45   57.75
   2  -5  18   62.64   71.08
   2   5  19 1431.80  188.46
   2   5  19 1503.24  152.36
  -2   5 -19 1467.89  159.59
  -2   5 -19 1317.84  162.74
  -2  -5 -19 1519.95  167.76
  -2  -5 -19 1508.85  159.81
   2  -5  19 1425.51  208.28
  -2   5 -20  -17.38   57.00
  -2   5 -20  110.61   68.57
  -2  -5 -20   -8.81   43.92
  -2  -5 -20  -50.59   52.10
   2  -5  20   49.33   65.83
   2   6   0 3883.64  186.18
   2   6   0 3666.40  168.61
   2   6   0 4424.88  248.40
  -2   6   0 3803.36  157.55
  -2   6   0 4691.81  290.96
  -2   6   0 4302.40  218.58
  -2  -6   0 3952.04  247.65
  -2  -6   0 3948.46  204.38
  -2  -6   0 4060.24  187.87
   2  -6   0 4023.61  164.82
   2  -6   0 4632.23  272.92
   2  -6   0 3908.07  188.84
   2   6   1  307.93   36.38
   2   6   1  390.27   42.11
   2   6   1  372.29   58.01
  -2   6  -1  437.74   58.59
  -2   6  -1  488.22   55.19
  -2  -6  -1  521.51   50.63
  -2  -6  -1  392.37   33.36
  -2  -6  -1  407.44   36.51
   2  -6   1  402.30   20.12
   2  -6   1  489.09   62.28
   2  -6   1  474.90   51.28
   2   6   2 7381.73  350.13
   2   6   2 8796.63  366.27
   2   6   2 8963.37  483.27
  -2   6  -2 8993.17  402.52
  -2   6  -2 9268.54  458.27
  -2  -6  -2 9149.29  391.72
  -2  -6  -2 8376.50  373.87
  -2  -6  -2 8500.24  378.81
   2  -6   210068.93  474.14
   2  -6   2 9564.48  437.02
   2   6   3  388.36   36.95
   2   6   3  386.06   46.97
   2   6   3  491.00   66.91
  -2   6  -3  402.04   59.19
  -2   6  -3  552.08   64.53
  -2  -6  -3  451.13   49.60
  -2  -6  -3  425.73   40.42
  -2  -6  -3  411.86   35.01
  -2  -6  -3  438.56   43.37
   2  -6   3  460.76   61.45
   2  -6   3  536.67   56.63
   2   6   4 7505.02  308.57
   2   6   4 7080.79  416.22
   2   6   4 9284.25  507.81
  -2   6  -4 8919.11  483.37
  -2   6  -4 9324.66  461.01
  -2  -6  -4 8975.14  426.27
  -2  -6  -4 8031.50  335.95
  -2  -6  -4 8486.94  323.40
   2  -6   4 9510.85  398.57
   2  -6   4 9374.64  428.99
   2   6   5   88.81   14.77
   2   6   5  123.75   34.00
   2   6   5   80.87   39.13
  -2   6  -5   74.56   38.85
  -2   6  -5   68.47   41.51
  -2   6  -5   90.84   42.13
  -2  -6  -5  144.77   37.11
  -2  -6  -5  105.85   15.54
  -2  -6  -5   99.12   26.00
   2  -6   5  143.01   43.13
   2   6   6 2384.80   84.16
   2   6   6 2568.66  152.23
   2   6   6 2627.39  195.86
  -2   6  -6 2948.76  228.30
  -2   6  -6 2815.21  177.98
  -2  -6  -6 2705.15  165.30
  -2  -6  -6 2406.87   86.66
  -2  -6  -6 2560.16  158.70
   2  -6   6 2716.78  181.51
   2  -6   6 2411.46  186.24
   2   6   7 3035.20  187.84
   2   6   7 3079.63  231.99
  -2   6  -7 3086.58  227.65
  -2   6  -7 3071.79  204.67
  -2  -6  -7 3154.18  191.87
  -2  -6  -7 3150.64  182.55
   2  -6   7 3269.29  234.91
   2  -6   7 3061.80  196.18
   2   6   8 8023.29  391.71
   2   6   8 8063.43  488.04
  -2   6  -8 8657.31  496.23
  -2   6  -8 8103.83  370.92
  -2  -6  -8 8637.83  400.91
  -2  -6  -8 7338.82  374.33
   2  -6   8 8603.27  459.33
   2  -6   8 8188.46  445.25
   2   6   9  595.18   71.14
   2   6   9  661.52   81.78
  -2   6  -9  594.94   81.34
  -2   6  -9  535.61   66.04
  -2  -6  -9  559.40   74.97
  -2  -6  -9  556.21   70.24
   2  -6   9  461.74   61.51
   2  -6   9  588.30   78.93
   2   6  10  383.02   63.88
   2   6  10  238.19   58.48
  -2   6 -10  283.72   52.83
  -2   6 -10  382.19   64.30
  -2  -6 -10  259.03   45.68
  -2  -6 -10  231.85   43.76
   2  -6  10  322.05   53.67
   2  -6  10  376.72   61.16
   2   6  11  936.94   78.85
   2   6  11  914.54   94.37
  -2   6 -11  960.24  120.44
  -2   6 -11 1033.00  102.63
  -2  -6 -11  907.44   87.53
  -2  -6 -11  871.55   90.07
   2  -6  11  953.15  111.60
   2  -6  11  813.25   96.53
   2   6  12 4672.69  289.99
   2   6  12 4652.98  320.59
  -2   6 -12 4894.10  364.65
  -2   6 -12 4826.34  319.08
  -2  -6 -12 5341.56  295.37
  -2  -6 -12 4557.76  287.50
   2  -6  12 5100.56  350.25
   2  -6  12 4682.73  322.11
   2   6  13   22.84   45.03
   2   6  13  -46.32   49.57
  -2   6 -13   78.95   65.44
  -2   6 -13   77.83   57.47
  -2  -6 -13   91.37   57.03
  -2  -6 -13   61.81   51.38
   2  -6  13    6.59   46.20
   2  -6  13   45.67   61.29
   2   6  14  -43.74   46.17
   2   6  14  -44.15   46.77
  -2   6 -14   14.88   47.03
  -2   6 -14    1.38   47.01
  -2  -6 -14  -23.94   46.52
  -2  -6 -14  -28.05   46.88
   2  -6  14    9.69   46.13
   2  -6  14   40.08   46.14
   2   6  15  -40.47   51.27
   2   6  15   16.22   52.11
  -2   6 -15  -17.76   52.26
  -2   6 -15  -36.22   52.14
  -2  -6 -15   -6.61   51.69
  -2  -6 -15  -12.80   52.04
   2  -6  15    6.00   51.19
   2  -6  15   10.85   51.19
   2   6  16 2574.10  220.16
   2   6  16 2567.34  188.32
  -2   6 -16 2685.88  244.64
  -2   6 -16 2705.99  241.68
  -2  -6 -16 3076.49  249.37
  -2  -6 -16 2780.74  231.61
   2  -6  16 2692.77  203.27
   2  -6  16 2601.08  205.88
   2   6  17  391.46   88.97
   2   6  17  353.92   93.40
  -2   6 -17  518.84   98.94
  -2   6 -17  446.08   89.28
  -2  -6 -17  432.45   83.45
  -2  -6 -17  496.13   96.36
   2  -6  17  427.76   77.43
   2  -6  17  383.94   90.87
   2   6  18  100.75   71.77
   2   6  18  121.96   70.44
  -2   6 -18  259.45   77.18
  -2   6 -18  219.69   62.63
  -2  -6 -18  124.21   64.06
  -2  -6 -18  185.30   70.00
   2  -6  18  118.13   66.54
   2   6  19   24.70   62.71
   2   6  19   27.57   64.90
  -2   6 -19   68.05   52.51
  -2   6 -19   31.67   65.74
  -2  -6 -19   43.87   62.72
  -2  -6 -19   17.78   61.30
   2  -6  19  127.63   63.30
   2   7   0 1540.52   81.33
   2   7   0 1409.46   70.56
   2   7   0 1691.88  131.84
  -2   7   0 1596.08   76.17
  -2   7   0 1597.61   96.80
  -2   7   0 1889.90  117.60
  -2  -7   0 1848.80  134.95
  -2  -7   0 1710.98   99.22
  -2  -7   0 1633.41   98.45
   2  -7   0 1600.58   86.35
   2  -7   0 1943.83  143.30
   2  -7   0 1753.95  132.42
   2   7   1 9624.27  417.52
   2   7   111127.71  575.30
  -2   7  -110149.44  366.47
  -2   7  -111094.55  532.57
  -2   7  -110941.96  463.17
  -2  -7  -110828.37  514.34
  -2  -7  -111010.88  427.75
  -2  -7  -1 8791.45  378.96
  -2  -7  -110470.28  411.34
   2  -7   110480.47  367.04
   2  -7   112147.69  514.37
   2  -7   110618.85  493.41
   2   7   2   30.58   20.49
   2   7   2   48.26   36.39
  -2   7  -2   92.50   34.45
  -2   7  -2   46.92   39.44
  -2  -7  -2   46.66   33.88
  -2  -7  -2   31.14   22.07
  -2  -7  -2   32.66   15.64
  -2  -7  -2   28.14   21.47
   2  -7   2   33.18   35.77
   2  -7   2   30.79   32.80
   2   7   3  939.85   83.74
   2   7   3 1127.63  120.60
  -2   7  -3 1167.10   89.32
  -2   7  -3 1204.57   98.91
  -2  -7  -3 1118.14  103.03
  -2  -7  -3  952.80   70.58
  -2  -7  -3  763.87   63.31
  -2  -7  -3 1115.97   73.00
   2  -7   3 1201.04   98.35
   2  -7   3 1078.44   88.75
   2   7   4 1329.40   99.95
   2   7   4 1627.10  116.16
   2   7   4 1882.15  151.31
  -2   7  -4 1729.92  113.34
  -2   7  -4 2045.74  157.07
  -2  -7  -4 1893.60  139.18
  -2  -7  -4 1648.07   98.48
  -2  -7  -4 1738.80  101.90
   2  -7   4 1752.49  134.56
   2  -7   4 1659.60  141.44
   2   7   510230.87  521.50
   2   7   511416.16  627.21
  -2   7  -511422.49  467.76
  -2   7  -510722.33  578.44
  -2  -7  -510668.42  484.20
  -2  -7  -5 9650.34  388.61
  -2  -7  -5 9605.96  394.03
   2  -7   511059.47  497.15
   2  -7   510731.77  686.93
   2   7   6  259.03   47.89
   2   7   6  294.48   64.02
  -2   7  -6  247.83   53.86
  -2   7  -6  252.53   55.49
  -2  -7  -6  265.55   40.85
  -2  -7  -6  222.37   18.18
  -2  -7  -6  275.85   38.60
   2  -7   6  347.21   55.35
   2  -7   6  322.73   53.26
   2   7   7 1219.65   99.20
   2   7   7 1324.62  135.96
  -2   7  -7 1311.53  125.26
  -2   7  -7 1397.92  125.72
  -2  -7  -7 1352.20   99.96
  -2  -7  -7 1225.45   95.00
   2  -7   7 1340.37  119.45
   2  -7   7 1308.22  129.86
   2   7   8 1067.26   96.34
   2   7   8 1052.61  109.05
  -2   7  -8 1074.86  112.62
  -2   7  -8 1166.91  112.09
  -2  -7  -8 1083.79   99.91
  -2  -7  -8 1189.80   98.50
   2  -7   8 1112.28   98.67
   2  -7   8 1082.91  123.24
   2   7   9 7012.36  382.27
   2   7   9 7393.10  434.47
  -2   7  -9 7108.14  438.30
  -2   7  -9 7097.07  334.64
  -2  -7  -9 7674.14  390.23
  -2  -7  -9 7033.34  335.82
   2  -7   9 7545.84  409.23
   2  -7   9 7380.82  456.84
   2   7  10  883.79   87.19
   2   7  10  804.48  104.65
  -2   7 -10 1072.94  113.07
  -2   7 -10  824.58  101.03
  -2  -7 -10  971.43  110.87
  -2  -7 -10  875.33   86.37
   2  -7  10  904.10  103.55
   2  -7  10  829.45  111.39
   2   7  11  832.70   96.40
   2   7  11  925.35  107.77
  -2   7 -11 1028.76  117.48
  -2   7 -11  826.56   96.91
  -2  -7 -11  878.58   93.26
  -2  -7 -11  882.65   87.80
   2  -7  11  990.48  101.09
   2  -7  11  908.87  115.31
   2   7  12  126.31   61.20
   2   7  12  140.50   58.75
  -2   7 -12  230.53   71.11
  -2   7 -12   98.25   62.23
  -2  -7 -12  162.46   56.37
  -2  -7 -12  124.89   49.81
   2  -7  12  141.79   52.04
   2  -7  12   63.02   64.89
   2   7  13 2473.27  196.50
   2   7  13 2382.49  204.52
  -2   7 -13 2608.60  220.64
  -2   7 -13 2287.90  215.99
  -2  -7 -13 2792.16  202.12
  -2  -7 -13 2372.90  194.48
   2  -7  13 2581.12  234.40
   2  -7  13 2389.40  214.86
   2   7  14 1243.19  143.43
   2   7  14 1031.82  122.63
  -2   7 -14 1187.73  141.69
  -2   7 -14 1261.66  148.38
  -2  -7 -14 1415.72  144.63
  -2  -7 -14 1161.17  129.26
   2  -7  14 1298.17  149.92
   2  -7  14 1321.38  155.85
   2   7  15 3195.59  236.18
   2   7  15 3694.28  287.08
  -2   7 -15 3984.56  322.25
  -2   7 -15 3611.66  304.56
  -2  -7 -15 4197.26  287.94
  -2  -7 -15 3601.28  263.79
   2  -7  15 3407.80  284.78
   2  -7  15 3519.73  278.31
   2   7  16   29.12   51.14
   2   7  16   50.47   60.15
  -2   7 -16   45.14   54.41
  -2   7 -16   68.14   60.60
  -2  -7 -16  111.80   60.29
  -2  -7 -16   57.12   66.49
   2  -7  16   99.20   49.43
   2  -7  16   43.22   67.37
   2   7  17  125.98   61.27
   2   7  17  150.97   61.74
  -2   7 -17  206.12   86.09
  -2   7 -17  208.43   67.35
  -2  -7 -17  239.01   68.53
  -2  -7 -17  185.96   70.61
   2  -7  17  250.50   59.58
   2  -7  17  206.70   75.13
   2   7  18  395.04  101.36
   2   7  18  314.77   78.06
  -2   7 -18  426.51   84.33
  -2   7 -18  313.39   74.65
  -2  -7 -18  484.53   84.39
  -2  -7 -18  486.58   82.03
   2  -7  18  377.00   76.06
   2  -7  18  306.11   76.53
   2   8   0 2100.39   96.98
   2   8   0 2776.66  199.18
  -2   8   0 2679.53  173.07
  -2   8   0 2691.00  168.61
  -2  -8   0 2777.48  195.88
  -2  -8   0 2371.52  138.32
  -2  -8   0 2327.27  133.72
   2  -8   0 2452.14  113.47
   2  -8   0 2467.65  163.98
   2  -8   0 2699.96  164.93
   2   8   1  163.04   25.45
   2   8   1  196.31   61.55
  -2   8  -1  139.50   45.15
  -2   8  -1  145.63   46.71
  -2  -8  -1  214.15   48.57
  -2  -8  -1  193.24   35.28
  -2  -8  -1  176.98   34.21
   2  -8   1  191.63   23.45
   2  -8   1  186.17   55.07
   2  -8   1  277.49   43.55
   2   8   2 6582.22  322.23
   2   8   2 7654.24  438.51
  -2   8  -2 6846.38  251.35
  -2   8  -2 7458.65  362.78
  -2   8  -2 7649.50  411.53
  -2  -8  -2 8531.95  420.59
  -2  -8  -2 7174.34  321.31
  -2  -8  -2 7264.48  352.18
   2  -8   2 8270.00  454.28
   2  -8   2 7832.40  431.23
   2   8   3 4071.86  236.18
   2   8   3 4195.75  329.85
  -2   8  -3 4609.20  237.07
  -2   8  -3 4840.89  305.65
  -2  -8  -3 4871.51  268.50
  -2  -8  -3 4329.67  196.79
  -2  -8  -3 4381.71  216.84
   2  -8   3 5110.05  273.94
   2  -8   3 4708.36  265.81
   2   8   4 4652.73  278.83
   2   8   4 5482.55  365.62
  -2   8  -4 5285.97  298.44
  -2   8  -4 5398.89  333.46
  -2  -8  -4 5846.19  296.19
  -2  -8  -4 4914.53  218.13
  -2  -8  -4 4449.05  241.85
   2  -8   4 6070.82  301.67
   2  -8   4 5228.63  306.87
   2   8   5  152.77   36.97
   2   8   5  138.69   63.51
  -2   8  -5  126.84   40.27
  -2   8  -5  172.51   54.93
  -2  -8  -5  149.96   43.21
  -2  -8  -5  131.91   23.90
  -2  -8  -5  172.43   35.42
   2  -8   5  271.08   55.43
   2  -8   5  148.39   56.83
   2   8   6 2890.74  195.11
   2   8   6 3250.19  264.07
  -2   8  -6 3230.87  213.49
  -2   8  -6 3307.15  206.67
  -2  -8  -6 3526.03  200.97
  -2  -8  -6 2585.00  131.35
  -2  -8  -6 3178.71  180.71
   2  -8   6 3366.89  200.61
   2  -8   6 3531.39  232.33
   2   8   7 2355.29  165.47
   2   8   7 2510.82  208.82
  -2   8  -7 2575.69  200.03
  -2   8  -7 2376.63  165.56
  -2  -8  -7 2445.41  149.08
  -2  -8  -7 2423.40  132.83
   2  -8   7 2474.46  159.49
   2  -8   7 2534.46  182.22
   2   8   8 6123.59  335.19
   2   8   8 6771.75  403.95
  -2   8  -8 6558.67  424.70
  -2   8  -8 6121.09  347.11
  -2  -8  -8 6468.58  331.67
  -2  -8  -8 5973.67  344.23
   2  -8   8 6862.52  376.05
   2  -8   8 6515.36  368.94
   2   8   9  -18.65   40.17
   2   8   9   93.30   69.88
  -2   8  -9   46.53   53.76
  -2   8  -9   76.14   58.63
  -2  -8  -9  102.28   50.87
  -2  -8  -9   82.26   37.47
   2  -8   9  162.24   42.97
   2  -8   9  -18.17   49.22
   2   8  10   67.73   60.86
   2   8  10   80.95   60.18
  -2   8 -10   97.89   57.22
  -2   8 -10  151.69   58.30
  -2  -8 -10  124.06   48.00
  -2  -8 -10   86.89   39.49
   2  -8  10   90.40   52.17
   2  -8  10  214.40   66.76
   2   8  11 1508.75  131.19
   2   8  11 1698.26  178.66
  -2   8 -11 1854.09  178.15
  -2   8 -11 1650.30  161.27
  -2  -8 -11 1719.68  149.42
  -2  -8 -11 1400.59  141.10
   2  -8  11 1690.09  168.07
   2  -8  11 1491.49  165.87
   2   8  12 3833.96  271.49
   2   8  12 3874.88  283.98
  -2   8 -12 4494.75  344.80
  -2   8 -12 4498.11  361.25
  -2  -8 -12 4829.72  320.14
  -2  -8 -12 4520.57  302.54
   2  -8  12 4090.98  296.78
   2  -8  12 3898.90  273.58
   2   8  13   97.85   58.01
   2   8  13   58.22   49.37
  -2   8 -13  146.50   68.12
  -2   8 -13  124.77   57.71
  -2  -8 -13  245.52   63.03
  -2  -8 -13  123.34   56.92
   2  -8  13  161.48   61.38
   2  -8  13  167.51   65.80
   2   8  14   67.88   53.65
   2   8  14   95.94   71.59
  -2   8 -14  163.85   56.41
  -2   8 -14  135.49   62.06
  -2  -8 -14   54.80   64.52
  -2  -8 -14   93.97   50.84
   2  -8  14  104.67   50.38
   2  -8  14   97.61   63.22
   2   8  15  306.98   73.51
   2   8  15  209.53   66.15
  -2   8 -15  316.19   82.87
  -2   8 -15  317.12   69.65
  -2  -8 -15  292.53   83.88
  -2  -8 -15  223.86   68.56
   2  -8  15  320.64   82.92
   2  -8  15  323.84   85.30
   2   8  16  980.35  132.27
   2   8  16 1223.88  126.56
  -2   8 -16 1251.53  133.83
  -2   8 -16 1129.67  147.82
  -2  -8 -16 1303.16  143.69
  -2  -8 -16 1200.01  148.59
   2  -8  16 1090.76  121.97
   2  -8  16 1113.81  134.22
   2   8  17   44.72   66.43
   2   8  17    0.16   50.94
  -2   8 -17   35.46   68.37
  -2   8 -17   24.54   49.11
  -2  -8 -17    9.59   60.69
  -2  -8 -17   40.54   55.39
   2  -8  17   45.72   48.41
   2  -8  17   41.15   51.48
   2   9   0 5480.78  359.59
  -2   9   0 4944.79  269.18
  -2   9   0 4977.16  238.03
  -2  -9   0 5564.44  326.99
  -2  -9   0 4878.64  247.75
  -2  -9   0 4945.25  266.80
   2  -9   0 4826.54  245.19
   2  -9   0 5561.22  348.91
   2  -9   0 4972.70  270.78
   2   9   1 8541.10  532.06
  -2   9  -1 8731.63  456.23
  -2   9  -1 8717.28  434.08
  -2  -9  -1 8967.18  465.58
  -2  -9  -1 8126.19  366.43
  -2  -9  -1 8062.21  401.13
   2  -9   1 8779.02  467.12
   2  -9   1 8511.93  421.16
   2   9   2 1321.94   91.47
   2   9   2 1748.30  154.42
  -2   9  -2 1748.71  120.92
  -2   9  -2 1653.10  133.70
  -2  -9  -2 1718.48  128.64
  -2  -9  -2 1568.39  105.31
  -2  -9  -2 1411.13  102.48
   2  -9   2 1682.55  140.85
   2  -9   2 1822.72  148.24
   2   9   3   34.93   24.17
   2   9   3    7.61   53.49
  -2   9  -3   11.02   36.61
  -2   9  -3  -11.49   47.28
  -2  -9  -3   76.15   52.82
  -2  -9  -3  -37.73   29.25
  -2  -9  -3  -10.11   31.50
   2  -9   3   11.52   51.97
   2  -9   3   23.71   33.04
   2   9   4 1856.74  129.70
   2   9   4 2314.39  189.04
  -2   9  -4 1904.15  160.48
  -2   9  -4 2325.87  175.40
  -2  -9  -4 2215.14  163.97
  -2  -9  -4 1875.97  129.71
  -2  -9  -4 2064.85  138.95
   2  -9   4 2517.82  201.13
   2  -9   4 2469.80  170.59
   2   9   5 6776.97  357.81
   2   9   5 7980.60  471.78
  -2   9  -5 7896.89  365.13
  -2   9  -5 8302.21  495.67
  -2  -9  -5 7960.31  385.13
  -2  -9  -5 6865.89  325.39
  -2  -9  -5 7015.37  337.32
   2  -9   5 9329.17  527.96
   2  -9   5 7803.43  367.30
   2   9   6 1237.28   98.33
   2   9   6 1438.15  137.14
  -2   9  -6 1427.68  133.64
  -2   9  -6 1514.80  134.72
  -2  -9  -6 1481.48  133.48
  -2  -9  -6 1394.29  119.83
   2  -9   6 1462.90  121.29
   2  -9   6 1455.40  122.06
   2   9   7  121.07   38.55
   2   9   7  132.98   57.20
  -2   9  -7  246.48   65.11
  -2   9  -7  189.18   61.50
  -2  -9  -7  156.73   62.52
  -2  -9  -7  196.13   49.66
   2  -9   7  183.38   52.35
   2  -9   7  173.44   59.38
   2   9   8  355.20   57.99
   2   9   8  501.58   87.11
  -2   9  -8  452.26   80.66
  -2   9  -8  335.59   73.37
  -2  -9  -8  545.03   85.02
  -2  -9  -8  477.41   69.33
   2  -9   8  530.61   77.03
   2  -9   8  545.80   81.63
   2   9   9 6961.80  373.32
   2   9   9 8275.17  510.33
  -2   9  -9 8436.44  520.59
  -2   9  -9 8202.94  509.43
  -2  -9  -9 8483.27  469.32
  -2  -9  -9 7467.47  414.66
   2  -9   9 8682.51  507.32
   2  -9   9 8213.36  468.57
   2   9  10 1335.46  104.29
   2   9  10 1483.79  158.57
  -2   9 -10 1337.10  157.57
  -2   9 -10 1480.71  140.35
  -2  -9 -10 1570.16  137.59
  -2  -9 -10 1483.13  133.47
   2  -9  10 1481.75  145.54
   2  -9  10 1499.60  152.52
   2   9  11  746.26   79.52
   2   9  11  760.55  108.65
  -2   9 -11  889.96  121.50
  -2   9 -11  791.81  101.79
  -2  -9 -11  856.23   96.70
  -2  -9 -11  740.57   98.10
   2  -9  11  975.05  123.42
   2  -9  11  796.58   95.47
   2   9  12  -31.70   50.24
   2   9  12   -0.43   56.94
  -2   9 -12   48.78   54.11
  -2   9 -12    7.22   54.46
  -2  -9 -12   16.99   53.96
  -2  -9 -12   11.15   49.95
   2  -9  12   28.31   51.81
   2  -9  12   62.62   55.06
   2   9  13 1513.68  136.63
   2   9  13 1609.83  176.58
  -2   9 -13 1922.54  193.37
  -2   9 -13 1586.89  165.00
  -2  -9 -13 2216.67  197.09
  -2  -9 -13 1693.17  169.48
   2  -9  13 1788.25  191.75
   2  -9  13 1749.84  176.11
   2   9  14  257.08   67.04
   2   9  14  294.79   87.67
  -2   9 -14  493.55   83.06
  -2   9 -14  351.18   85.35
  -2  -9 -14  481.96   90.56
  -2  -9 -14  266.76   79.29
   2  -9  14  402.99   76.07
   2  -9  14  266.59   84.50
   2   9  15  479.48   95.91
   2   9  15  514.75   84.97
  -2   9 -15  692.90  101.29
  -2   9 -15  491.01   90.46
  -2  -9 -15  813.96  115.43
  -2  -9 -15  768.30  107.06
   2  -9  15  806.80  128.68
   2  -9  15  687.37  102.43
   2   9  16   -4.83   48.44
   2   9  16   28.23   50.19
  -2   9 -16   49.75   53.45
  -2  -9 -16   81.69   60.52
  -2  -9 -16  -49.33   51.57
   2  -9  16   55.11   50.36
   2  -9  16    3.98   46.82
   2  10   0 1640.42  165.12
  -2  10   0 1422.56  113.00
  -2  10   0 1595.69  123.71
  -2 -10   0 1523.36  132.18
  -2 -10   0 1428.20  107.14
  -2 -10   0 1308.36  110.16
   2 -10   0 1511.96  124.03
   2 -10   0 1593.75  134.39
   2  10   1  -48.01   53.06
  -2  10  -1   13.44   53.06
  -2  10  -1  -26.72   53.76
  -2 -10  -1  -46.42   53.29
  -2 -10  -1  -39.98   55.17
  -2 -10  -1   21.17   53.45
   2 -10   1  -26.30   53.30
   2 -10   1    3.76   53.01
   2  10   2 9945.37  604.68
  -2  10  -2 9047.31  483.89
  -2  10  -2 9542.10  527.41
  -2 -10  -2 9760.31  489.47
  -2 -10  -2 8226.16  378.49
  -2 -10  -2 8355.54  430.27
   2 -10   2 9380.67  473.18
   2 -10   2 9653.59  512.71
   2  10   3 2252.23  197.32
  -2  10  -3 2002.52  143.10
  -2  10  -3 2063.61  178.95
  -2 -10  -3 2037.89  155.10
  -2 -10  -3 1725.42  119.20
  -2 -10  -3 1790.13  131.62
   2 -10   3 2318.42  184.05
   2 -10   3 2184.38  187.00
   2  10   4 2960.58  233.57
  -2  10  -4 3018.38  206.03
  -2  10  -4 2993.38  221.56
  -2 -10  -4 3154.88  189.60
  -2 -10  -4 2267.54  158.57
  -2 -10  -4 2706.57  160.21
   2 -10   4 3028.18  226.29
   2 -10   4 3117.27  215.07
   2  10   5  -28.33   50.24
  -2  10  -5   24.66   54.75
  -2  10  -5    6.17   55.86
  -2 -10  -5   43.90   58.34
  -2 -10  -5   23.94   40.28
   2 -10   5   29.17   50.41
   2 -10   5    9.98   47.90
   2  10   6 1473.54  119.57
   2  10   6 1755.97  173.08
  -2  10  -6 2198.40  195.92
  -2 -10  -6 2119.37  147.11
  -2 -10  -6 1665.69  133.23
   2 -10   6 2032.53  161.46
   2 -10   6 1737.90  146.03
   2  10   7  610.95   75.75
   2  10   7  828.54  117.57
  -2  10  -7  809.05  106.88
  -2  10  -7  785.19   95.97
  -2 -10  -7  775.23   89.68
  -2 -10  -7  902.96   99.83
   2 -10   7  870.77  102.19
   2 -10   7  853.44  108.56
   2  10   8 2268.11  167.36
   2  10   8 2634.93  218.71
  -2  10  -8 2892.42  256.95
  -2  10  -8 2873.62  218.77
  -2 -10  -8 3206.39  217.81
  -2 -10  -8 2800.43  213.62
   2 -10   8 3056.05  221.07
   2 -10   8 2708.70  230.07
   2  10   9  123.36   45.86
   2  10   9  145.82   67.35
  -2  10  -9  138.65   58.02
  -2  10  -9  251.82   59.95
  -2 -10  -9  213.54   61.24
  -2 -10  -9   80.86   42.01
   2 -10   9  200.67   54.59
   2 -10   9  166.66   60.95
   2  10  10  397.04   73.95
   2  10  10  434.15   92.36
  -2  10 -10  562.77   98.63
  -2  10 -10  344.67   75.24
  -2 -10 -10  481.05   86.09
  -2 -10 -10  392.02   74.73
   2 -10  10  437.81   92.36
   2 -10  10  503.18   90.10
   2  10  11  113.39   56.66
   2  10  11  168.26   76.59
  -2  10 -11  151.86   81.72
  -2  10 -11  147.09   66.06
  -2 -10 -11  181.34   66.41
  -2 -10 -11  251.91   65.64
   2 -10  11  182.77   69.68
   2 -10  11  125.03   58.36
   2  10  12 1664.61  153.17
   2  10  12 2029.41  191.63
  -2  10 -12 2245.65  202.57
  -2  10 -12 2213.45  216.23
  -2 -10 -12 2494.39  198.60
  -2 -10 -12 2203.25  201.02
   2 -10  12 2558.84  240.77
   2 -10  12 2094.92  197.09
   2  10  13  197.19   61.44
   2  10  13  304.47   76.06
  -2  10 -13  404.01   81.63
  -2  10 -13  343.82   88.95
  -2 -10 -13  346.71   74.49
  -2 -10 -13  226.92   76.56
   2 -10  13  359.44   80.18
   2  10  14   24.94   49.56
   2  10  14   41.71   49.68
  -2  10 -14   -9.01   50.29
  -2  10 -14  -90.63   50.18
  -2 -10 -14   -0.19   49.37
  -2 -10 -14  -27.39   50.77
   2 -10  14   35.74   50.06
   2 -10  14  -22.20   50.24
   2  11   0  380.65   89.04
  -2  11   0  339.97   63.24
  -2  11   0  458.73   80.60
  -2 -11   0  426.13   59.74
  -2 -11   0  309.41   60.52
  -2 -11   0  445.33   72.77
   2 -11   0  472.85   83.22
   2 -11   0  411.74   62.31
   2  11   1 6947.78  486.17
  -2  11  -1 7318.94  408.37
  -2  11  -1 7271.02  430.86
  -2 -11  -1 6685.02  386.44
  -2 -11  -1 6789.90  380.66
   2 -11   1 7575.88  442.92
   2 -11   1 7423.68  421.49
   2  11   2  184.95   76.32
  -2  11  -2  135.88   48.14
  -2  11  -2  107.32   51.68
  -2 -11  -2  186.20   53.87
  -2 -11  -2   10.63   40.16
  -2 -11  -2  148.08   48.41
   2 -11   2  195.94   69.96
   2 -11   2   94.19   53.55
   2  11   3  195.61   76.24
  -2  11  -3  268.30   60.23
  -2  11  -3  148.21   64.81
  -2 -11  -3  243.15   58.14
  -2 -11  -3  149.75   47.73
  -2 -11  -3  227.21   56.30
   2 -11   3  213.92   62.26
   2 -11   3  125.53   51.02
   2  11   4  666.28  111.69
  -2  11  -4  911.68   95.96
  -2  11  -4  831.64  109.46
  -2 -11  -4  804.89   89.66
  -2 -11  -4  846.45   91.03
   2 -11   4  985.47  113.10
   2 -11   4  834.86  102.75
   2  11   5 5780.02  413.71
  -2  11  -5 5793.43  374.96
  -2  11  -5 6400.67  415.48
  -2 -11  -5 5904.61  350.62
  -2 -11  -5 6067.28  367.78
   2 -11   5 6456.70  380.50
   2 -11   5 6093.72  327.11
   2  11   6 1056.02  137.44
  -2  11  -6 1031.82  128.49
  -2 -11  -6 1105.78  121.24
  -2 -11  -6  871.79   94.14
   2 -11   6 1115.95  148.40
   2 -11   6 1033.39  117.22
   2  11   7  342.42   79.76
  -2  11  -7  411.67   87.37
  -2  11  -7  375.71   65.38
  -2 -11  -7  296.72   66.16
  -2 -11  -7  394.75   68.23
   2 -11   7  465.82   90.68
   2 -11   7  386.53   67.93
   2  11   8  240.83   70.73
  -2  11  -8  352.60   65.85
  -2  11  -8  281.38   67.32
  -2 -11  -8  289.61   58.38
  -2 -11  -8  279.29   58.62
   2 -11   8  297.73   78.57
   2 -11   8  220.67   53.52
   2  11   9  814.72  109.65
  -2  11  -9  926.60  125.73
  -2  11  -9  871.38  131.20
  -2 -11  -9  711.69   96.09
  -2 -11  -9  785.68  100.55
   2 -11   9  882.98  119.59
   2 -11   9  824.88  110.07
   2  11  10  578.74  104.43
  -2  11 -10  696.60  105.64
  -2  11 -10  563.83  111.47
  -2 -11 -10  766.16  101.79
  -2 -11 -10  817.73  109.88
   2 -11  10  799.46  132.91
   2 -11  10  747.43   94.78
   2  11  11  713.62  114.77
  -2  11 -11  822.44  122.13
  -2  11 -11  888.72  126.36
  -2 -11 -11  790.23   97.48
  -2 -11 -11  711.90  109.18
   2 -11  11  883.58  122.25
   2 -11  11  700.42   99.71
   2  11  12   17.51   64.28
  -2  11 -12   43.14   70.30
  -2  11 -12   80.68   60.49
  -2 -11 -12  128.47   62.76
  -2 -11 -12   35.08   58.63
   2 -11  12   87.93   54.07
   2 -11  12   21.54   48.34
   2  11  13  472.87  101.97
  -2  11 -13 1813.39  329.57
  -2 -11 -13  552.11   80.31
   2 -11  13  595.58  114.23
   2 -11  13  502.97   90.90
   2  12   0  433.82   88.37
  -2  12   0  306.31   64.01
  -2  12   0  435.19   77.40
  -2 -12   0  421.09   72.07
  -2 -12   0  294.47   58.23
  -2 -12   0  461.02   79.43
   2 -12   0  556.67   96.43
   2 -12   0  419.44   83.71
   2  12   1 1333.97  147.44
  -2  12  -1 1373.84  131.70
  -2  12  -1 1421.31  147.50
  -2 -12  -1 1218.73  114.15
  -2 -12  -1 1061.97  108.66
  -2 -12  -1 1134.45  107.47
   2 -12   1 1563.51  163.89
   2 -12   1 1559.40  140.42
   2  12   2 1000.29  131.99
  -2  12  -2  859.15   96.23
  -2  12  -2 1091.51  123.81
  -2 -12  -2  932.50  105.98
  -2 -12  -2 1009.44   99.30
   2 -12   2 1123.03  133.25
   2 -12   2 1037.46  109.60
   2  12   3  819.61  113.00
  -2  12  -3  825.17   90.71
  -2  12  -3  772.25  103.75
  -2 -12  -3  947.55  109.64
  -2 -12  -3  652.96   82.79
   2 -12   3  921.87  118.95
   2 -12   3  800.16  111.93
   2  12   4  781.23  129.75
  -2  12  -4  594.60   81.17
  -2  12  -4  726.11   95.59
  -2 -12  -4  834.82   93.56
  -2 -12  -4  624.60   80.07
   2 -12   4  639.07  115.15
   2 -12   4  654.97   92.90
   2  12   5  -61.90   69.26
  -2  12  -5  -27.05   56.86
  -2 -12  -5   85.25   59.24
  -2 -12  -5   20.18   41.17
   2 -12   5   11.93   46.54
   2 -12   5    8.21   36.92
   2 -12   5  115.70   69.72
   2  12   6 1298.42  165.18
  -2  12  -6 1610.16  164.35
  -2  12  -6 1576.61  144.75
  -2 -12  -6 1604.41  149.53
  -2 -12  -6 1158.89  117.92
   2 -12   6 1734.01  163.86
   2 -12   6 1378.24  131.49
   2  12   7  992.64  135.97
  -2  12  -7  970.97  125.29
  -2  12  -7 1012.29  128.51
  -2 -12  -7 1061.30  110.53
  -2 -12  -7  981.64  115.15
   2 -12   7 1052.19  128.77
   2 -12   7  865.88  110.63
   2  12   8 1226.25  149.84
  -2  12  -8 1500.58  157.38
  -2  12  -8 1447.35  150.44
  -2 -12  -8 1534.39  167.59
  -2 -12  -8 1457.09  149.11
   2 -12   8 1684.85  184.36
   2 -12   8 1242.51  130.16
   2  12   9  130.71   67.87
  -2  12  -9   87.08   66.26
  -2  12  -9  154.06   75.00
  -2 -12  -9  146.35   67.48
  -2 -12  -9  199.91   65.39
   2 -12   9  115.25   56.88
   2 -12   9   90.80   46.15
   2  12  10   91.11   64.05
  -2  12 -10  108.86   66.73
  -2  12 -10   97.40   65.19
  -2 -12 -10    9.03   56.57
  -2 -12 -10   79.87   49.01
   2 -12  10  105.73   65.63
   2 -12  10   61.91   49.87
   2  13   0 1631.06  163.21
  -2  13   0 1468.35  146.11
  -2  13   0 1565.06  163.54
  -2 -13   0 1381.05  148.23
  -2 -13   0 1213.20  149.45
   2 -13   0 1878.60  180.59
   2 -13   0 1457.30  151.26
   2  13   1 1220.72  145.39
  -2  13  -1 1082.27  112.07
  -2  13  -1 1093.67  133.37
  -2 -13  -1 1092.30  125.41
  -2 -13  -1 1032.15  120.29
   2 -13   1 1261.21  144.92
   2 -13   1  965.72  136.59
   2  13   2  841.93  128.22
  -2  13  -2  667.73   85.80
  -2  13  -2  801.04  118.98
  -2 -13  -2  755.19  104.90
  -2 -13  -2  809.58  104.93
   2 -13   2 1188.26  142.84
   2 -13   2  885.92  117.66
   2  13   3  290.41   85.61
  -2  13  -3  308.03   62.58
  -2  13  -3  404.52   87.88
  -2 -13  -3  492.47   88.61
  -2 -13  -3  344.06   66.57
   2 -13   3  485.84   78.47
   2 -13   3  462.77   75.46
   2  13   4   71.18   63.19
  -2  13  -4  222.83   52.12
  -2  13  -4  215.79   69.44
  -2 -13  -4  177.42   62.86
  -2 -13  -4  208.52   68.12
   2 -13   4  268.12   73.89
   2 -13   4  248.63   64.39
   2  13   5  559.03  114.13
  -2  13  -5  580.42   86.43
  -2 -13  -5  541.35   91.07
  -2 -13  -5  477.40   93.08
   2 -13   5  661.81   81.81
   2 -13   5  542.61   75.92
   2 -13   5  411.29   85.63
   2  13   6  624.17  122.92
  -2  13  -6  843.57  108.65
  -2  13  -6  749.01  112.29
  -2 -13  -6  788.42  128.28
  -2 -13  -6  576.17   86.23
   2 -13   6  780.81  102.24
   2 -13   6  547.77   81.58
   2  13   7   50.74   72.20
  -2  13  -7   58.89   60.01
  -2  13  -7  154.79   61.83
  -2 -13  -7   63.80   54.10
   3   0   0  229.75   37.63
   3   0   0  257.98   35.95
  -3   0   0  282.92   46.27
  -3   0   0  187.30   28.81
   3   0   1   -9.55   26.64
   3   0   1   -2.81   18.44
   3   0   1   30.60   23.92
   3   0   1   32.36   34.77
  -3   0  -1   -3.11   26.69
   3   0   216087.08  675.86
   3   0   217609.15  670.93
   3   0   219468.21  815.55
  -3   0  -218554.55  691.78
  -3   0  -219029.95  783.99
   3   0   3   -3.00   18.82
   3   0   3   19.22   27.19
   3   0   3   59.55   33.61
  -3   0  -3   40.50   25.74
  -3   0  -3   37.48   32.04
  -3   0  -3    2.42    8.08
   3   0   4 1255.48   74.15
   3   0   4 1389.74   78.78
   3   0   4 1635.19  109.72
  -3   0  -4 1568.62   93.76
  -3   0  -4 1561.54  109.98
  -3   0  -4 1346.33   74.77
  -3   0  -4 1304.88   67.50
   3   0   5    9.40   15.66
   3   0   5  -18.88   15.85
   3   0   5  -43.58   15.64
   3   0   5    9.64   15.47
  -3   0  -5  -22.75   15.56
  -3   0  -5   48.76   15.64
  -3   0  -5    9.04   15.64
   3   0   612748.85  469.69
   3   0   611463.18  499.27
   3   0   613716.43  635.19
  -3   0  -613055.45  518.43
  -3   0  -613086.39  636.18
  -3   0  -612391.28  523.54
  -3   0  -610196.07  443.30
   3   0   7   32.85   22.77
   3   0   7  -39.86   39.52
  -3   0  -7   -3.13   22.31
  -3   0  -7   22.18   36.38
  -3   0  -7  -14.80   20.74
  -3   0  -7    6.93   16.61
   3   0   8 2729.54  151.22
   3   0   8 2857.59  191.45
  -3   0  -8 3019.03  164.89
  -3   0  -8 2949.66  187.53
  -3   0  -8 2651.15  153.77
   3   0   9    6.08   20.46
   3   0   9   -3.04   20.20
  -3   0  -9  -22.32   20.59
  -3   0  -9  -34.21   20.46
  -3   0  -9    3.98   20.48
   3   0  1010016.26  524.11
  -3   0 -10 9038.34  482.08
  -3   0 -10 9666.58  489.96
  -3   0 -10 9005.18  441.37
   3   0  11   27.46   58.36
  -3   0 -11  -14.06   60.27
  -3   0 -11  -69.72   59.27
  -3   0 -11  -59.04   59.35
   3   0  12 7849.79  441.46
  -3   0 -12 7447.55  353.66
  -3   0 -12 7460.16  434.89
  -3   0 -12 6837.24  336.22
   3   0  13  -97.62   50.54
  -3   0 -13  -27.65   52.90
  -3   0 -13  -33.32   51.46
  -3   0 -13   19.03   51.47
   3   0  14 2076.39  170.32
  -3   0 -14 1775.59  135.00
  -3   0 -14 1824.47  167.67
  -3   0 -14 1837.99  152.13
   3   0  15   27.99   67.36
  -3   0 -15  -74.04   68.66
  -3   0 -15   35.16   68.54
   3   0  16 2614.69  226.89
  -3   0 -16 2795.08  219.76
  -3   0 -16 2182.38  192.11
   3   0  17  -51.71   63.85
  -3   0 -17  -35.63   65.09
  -3   0 -17  -35.97   64.81
   3   0  18  -11.56   59.92
  -3   0 -18   75.04   61.06
  -3   0 -18  -49.73   60.72
  -3   0 -19  -52.86   48.06
   3   1   0  661.73   48.52
   3   1   0  613.62   57.92
  -3   1   0  680.34   63.53
  -3   1   0  716.81   57.16
  -3  -1   0  777.40   60.07
  -3  -1   0  637.02   50.45
   3  -1   0  623.51   46.32
   3  -1   0  534.85   52.55
   3  -1   0  641.93   60.52
   3   1   1 9696.33  436.92
   3   1   110849.19  459.17
  -3   1  -110392.43  457.69
  -3   1  -110785.12  472.17
  -3   1  -1 9057.90  313.65
  -3  -1  -110474.83  431.00
  -3  -1  -110809.11  463.17
   3  -1   1 9953.38  439.51
   3  -1   1 9558.91  390.21
   3  -1   110136.11  407.03
   3   1   2  368.96   36.03
   3   1   2  461.50   48.30
  -3   1  -2  532.87   56.30
  -3   1  -2  407.35   25.67
  -3   1  -2  462.23   25.60
  -3  -1  -2  515.81   46.75
  -3  -1  -2  450.89   55.13
   3  -1   2  428.41   40.89
   3  -1   2  447.16   39.05
   3  -1   2  482.78   41.76
   3  -1   2  553.92   62.56
   3   1   3 5752.23  250.44
   3   1   3 5415.47  279.26
   3   1   3 6397.65  319.48
  -3   1  -3 6197.12  339.73
  -3   1  -3 5733.27  233.03
  -3   1  -3 5968.72  234.09
  -3  -1  -3 6539.37  321.50
  -3  -1  -3 6004.32  326.29
   3  -1   3 5610.59  241.56
   3  -1   3 5887.83  270.59
   3  -1   3 6700.55  370.37
   3   1   4  110.14   31.22
   3   1   4   44.33   20.07
   3   1   4   94.13   39.20
  -3   1  -4  124.84   24.69
  -3   1  -4  146.88   40.17
  -3   1  -4   61.80   15.45
  -3   1  -4   59.71   14.27
  -3  -1  -4  111.96   27.85
  -3  -1  -4   98.19   34.71
  -3  -1  -4   80.87   12.65
  -3  -1  -4   57.76   11.73
   3  -1   4  118.66   19.18
   3  -1   4   90.41   29.83
   3  -1   4  173.45   47.20
   3   1   5 8564.91  323.58
   3   1   5 7849.65  347.05
   3   1   5 9331.11  478.91
  -3   1  -5 8803.64  377.43
  -3   1  -5 8977.48  425.61
  -3   1  -5 8356.39  359.81
  -3   1  -5 7467.47  335.33
  -3  -1  -5 8914.80  414.13
  -3  -1  -5 9120.58  436.19
  -3  -1  -5 8543.23  301.53
  -3  -1  -5 7203.42  300.83
   3  -1   5 7499.76  304.58
   3  -1   5 8270.65  350.39
   3  -1   5 9534.54  415.41
   3   1   6  177.26   24.97
   3   1   6  126.33   21.59
   3   1   6  135.42   37.16
  -3   1  -6  129.66   27.26
  -3   1  -6  172.03   44.70
  -3   1  -6  141.86   24.96
  -3  -1  -6  174.13   32.90
  -3  -1  -6  223.70   37.01
  -3  -1  -6  189.02   24.80
  -3  -1  -6  122.79   22.04
   3  -1   6   87.00   18.20
   3  -1   6  137.50   34.66
   3  -1   6  196.06   52.21
   3   1   7  201.18   26.49
   3   1   7  178.98   51.65
  -3   1  -7  207.79   32.91
  -3   1  -7  234.45   46.93
  -3   1  -7  184.12   28.23
  -3  -1  -7  245.08   35.84
  -3  -1  -7  262.25   45.51
  -3  -1  -7  217.71   32.12
   3  -1   7  240.87   39.03
   3  -1   7  197.72   54.88
   3   1   8  357.27   32.78
   3   1   8  394.91   62.70
  -3   1  -8  357.49   39.21
  -3   1  -8  379.02   55.86
  -3   1  -8  293.27   36.69
  -3  -1  -8  374.91   42.63
  -3  -1  -8  231.51   52.29
  -3  -1  -8  361.15   39.53
   3  -1   8  353.15   41.32
   3  -1   8  368.28   70.93
   3   1   9 9500.78  460.86
  -3   1  -9 8679.25  384.65
  -3   1  -9 9356.23  474.03
  -3   1  -9 8553.05  409.70
  -3  -1  -9 9210.32  424.86
  -3  -1  -9 9371.21  501.85
  -3  -1  -9 8582.87  416.79
   3  -1   9 8664.07  417.81
   3  -1   9 9877.59  519.90
   3   1  10   48.12   48.89
  -3   1 -10   -3.59   29.85
  -3   1 -10   44.46   43.76
  -3   1 -10  -19.56   24.13
  -3  -1 -10   -8.10   29.72
  -3  -1 -10   55.83   45.44
  -3  -1 -10  -17.63   26.58
   3  -1  10    4.58   21.59
   3  -1  10   57.19   62.96
   3   1  11    7.18   51.21
  -3   1 -11   21.43   26.29
  -3   1 -11  -12.68   43.85
  -3   1 -11   27.37   29.82
  -3  -1 -11  -15.28   40.85
  -3  -1 -11  -28.10   47.69
  -3  -1 -11   80.91   33.47
   3  -1  11   -5.41   62.11
   3   1  12  190.08   58.61
  -3   1 -12  119.24   33.79
  -3   1 -12  194.25   58.93
  -3   1 -12   75.04   38.79
  -3  -1 -12   89.17   41.94
  -3  -1 -12  174.83   69.00
  -3  -1 -12  106.90   36.96
   3  -1  12  112.43   65.26
   3   1  13 5360.58  324.30
  -3   1 -13 5046.54  319.86
  -3   1 -13 4446.73  267.42
  -3  -1 -13 4846.06  251.96
  -3  -1 -13 5077.50  338.82
  -3  -1 -13 4371.45  277.40
   3  -1  13 4865.49  331.90
   3   1  14   50.97   47.32
  -3   1 -14  -15.68   53.52
  -3   1 -14   26.81   37.50
  -3  -1 -14   18.23   43.36
  -3  -1 -14   37.43   45.91
  -3  -1 -14    5.21   36.58
   3  -1  14   87.93   72.38
   3   1  15  395.16   80.42
  -3   1 -15  360.79   71.60
  -3   1 -15  370.82   69.72
  -3  -1 -15  349.09   61.55
  -3  -1 -15  500.19   82.62
  -3  -1 -15  363.93   61.18
   3  -1  15  518.10   86.71
   3   1  16   -3.14   57.77
  -3   1 -16   20.10   55.66
  -3   1 -16   -0.50   46.95
  -3  -1 -16   31.14   47.80
  -3  -1 -16   70.59   43.13
   3  -1  16   30.77   67.44
   3   1  17 2339.86  205.56
  -3   1 -17 2210.66  194.71
  -3   1 -17 2099.97  183.57
  -3  -1 -17 2196.14  205.22
  -3  -1 -17 2225.46  200.73
   3  -1  17 2542.31  210.22
   3   1  18   69.88   54.57
  -3   1 -18   74.35   57.53
  -3   1 -18   71.37   45.19
  -3  -1 -18   18.90   60.72
  -3  -1 -18   13.26   48.98
   3  -1  18   22.63   65.14
  -3   1 -19  446.33   80.86
  -3  -1 -19  372.48   77.16
   3   2   0  564.95   51.31
   3   2   0  563.87   53.48
  -3   2   0  514.71   54.43
  -3   2   0  508.34   44.97
  -3   2   0  458.82   29.14
  -3   2   0  526.96   30.84
  -3  -2   0  494.35   59.29
  -3  -2   0  512.72   54.34
   3  -2   0  459.89   40.75
   3  -2   0  422.43   40.50
   3  -2   0  428.87   49.42
   3   2   1    5.94   21.36
   3   2   1    1.02   28.86
   3   2   1   33.49   34.04
  -3   2  -1    2.99   36.00
  -3   2  -1  -12.74   24.10
  -3   2  -1   15.94   12.57
  -3   2  -1   -6.42   10.43
  -3  -2  -1    3.98   26.12
   3  -2   1    4.75   18.50
   3  -2   1   -3.39   12.75
   3  -2   1  -10.66   31.86
   3   2   217104.77  647.36
   3   2   215573.77  738.95
   3   2   218945.10  732.63
  -3   2  -218266.99  721.53
  -3   2  -217702.51  752.58
  -3   2  -217139.69  640.55
  -3   2  -217148.69  652.89
  -3  -2  -219850.68  820.55
  -3  -2  -219130.52  813.31
   3  -2   216807.11  641.33
   3  -2   216227.60  628.04
   3  -2   217793.04  673.09
   3   2   3  711.54   49.87
   3   2   3  460.85   45.85
   3   2   3  705.72   62.21
  -3   2  -3  763.95   67.45
  -3   2  -3  649.47   43.92
  -3   2  -3  567.98   44.40
  -3  -2  -3  673.97   60.44
  -3  -2  -3  727.97   63.26
   3  -2   3  527.23   38.48
   3  -2   3  555.81   34.66
   3  -2   3  760.07   57.10
   3  -2   3  702.74   70.42
   3   2   4  282.80   31.23
   3   2   4  283.42   30.72
   3   2   4  363.58   53.88
  -3   2  -4  270.14   44.13
  -3   2  -4  340.25   32.05
  -3   2  -4  303.36   28.83
  -3  -2  -4  379.24   44.66
  -3  -2  -4  355.12   48.60
  -3  -2  -4  304.43   20.86
   3  -2   4  313.47   25.47
   3  -2   4  275.23   23.29
   3  -2   4  254.34   37.87
   3  -2   4  340.32   53.27
   3   2   5  812.48   50.85
   3   2   5  724.08   48.67
   3   2   5  974.29   79.95
   3   2   5  793.02   39.43
  -3   2  -5  973.49   86.85
  -3   2  -5  780.07   60.54
  -3   2  -5  765.75   52.51
  -3  -2  -5  834.65   57.14
  -3  -2  -5  906.87   74.45
  -3  -2  -5  832.50   45.81
   3  -2   5  775.86   48.42
   3  -2   5  723.78   41.59
   3  -2   5  950.10   72.57
   3  -2   5  870.33   97.71
   3   2   614545.03  513.29
   3   2   615790.38  638.38
  -3   2  -613619.59  501.91
  -3   2  -615059.23  689.62
  -3   2  -614032.39  587.88
  -3  -2  -615772.69  666.12
  -3  -2  -615229.39  675.20
  -3  -2  -614281.31  554.66
   3  -2   614674.41  608.43
   3  -2   616836.50  721.98
   3   2   7  396.52   29.07
   3   2   7  452.21   66.91
  -3   2  -7  394.59   30.82
  -3   2  -7  453.45   58.05
  -3   2  -7  496.53   49.11
  -3  -2  -7  431.22   52.64
  -3  -2  -7  403.65   57.89
  -3  -2  -7  365.12   39.06
   3  -2   7  494.67   55.39
   3  -2   7  499.89   72.29
   3   2   8 4078.41  235.96
  -3   2  -8 3523.90  195.18
  -3   2  -8 4295.89  267.74
  -3   2  -8 3749.25  239.35
  -3  -2  -8 4318.50  248.68
  -3  -2  -8 4127.08  268.06
  -3  -2  -8 3869.30  198.39
   3  -2   8 4013.35  206.48
   3  -2   8 4503.36  257.72
   3   2   9  238.08   52.66
  -3   2  -9  144.73   23.40
  -3   2  -9  202.37   48.80
  -3   2  -9  181.52   29.17
  -3  -2  -9  188.44   41.85
  -3  -2  -9  145.75   51.24
  -3  -2  -9  129.56   28.07
   3  -2   9  174.71   39.48
   3  -2   9  126.85   65.57
   3   2  10 4003.61  214.26
  -3   2 -10 3614.61  182.35
  -3   2 -10 3681.27  250.86
  -3   2 -10 3552.03  211.47
  -3  -2 -10 4074.43  262.08
  -3  -2 -10 3741.89  263.62
  -3  -2 -10 3689.07  210.51
   3  -2  10 3520.78  206.34
   3  -2  10 4406.07  295.13
   3   2  11   -0.08   52.76
  -3   2 -11  -55.38   53.26
  -3   2 -11   -0.59   53.97
  -3  -2 -11   13.44   54.91
  -3  -2 -11  -20.33   54.08
  -3  -2 -11  -31.34   53.63
   3  -2  11   10.41   53.44
   3  -2  11  -12.15   53.10
   3   2  12 2301.40  172.47
  -3   2 -12 2266.92  202.12
  -3  -2 -12 2299.00  144.03
  -3  -2 -12 2092.79  170.37
  -3  -2 -12 1783.00  129.30
   3  -2  12 2328.66  197.58
   3   2  13  -46.04   53.69
  -3   2 -13   19.89   51.95
  -3   2 -13  -37.93   33.35
  -3  -2 -13   30.98   49.32
  -3  -2 -13   84.87   55.93
  -3  -2 -13   30.43   36.15
   3  -2  13   58.73   76.04
   3   2  14  826.20  105.68
  -3   2 -14  805.92  117.86
  -3   2 -14  660.93   89.68
  -3  -2 -14  828.19   84.64
  -3  -2 -14  775.72   96.04
  -3  -2 -14  653.58   69.68
   3  -2  14  727.63  118.56
   3   2  15   82.04   55.79
  -3   2 -15   47.79   50.44
  -3   2 -15   67.77   49.75
  -3  -2 -15   -3.30   53.40
  -3  -2 -15  -53.25   47.62
  -3  -2 -15   31.16   40.35
   3  -2  15   32.80   77.53
   3   2  16 2324.01  175.47
  -3   2 -16 2337.91  192.50
  -3   2 -16 2218.45  210.60
  -3  -2 -16 2289.94  156.66
  -3  -2 -16 2590.74  205.52
  -3  -2 -16 2314.38  183.70
   3  -2  16 2626.21  223.30
   3   2  17   46.93   61.85
  -3   2 -17  -10.41   55.78
  -3   2 -17   47.86   41.18
  -3  -2 -17   20.33   39.13
  -3  -2 -17   60.41   53.16
  -3  -2 -17   37.05   38.23
   3  -2  17  -10.37   62.72
   3   2  18  157.79   73.64
  -3   2 -18  140.88   64.86
  -3   2 -18   95.22   59.76
  -3  -2 -18  154.96   65.12
  -3  -2 -18   97.36   48.89
   3  -2  18   60.88   80.42
   3   3   0  655.54   57.52
   3   3   0  722.71   71.30
  -3   3   0  887.18   73.42
  -3   3   0  655.28   61.79
  -3   3   0  606.40   52.41
  -3  -3   0  752.55   75.25
  -3  -3   0  677.79   53.54
   3  -3   0  619.70   41.40
   3  -3   0  539.42   44.40
   3  -3   0  729.68   72.72
   3  -3   0  743.38   55.30
   3   3   1 4622.51  228.57
   3   3   1 5140.28  248.07
  -3   3  -1 4981.20  241.76
  -3   3  -1 4619.88  271.16
  -3   3  -1 4653.98  211.97
  -3   3  -1 4644.60  205.63
  -3  -3  -1 5134.06  269.58
  -3  -3  -1 4275.04  222.85
   3  -3   1 4317.17  183.08
   3  -3   1 4308.06  178.30
   3  -3   1 4827.09  232.64
   3   3   2   30.78   21.47
   3   3   2   -4.68   13.68
   3   3   2   28.49   22.47
   3   3   2    2.07   35.83
  -3   3  -2  -20.85   39.33
  -3   3  -2  -29.96   25.54
  -3   3  -2   -9.48   15.58
  -3  -3  -2   27.34   35.77
   3  -3   2   -1.92    9.67
   3  -3   2   13.80    9.54
   3  -3   2   26.01   28.43
   3   3   3 7419.76  294.34
   3   3   3 7525.70  356.83
   3   3   3 7950.40  388.89
   3   3   3 6827.33  238.21
  -3   3  -3 8110.06  400.90
  -3   3  -3 7856.19  357.62
  -3   3  -3 7299.95  315.94
  -3   3  -3 6826.19  351.64
  -3  -3  -3 8015.89  365.07
  -3  -3  -3 7018.01  243.66
   3  -3   3 7453.72  314.99
   3   3   4   92.13   20.36
   3   3   4   39.56   14.13
   3   3   4   91.62   41.67
   3   3   4   56.35   38.49
   3   3   4   63.75   13.78
  -3   3  -4   52.87   33.46
  -3   3  -4   68.84   22.35
  -3   3  -4   42.61   20.77
  -3  -3  -4   72.92   35.15
  -3  -3  -4   77.02   14.88
   3  -3   4   18.59   32.39
   3  -3   4   71.94   46.77
   3   3   513464.70  492.18
   3   3   514192.35  608.27
  -3   3  -515239.44  723.84
  -3   3  -513096.89  530.92
  -3  -3  -514461.85  616.29
  -3  -3  -513893.51  654.86
  -3  -3  -513136.98  510.92
   3  -3   514325.25  598.45
   3  -3   514361.42  644.40
   3   3   6    2.05   13.37
   3   3   6   63.41   33.61
  -3   3  -6  -14.15   35.95
  -3   3  -6    2.43   24.37
  -3  -3  -6   16.40   37.00
  -3  -3  -6  -10.96   40.51
  -3  -3  -6   38.73   20.92
   3  -3   6  -30.01   31.06
   3  -3   6   39.82   56.68
   3   3   7 5723.57  342.25
  -3   3  -7 6224.83  343.87
  -3   3  -7 5670.23  274.10
  -3  -3  -7 6050.01  304.60
  -3  -3  -7 6536.15  410.12
  -3  -3  -7 5756.96  266.36
   3  -3   7 6030.69  305.71
   3  -3   7 6344.90  393.55
   3   3   8  197.86   43.10
  -3   3  -8   31.06   39.41
  -3   3  -8   97.29   26.86
  -3  -3  -8   87.56   42.05
  -3  -3  -8  148.86   43.68
  -3  -3  -8   88.72   21.56
   3  -3   8  101.68   41.88
   3  -3   8  147.43   60.01
   3   3   9 8438.23  386.63
  -3   3  -9 8977.09  485.68
  -3   3  -9 7746.71  410.95
  -3  -3  -9 8909.85  424.47
  -3  -3  -9 8554.04  432.19
  -3  -3  -9 7871.51  386.66
   3  -3   9 8380.37  423.13
   3  -3   9 9227.27  449.12
   3   3  10  -73.85   46.14
  -3   3 -10   64.19   45.16
  -3   3 -10  -10.74   33.32
  -3  -3 -10   20.54   40.41
  -3  -3 -10  -11.58   48.07
  -3  -3 -10    5.04   26.76
   3  -3  10   -4.13   32.67
   3  -3  10   38.35   60.66
   3   3  11   81.14   49.35
  -3   3 -11   60.81   53.44
  -3   3 -11   15.05   40.10
  -3  -3 -11   29.38   43.40
  -3  -3 -11   77.56   50.53
  -3  -3 -11    8.30   29.18
   3  -3  11  -20.37   26.91
   3  -3  11   11.72   48.07
   3   3  12   88.16   54.81
  -3   3 -12  156.28   57.36
  -3   3 -12  111.54   34.72
  -3  -3 -12  167.15   54.05
  -3  -3 -12  224.03   69.94
  -3  -3 -12  108.05   39.49
   3  -3  12  109.76   39.12
   3  -3  12  149.47   62.90
   3   3  13 6200.28  382.90
  -3   3 -13 6657.47  427.80
  -3   3 -13 5603.35  376.70
  -3  -3 -13 6838.95  359.58
  -3  -3 -13 5875.05  346.82
  -3  -3 -13 5586.78  336.58
   3  -3  13 6533.04  391.60
   3   3  14  -60.48   62.65
  -3   3 -14   22.91   58.96
  -3   3 -14   12.69   35.46
  -3  -3 -14   87.12   52.76
  -3  -3 -14  -37.88   52.94
  -3  -3 -14   40.07   30.97
   3  -3  14   20.23   68.23
   3   3  15  307.88   78.85
  -3   3 -15  448.41   83.81
  -3   3 -15  344.21   63.05
  -3  -3 -15  496.51   72.29
  -3  -3 -15  390.73   77.25
  -3  -3 -15  416.82   65.26
   3  -3  15  522.22  104.47
   3   3  16  117.33   60.97
  -3   3 -16   74.49   50.91
  -3   3 -16  122.70   50.21
  -3  -3 -16   71.25   50.37
  -3  -3 -16  185.20   62.55
  -3  -3 -16  200.37   52.14
   3  -3  16   19.48   70.81
   3   3  17  943.48  133.82
  -3   3 -17 1020.16  131.74
  -3   3 -17  766.39   96.72
  -3  -3 -17  908.21  103.78
  -3  -3 -17  808.68  109.66
  -3  -3 -17  749.38   94.15
   3  -3  17  894.72  121.38
   3   3  18   33.93   67.63
  -3   3 -18  211.79   70.54
  -3   3 -18  135.63   57.47
  -3  -3 -18  103.52   52.44
  -3  -3 -18   83.29   61.46
   3  -3  18  126.87   66.21
   3   4   0  155.64   34.05
   3   4   0  124.38   23.63
   3   4   0  205.71   42.52
   3   4   0  157.69   11.74
   3   4   0  127.88   11.76
  -3   4   0  154.91   42.73
  -3   4   0  183.55   31.64
  -3   4   0  148.82   27.21
  -3  -4   0  219.35   48.16
  -3  -4   0  195.42   30.36
   3  -4   0  169.27   16.87
   3  -4   0  131.78   16.24
   3  -4   0  204.46   41.91
   3  -4   0  196.12   37.25
   3   4   1 1150.15   83.86
   3   4   1 1186.80  101.31
   3   4   1 1007.70   49.33
  -3   4  -1 1304.14  107.08
  -3   4  -1 1258.78   86.49
  -3   4  -1 1101.11   82.83
  -3  -4  -1 1098.24  109.26
  -3  -4  -1 1048.28   76.21
   3  -4   1 1401.03   96.20
   3  -4   1 1195.25   85.61
   3   4   214289.26  602.41
   3   4   215608.84  698.59
   3   4   212823.56  511.08
  -3   4  -215789.15  775.69
  -3   4  -215516.53  629.75
  -3   4  -214634.58  587.10
  -3  -4  -215470.96  714.14
  -3  -4  -213882.04  566.83
  -3  -4  -213664.68  475.06
   3  -4   215285.71  615.29
   3   4   3   97.21   18.56
   3   4   3   68.93   20.20
   3   4   3  114.79   35.81
   3   4   3  123.79   40.89
   3   4   3   32.30   14.31
  -3   4  -3   97.31   45.66
  -3   4  -3   69.75   37.93
  -3   4  -3   98.42   25.73
  -3  -4  -3  240.37   55.47
  -3  -4  -3  101.12   15.47
   3  -4   3   28.39   36.42
   3   4   4  406.65   33.34
   3   4   4  409.65   45.68
   3   4   4  497.13   63.59
  -3   4  -4  552.14   66.21
  -3   4  -4  413.58   47.66
  -3  -4  -4  489.12   59.22
  -3  -4  -4  390.10   33.28
   3  -4   4  458.40   50.44
   3  -4   4  459.91   67.53
   3   4   5   39.93   15.47
   3   4   5   75.53   39.09
   3   4   5  114.42   47.75
  -3   4  -5   35.18   40.96
  -3   4  -5   81.96   23.70
  -3  -4  -5   66.56   43.45
  -3  -4  -5   48.63   24.69
   3  -4   5   24.68   34.36
   3  -4   5   47.53   47.57
   3   4   6 5549.53  274.78
   3   4   6 5558.67  339.13
  -3   4  -6 5828.87  339.01
  -3   4  -6 5623.07  269.93
  -3  -4  -6 6007.88  298.36
  -3  -4  -6 5520.88  253.09
   3  -4   6 5814.18  291.70
   3  -4   6 5924.75  360.76
   3   4   7  662.93   77.28
   3   4   7  605.83   87.55
  -3   4  -7  631.44   77.99
  -3   4  -7  560.55   60.44
  -3  -4  -7  617.49   72.52
  -3  -4  -7  586.71   51.13
   3  -4   7  585.80   55.07
   3  -4   7  750.08   81.11
   3   4   8  537.38   78.63
   3   4   8  687.80   92.39
  -3   4  -8  778.78   95.22
  -3   4  -8  579.51   63.07
  -3  -4  -8  537.40   64.52
  -3  -4  -8  569.57   47.80
   3  -4   8  619.80   71.27
   3  -4   8  666.34   85.61
   3   4   9   16.33   42.78
   3   4   9  125.03   70.63
  -3   4  -9  159.63   61.01
  -3   4  -9   85.54   29.82
  -3  -4  -9   87.29   46.48
  -3  -4  -9   60.50   31.49
   3  -4   9   80.40   45.98
   3  -4   9   43.75   56.93
   3   4  10 3323.77  204.46
  -3   4 -10 3378.35  256.98
  -3   4 -10 2827.87  194.51
  -3  -4 -10 3306.64  198.51
  -3  -4 -10 3069.72  192.12
   3  -4  10 3224.85  236.68
   3  -4  10 3130.96  244.32
   3   4  11 1287.10  121.81
  -3   4 -11 1542.31  146.39
  -3   4 -11 1316.84  114.99
  -3  -4 -11 1726.99  132.02
  -3  -4 -11 1284.78  101.37
   3  -4  11 1377.94  132.63
   3  -4  11 1598.02  159.26
   3   4  12 2202.51  171.30
  -3   4 -12 2228.21  201.20
  -3   4 -12 2049.30  165.20
  -3  -4 -12 2539.33  184.67
  -3  -4 -12 1927.83  132.07
   3  -4  12 1882.96  155.29
   3  -4  12 2270.82  199.42
   3   4  13   -4.22   58.71
  -3   4 -13  -11.42   59.05
  -3   4 -13  -31.07   59.76
  -3  -4 -13  -39.52   60.82
  -3  -4 -13   10.52   60.08
  -3  -4 -13  -23.06   59.53
   3  -4  13   13.12   58.91
   3  -4  13  -47.48   58.76
   3   4  14 1020.45  133.70
  -3   4 -14 1207.72  140.59
  -3   4 -14  864.61  105.23
  -3  -4 -14 1331.14  118.97
  -3  -4 -14 1071.38  125.67
  -3  -4 -14  950.07  101.39
   3  -4  14 1179.40  141.16
   3   4  15  -20.13   60.43
  -3   4 -15   36.28   60.86
  -3   4 -15  -79.31   61.29
  -3  -4 -15   56.13   62.98
  -3  -4 -15  -19.41   61.05
   3  -4  15   54.42   60.33
   3   4  16 1586.13  191.53
  -3   4 -16 1789.00  182.36
  -3   4 -16 1484.91  163.74
  -3  -4 -16 1706.66  176.27
  -3  -4 -16 1524.94  141.01
   3  -4  16 1937.71  201.81
   3   4  17  113.80   65.59
  -3   4 -17  251.58   70.98
  -3   4 -17   63.76   53.68
  -3  -4 -17   78.43   56.27
   3  -4  17  177.82   77.38
   3   4  18  167.21   69.18
  -3   4 -18  172.46   59.38
  -3  -4 -18  146.83   60.14
   3   5   0  626.03   52.96
   3   5   0  714.41   74.84
  -3   5   0  593.81   72.75
  -3   5   0  681.67   51.85
  -3  -5   0  724.50   79.09
  -3  -5   0  603.21   64.22
   3  -5   0  743.73   73.07
   3  -5   0  682.58   64.14
   3   5   1 5862.53  260.53
   3   5   1 6405.63  350.79
  -3   5  -1 6735.78  378.04
  -3   5  -1 7044.08  305.11
  -3  -5  -1 7022.90  382.75
  -3  -5  -1 6115.07  289.15
  -3  -5  -1 5991.38  248.10
   3  -5   1 6395.37  308.07
   3  -5   1 7217.63  345.54
   3   5   2   -1.52   29.08
   3   5   2   44.72   46.23
  -3   5  -2   34.34   44.45
  -3   5  -2    8.84   27.54
  -3  -5  -2   70.58   41.52
  -3  -5  -2   -1.74   21.33
  -3  -5  -2   19.38   15.73
   3  -5   2   21.29   30.63
   3  -5   2   11.52   30.43
   3   5   3 4887.06  241.47
   3   5   3 5537.89  313.10
  -3   5  -3 5406.49  286.17
  -3   5  -3 5383.28  274.61
  -3   5  -3 4983.16  272.07
  -3  -5  -3 5548.94  297.30
  -3  -5  -3 4602.36  206.86
  -3  -5  -3 4823.84  203.90
   3  -5   3 5126.84  249.53
   3   5   4 1275.27   73.20
   3   5   4 1209.51   91.17
   3   5   4 1518.55  135.86
  -3   5  -4 1478.82  127.40
  -3   5  -4 1369.75  111.08
  -3   5  -4 1185.30   77.16
  -3  -5  -4 1321.31  110.15
  -3  -5  -4 1188.73   70.64
   3  -5   4 1139.96   93.51
   3   5   5 8149.29  379.76
   3   5   5 7950.08  477.82
  -3   5  -5 7994.01  448.16
  -3   5  -5 7819.47  346.32
  -3  -5  -5 8686.88  415.62
  -3  -5  -5 7474.53  325.61
   3  -5   5 7543.23  344.36
   3  -5   5 8270.01  436.00
   3   5   6  315.77   56.51
   3   5   6  413.48   73.15
  -3   5  -6  330.32   62.10
  -3   5  -6  277.69   39.89
  -3  -5  -6  332.60   58.53
  -3  -5  -6  330.83   39.09
   3  -5   6  316.14   54.24
   3  -5   6  375.54   60.58
   3   5   7   63.53   38.28
   3   5   7   22.14   53.08
  -3   5  -7   93.16   46.82
  -3   5  -7   75.94   32.44
  -3  -5  -7  138.79   51.50
  -3  -5  -7   70.05   27.34
   3  -5   7   91.12   43.98
   3  -5   7   24.57   59.14
   3   5   8  811.52   81.48
   3   5   8  975.27  112.76
  -3   5  -8 1014.78  104.47
  -3   5  -8  767.81   94.15
  -3  -5  -8  967.99   99.67
  -3  -5  -8  893.05   71.70
   3  -5   8  984.83   88.28
   3  -5   8  932.42  104.29
   3   5   9 8567.52  444.92
   3   5   9 9076.94  528.80
  -3   5  -9 9353.30  502.64
  -3   5  -9 8768.10  448.32
  -3  -5  -910320.63  496.01
  -3  -5  -9 8906.34  411.88
   3  -5   9 8824.60  525.88
   3  -5   9 9507.06  511.95
   3   5  10  919.36  103.37
   3   5  10 1366.02  129.91
  -3   5 -10 1156.69  121.12
  -3   5 -10 1056.17  117.52
  -3  -5 -10 1259.31  113.68
  -3  -5 -10 1184.21   91.00
   3  -5  10 1115.72  119.56
   3  -5  10 1218.06  132.17
   3   5  11  455.09   80.75
   3   5  11  258.19   66.22
  -3   5 -11  404.39   79.61
  -3   5 -11  429.25   66.65
  -3  -5 -11  418.83   75.64
  -3  -5 -11  368.77   46.55
   3  -5  11  337.83   67.63
   3  -5  11  390.77   77.27
   3   5  12   56.81   57.23
   3   5  12   73.02   66.13
  -3   5 -12   72.19   55.72
  -3   5 -12   53.65   44.13
  -3  -5 -12   98.08   55.96
  -3  -5 -12   75.03   38.85
   3  -5  12   92.40   41.72
   3  -5  12  101.44   66.73
   3   5  13 2637.89  228.87
   3   5  13 2772.28  233.00
  -3   5 -13 2820.24  244.03
  -3   5 -13 2357.13  187.77
  -3  -5 -13 2981.13  231.42
  -3  -5 -13 2518.89  174.07
   3  -5  13 2256.37  187.96
   3  -5  13 2527.82  209.06
   3   5  14  399.67   81.05
   3   5  14  288.12   84.19
  -3   5 -14  238.82   78.28
  -3   5 -14  346.39   66.46
  -3  -5 -14  335.05   82.00
  -3  -5 -14  242.31   55.95
   3  -5  14  353.45   90.31
   3   5  15  221.93   64.48
   3   5  15  238.70   74.47
  -3   5 -15  247.41   64.73
  -3   5 -15  135.23   52.97
  -3  -5 -15  111.14   67.56
  -3  -5 -15  161.63   49.59
   3  -5  15  153.94   82.83
   3   5  16    9.75   54.47
   3   5  16  -47.16   55.96
  -3   5 -16  -33.98   54.91
  -3   5 -16   -6.54   55.15
  -3  -5 -16   66.83   56.29
   3  -5  16  -66.55   54.28
   3   5  17 1239.60  160.63
   3   5  17 1062.45  128.96
  -3   5 -17 1241.54  167.22
  -3   5 -17  913.44  122.54
  -3  -5 -17 1318.61  144.90
   3  -5  17 1049.21  123.66
   3   6   0  702.52   57.96
   3   6   0  757.74   77.75
  -3   6   0  899.27   99.97
  -3   6   0  828.53   75.85
  -3  -6   0  893.72   83.34
  -3  -6   0  745.75   65.63
  -3  -6   0  651.98   53.21
   3  -6   0  832.74   69.97
   3  -6   0  769.62   75.81
   3   6   1   -2.37   23.67
   3   6   1   84.82   40.28
  -3   6  -1  -41.97   48.65
  -3   6  -1   49.36   28.53
  -3  -6  -1   33.74   43.49
  -3  -6  -1   27.93   22.49
  -3  -6  -1   85.00   25.68
   3  -6   1   19.63   34.46
   3  -6   1   49.77   35.69
   3   6   210387.64  508.49
   3   6   212284.39  558.34
  -3   6  -212974.73  624.36
  -3   6  -212562.77  561.19
  -3  -6  -212456.21  556.66
  -3  -6  -210614.42  487.98
  -3  -6  -211188.79  444.86
   3  -6   212804.34  571.96
   3  -6   212784.92  556.90
   3   6   3  765.78   68.60
   3   6   3  926.69   96.88
  -3   6  -3  966.27   87.51
  -3   6  -3  920.14   85.34
  -3  -6  -3 1044.91   92.68
  -3  -6  -3  796.22   63.11
  -3  -6  -3  921.68   63.31
   3  -6   3  794.40   70.54
   3   6   4  -11.43   28.36
   3   6   4   99.46   49.56
  -3   6  -4   59.00   58.23
  -3   6  -4   60.40   39.58
  -3   6  -4   49.47   33.41
  -3  -6  -4   40.61   49.27
  -3  -6  -4   67.88   17.67
  -3  -6  -4   47.97   24.73
   3  -6   4   36.19   40.13
   3   6   5  307.27   46.00
   3   6   5  422.13   79.53
  -3   6  -5  315.19   63.64
  -3   6  -5  366.04   50.11
  -3  -6  -5  356.08   63.80
  -3  -6  -5  322.73   46.60
   3  -6   5  347.91   58.31
   3  -6   5  366.45   69.50
   3   6   6 7613.66  443.70
   3   6   6 8932.22  502.42
  -3   6  -6 9014.67  480.34
  -3   6  -6 8044.18  385.11
  -3  -6  -6 9250.74  470.14
  -3  -6  -6 8309.67  339.29
   3  -6   6 8855.35  441.23
   3  -6   6 8497.51  537.36
   3   6   7  352.85   62.97
   3   6   7  469.14   70.40
  -3   6  -7  422.17   63.26
  -3   6  -7  439.84   55.71
  -3  -6  -7  454.62   77.30
  -3  -6  -7  397.49   53.43
   3  -6   7  450.18   68.19
   3  -6   7  441.42   72.84
   3   6   8 3223.46  214.55
   3   6   8 3238.55  230.70
  -3   6  -8 3503.05  244.12
  -3   6  -8 2900.35  205.98
  -3  -6  -8 3367.31  235.50
  -3  -6  -8 3190.87  174.72
   3  -6   8 3226.32  212.82
   3  -6   8 3301.08  257.13
   3   6   9   72.73   67.01
   3   6   9  263.82   74.18
  -3   6  -9  141.81   52.29
  -3   6  -9  142.63   45.98
  -3  -6  -9  116.28   59.58
  -3  -6  -9   91.27   37.63
   3  -6   9   79.03   53.60
   3  -6   9  146.06   62.04
   3   6  10 2757.11  226.95
   3   6  10 2769.47  254.03
  -3   6 -10 2937.44  246.30
  -3   6 -10 2750.53  216.08
  -3  -6 -10 3208.79  225.30
  -3  -6 -10 2903.58  172.04
   3  -6  10 2912.81  239.05
   3  -6  10 3107.88  246.17
   3   6  11  -33.49   54.40
   3   6  11    9.53   75.68
  -3   6 -11   -9.69   50.07
  -3   6 -11   48.44   40.77
  -3  -6 -11  -35.83   61.19
  -3  -6 -11    5.99   30.37
   3  -6  11    5.72   46.55
   3  -6  11   35.19   53.69
   3   6  12 4007.58  264.80
   3   6  12 4649.20  350.80
  -3   6 -12 5129.92  336.78
  -3   6 -12 4461.54  350.10
  -3  -6 -12 5018.90  339.53
  -3  -6 -12 4358.98  268.56
   3  -6  12 4525.22  301.69
   3  -6  12 5001.06  356.27
   3   6  13  -36.48   60.55
   3   6  13  -54.59   61.28
  -3   6 -13   40.71   60.87
  -3   6 -13   30.69   61.58
  -3  -6 -13   -6.66   61.36
  -3  -6 -13    1.53   61.53
   3  -6  13   26.83   60.84
   3  -6  13  -32.25   60.37
   3   6  14  353.19   83.00
   3   6  14  523.64   90.79
  -3   6 -14  464.48   91.20
  -3   6 -14  460.69   78.82
  -3  -6 -14  426.40   80.95
  -3  -6 -14  420.61   62.45
   3  -6  14  424.74   67.24
   3  -6  14  453.34   86.51
   3   6  15  501.29   97.77
   3   6  15  551.66  115.04
  -3   6 -15  642.21  108.25
  -3   6 -15  466.11   79.42
  -3  -6 -15  568.11   97.38
   3  -6  15  470.10  102.89
   3   6  16 1500.02  163.54
   3   6  16 1582.59  192.55
  -3   6 -16 1800.40  171.78
  -3   6 -16 1471.75  152.31
  -3  -6 -16 1722.74  162.94
   3  -6  16 1503.61  161.52
   3   7   0 1064.63  109.78
  -3   7   0 1004.86  114.20
  -3   7   0  974.27   72.46
  -3  -7   0 1131.48   90.11
  -3  -7   0  802.29   71.83
  -3  -7   0  838.18   65.85
   3  -7   0  855.13   92.14
   3  -7   0  975.20   96.39
   3   7   1 4181.46  211.74
   3   7   1 5268.71  315.74
  -3   7  -1 5777.68  318.80
  -3   7  -1 5146.78  267.40
  -3  -7  -1 5580.11  320.74
  -3  -7  -1 4768.47  248.83
  -3  -7  -1 4670.98  226.79
   3  -7   1 5376.31  323.63
   3  -7   1 5428.70  359.30
   3   7   2  -26.06   25.16
   3   7   2   50.28   55.58
  -3   7  -2    9.20   51.84
  -3   7  -2   -8.83   37.14
  -3  -7  -2    6.17   40.60
  -3  -7  -2   21.25   22.83
  -3  -7  -2   20.61   24.88
   3  -7   2   -5.52   42.24
   3  -7   2   -3.62   39.37
   3   7   3  913.30   83.11
   3   7   3 1103.61  103.92
  -3   7  -3 1268.93   99.15
  -3   7  -3 1380.12  108.33
  -3  -7  -3 1323.01  111.20
  -3  -7  -3  982.21   72.93
  -3  -7  -3 1099.78   81.37
   3  -7   3 1318.01  103.64
   3  -7   3 1254.56  109.36
   3   7   4  837.63   75.12
   3   7   4 1094.03  124.97
  -3   7  -4  841.42   91.64
  -3   7  -4 1009.88  103.31
  -3   7  -4 1033.21   85.41
  -3  -7  -4 1080.49  100.71
  -3  -7  -4  889.56   71.55
   3  -7   4 1097.24  103.50
   3   7   5 5155.07  278.03
   3   7   5 6473.39  400.61
  -3   7  -5 6756.19  399.78
  -3   7  -5 6657.66  318.66
  -3  -7  -5 7033.17  405.54
  -3  -7  -5 6046.47  288.90
   3  -7   5 6776.78  368.08
   3  -7   5 6610.74  375.89
   3   7   6   46.13   36.40
   3   7   6  162.39   71.72
  -3   7  -6   22.42   44.96
  -3   7  -6   65.51   49.02
  -3  -7  -6   51.31   47.52
  -3  -7  -6   64.81   32.46
   3  -7   6   79.91   42.44
   3  -7   6  112.16   50.39
   3   7   7  468.08   57.69
   3   7   7  609.58   93.49
  -3   7  -7  672.06   82.15
  -3   7  -7  614.57   71.99
  -3  -7  -7  644.01   89.71
  -3  -7  -7  577.53   54.64
   3  -7   7  664.24   79.00
   3  -7   7  569.01   85.00
   3   7   8 1389.76  133.58
   3   7   8 1456.01  161.04
  -3   7  -8 1763.75  169.97
  -3   7  -8 1637.67  128.07
  -3  -7  -8 1913.53  158.07
  -3  -7  -8 1571.89  110.05
   3  -7   8 1644.79  135.53
   3  -7   8 1817.02  154.59
   3   7   9 3797.51  241.17
   3   7   9 4537.33  322.07
  -3   7  -9 4501.30  307.99
  -3   7  -9 4247.45  324.06
  -3  -7  -9 4615.60  309.02
  -3  -7  -9 4053.78  228.09
   3  -7   9 4655.37  305.11
   3  -7   9 4448.00  316.55
   3   7  10   45.56   40.24
   3   7  10   46.99   40.26
  -3   7 -10   18.02   40.45
  -3   7 -10  -27.32   40.92
  -3  -7 -10  -15.19   40.11
  -3  -7 -10   -0.90   40.61
   3  -7  10  -37.10   41.07
   3  -7  10  -32.38   40.14
   3   7  11  174.53   55.72
   3   7  11  184.60   79.71
  -3   7 -11  183.38   69.96
  -3   7 -11  210.48   59.84
  -3  -7 -11  125.17   60.79
  -3  -7 -11  155.93   47.05
   3  -7  11  173.74   62.30
   3  -7  11  150.02   63.44
   3   7  12  344.02   64.36
   3   7  12  409.45   98.69
  -3   7 -12  415.48   84.28
  -3   7 -12  331.07   70.75
  -3  -7 -12  620.03   89.24
  -3  -7 -12  419.89   68.92
   3  -7  12  407.33   64.50
   3  -7  12  434.85   91.90
   3   7  13 2143.85  138.27
   3   7  13 2695.91  259.77
  -3   7 -13 2926.74  248.90
  -3   7 -13 2475.72  188.71
  -3  -7 -13 3011.50  246.10
   3  -7  13 2605.78  219.67
   3  -7  13 2663.13  246.47
   3   7  14  213.87   67.14
   3   7  14  197.33   79.36
  -3   7 -14  193.42   68.00
  -3  -7 -14  144.09   68.28
   3  -7  14  119.78   57.69
   3  -7  14  182.99   78.91
   3   7  15   56.02   52.60
   3   7  15   45.03   75.10
  -3   7 -15  160.70   70.75
  -3  -7 -15  134.09   52.80
   3  -7  15  290.15  103.58
   3   8   0   41.93   44.06
  -3   8   0   64.00   52.33
  -3   8   0   20.11   43.35
  -3  -8   0   27.88   45.51
  -3  -8   0   -2.50   31.27
  -3  -8   0   20.73   25.95
   3  -8   0  -41.81   43.00
   3  -8   0   40.20   38.85
   3   8   1 2625.81  190.52
  -3   8  -1 3114.58  202.46
  -3   8  -1 2922.42  162.82
  -3  -8  -1 2760.54  205.77
  -3  -8  -1 2391.70  145.91
  -3  -8  -1 2207.42  143.45
   3  -8   1 2850.61  189.98
   3  -8   1 3108.78  214.83
   3   8   2 6062.84  373.83
  -3   8  -2 5768.34  324.18
  -3   8  -2 6126.52  316.65
  -3  -8  -2 5742.19  336.06
  -3  -8  -2 4468.62  244.01
  -3  -8  -2 5000.19  273.52
   3  -8   2 5965.56  327.08
   3  -8   2 6087.63  372.07
   3   8   3  453.68   83.42
  -3   8  -3  488.99   74.72
  -3   8  -3  414.98   63.23
  -3  -8  -3  475.83   66.82
  -3  -8  -3  378.20   47.90
   3  -8   3  519.41   70.88
   3  -8   3  490.49   73.87
   3   8   4  482.61   82.75
  -3   8  -4  605.01   79.83
  -3   8  -4  701.63   71.64
  -3   8  -4  437.83   63.18
  -3  -8  -4  496.74   75.61
  -3  -8  -4  529.30   53.07
   3  -8   4  538.41   77.44
   3   8   5  412.74   54.07
   3   8   5  598.36   87.86
  -3   8  -5  611.20   84.93
  -3   8  -5  395.12   60.98
  -3  -8  -5  563.89   86.57
  -3  -8  -5  436.75   53.41
   3  -8   5  538.81   76.74
   3  -8   5  642.18   80.64
   3   8   6 3638.72  241.64
   3   8   6 4674.47  313.17
  -3   8  -6 5175.71  349.98
  -3   8  -6 4674.32  269.96
  -3  -8  -6 4924.83  293.32
  -3  -8  -6 3989.81  219.35
   3  -8   6 4875.50  320.90
   3  -8   6 5062.78  312.49
   3   8   7  173.05   48.78
   3   8   7  319.44   84.33
  -3   8  -7  242.75   63.12
  -3   8  -7  270.30   59.54
  -3  -8  -7  254.54   63.92
  -3  -8  -7  133.73   36.37
   3  -8   7  257.18   55.00
   3  -8   7  264.57   66.64
   3   8   8  824.62   92.28
   3   8   8  797.17  119.51
  -3   8  -8  953.45  121.92
  -3   8  -8 1160.39  110.24
  -3  -8  -8 1002.36  116.70
  -3  -8  -8  750.92   83.14
   3  -8   8 1092.04  135.20
   3  -8   8  808.98  107.93
   3   8   9  169.72   54.42
   3   8   9  122.13   72.96
  -3   8  -9  337.04   64.84
  -3   8  -9  291.60   61.31
  -3  -8  -9  367.24   65.06
  -3  -8  -9  249.31   45.10
   3  -8   9  308.55   66.64
   3  -8   9  251.58   74.09
   3   8  10 1496.57  134.86
   3   8  10 1923.82  173.42
  -3   8 -10 1903.31  177.05
  -3   8 -10 2001.24  173.39
  -3  -8 -10 2043.83  174.22
   3  -8  10 1933.32  196.61
   3  -8  10 1889.38  180.89
   3   8  11  491.23   89.65
   3   8  11  688.44  101.56
  -3   8 -11  678.90   97.38
  -3   8 -11  481.84   82.14
  -3  -8 -11  534.54   84.30
   3  -8  11  541.23   88.30
   3  -8  11  535.62   93.76
   3   8  12  485.35   78.97
   3   8  12  543.29  101.10
  -3   8 -12  618.83  116.04
  -3   8 -12  569.21   93.55
  -3  -8 -12  556.96   77.28
   3  -8  12  632.43   91.08
   3  -8  12  570.66   94.00
   3   8  13  -51.21   51.72
   3   8  13   44.56   60.36
  -3   8 -13    6.08   53.44
  -3   8 -13   12.93   55.48
  -3  -8 -13   52.91   52.45
   3  -8  13    1.83   48.14
   3  -8  13   21.00   52.68
   3   8  14  341.54   68.43
   3   8  14  377.60   96.06
  -3   8 -14  420.27   98.91
  -3   8 -14  248.25   72.89
  -3  -8 -14  387.00   76.09
   3  -8  14  232.40   85.10
   3  -8  14  463.40  102.74
   3   9   0 1200.75  115.76
  -3   9   0 1338.64  119.68
  -3   9   0 1278.71   99.69
  -3  -9   0 1394.03  134.10
  -3  -9   0 1005.24   89.11
  -3  -9   0 1115.29   81.42
   3  -9   0 1288.60  123.89
   3  -9   0 1389.31  131.22
   3   9   1 1395.80  145.69
  -3   9  -1 1484.87  120.92
  -3   9  -1 1675.48  128.68
  -3  -9  -1 1794.02  166.87
  -3  -9  -1 1291.26   95.76
  -3  -9  -1 1329.80  105.59
   3  -9   1 1749.26  135.90
   3  -9   1 1608.06  150.21
   3   9   2   45.71   49.67
  -3   9  -2   47.03   46.38
  -3   9  -2  -11.73   40.00
  -3  -9  -2  -14.04   58.12
  -3  -9  -2   37.24   30.92
   3  -9   2   12.71   46.90
   3  -9   2  -39.07   41.56
   3   9   3 2917.02  226.93
  -3   9  -3 3042.78  209.06
  -3   9  -3 3489.85  236.95
  -3  -9  -3 3191.52  252.51
  -3  -9  -3 2512.25  163.76
   3  -9   3 3253.81  184.52
   3  -9   3 3037.97  225.91
   3   9   4 1651.20  170.30
  -3   9  -4 1631.93  121.51
  -3   9  -4 1757.88  152.88
  -3  -9  -4 1513.53  139.84
  -3  -9  -4 1370.67  102.57
   3  -9   4 1758.37  147.92
   3   9   5 2541.33  219.47
  -3   9  -5 2965.47  243.00
  -3   9  -5 2550.64  202.77
  -3  -9  -5 2753.96  206.90
  -3  -9  -5 2359.55  165.23
   3  -9   5 2935.11  231.24
   3  -9   5 2713.93  224.35
   3   9   6  175.30   68.86
  -3   9  -6  145.34   56.26
  -3   9  -6  152.85   59.66
  -3  -9  -6  145.20   53.39
  -3  -9  -6   79.91   37.78
   3  -9   6   91.67   54.83
   3  -9   6   68.72   56.91
   3   9   7  535.93   93.39
  -3   9  -7  547.05   85.82
  -3   9  -7  594.40   80.35
  -3  -9  -7  537.47   91.83
   3  -9   7  542.19   84.72
   3  -9   7  454.75   92.35
   3   9   8  249.41   74.91
  -3   9  -8  253.44   66.89
  -3   9  -8  186.05   57.39
  -3  -9  -8  184.99   76.94
   3  -9   8  184.46   58.16
   3  -9   8  202.18   72.94
   3   9   9 1557.97  169.09
  -3   9  -9 1606.60  170.32
  -3   9  -9 1668.24  173.45
  -3  -9  -9 1573.07  164.71
   3  -9   9 1433.26  145.66
   3  -9   9 1557.53  152.92
   3   9  10  179.23   67.93
  -3   9 -10  215.34   68.84
  -3   9 -10  228.48   69.71
  -3  -9 -10  267.05   79.46
   3  -9  10  254.71   63.86
   3  -9  10  193.54   69.28
   3   9  11    8.96   63.81
  -3   9 -11   38.70   67.62
  -3   9 -11    8.03   61.59
  -3  -9 -11  -24.00   47.85
   3  -9  11   56.31   62.56
   3  -9  11   29.95   60.65
   3   9  12   24.02   63.69
  -3   9 -12  326.52   75.55
  -3   9 -12  142.54   64.71
  -3  -9 -12  219.12   70.66
   3  -9  12  224.46   63.87
   3  -9  12  204.02   73.99
  -3   9 -13 1066.01  129.46
  -3  -9 -13 1436.07  176.85
   3  -9  13 1148.62  116.54
   3  -9  13 1061.93  141.69
   3  10   0  388.34   74.86
  -3  10   0  245.45   63.16
  -3  10   0  326.71   63.41
  -3 -10   0  342.40   83.48
  -3 -10   0  257.22   45.90
  -3 -10   0  224.35   44.49
   3 -10   0  328.06   69.16
   3 -10   0  272.34   63.83
   3  10   1 1358.12  133.86
  -3  10  -1 1350.64  131.88
  -3  10  -1 1395.75  123.67
  -3 -10  -1 1524.72  148.66
  -3 -10  -1 1108.79  102.42
   3 -10   1 1434.41  139.26
   3 -10   1 1487.66  143.47
   3  10   2 4645.81  323.00
  -3  10  -2 4784.00  311.72
  -3  10  -2 5194.37  317.89
  -3 -10  -2 4925.39  339.01
   3 -10   2 5410.24  312.16
   3 -10   2 4223.50  309.37
   3  10   3  346.24   88.34
  -3  10  -3  524.87   88.81
  -3  10  -3  445.97   83.78
  -3 -10  -3  454.10   75.88
   3 -10   3  517.12   68.36
   3 -10   3  438.84   68.92
   3  10   4  121.55   66.35
  -3  10  -4  188.55   58.97
  -3  10  -4  189.70   67.15
  -3 -10  -4  232.20   71.62
   3 -10   4   97.82   54.20
   3  10   5  457.13   83.20
  -3  10  -5  682.42  104.12
  -3  10  -5  644.07   90.74
  -3 -10  -5  595.76  103.74
   3 -10   5  678.72   91.50
   3 -10   5  753.56  166.63
   3  10   6 2708.39  240.56
  -3  10  -6 3368.70  249.06
  -3  10  -6 2608.16  256.22
  -3 -10  -6 3037.18  259.81
   3 -10   6 3034.99  237.43
   3 -10   6 2996.92  245.40
   3  10   7 1496.20  172.38
  -3  10  -7 1643.12  160.12
  -3  10  -7 1477.24  153.24
  -3 -10  -7 1452.14  152.83
   3 -10   7 1741.94  195.78
   3 -10   7 1525.06  176.92
   3  10   8  187.78   66.87
  -3  10  -8  476.56   89.81
  -3  10  -8  437.29   86.47
  -3 -10  -8  400.30   79.77
   3 -10   8  374.78   72.56
   3 -10   8  482.30   83.63
   3  10   9  -83.96   54.64
  -3  10  -9  -35.20   55.73
  -3  10  -9  102.40   55.14
  -3 -10  -9   -5.92   54.01
   3 -10   9  -50.91   55.69
   3 -10   9  -23.85   55.24
   3  10  10 1021.52  162.38
  -3  10 -10 1170.59  140.65
  -3  10 -10 1205.75  147.62
  -3 -10 -10 1227.38  139.91
   3 -10  10 1297.15  130.87
   3 -10  10  994.24  121.80
  -3  10 -11  991.75  146.38
  -3  10 -11  834.44  108.76
  -3 -10 -11  863.09  136.07
   3 -10  11  827.32  111.18
   3 -10  11  918.83  111.26
   3  11   0 1622.07  160.43
  -3  11   0 1778.94  167.79
  -3  11   0 1740.69  152.89
  -3 -11   0 1643.50  166.93
   3 -11   0 1720.87  158.28
   3 -11   0 1793.82  168.10
   3  11   1 1371.98  163.21
  -3  11  -1 1506.49  153.04
  -3  11  -1 1454.48  137.35
  -3 -11  -1 1333.95  160.24
   3 -11   1 1552.68  166.28
   3 -11   1 1310.34  140.84
   3  11   2   43.29   58.15
  -3  11  -2   81.73   49.54
  -3  11  -2    9.52   52.88
  -3 -11  -2   41.49   53.40
   3 -11   2  -18.18   44.70
   3 -11   2   87.58   47.01
   3  11   3 1683.79  181.87
  -3  11  -3 1840.96  171.73
  -3  11  -3 1762.95  171.88
  -3 -11  -3 2043.46  193.82
   3 -11   3 1879.86  175.36
   3 -11   3 1831.15  170.46
   3  11   4  353.97   84.45
  -3  11  -4  394.69   75.15
  -3  11  -4  546.93   92.54
  -3 -11  -4  418.76   82.82
   3 -11   4  505.57   91.88
   3  11   5  939.51  129.19
  -3  11  -5 1217.01  133.27
  -3  11  -5  939.77  120.43
  -3 -11  -5 1092.45  127.59
   3 -11   5 1131.98  124.43
   3 -11   5  951.87  123.52
   3  11   6   62.68   63.68
  -3  11  -6   53.05   55.85
  -3  11  -6   41.58   58.58
  -3 -11  -6  -23.15   52.31
   3 -11   6  102.90   61.47
   3 -11   6   79.59   50.51
   3  11   7   96.40   65.31
  -3  11  -7   69.35   47.44
  -3  11  -7   37.02   54.02
  -3 -11  -7   15.21   60.41
   3 -11   7  164.05   61.35
   3 -11   7   63.79   51.91
   3  11   8  443.59   86.81
  -3  11  -8  377.19   83.04
  -3  11  -8  395.99   75.26
  -3 -11  -8  391.99   91.01
   3 -11   8  366.67   72.48
   3 -11   8  385.30   76.23
  -3  11  -9 1886.96  210.51
  -3  11  -9 1735.85  151.23
   3 -11   9 1943.08  182.79
   3 -11   9 1665.57  188.94
   3  12   0   73.87   67.90
  -3  12   0   37.42   41.57
  -3  12   0   53.08   44.64
  -3 -12   0   97.56   58.50
   3 -12   0   88.66   61.29
   3 -12   0   65.50   58.30
   3  12   1    7.57   56.70
  -3  12  -1   30.92   57.38
  -3  12  -1   14.53   52.18
  -3 -12  -1   22.45   51.49
   3 -12   1  -47.33   50.26
   3 -12   1   45.69   54.80
   3  12   2 1152.04  144.94
  -3  12  -2 1099.41  138.06
  -3  12  -2 1274.44  146.96
  -3 -12  -2 1185.59  137.15
   3 -12   2 1338.44  171.20
   3 -12   2 1346.22  160.31
   3  12   3 1054.45  145.51
  -3  12  -3  940.21  120.44
  -3  12  -3 1119.35  137.07
  -3 -12  -3 1145.53  143.02
   3 -12   3 1233.12  142.57
   3 -12   3  961.82  113.17
   3  12   4    4.85   66.28
  -3  12  -4   73.30   53.49
  -3 -12  -4   31.16   56.08
   3 -12   4   11.08   58.77
  -3  12  -5   38.13   53.26
  -3  12  -5   44.96   50.19
   3 -12   5   58.31   52.38
   4   0   0 5759.08  301.48
   4   0   0 6235.11  313.66
   4   0   0 6081.50  311.32
  -4   0   0 5905.36  284.28
   4   0   1  232.66   92.24
   4   0   1  165.93   95.17
   4   0   1  421.42   87.50
  -4   0  -1   42.51   51.88
   4   0   2 6474.14  311.56
   4   0   2 6922.93  345.74
   4   0   2 7493.56  358.26
  -4   0  -2 7155.31  362.86
   4   0   3   48.93   45.94
   4   0   3  122.02   86.96
   4   0   3  145.34   51.56
  -4   0  -3   54.74   54.50
   4   0   4  500.67   56.03
   4   0   4  631.66   67.18
   4   0   4  667.24   76.42
  -4   0  -4  708.48   77.24
   4   0   5   19.56   29.42
   4   0   5   37.56   49.55
  -4   0  -5  -31.27   29.76
  -4   0  -5    0.78   48.28
   4   0   6 7034.20  338.22
   4   0   6 8411.65  411.36
  -4   0  -6 6927.51  323.93
  -4   0  -6 8561.55  434.30
   4   0   7  -80.44   49.27
  -4   0  -7  -24.44   49.43
   4   0   8  127.04   62.25
  -4   0  -8  147.98   54.84
   4   0   9  -10.05   53.10
  -4   0  -9   12.67   43.89
   4   0  10 3661.05  255.03
  -4   0 -10 3707.12  288.81
   4   0  11    7.47   56.44
  -4   0 -11  -97.34   56.71
   4   0  12   92.23   69.63
  -4   0 -12  142.08   63.50
   4   0  13  -60.07   66.13
  -4   0 -13   40.19   66.57
   4   0  14 1044.04  165.10
  -4   0 -14 1199.34  118.91
   4   0  15  -22.72   68.96
   4   1   0  958.34  209.14
   4   1   0  364.00  121.60
   4   1   0  518.94   90.70
   4   1   0  386.71  129.66
  -4   1   0  155.46   71.13
   4  -1   0  695.27  121.16
   4  -1   0  433.54  153.48
   4   1   1  362.95   62.90
   4   1   1  302.67   53.15
   4   1   1  229.97   49.65
  -4   1  -1  340.68   46.49
   4  -1   1  260.88   37.33
   4  -1   1  359.09   54.79
   4  -1   1  281.87   48.57
   4   1   2   51.41   43.85
   4   1   2   12.60   33.34
   4   1   2   62.67   46.82
  -4   1  -2   -9.71   33.99
  -4  -1  -2   64.86   38.21
   4  -1   2    7.14   26.32
   4  -1   2   44.63   39.48
   4  -1   2   53.74   40.30
   4   1   3 7953.65  364.01
   4   1   3 8289.10  444.25
  -4   1  -3 9039.73  412.75
  -4  -1  -3 8052.54  353.45
  -4  -1  -3 8466.01  423.77
   4  -1   3 7547.14  350.48
   4  -1   3 8892.30  410.10
   4  -1   3 8819.77  401.72
   4   1   4   55.17   44.04
   4   1   4   28.88   50.22
  -4   1  -4   68.18   40.71
  -4  -1  -4   31.35   32.71
  -4  -1  -4   48.70   49.01
   4  -1   4   76.21   53.59
   4  -1   4   91.70   48.81
   4   1   5 2493.33  151.43
   4   1   5 2812.80  199.68
  -4   1  -5 2883.81  217.75
  -4  -1  -5 2713.39  144.08
  -4  -1  -5 2966.53  204.22
   4  -1   5 2838.76  164.69
   4  -1   5 3053.52  201.69
   4   1   6  495.58   65.40
  -4   1  -6  531.37   80.56
  -4  -1  -6  439.76   57.52
  -4  -1  -6  564.57   83.81
   4  -1   6  552.29   59.61
   4  -1   6  514.69   77.09
   4   1   7 5471.83  309.76
  -4   1  -7 5697.39  357.79
  -4  -1  -7 4699.77  254.57
  -4  -1  -7 5861.63  365.85
   4  -1   7 4985.37  260.00
   4  -1   7 5510.46  336.60
   4   1   8  -12.34   51.89
  -4   1  -8   96.41   49.19
  -4  -1  -8   45.19   36.14
  -4  -1  -8   36.15   49.82
   4  -1   8   63.51   59.11
   4   1   9 2684.24  206.73
  -4   1  -9 2592.87  218.96
  -4  -1  -9 2731.23  229.95
   4  -1   9 2824.06  199.67
   4   1  10  245.69   73.35
  -4   1 -10  182.57   61.61
  -4  -1 -10  227.51   66.47
   4  -1  10  310.14   75.29
   4   1  11 1538.36  165.26
  -4   1 -11 1440.72  145.54
  -4  -1 -11 1483.45  151.79
   4  -1  11 1361.63  141.24
   4   1  12   82.09   62.85
  -4   1 -12   -2.62   48.88
  -4  -1 -12    4.92   56.76
   4  -1  12   79.71   61.06
   4   1  13 2377.61  209.77
  -4   1 -13 2264.99  185.73
  -4  -1 -13 2371.01  206.73
   4  -1  13 2136.91  213.63
   4   1  14   23.19   63.67
  -4   1 -14   32.08   53.23
  -4  -1 -14  -36.82   49.52
   4  -1  14   -2.95   69.45
   4   1  15   11.79   61.08
   4   2   0 3511.31  204.91
   4   2   0 3373.40  207.58
   4   2   0 3524.13  218.97
   4   2   0 3772.56  215.88
  -4   2   0 3598.15  232.47
  -4   2   0 3469.01  186.40
   4  -2   0 2981.05  168.95
   4  -2   0 3347.32  199.61
   4   2   1  391.30  101.01
   4   2   1  186.38   56.09
   4   2   1  359.57   96.49
   4   2   1  394.49  107.20
  -4   2  -1   80.96   33.94
   4  -2   1  287.74   84.96
   4  -2   1  163.49   50.97
   4   2   2 5159.05  251.60
   4   2   2 5262.00  308.10
   4   2   2 5916.80  357.61
  -4   2  -2 5626.94  299.29
  -4  -2  -2 5221.65  281.50
   4  -2   2 5830.32  292.57
   4  -2   2 5847.94  309.21
   4   2   3  358.81   72.71
   4   2   3  400.06   97.22
   4   2   3  567.94  115.86
  -4   2  -3  272.28   54.01
  -4  -2  -3  271.76   48.50
   4  -2   3  233.88   77.56
   4  -2   3  598.43  110.58
   4   2   4 1280.46   95.46
   4   2   4 1538.21  126.31
  -4   2  -4 1537.67  129.84
  -4  -2  -4 1459.00  108.66
   4  -2   4 1407.73  126.71
   4  -2   4 1623.46  123.17
   4   2   5  232.18   51.97
  -4   2  -5  156.63   61.54
  -4  -2  -5  209.72   43.40
  -4  -2  -5  114.60   51.36
   4  -2   5  199.33   42.00
   4  -2   5  235.16   63.17
   4   2   6 3895.10  244.38
  -4   2  -6 4618.73  303.40
  -4  -2  -6 3917.63  233.82
  -4  -2  -6 3946.46  260.75
   4  -2   6 4027.02  241.96
   4  -2   6 4037.42  249.72
   4   2   7  222.46   63.71
  -4   2  -7  230.98   59.76
  -4  -2  -7  114.91   39.27
  -4  -2  -7  136.48   69.37
   4  -2   7  148.57   38.17
   4  -2   7  276.93   69.06
   4   2   8  216.35   58.42
  -4   2  -8  256.93   60.68
  -4  -2  -8  171.44   43.94
  -4  -2  -8  224.49   60.55
   4  -2   8  214.91   66.67
   4   2   9   48.60   55.54
  -4   2  -9    9.15   52.16
  -4  -2  -9   71.25   45.67
  -4  -2  -9   37.17   51.68
   4  -2   9   69.22   61.44
   4   2  10 3710.11  264.73
  -4   2 -10 4097.68  290.34
  -4  -2 -10 3669.69  211.96
  -4  -2 -10 4187.06  286.40
   4  -2  10 4441.10  296.89
   4   2  11  -10.33   60.16
  -4   2 -11  -21.01   59.98
  -4  -2 -11    3.56   61.08
   4  -2  11  -39.47   60.46
   4   2  12  541.02   88.83
  -4   2 -12  516.99   92.82
  -4  -2 -12  380.67   81.01
   4  -2  12  434.17   95.54
   4   2  13   -8.64   63.04
  -4   2 -13   47.80   55.04
  -4  -2 -13  -16.90   56.25
   4  -2  13  130.36   57.29
   4   2  14 2397.26  220.26
  -4   2 -14 2390.41  229.84
  -4  -2 -14 2486.75  206.35
   4  -2  14 2398.52  259.03
   4   2  15   32.08   69.44
   4   3   0  398.20  111.76
   4   3   0 1061.32  179.25
   4   3   0  761.71  204.47
  -4   3   0  251.70   55.15
  -4   3   0  177.93   50.46
   4  -3   0  541.86  165.98
   4   3   1  171.59   38.44
   4   3   1  192.66   54.53
   4   3   1  193.13   45.58
  -4   3  -1  211.08   54.67
  -4   3  -1  176.42   41.45
  -4  -3  -1  213.76   52.66
   4  -3   1  191.19   50.97
   4   3   2  161.49   32.58
   4   3   2  213.82   51.75
   4   3   2  159.38   51.33
  -4   3  -2  159.37   42.28
  -4  -3  -2  221.10   54.09
   4  -3   2  282.79   54.04
   4  -3   2  198.67   53.28
   4   3   3 5684.39  281.70
   4   3   3 6257.69  335.61
   4   3   3 6774.87  363.58
  -4   3  -3 6724.27  354.63
  -4  -3  -3 6644.62  363.91
   4  -3   3 6254.54  351.94
   4  -3   3 6832.20  349.36
   4   3   4  684.05  128.83
   4   3   4  642.68   89.55
  -4   3  -4  637.69   83.42
  -4  -3  -4  454.58   63.09
   4  -3   4  610.00   74.78
   4  -3   4  586.72   83.77
   4   3   5  222.37   60.00
   4   3   5  302.81   72.63
  -4   3  -5  312.84   60.76
  -4  -3  -5  236.44   48.79
   4  -3   5  275.10   47.83
   4  -3   5  310.22   68.33
   4   3   6  136.21   62.28
   4   3   6   70.13   58.56
  -4   3  -6  119.25   46.59
  -4  -3  -6   52.98   40.97
   4  -3   6  125.57   39.29
   4  -3   6   65.74   51.59
   4   3   7 1802.26  158.67
   4   3   7 1948.53  174.73
  -4   3  -7 1975.86  175.65
  -4  -3  -7 1812.89  139.95
   4  -3   7 1828.46  142.04
   4  -3   7 2028.94  182.40
   4   3   8  281.99   72.53
  -4   3  -8  238.44   66.23
  -4  -3  -8  195.66   54.95
   4  -3   8  248.56   54.77
   4  -3   8  248.95   64.46
   4   3   9 2759.63  233.40
  -4   3  -9 3025.45  232.65
  -4  -3  -9 2610.03  163.35
   4  -3   9 2835.43  221.78
   4   3  10  171.04   59.14
  -4   3 -10   48.47   60.28
  -4  -3 -10   33.41   46.38
  -4  -3 -10   59.53   53.77
   4  -3  10  165.38   66.17
   4   3  11  452.33   84.19
  -4   3 -11  455.14   69.75
  -4  -3 -11  405.29   63.21
  -4  -3 -11  395.48   79.36
   4  -3  11  393.64   63.13
   4   3  12  -25.94   58.59
  -4   3 -12   -4.81   53.24
  -4  -3 -12   -5.89   55.63
   4  -3  12   71.50   60.04
   4   3  13 1080.38  120.04
  -4   3 -13 1306.54  187.15
  -4  -3 -13 1171.28  137.45
   4  -3  13 1165.62  140.66
   4   3  14   24.60   63.71
  -4   3 -14    4.54   53.82
  -4  -3 -14   57.00   66.37
   4  -3  14   95.24   57.14
   4   4   0 3303.54  201.02
   4   4   0 4297.83  249.53
  -4   4   0 4083.42  263.70
  -4   4   0 3922.01  212.51
  -4  -4   0 4111.05  247.85
   4  -4   0 3718.40  207.39
   4   4   1  327.47   59.53
   4   4   1  480.38   92.60
   4   4   1  309.31   98.68
  -4   4  -1  384.57   73.46
  -4   4  -1  223.79   45.77
  -4  -4  -1  323.10   83.74
   4  -4   1  295.36   81.80
   4   4   2 5255.38  314.74
   4   4   2 5378.73  311.98
   4   4   2 6492.41  356.74
  -4   4  -2 6276.06  373.63
  -4   4  -2 6275.15  309.68
  -4  -4  -2 6102.24  347.82
   4  -4   2 6230.07  348.01
   4   4   3  397.61  107.05
   4   4   3  244.90   92.36
  -4   4  -3  232.99   48.95
  -4  -4  -3  206.22   55.12
   4  -4   3  201.17   79.01
   4  -4   3  162.13   61.22
   4   4   4  767.10   88.97
   4   4   4  826.83   90.67
  -4   4  -4  896.40   80.04
  -4  -4  -4  940.90   91.63
   4  -4   4  853.39   99.46
   4  -4   4  814.85   91.52
   4   4   5  723.12   90.77
   4   4   5  953.43  107.71
  -4   4  -5  744.54   96.15
  -4  -4  -5  744.21   89.05
   4  -4   5  922.76   90.51
   4  -4   5  867.18   95.23
   4   4   6 5992.66  330.16
   4   4   6 6868.06  431.56
  -4   4  -6 6684.78  423.82
  -4  -4  -6 6458.52  375.13
   4  -4   6 6272.72  368.19
   4  -4   6 6823.19  378.82
   4   4   7  326.52   55.43
   4   4   7  267.84   64.92
  -4   4  -7  266.02   70.37
  -4  -4  -7  281.93   62.69
   4  -4   7  278.69   48.19
   4  -4   7  244.97   79.26
   4   4   8    6.59   53.79
   4   4   8   26.63   54.24
  -4   4  -8    4.69   52.83
  -4  -4  -8  -15.26   53.72
   4  -4   8    8.68   54.95
   4  -4   8  -72.03   53.57
   4   4   9   60.23   50.71
   4   4   9   38.93   48.26
  -4   4  -9   72.14   59.62
  -4  -4  -9   78.02   49.32
   4  -4   9   76.87   48.13
   4  -4   9   37.48   64.90
   4   4  10 2556.67  211.47
   4   4  10 2742.11  243.21
  -4   4 -10 2896.20  243.21
  -4  -4 -10 2502.99  171.85
   4  -4  10 2450.83  234.62
   4   4  11  104.46   54.37
   4   4  11   -1.87   67.15
  -4   4 -11   86.85   66.95
  -4  -4 -11   33.44   50.37
   4  -4  11   54.06   68.56
   4   4  12  133.14   66.13
   4   4  12  131.34   75.38
  -4   4 -12  110.36   57.18
  -4  -4 -12   78.82   56.50
   4  -4  12   12.73   65.81
   4   4  13    4.33   61.48
  -4   4 -13   -9.51   60.88
  -4  -4 -13   24.25   62.82
   4  -4  13  -51.37   61.21
   4   4  14  579.13  105.16
   4   5   0  766.19  163.88
  -4   5   0  372.59   67.72
  -4   5   0  326.88   62.03
  -4  -5   0  669.52  127.31
  -4  -5   0  351.63   76.21
   4  -5   0  622.35  166.90
   4   5   1   13.54   34.89
   4   5   1   33.21   61.54
  -4   5  -1  -13.29   46.65
  -4   5  -1   28.72   32.52
  -4  -5  -1  -34.83   55.66
   4  -5   1  -18.43   48.01
   4   5   2  -24.36   35.63
   4   5   2   61.28   35.08
  -4   5  -2   -1.46   34.82
  -4   5  -2  -42.59   34.69
  -4  -5  -2  -33.45   35.04
   4  -5   2  -23.17   34.97
   4   5   3 3601.27  244.86
   4   5   3 4641.39  319.96
  -4   5  -3 4266.19  306.87
  -4  -5  -3 4433.87  312.97
   4  -5   3 4021.20  251.16
   4  -5   3 4823.94  298.33
   4   5   4   63.15   64.17
   4   5   4  247.23   66.58
  -4   5  -4  125.60   62.19
  -4  -5  -4  213.48   56.86
   4  -5   4   74.98   48.19
   4  -5   4  193.21   68.55
   4   5   5 1346.18  108.48
   4   5   5 1584.11  153.03
  -4   5  -5 1577.06  134.34
  -4  -5  -5 1325.75  129.13
   4  -5   5 1562.60  130.67
   4  -5   5 1552.56  145.12
   4   5   6   89.83   38.93
   4   5   6   92.81   60.09
  -4   5  -6   64.29   58.10
  -4  -5  -6   35.09   51.62
   4  -5   6  107.38   49.65
   4  -5   6   36.56   67.26
   4   5   7 1828.92  153.35
   4   5   7 1769.69  167.09
  -4   5  -7 2354.46  188.06
  -4  -5  -7 2154.51  165.41
   4  -5   7 1959.42  174.82
   4  -5   7 2001.38  199.54
   4   5   8  376.23   63.28
   4   5   8  351.50   85.03
  -4   5  -8  505.46   74.52
  -4  -5  -8  494.32   84.73
   4  -5   8  425.36   68.90
   4  -5   8  438.24   72.17
   4   5   9  569.59   86.60
   4   5   9  622.27  105.25
  -4   5  -9  769.63  106.21
  -4  -5  -9  603.13   92.48
   4  -5   9  733.84   87.59
   4  -5   9  829.71  112.66
   4   5  10    4.97   47.54
   4   5  10   42.45   62.21
  -4   5 -10   24.32   54.96
  -4  -5 -10  102.55   52.85
   4  -5  10   72.34   57.77
   4   5  11  550.00   83.37
   4   5  11  699.71   95.52
  -4   5 -11  572.72   94.20
  -4  -5 -11  598.44   82.70
   4  -5  11  504.77   84.88
   4   5  12  293.23   63.11
   4   5  12  268.19   87.82
  -4   5 -12  312.17   75.03
  -4  -5 -12  228.48   68.95
   4  -5  12  325.67   76.21
   4   5  13 1509.94  142.99
  -4   5 -13 1762.45  204.47
  -4  -5 -13 1780.78  159.79
   4   6   0 1889.47  166.96
  -4   6   0 1765.32  175.89
  -4   6   0 1780.77  144.79
  -4  -6   0 1869.65  165.00
  -4  -6   0 1424.65  112.62
   4  -6   0 1800.64  148.27
   4   6   1 1386.38  147.53
  -4   6  -1 1413.63  133.52
  -4   6  -1 1177.30  101.48
  -4  -6  -1 1430.19  142.95
   4  -6   1 1411.23  141.02
   4   6   2 3898.37  273.88
  -4   6  -2 3962.06  277.23
  -4   6  -2 3449.31  228.92
  -4  -6  -2 3882.59  279.97
   4  -6   2 3423.74  219.15
   4   6   3  272.87   96.94
  -4   6  -3  -15.50   40.12
  -4  -6  -3   94.42   65.37
   4  -6   3   31.37   47.69
   4   6   4  363.62   78.71
  -4   6  -4  349.62   66.31
  -4  -6  -4  360.38   72.69
   4  -6   4  286.23   71.52
   4  -6   4  542.01   81.22
   4   6   5  310.91   77.18
  -4   6  -5  351.77   70.27
  -4  -6  -5  541.97   86.78
   4  -6   5  450.95   71.92
   4  -6   5  393.52   81.44
   4   6   6 3862.44  258.60
   4   6   6 5144.18  345.59
  -4   6  -6 5439.21  328.20
  -4  -6  -6 4730.07  322.29
   4  -6   6 4836.50  299.65
   4  -6   6 4979.09  349.75
   4   6   7   76.65   53.46
   4   6   7  104.51   62.20
  -4   6  -7  159.10   58.33
  -4  -6  -7  165.92   69.82
   4  -6   7  133.17   54.48
   4  -6   7  153.03   79.61
   4   6   8   11.12   42.56
   4   6   8   53.88   67.99
  -4   6  -8   -7.59   45.17
  -4  -6  -8  104.85   70.13
   4  -6   8  103.65   44.33
   4  -6   8  112.29   68.76
   4   6   9  557.66   86.00
   4   6   9  496.81  102.30
  -4   6  -9  588.08   88.48
  -4  -6  -9  579.71   96.58
   4  -6   9  452.50   74.80
   4  -6   9  670.74   99.91
   4   6  10 2776.16  209.53
   4   6  10 3375.15  312.70
  -4   6 -10 3485.12  260.19
  -4  -6 -10 3401.45  237.72
   4  -6  10 3079.97  220.51
   4  -6  10 3651.91  261.45
   4   6  11   82.63   62.57
   4   6  11  322.96   68.85
  -4   6 -11  380.57   82.61
  -4  -6 -11  250.10   75.53
   4  -6  11  285.10   74.48
   4   6  12  -35.09   50.60
  -4   6 -12   52.84   69.10
  -4  -6 -12   40.19   55.24
   4   7   0  862.15  153.04
  -4   7   0  944.51  120.43
  -4   7   0  435.86   60.29
  -4  -7   0 1012.12  150.06
   4  -7   0  562.52  120.21
   4   7   1  400.12   72.77
  -4   7  -1  316.36   68.58
  -4   7  -1  219.97   50.88
  -4  -7  -1  327.30   72.77
   4  -7   1  218.99   58.34
   4   7   2  424.45   92.11
  -4   7  -2  464.22   79.24
  -4   7  -2  333.15   63.22
  -4  -7  -2  412.72   90.40
   4  -7   2  346.23   70.16
   4   7   3 4662.96  350.11
  -4   7  -3 4591.78  306.84
  -4   7  -3 4564.12  284.54
  -4  -7  -3 4261.91  296.68
   4  -7   3 4498.61  283.33
   4   7   4  635.93  105.52
  -4   7  -4  595.23   91.93
  -4  -7  -4  503.64   91.16
   4  -7   4  528.93   83.37
   4  -7   4  557.98  106.18
   4   7   5  537.09   98.42
  -4   7  -5  692.41   93.70
  -4  -7  -5  553.86   93.47
   4  -7   5  570.16   79.99
   4  -7   5  728.42  115.01
   4   7   6   71.92   83.38
  -4   7  -6  113.69   66.29
  -4  -7  -6  103.03   60.97
   4  -7   6   56.35   55.57
   4  -7   6   95.80   61.94
   4   7   7 2648.95  223.30
  -4   7  -7 2688.32  216.26
  -4  -7  -7 2481.94  203.09
   4  -7   7 2586.19  190.80
   4  -7   7 2695.68  218.53
   4   7   8   -9.40   65.83
  -4   7  -8  -99.06   65.30
  -4  -7  -8  104.25   65.36
   4  -7   8  -39.34   66.78
   4  -7   8   56.45   65.01
   4   7   9 2130.93  193.35
  -4   7  -9 2486.23  236.53
  -4  -7  -9 2563.91  213.27
   4  -7   9 1884.31  186.82
   4  -7   9 2597.79  201.04
   4   7  10  191.17   79.92
  -4   7 -10  358.16   85.15
  -4  -7 -10  231.85   66.24
   4  -7  10  245.19   60.91
   4  -7  10  143.01   79.57
  -4   7 -11  444.33   85.64
  -4  -7 -11  432.90   88.78
   4   8   0 1246.81  137.82
  -4   8   0 1430.43  128.37
  -4   8   0 1157.11   96.19
  -4  -8   0 1399.80  148.35
   4  -8   0 1168.98  133.20
   4   8   1  320.09   88.19
  -4   8  -1  136.09   56.45
  -4   8  -1  191.98   48.79
  -4  -8  -1  244.29   71.82
   4  -8   1  214.30   55.76
   4   8   2 3000.39  259.91
  -4   8  -2 3093.19  231.65
  -4   8  -2 3207.21  216.07
  -4  -8  -2 3278.40  277.30
   4  -8   2 3189.00  256.47
   4   8   3  125.59   81.88
  -4   8  -3  -17.33   50.56
  -4   8  -3   11.78   52.42
  -4  -8  -3  143.46   62.73
   4  -8   3   62.29   51.33
   4   8   4  266.57   75.80
  -4   8  -4  352.55   67.68
  -4  -8  -4  261.58   59.24
   4  -8   4  322.29   73.32
   4  -8   4  189.53   73.86
   4   8   5  368.78   85.48
  -4   8  -5  405.19   77.28
  -4  -8  -5  393.83   72.00
   4  -8   5  432.85   79.33
   4  -8   5  372.59   80.90
   4   8   6 1382.85  153.70
  -4   8  -6 1625.69  162.48
  -4  -8  -6 1348.64  149.27
   4  -8   6 1468.54  140.97
   4  -8   6 1436.58  144.16
   4   8   7   50.38   62.54
  -4   8  -7  106.70   61.50
  -4  -8  -7  -44.20   58.94
   4  -8   7   52.98   52.94
   4  -8   7  142.70   67.35
   4   8   8  -54.85   68.90
  -4   8  -8    4.42   68.99
  -4  -8  -8   28.14   68.35
   4  -8   8   55.14   69.86
   4  -8   8  -41.88   68.21
  -4   8  -9    3.52   62.90
  -4  -8  -9   67.63   59.10
   4  -8   9    7.26   42.49
   4  -8   9   56.36   68.89
   4   9   0  170.86  107.17
  -4   9   0  103.51   57.38
  -4  -9   0  316.68   96.08
   4  -9   0  110.04   72.54
   4   9   1   53.44   66.01
  -4   9  -1  160.36   67.29
  -4   9  -1   37.18   41.31
  -4  -9  -1   46.77   59.08
   4  -9   1  153.36   53.02
   4   9   2  599.90  104.23
  -4   9  -2  719.22   98.64
  -4   9  -2  641.50   75.75
  -4  -9  -2  625.04  106.78
   4  -9   2  571.43   89.84
   4   9   3 2222.82  221.55
  -4   9  -3 2243.02  226.97
  -4   9  -3 2420.31  187.82
  -4  -9  -3 2319.97  218.41
   4  -9   3 2151.51  206.45
   4   9   4  166.78   86.73
  -4   9  -4  170.64   67.67
  -4  -9  -4  181.84   68.25
   4  -9   4  177.60   54.29
   4  -9   4  262.95   81.53
   4   9   5  737.95  124.07
  -4   9  -5  609.83   97.95
  -4  -9  -5  595.95   91.74
   4  -9   5  629.60   85.45
   4  -9   5  716.22  106.01
   4   9   6   65.44   72.14
  -4   9  -6  -45.71   57.30
  -4  -9  -6    7.17   57.08
   4  -9   6   28.99   62.53
   4  -9   6   33.25   60.34
  -4   9  -7  715.80   97.37
  -4  -9  -7  656.16  100.67
   4  -9   7  682.58   99.65
   4  -9   7  567.51  111.03
   4  10   0 1213.38  138.88
  -4  10   0 1291.30  144.63
  -4 -10   0 1064.26  144.39
   4 -10   0 1193.84  152.21
   4  10   1  472.95   96.77
  -4  10  -1  468.68   87.58
  -4 -10  -1  586.79   98.32
   4 -10   1  457.23   99.98
   4  10   2  364.36   91.35
  -4  10  -2  557.18   88.57
  -4  10  -2  494.31   79.56
  -4 -10  -2  641.56   94.05
   4 -10   2  464.76   74.92
   4  10   3    7.03   61.66
  -4  10  -3  105.59   51.61
  -4  10  -3   38.41   53.15
  -4 -10  -3   33.48   69.78
   4 -10   3  123.95   62.74
  -4  10  -4  321.29   70.67
   4 -10   4  298.80   72.58
   5   0   0 3243.45  224.40
   5   0   0 3097.83  215.74
   5   0   0 3466.55  246.30
   5   0   1  393.83  101.59
   5   0   1  759.92  136.36
   5   0   1  628.39  127.05
   5   0   2 1079.28  112.75
   5   0   2 1016.06  132.72
   5   0   3  112.65   65.24
  -5   0  -3   29.66   50.61
   5   0   4 4499.57  280.59
  -5   0  -4 4964.49  311.66
   5   0   5   90.37   92.42
  -5   0  -5  -23.89   53.05
   5   0   6 2245.45  182.36
  -5   0  -6 2126.49  186.64
   5   0   7   98.32   65.97
  -5   0  -7   32.53   61.61
   5   0   8  931.71  124.99
  -5   0  -8  931.46  121.64
   5   0   9  -45.61   66.43
  -5   0  -9    2.05   66.23
   5   1   0  607.71  104.23
   5   1   0  636.37   78.23
   5   1   0  741.33  107.84
   5  -1   0  588.37  113.51
   5  -1   0  828.21  117.25
   5  -1   0  654.39  100.86
   5   1   1  708.73   85.53
   5   1   1  824.17  102.82
  -5   1  -1  805.64   84.97
   5  -1   1  699.53   97.01
   5  -1   1  680.36   86.38
   5   1   2  115.31   54.01
   5   1   2   23.56   62.23
  -5   1  -2  118.26   41.20
   5  -1   2   38.84   48.27
   5  -1   2  152.00   73.48
   5   1   3 2476.26  212.64
   5   1   3 2962.62  222.81
  -5   1  -3 2615.60  197.35
   5  -1   3 2784.01  231.21
   5   1   4  339.92  106.07
   5   1   4  229.57   87.94
  -5   1  -4   62.77   48.47
   5  -1   4  145.59   86.22
   5   1   5   98.16   52.13
   5   1   5   84.70   62.87
  -5   1  -5  158.49   58.35
   5  -1   5  170.90   68.16
   5   1   6  363.52   84.82
  -5   1  -6  460.55   81.57
   5  -1   6  463.58   89.62
   5   1   7 2010.84  198.21
  -5   1  -7 1930.47  188.11
  -5  -1  -7 1757.09  159.31
   5  -1   7 1838.20  190.75
   5   1   8  -74.50   52.64
  -5   1  -8  -60.82   52.29
  -5  -1  -8   16.49   52.83
   5  -1   8  -81.83   52.84
   5   1   9  -13.98   62.81
  -5   1  -9   62.54   53.61
  -5  -1  -9   26.75   53.49
   5  -1   9  120.59   71.67
   5   2   0 3211.09  223.21
   5   2   0 3301.99  258.81
   5   2   0 3898.78  272.88
  -5   2   0 3449.43  231.94
   5  -2   0 3295.78  235.04
   5  -2   0 3936.08  274.14
   5   2   1  879.05  124.79
   5   2   1  755.22  123.72
  -5   2  -1  239.88   74.88
   5  -2   1  537.09  125.44
   5  -2   1  682.22  142.41
   5   2   2  439.36   82.87
   5   2   2  556.92   78.48
  -5   2  -2  590.93   74.27
   5  -2   2  686.09   88.83
   5  -2   2  582.29   93.27
   5   2   3   57.32   48.18
   5   2   3   50.87   55.02
  -5   2  -3  102.73   48.18
   5  -2   3   52.69   34.34
   5  -2   3  120.20   65.41
   5   2   4  806.82  103.15
   5   2   4  893.46  107.91
  -5   2  -4  928.03   99.32
   5  -2   4  875.84  105.92
   5   2   5   92.50   55.37
   5   2   5   38.80   63.42
  -5   2  -5  132.40   53.59
   5  -2   5   93.29   69.31
   5   2   6  801.66   98.67
   5   2   6  889.61  110.06
  -5   2  -6  851.99  109.94
   5  -2   6  856.78  112.09
   5   2   7  -23.89   52.19
   5   2   7   65.15   64.92
  -5   2  -7   69.49   53.74
   5  -2   7   59.21   67.14
   5   2   8  452.88   87.49
   5   2   8  862.52  125.74
  -5   2  -8  746.08   98.81
   5  -2   8  816.75  103.34
   5   2   9  142.74   53.80
   5   3   0  506.42  109.39
   5   3   0  622.16  112.02
   5  -3   0  375.57   96.66
   5  -3   0  601.56  102.49
   5   3   1  493.17   81.74
   5   3   1  495.76   88.13
  -5   3  -1  424.92   59.04
   5  -3   1  513.30   72.78
   5  -3   1  463.58   79.78
   5   3   2   77.11   61.35
   5   3   2   72.61   57.54
  -5   3  -2   93.50   46.33
   5  -3   2   46.64   47.76
   5  -3   2  203.40   71.52
   5   3   3 2307.34  189.60
   5   3   3 2744.08  227.78
  -5   3  -3 2612.14  195.36
   5  -3   3 2477.39  193.38
   5  -3   3 3013.86  248.32
   5   3   4  256.85   87.42
   5   3   4  249.25   90.75
  -5   3  -4   55.95   51.01
   5  -3   4  439.51  109.16
   5   3   5   62.99   49.02
   5   3   5   80.35   68.93
  -5   3  -5   15.15   52.21
   5  -3   5  198.81   77.59
   5   3   6  107.46   59.00
   5   3   6   89.71   71.24
  -5   3  -6   40.87   45.41
   5  -3   6  116.39   71.38
   5   3   7 1587.57  157.49
   5   3   7 1984.85  195.42
  -5   3  -7 1745.72  150.06
   5  -3   7 2040.73  192.36
   5   3   8   42.99   56.85
   5   3   8  -28.86   57.22
  -5   3  -8  -70.11   55.77
   5   4   0 2171.51  203.69
   5   4   0 2283.07  198.57
   5  -4   0 2010.81  180.65
   5  -4   0 2309.40  207.40
   5   4   1  670.70  125.22
   5   4   1  706.47  114.17
   5  -4   1  469.98  102.22
   5  -4   1  607.71  122.39
   5   4   2   64.96   59.51
   5   4   2  265.76   77.09
  -5   4  -2  142.65   47.36
   5  -4   2  137.72   58.51
   5  -4   2  136.52   60.85
   5   4   3   78.92   47.94
   5   4   3   72.25   64.23
  -5   4  -3   73.68   36.93
   5  -4   3   28.74   44.11
   5  -4   3  138.73   70.68
   5   4   4 1604.78  164.74
  -5   4  -4 1599.29  122.10
  -5  -4  -4 1285.80  122.02
   5  -4   4 1188.85  114.36
   5  -4   4 1415.08  156.63
   5   4   5  106.75   65.93
  -5   4  -5  157.18   60.46
   5  -4   5  147.56   82.86
   5   4   6  928.34  126.69
  -5   4  -6  895.79  102.56
   5  -4   6  781.22  112.29
   5   4   7   19.01   56.44
  -5   4  -7  -46.75   54.81
   5   5   0  441.74  119.01
   5   5   0  496.59  100.97
   5  -5   0  266.06  105.44
   5   5   1  172.82   73.15
   5   5   1  238.60   55.83
   5  -5   1  188.89   66.38
   5  -5   1  127.25   72.54
   5   5   2  260.47   77.72
   5   5   2  399.94   81.76
   5  -5   2  293.04   61.25
   5  -5   2  274.45   80.97
   5   5   3 2512.25  227.04
  -5   5  -3 2502.55  189.78
  -5  -5  -3 2251.41  168.14
   5  -5   3 2583.09  195.59
   5  -5   3 2308.85  226.36
   5   5   4  383.96  101.65
  -5   5  -4   93.34   50.47
  -5  -5  -4  150.50   72.75
   5  -5   4   79.16   54.65
   5  -5   4  237.63   93.82
   5   5   5   98.65   70.79
  -5   5  -5   93.46   46.24
  -5  -5  -5   91.34   54.47
   5  -5   5   58.28   49.15
   5  -5   5  126.97   86.21
   5   5   6  126.23   91.42
  -5   5  -6  131.48   50.20
   5   6   0 2113.96  198.71
   5   6   0 1992.11  176.56
  -5   6   0 2358.67  193.49
   5  -6   0 2435.16  201.64
   5   6   1  660.12  125.33
   5   6   1  693.24  118.65
   5  -6   1  211.96   94.60
   5  -6   1  496.73  128.44
   5   6   2  631.60  111.75
  -5  -6  -2  537.41   79.99
   5  -6   2  647.05  100.35
   5  -6   2  602.47  123.51
   5   6   3   19.64   64.67
  -5  -6  -3   56.79   48.94
   5  -6   3   20.84   54.50
   5   6   4 1312.12  144.27
  -5   6  -4 1238.47  118.30
  -5  -6  -4 1132.57  109.18
   5  -6   4 1147.70  134.66
   5  -7   0  169.13   85.62

;
_shelx_hkl_checksum              7793
loop_
_space_group_symop_operation_xyz
'x, y, z'
'-x, y+1/2, -z+1/2'
'-x, -y, -z'
'x, -y-1/2, z-1/2'
loop_
_atom_site_label
_atom_site_type_symbol
_atom_site_fract_x
_atom_site_fract_y
_atom_site_fract_z
_atom_site_U_iso_or_equiv
_atom_site_adp_type
_atom_site_occupancy
_atom_site_site_symmetry_order
_atom_site_calc_flag
_atom_site_refinement_flags_posn
_atom_site_refinement_flags_adp
_atom_site_refinement_flags_occupancy
_atom_site_disorder_assembly
_atom_site_disorder_group
Br1 Br 0.09141(6) 0.50842(2) 0.36142(2) 0.02511(12) Uani 1 1 d . . . . .
N1 N 0.1403(7) 0.3140(2) 0.16950(15) 0.0382(5) Uani 1 1 d . . . . .
C1 C 0.3447(6) 0.2584(2) 0.31966(14) 0.0228(4) Uani 1 1 d . . . . .
C2 C 0.2987(6) 0.3442(2) 0.38390(14) 0.0220(4) Uani 1 1 d . . . . .
C3 C 0.4087(6) 0.3125(2) 0.46394(15) 0.0259(5) Uani 1 1 d . . . . .
H3 H 0.3724 0.3709 0.5073 0.031 Uiso 1 1 calc R U . . .
C4 C 0.5734(7) 0.1939(3) 0.48031(16) 0.0271(5) Uani 1 1 d . . . . .
H4 H 0.6536 0.1721 0.5351 0.032 Uiso 1 1 calc R U . . .
C5 C 0.6214(6) 0.1071(3) 0.41706(15) 0.0277(5) Uani 1 1 d . . . . .
H5 H 0.7328 0.0262 0.4288 0.033 Uiso 1 1 calc R U . . .
C6 C 0.5066(7) 0.1386(2) 0.33695(15) 0.0263(5) Uani 1 1 d . . . . .
H6 H 0.5376 0.0791 0.2938 0.032 Uiso 1 1 calc R U . . .
C7 C 0.2295(6) 0.2906(2) 0.23514(15) 0.0269(5) Uani 1 1 d . . . . .
loop_
_atom_site_aniso_label
_atom_site_aniso_U_11
_atom_site_aniso_U_22
_atom_site_aniso_U_33
_atom_site_aniso_U_23
_atom_site_aniso_U_13
_atom_site_aniso_U_12
Br1 0.02618(18) 0.01983(16) 0.02953(18) -0.00006(7) 0.00361(11) 0.00134(7)
N1 0.0520(15) 0.0295(12) 0.0323(11) -0.0003(9) -0.0007(10) -0.0075(11)
C1 0.0244(10) 0.0192(10) 0.0249(10) -0.0012(8) 0.0027(8) -0.0023(8)
C2 0.0226(10) 0.0169(9) 0.0268(11) 0.0003(8) 0.0032(8) -0.0019(8)
C3 0.0291(12) 0.0233(11) 0.0253(11) -0.0016(8) 0.0030(9) -0.0030(9)
C4 0.0283(12) 0.0258(12) 0.0266(11) 0.0037(9) -0.0001(9) -0.0019(9)
C5 0.0277(12) 0.0217(11) 0.0338(12) 0.0038(9) 0.0034(9) 0.0003(9)
C6 0.0286(12) 0.0210(11) 0.0299(12) -0.0015(9) 0.0058(9) -0.0002(9)
C7 0.0316(12) 0.0179(10) 0.0313(12) -0.0023(8) 0.0038(9) -0.0047(9)
loop_
_atom_type_symbol
_atom_type_description
_atom_type_scat_dispersion_real
_atom_type_scat_dispersion_imag
_atom_type_scat_source
C C 0.0033 0.0016 'International Tables Vol C Tables 4.2.6.8 and 6.1.1.4'
H H 0.0000 0.0000 'International Tables Vol C Tables 4.2.6.8 and 6.1.1.4'
Br Br -0.2901 2.4595 'International Tables Vol C Tables 4.2.6.8 and 6.1.1.4'
N N 0.0061 0.0033 'International Tables Vol C Tables 4.2.6.8 and 6.1.1.4'
loop_
_geom_angle_atom_site_label_1
_geom_angle_atom_site_label_2
_geom_angle_atom_site_label_3
_geom_angle
_geom_angle_site_symmetry_1
_geom_angle_site_symmetry_3
_geom_angle_publ_flag
C2 C1 C6 119.2(2) . . ?
C2 C1 C7 121.6(2) . . ?
C6 C1 C7 119.2(2) . . ?
C3 C2 C1 121.0(2) . . ?
C3 C2 Br1 119.10(17) . . ?
C1 C2 Br1 119.85(17) . . ?
C2 C3 C4 119.3(2) . . ?
C2 C3 H3 120.4 . . ?
C4 C3 H3 120.4 . . ?
C5 C4 C3 120.5(2) . . ?
C5 C4 H4 119.7 . . ?
C3 C4 H4 119.7 . . ?
C6 C5 C4 120.0(2) . . ?
C6 C5 H5 120.0 . . ?
C4 C5 H5 120.0 . . ?
C5 C6 C1 119.9(2) . . ?
C5 C6 H6 120.0 . . ?
C1 C6 H6 120.0 . . ?
N1 C7 C1 179.2(3) . . ?
loop_
_geom_bond_atom_site_label_1
_geom_bond_atom_site_label_2
_geom_bond_distance
_geom_bond_site_symmetry_2
_geom_bond_publ_flag
Br1 C2 1.895(2) . ?
N1 C7 1.126(3) . ?
C1 C2 1.396(3) . ?
C1 C6 1.403(3) . ?
C1 C7 1.455(3) . ?
C2 C3 1.382(3) . ?
C3 C4 1.394(3) . ?
C3 H3 0.9500 . ?
C4 C5 1.393(4) . ?
C4 H4 0.9500 . ?
C5 C6 1.387(3) . ?
C5 H5 0.9500 . ?
C6 H6 0.9500 . ?
loop_
_geom_torsion_atom_site_label_1
_geom_torsion_atom_site_label_2
_geom_torsion_atom_site_label_3
_geom_torsion_atom_site_label_4
_geom_torsion
_geom_torsion_site_symmetry_1
_geom_torsion_site_symmetry_2
_geom_torsion_site_symmetry_3
_geom_torsion_site_symmetry_4
_geom_torsion_publ_flag
C6 C1 C2 C3 -0.3(3) . . . . ?
C7 C1 C2 C3 179.9(2) . . . . ?
C6 C1 C2 Br1 178.34(18) . . . . ?
C7 C1 C2 Br1 -1.5(3) . . . . ?
C1 C2 C3 C4 1.1(4) . . . . ?
Br1 C2 C3 C4 -177.49(18) . . . . ?
C2 C3 C4 C5 -1.2(4) . . . . ?
C3 C4 C5 C6 0.4(4) . . . . ?
C4 C5 C6 C1 0.5(4) . . . . ?
C2 C1 C6 C5 -0.6(4) . . . . ?
C7 C1 C6 C5 179.3(2) . . . . ?
