#------------------------------------------------------------------------------
#$Date: 2021-01-07 09:07:49 +0200 (Thu, 07 Jan 2021) $
#$Revision: 260822 $
#$URL: file:///home/coder/svn-repositories/cod/cif/7/15/77/7157773.cif $
#------------------------------------------------------------------------------
#
# This file is available in the Crystallography Open Database (COD),
# http://www.crystallography.net/
#
# All data on this site have been placed in the public domain by the
# contributors.
#
data_7157773
loop_
_publ_author_name
'Yang, Shuang'
'Chen, Yuhang'
'Yuan, Zidan'
'Bu, Feiyu'
'Jiang, Cheng'
'Ding, Zhenhua'
_publ_section_title
;
 Divergent synthesis of oxazolidines and morpholines <i>via</i>
 PhI(OAc)<sub>2</sub>-mediated difunctionalization of alkenes.
;
_journal_issue                   48
_journal_name_full               'Organic &amp; biomolecular chemistry'
_journal_page_first              9873
_journal_page_last               9882
_journal_paper_doi               10.1039/d0ob01987a
_journal_volume                  18
_journal_year                    2020
_chemical_absolute_configuration rm
_chemical_formula_moiety         'C17 H19 N O3 S'
_chemical_formula_sum            'C17 H19 N O3 S'
_chemical_formula_weight         317.39
_space_group_crystal_system      triclinic
_space_group_IT_number           1
_space_group_name_Hall           'P 1'
_space_group_name_H-M_alt        'P 1'
_atom_sites_solution_hydrogens   geom
_atom_sites_solution_primary     dual
_audit_creation_date             2019-07-26
_audit_creation_method
;
Olex2 1.2
(compiled 2018.05.29 svn.r3508 for OlexSys, GUI svn.r5506)
;
_audit_update_record
;
2019-11-20 deposited with the CCDC.	2020-11-23 downloaded from the CCDC.
;
_cell_angle_alpha                109.210(3)
_cell_angle_beta                 90.208(3)
_cell_angle_gamma                103.829(2)
_cell_formula_units_Z            1
_cell_length_a                   5.9286(5)
_cell_length_b                   8.2863(7)
_cell_length_c                   8.6201(8)
_cell_measurement_reflns_used    1482
_cell_measurement_temperature    170
_cell_measurement_theta_max      24.144
_cell_measurement_theta_min      2.512
_cell_volume                     386.74(6)
_computing_cell_refinement       'SAINT V8.38A (?, 2016)'
_computing_data_reduction        'SAINT V8.38A (?, 2016)'
_computing_molecular_graphics    'Olex2 (Dolomanov et al., 2009)'
_computing_publication_material  'Olex2 (Dolomanov et al., 2009)'
_computing_structure_refinement  'ShelXL (Sheldrick, 2015)'
_computing_structure_solution    'ShelXT (Sheldrick, 2015)'
_diffrn_ambient_temperature      170.0
_diffrn_measured_fraction_theta_full 0.997
_diffrn_measured_fraction_theta_max 0.993
_diffrn_measurement_device_type  'Bruker APEX-II CCD'
_diffrn_measurement_method       '\f and \w scans'
_diffrn_radiation_type           MoK\a
_diffrn_radiation_wavelength     0.71073
_diffrn_reflns_av_R_equivalents  0.0477
_diffrn_reflns_av_unetI/netI     0.0824
_diffrn_reflns_Laue_measured_fraction_full 0.997
_diffrn_reflns_Laue_measured_fraction_max 0.993
_diffrn_reflns_limit_h_max       7
_diffrn_reflns_limit_h_min       -6
_diffrn_reflns_limit_k_max       10
_diffrn_reflns_limit_k_min       -10
_diffrn_reflns_limit_l_max       10
_diffrn_reflns_limit_l_min       -10
_diffrn_reflns_number            4236
_diffrn_reflns_point_group_measured_fraction_full 0.845
_diffrn_reflns_point_group_measured_fraction_max 0.833
_diffrn_reflns_theta_full        25.242
_diffrn_reflns_theta_max         25.665
_diffrn_reflns_theta_min         2.512
_diffrn_standards_number         0
_exptl_absorpt_coefficient_mu    0.221
_exptl_absorpt_correction_T_max  0.7453
_exptl_absorpt_correction_T_min  0.6617
_exptl_absorpt_correction_type   multi-scan
_exptl_absorpt_process_details
'SADABS-2016/2 (Bruker,2016/2) was used for absorption correction. wR2(int) was 0.0833 before and 0.0589 after correction. The Ratio of minimum to maximum transmission is 0.8878. The \l/2 correction factor is Not present.'
_exptl_crystal_colour            colourless
_exptl_crystal_colour_primary    colourless
_exptl_crystal_density_diffrn    1.363
_exptl_crystal_description       block
_exptl_crystal_F_000             168
_exptl_crystal_size_max          0.19
_exptl_crystal_size_mid          0.15
_exptl_crystal_size_min          0.08
_refine_diff_density_max         0.265
_refine_diff_density_min         -0.275
_refine_diff_density_rms         0.062
_refine_ls_abs_structure_details
;
 Flack x determined using 635 quotients [(I+)-(I-)]/[(I+)+(I-)]
 (Parsons, Flack and Wagner, Acta Cryst. B69 (2013) 249-259).
;
_refine_ls_abs_structure_Flack   0.09(9)
_refine_ls_extinction_method     none
_refine_ls_goodness_of_fit_ref   1.086
_refine_ls_hydrogen_treatment    constr
_refine_ls_matrix_type           full
_refine_ls_number_parameters     209
_refine_ls_number_reflns         2448
_refine_ls_number_restraints     17
_refine_ls_restrained_S_all      1.093
_refine_ls_R_factor_all          0.0800
_refine_ls_R_factor_gt           0.0527
_refine_ls_shift/su_max          0.000
_refine_ls_shift/su_mean         0.000
_refine_ls_structure_factor_coef Fsqd
_refine_ls_weighting_details
'w=1/[\s^2^(Fo^2^)+(0.0333P)^2^+0.0583P] where P=(Fo^2^+2Fc^2^)/3'
_refine_ls_weighting_scheme      calc
_refine_ls_wR_factor_gt          0.0947
_refine_ls_wR_factor_ref         0.1105
_reflns_Friedel_coverage         0.679
_reflns_Friedel_fraction_full    0.692
_reflns_Friedel_fraction_max     0.674
_reflns_number_gt                1945
_reflns_number_total             2448
_reflns_threshold_expression     'I > 2\s(I)'
_iucr_refine_instructions_details
;
TITL 22019814dzh1_0m_a.res in P1
    22019814dzh1_0m.res
    created by SHELXL-2018/3 at 17:23:50 on 26-Jul-2019
REM Old TITL 22019814DZH1_0m in P1 #1
REM SHELXT solution in P1
REM R1 0.108, Rweak 0.041, Alpha 0.000, Orientation as input
REM Flack x = 0.098 ( 0.080 ) from Parsons' quotients
REM Formula found by SHELXT: C17 O3 N S
CELL 0.71073 5.9286 8.2863 8.6201 109.21 90.208 103.829
ZERR 1 0.0005 0.0007 0.0008 0.003 0.003 0.002
LATT -1
SFAC C H N O S
UNIT 17 19 1 3 1
SADI C9 C8 C8 C9A
SADI O3 C9 O3 C9A
ISOR 0.005 0.01 C9 C9A

L.S. 5
PLAN  20
SIZE 0.19 0.15 0.08
TEMP -103.15
BOND $H
list 4
fmap 2
acta
REM <olex2.extras>
REM <HklSrc "%.\\22019814DZH1_0m.hkl">
REM </olex2.extras>

WGHT    0.033300    0.058300
FVAR       1.77948
S1    5    0.394610    0.494759    0.647471    11.00000    0.02609    0.02546 =
         0.03402    0.01051    0.00385    0.00481
O1    4    0.489940    0.404484    0.737802    11.00000    0.03395    0.03049 =
         0.03862    0.02066    0.00223    0.00907
O2    4    0.153903    0.497670    0.652167    11.00000    0.01988    0.03060 =
         0.04995    0.01240    0.00548    0.00463
O3    4    0.666266    0.360069    0.243981    11.00000    0.04446    0.04942 =
         0.03562    0.01831    0.01310    0.01429
N1    3    0.428921    0.400823    0.455217    11.00000    0.02836    0.02970 =
         0.02717    0.01031   -0.00102    0.00700
C1    1    0.561785    0.716633    0.716641    11.00000    0.02640    0.02285 =
         0.03000    0.00984   -0.00031    0.00340
C6    1    0.459359    0.845161    0.705833    11.00000    0.02874    0.02686 =
         0.03475    0.01307    0.00121    0.00574
AFIX  43
H6    2    0.303686    0.814521    0.658015    11.00000   -1.20000
AFIX   0
C2    1    0.787072    0.759018    0.784737    11.00000    0.02277    0.02644 =
         0.03826    0.01094    0.00403    0.01047
AFIX  43
H2    2    0.856394    0.668954    0.791144    11.00000   -1.20000
AFIX   0
C4    1    0.815661    1.068355    0.835765    11.00000    0.02606    0.03245 =
         0.03141    0.01290    0.00927    0.00252
C17   1    0.244714    0.000348    0.411624    11.00000    0.03999    0.02627 =
         0.03365    0.00747    0.00232    0.00701
AFIX  43
H17   2    0.239472    0.081066    0.518563    11.00000   -1.20000
AFIX   0
C12   1    0.445670    0.023448    0.329989    11.00000    0.02875    0.02639 =
         0.03704    0.01155    0.00317    0.01136
C5    1    0.587408    1.021541    0.766166    11.00000    0.03726    0.03169 =
         0.03467    0.01300    0.00412    0.01143
AFIX  43
H5    2    0.517284    1.111127    0.759528    11.00000   -1.20000
AFIX   0
C3    1    0.911967    0.934368    0.843910    11.00000    0.02208    0.03021 =
         0.03935    0.00894    0.00073    0.00135
AFIX  43
H3    2    1.067625    0.963552    0.891292    11.00000   -1.20000
AFIX   0
C16   1    0.054493   -0.257430    0.184445    11.00000    0.04648    0.03091 =
         0.04380    0.00851   -0.00988    0.00213
AFIX  43
H16   2   -0.077983   -0.353065    0.135643    11.00000   -1.20000
AFIX   0
C13   1    0.446061   -0.096468    0.173481    11.00000    0.04786    0.03331 =
         0.03185    0.01110    0.01208    0.01212
AFIX  43
H13   2    0.580759   -0.083392    0.114849    11.00000   -1.20000
AFIX   0
C15   1    0.054131   -0.137723    0.339324    11.00000    0.03483    0.03608 =
         0.04577    0.01480    0.00486    0.01058
AFIX  43
H15   2   -0.081098   -0.151046    0.397397    11.00000   -1.20000
AFIX   0
C10   1    0.653549    0.354712    0.406198    11.00000    0.02520    0.03747 =
         0.03268    0.00827    0.00260    0.00955
AFIX  13
H10   2    0.786667    0.446689    0.480275    11.00000   -1.20000
AFIX   0
C14   1    0.252276   -0.234882    0.101955    11.00000    0.05802    0.03385 =
         0.03269    0.00033    0.00330    0.01084
AFIX  43
H14   2    0.255452   -0.315490   -0.005420    11.00000   -1.20000
AFIX   0
C11   1    0.659248    0.173109    0.410139    11.00000    0.02725    0.03421 =
         0.04425    0.01283    0.00676    0.00788
AFIX  23
H11A  2    0.796592    0.141304    0.355186    11.00000   -1.20000
H11B  2    0.682800    0.182250    0.526787    11.00000   -1.20000
AFIX   0
C8    1    0.339790    0.458021    0.328728    11.00000    0.04564    0.04471 =
         0.03629    0.01233   -0.00554    0.01388
PART 2
AFIX  23
H8BC  2    0.191425    0.374140    0.271279    10.30000   -1.20000
H8BD  2    0.312329    0.576863    0.378849    10.30000   -1.20000
AFIX  23
PART 0
PART 1
H8A   2    0.392851    0.587627    0.355668    10.70000   -1.20000
H8B   2    0.167411    0.420256    0.311136    10.70000   -1.20000
AFIX   0
PART 0
C7    1    0.947706    1.258941    0.899942    11.00000    0.03553    0.03232 =
         0.03944    0.01077    0.00011    0.00055
AFIX 137
H7A   2    0.880767    1.325165    0.844670    11.00000   -1.50000
H7B   2    1.111706    1.269208    0.878090    11.00000   -1.50000
H7C   2    0.937032    1.307139    1.019051    11.00000   -1.50000
AFIX   0

PART 2
C9    1    0.514740    0.461435    0.217209    10.30000    0.03531    0.04251 =
         0.04078    0.02143    0.00221    0.00404
AFIX  23
H9A   2    0.604132    0.584695    0.236651    10.30000   -1.20000
H9B   2    0.442625    0.410079    0.102129    10.30000   -1.20000
AFIX   0

PART 0
PART 1
C9A   1    0.452788    0.359191    0.181158    10.70000    0.03996    0.03920 =
         0.03324    0.01631    0.00193   -0.00197
AFIX  23
H9AA  2    0.356924    0.236590    0.128336    10.70000   -1.20000
H9AB  2    0.471290    0.419513    0.098381    10.70000   -1.20000
AFIX   0
HKLF 4




REM  22019814dzh1_0m_a.res in P1
REM wR2 = 0.1105, GooF = S = 1.086, Restrained GooF = 1.093 for all data
REM R1 = 0.0527 for 1945 Fo > 4sig(Fo) and 0.0800 for all 2448 data
REM 209 parameters refined using 17 restraints

END  
     
WGHT      0.0305      0.0578 

REM Highest difference peak  0.265,  deepest hole -0.275,  1-sigma level  0.062
Q1    1   0.5693  1.1436  0.9138  11.00000  0.05    0.26
Q2    1   0.1031  0.6212  0.7084  11.00000  0.05    0.26
Q3    1   0.9696  0.2217  0.4859  11.00000  0.05    0.24
Q4    1   0.5319  0.1891  0.5832  11.00000  0.05    0.23
Q5    1   0.4962  0.4390  0.8760  11.00000  0.05    0.22
Q6    1   0.1581  0.0495  0.1747  11.00000  0.05    0.22
Q7    1   1.0490  1.5004  1.1472  11.00000  0.05    0.22
Q8    1   0.8470  0.5730  0.3228  11.00000  0.05    0.21
Q9    1   0.5240  0.5858  0.8783  11.00000  0.05    0.21
Q10   1   0.9859  0.1833  0.3501  11.00000  0.05    0.21
Q11   1   0.7818  0.6530  0.4672  11.00000  0.05    0.21
Q12   1   0.9215  0.6675  0.9117  11.00000  0.05    0.21
Q13   1   0.0198  0.7497  0.6364  11.00000  0.05    0.20
Q14   1   1.2255  1.2766  0.7663  11.00000  0.05    0.20
Q15   1   0.4178  0.3796  0.7373  11.00000  0.05    0.20
Q16   1   0.6788  1.0646  0.8404  11.00000  0.05    0.20
Q17   1   0.8589  0.0243  0.2845  11.00000  0.05    0.20
Q18   1   1.0446  0.0766  0.2730  11.00000  0.05    0.20
Q19   1   0.5594  0.3563  0.1798  11.00000  0.05    0.20
Q20   1   0.0820  0.6117  0.5600  11.00000  0.05    0.19

  REM The information below was added by Olex2.
  REM
  REM R1 = 0.0527 for 1945 Fo > 4sig(Fo) and 0.0800 for all 4236 data
  REM n/a parameters refined using n/a restraints
  REM Highest difference peak 0.26, deepest hole -0.27
  REM Mean Shift 0, Max Shift 0.000.

  REM +++ Tabular Listing of Refinement Information +++
  REM R1_all = 0.0800
  REM R1_gt = 0.0527
  REM wR_ref = 0.1105
  REM GOOF = 1.086
  REM Shift_max = 0.000
  REM Shift_mean = 0
  REM Reflections_all = 4236
  REM Reflections_gt = 1945
  REM Parameters = n/a
  REM Hole = -0.27
  REM Peak = 0.26
  REM Flack = 0.09(9)

  
;
_cod_data_source_file            d0ob01987a2.cif
_cod_data_source_block           22019814dzh1_0m
_cod_depositor_comments          'Adding full bibliography for 7157773.cif.'
_cod_original_cell_volume        386.73(6)
_cod_database_code               7157773
_shelx_shelxl_version_number     2018/3
_shelx_space_group_comment
;
The symmetry employed for this shelxl refinement is uniquely defined
by the following loop, which should always be used as a source of
symmetry information in preference to the above space-group names.
They are only intended as comments.
;
_shelx_estimated_absorpt_t_max   0.983
_shelx_estimated_absorpt_t_min   0.959
_olex2_refinement_description
;
1. Fixed Uiso
 At 1.2 times of:
  All C(H) groups, All C(H,H) groups, All C(H,H,H,H) groups
 At 1.5 times of:
  All C(H,H,H) groups
2. Restrained distances
 C9-C8 \\sim C8-C9A
 with sigma of 0.02
 O3-C9 \\sim O3-C9A
 with sigma of 0.02
3. Uiso/Uaniso restraints and constraints
Uanis(C9) \\sim Ueq, Uanis(C9A) \\sim Ueq: with sigma of 0.005 and sigma for
terminal atoms of 0.01
4. Others
 Fixed Sof: H8BC(0.3) H8BD(0.3) H8A(0.7) H8B(0.7) C9(0.3) H9A(0.3) H9B(0.3)
 C9A(0.7) H9AA(0.7) H9AB(0.7)
5.a Ternary CH refined with riding coordinates:
 C10(H10)
5.b Secondary CH2 refined with riding coordinates:
 C11(H11A,H11B), C8(H8BC,H8BD), C8(H8A,H8B), C9(H9A,H9B), C9A(H9AA,H9AB)
5.c Aromatic/amide H refined with riding coordinates:
 C6(H6), C2(H2), C17(H17), C5(H5), C3(H3), C16(H16), C13(H13), C15(H15),
 C14(H14)
5.d Idealised Me refined as rotating group:
 C7(H7A,H7B,H7C)
;
_olex2_submission_special_instructions 'No special instructions were received'
loop_
_space_group_symop_operation_xyz
'x, y, z'
loop_
_atom_site_label
_atom_site_type_symbol
_atom_site_fract_x
_atom_site_fract_y
_atom_site_fract_z
_atom_site_U_iso_or_equiv
_atom_site_adp_type
_atom_site_occupancy
_atom_site_site_symmetry_order
_atom_site_calc_flag
_atom_site_refinement_flags_posn
_atom_site_refinement_flags_adp
_atom_site_refinement_flags_occupancy
_atom_site_disorder_assembly
_atom_site_disorder_group
S1 S 0.3946(2) 0.49476(17) 0.64747(16) 0.0287(4) Uani 1 1 d . . . . .
O1 O 0.4899(7) 0.4045(5) 0.7378(5) 0.0319(10) Uani 1 1 d . . . . .
O2 O 0.1539(6) 0.4977(5) 0.6522(5) 0.0341(11) Uani 1 1 d . . . . .
O3 O 0.6663(7) 0.3601(6) 0.2440(5) 0.0417(12) Uani 1 1 d D . . . .
N1 N 0.4289(8) 0.4008(6) 0.4552(5) 0.0283(12) Uani 1 1 d . . . . .
C1 C 0.5618(10) 0.7166(8) 0.7166(7) 0.0267(14) Uani 1 1 d . . . . .
C6 C 0.4594(10) 0.8452(8) 0.7058(7) 0.0297(15) Uani 1 1 d . . . . .
H6 H 0.303686 0.814521 0.658015 0.036 Uiso 1 1 calc R . . . .
C2 C 0.7871(10) 0.7590(8) 0.7847(7) 0.0284(15) Uani 1 1 d . . . . .
H2 H 0.856394 0.668954 0.791144 0.034 Uiso 1 1 calc R . . . .
C4 C 0.8157(10) 1.0684(8) 0.8358(8) 0.0303(15) Uani 1 1 d . . . . .
C17 C 0.2447(11) 0.0003(8) 0.4116(8) 0.0343(15) Uani 1 1 d . . . . .
H17 H 0.239472 0.081066 0.518563 0.041 Uiso 1 1 calc R . . . .
C12 C 0.4457(10) 0.0234(8) 0.3300(7) 0.0297(15) Uani 1 1 d . . . . .
C5 C 0.5874(11) 1.0215(8) 0.7662(7) 0.0336(15) Uani 1 1 d . . . . .
H5 H 0.517284 1.111127 0.759528 0.040 Uiso 1 1 calc R . . . .
C3 C 0.9120(10) 0.9344(8) 0.8439(7) 0.0322(15) Uani 1 1 d . . . . .
H3 H 1.067625 0.963552 0.891292 0.039 Uiso 1 1 calc R . . . .
C16 C 0.0545(12) -0.2574(9) 0.1844(8) 0.0429(18) Uani 1 1 d . . . . .
H16 H -0.077983 -0.353065 0.135643 0.051 Uiso 1 1 calc R . . . .
C13 C 0.4461(12) -0.0965(8) 0.1735(7) 0.0373(16) Uani 1 1 d . . . . .
H13 H 0.580759 -0.083392 0.114849 0.045 Uiso 1 1 calc R . . . .
C15 C 0.0541(11) -0.1377(8) 0.3393(8) 0.0384(16) Uani 1 1 d . . . . .
H15 H -0.081098 -0.151046 0.397397 0.046 Uiso 1 1 calc R . . . .
C10 C 0.6535(10) 0.3547(8) 0.4062(7) 0.0324(15) Uani 1 1 d . . . . .
H10 H 0.786667 0.446689 0.480275 0.039 Uiso 1 1 calc R . . . .
C14 C 0.2523(13) -0.2349(9) 0.1020(8) 0.0445(18) Uani 1 1 d . . . . .
H14 H 0.255452 -0.315490 -0.005420 0.053 Uiso 1 1 calc R . . . .
C11 C 0.6592(10) 0.1731(8) 0.4101(8) 0.0353(15) Uani 1 1 d . . . . .
H11A H 0.796592 0.141304 0.355186 0.042 Uiso 1 1 calc R . . . .
H11B H 0.682800 0.182250 0.526787 0.042 Uiso 1 1 calc R . . . .
C8 C 0.3398(12) 0.4580(9) 0.3287(8) 0.0422(18) Uani 1 1 d D . . . .
H8BC H 0.191425 0.374140 0.271279 0.051 Uiso 0.3 1 calc R . P A 2
H8BD H 0.312329 0.576863 0.378849 0.051 Uiso 0.3 1 calc R . P A 2
H8A H 0.392851 0.587627 0.355668 0.051 Uiso 0.7 1 calc R . P B 1
H8B H 0.167411 0.420256 0.311136 0.051 Uiso 0.7 1 calc R . P B 1
C7 C 0.9477(11) 1.2589(7) 0.8999(8) 0.0376(16) Uani 1 1 d . . . . .
H7A H 0.880767 1.325165 0.844670 0.056 Uiso 1 1 calc GR . . . .
H7B H 1.111706 1.269208 0.878090 0.056 Uiso 1 1 calc GR . . . .
H7C H 0.937032 1.307139 1.019051 0.056 Uiso 1 1 calc GR . . . .
C9 C 0.515(3) 0.461(3) 0.217(3) 0.039(6) Uani 0.3 1 d D U P C 2
H9A H 0.604132 0.584695 0.236651 0.046 Uiso 0.3 1 calc R . P C 2
H9B H 0.442625 0.410079 0.102129 0.046 Uiso 0.3 1 calc R . P C 2
C9A C 0.4528(15) 0.3592(14) 0.1812(10) 0.039(2) Uani 0.7 1 d D U P C 1
H9AA H 0.356924 0.236590 0.128336 0.046 Uiso 0.7 1 calc R . P C 1
H9AB H 0.471290 0.419513 0.098381 0.046 Uiso 0.7 1 calc R . P C 1
loop_
_atom_site_aniso_label
_atom_site_aniso_U_11
_atom_site_aniso_U_22
_atom_site_aniso_U_33
_atom_site_aniso_U_23
_atom_site_aniso_U_13
_atom_site_aniso_U_12
S1 0.0261(9) 0.0255(8) 0.0340(9) 0.0105(7) 0.0039(7) 0.0048(7)
O1 0.034(3) 0.030(2) 0.039(3) 0.021(2) 0.0022(19) 0.009(2)
O2 0.020(2) 0.031(2) 0.050(3) 0.012(2) 0.0055(19) 0.0046(19)
O3 0.044(3) 0.049(3) 0.036(3) 0.018(2) 0.013(2) 0.014(2)
N1 0.028(3) 0.030(3) 0.027(3) 0.010(2) -0.001(2) 0.007(2)
C1 0.026(3) 0.023(3) 0.030(3) 0.010(3) 0.000(3) 0.003(3)
C6 0.029(3) 0.027(4) 0.035(4) 0.013(3) 0.001(3) 0.006(3)
C2 0.023(3) 0.026(4) 0.038(4) 0.011(3) 0.004(3) 0.010(3)
C4 0.026(3) 0.032(4) 0.031(4) 0.013(3) 0.009(3) 0.003(3)
C17 0.040(4) 0.026(4) 0.034(4) 0.007(3) 0.002(3) 0.007(3)
C12 0.029(4) 0.026(4) 0.037(4) 0.012(3) 0.003(3) 0.011(3)
C5 0.037(4) 0.032(4) 0.035(4) 0.013(3) 0.004(3) 0.011(3)
C3 0.022(3) 0.030(4) 0.039(4) 0.009(3) 0.001(3) 0.001(3)
C16 0.046(5) 0.031(4) 0.044(5) 0.009(3) -0.010(4) 0.002(3)
C13 0.048(4) 0.033(4) 0.032(4) 0.011(3) 0.012(3) 0.012(4)
C15 0.035(4) 0.036(4) 0.046(4) 0.015(3) 0.005(3) 0.011(3)
C10 0.025(3) 0.037(4) 0.033(4) 0.008(3) 0.003(3) 0.010(3)
C14 0.058(5) 0.034(4) 0.033(4) 0.000(3) 0.003(3) 0.011(4)
C11 0.027(3) 0.034(4) 0.044(4) 0.013(3) 0.007(3) 0.008(3)
C8 0.046(4) 0.045(4) 0.036(4) 0.012(3) -0.006(3) 0.014(4)
C7 0.036(4) 0.032(4) 0.039(4) 0.011(3) 0.000(3) 0.001(3)
C9 0.035(8) 0.043(8) 0.041(8) 0.021(6) 0.002(6) 0.004(6)
C9A 0.040(5) 0.039(5) 0.033(4) 0.016(4) 0.002(4) -0.002(4)
loop_
_atom_type_symbol
_atom_type_description
_atom_type_scat_dispersion_real
_atom_type_scat_dispersion_imag
_atom_type_scat_source
C C 0.0033 0.0016 'International Tables Vol C Tables 4.2.6.8 and 6.1.1.4'
H H 0.0000 0.0000 'International Tables Vol C Tables 4.2.6.8 and 6.1.1.4'
N N 0.0061 0.0033 'International Tables Vol C Tables 4.2.6.8 and 6.1.1.4'
O O 0.0106 0.0060 'International Tables Vol C Tables 4.2.6.8 and 6.1.1.4'
S S 0.1246 0.1234 'International Tables Vol C Tables 4.2.6.8 and 6.1.1.4'
loop_
_geom_angle_atom_site_label_1
_geom_angle_atom_site_label_2
_geom_angle_atom_site_label_3
_geom_angle
_geom_angle_site_symmetry_1
_geom_angle_site_symmetry_3
_geom_angle_publ_flag
O1 S1 N1 106.4(2) . . ?
O1 S1 C1 107.2(3) . . ?
O2 S1 O1 120.4(2) . . ?
O2 S1 N1 105.7(2) . . ?
O2 S1 C1 107.2(3) . . ?
N1 S1 C1 109.6(3) . . ?
C10 O3 C9 109.4(9) . . ?
C9A O3 C10 110.3(5) . . ?
C10 N1 S1 120.4(3) . . ?
C8 N1 S1 120.0(4) . . ?
C8 N1 C10 108.3(5) . . ?
C6 C1 S1 118.7(4) . . ?
C6 C1 C2 121.1(5) . . ?
C2 C1 S1 120.2(4) . . ?
C1 C6 H6 120.5 . . ?
C1 C6 C5 119.0(6) . . ?
C5 C6 H6 120.5 . . ?
C1 C2 H2 120.4 . . ?
C1 C2 C3 119.3(5) . . ?
C3 C2 H2 120.4 . . ?
C5 C4 C7 119.8(5) . . ?
C3 C4 C5 117.8(6) . . ?
C3 C4 C7 122.4(5) . . ?
C12 C17 H17 119.6 . . ?
C15 C17 H17 119.6 . . ?
C15 C17 C12 120.7(6) . . ?
C17 C12 C11 121.2(5) . . ?
C13 C12 C17 118.0(6) . . ?
C13 C12 C11 120.8(6) . . ?
C6 C5 H5 119.4 . . ?
C4 C5 C6 121.2(6) . . ?
C4 C5 H5 119.4 . . ?
C2 C3 C4 121.6(5) . . ?
C2 C3 H3 119.2 . . ?
C4 C3 H3 119.2 . . ?
C15 C16 H16 120.9 . . ?
C15 C16 C14 118.3(7) . . ?
C14 C16 H16 120.9 . . ?
C12 C13 H13 119.7 . . ?
C14 C13 C12 120.7(6) . . ?
C14 C13 H13 119.7 . . ?
C17 C15 C16 121.5(7) . . ?
C17 C15 H15 119.3 . . ?
C16 C15 H15 119.3 . . ?
O3 C10 N1 103.8(4) . . ?
O3 C10 H10 109.7 . . ?
O3 C10 C11 111.1(5) . . ?
N1 C10 H10 109.7 . . ?
N1 C10 C11 112.8(5) . . ?
C11 C10 H10 109.7 . . ?
C16 C14 C13 120.9(6) . . ?
C16 C14 H14 119.5 . . ?
C13 C14 H14 119.5 . . ?
C12 C11 C10 116.4(5) . . ?
C12 C11 H11A 108.2 . . ?
C12 C11 H11B 108.2 . . ?
C10 C11 H11A 108.2 . . ?
C10 C11 H11B 108.2 . . ?
H11A C11 H11B 107.3 . . ?
N1 C8 H8BC 110.6 . . ?
N1 C8 H8BD 110.6 . . ?
N1 C8 H8A 111.9 . . ?
N1 C8 H8B 111.9 . . ?
N1 C8 C9A 99.5(5) . . ?
H8BC C8 H8BD 108.7 . . ?
H8A C8 H8B 109.6 . . ?
C9 C8 N1 105.7(9) . . ?
C9 C8 H8BC 110.6 . . ?
C9 C8 H8BD 110.6 . . ?
C9A C8 H8A 111.9 . . ?
C9A C8 H8B 111.9 . . ?
C4 C7 H7A 109.5 . . ?
C4 C7 H7B 109.5 . . ?
C4 C7 H7C 109.5 . . ?
H7A C7 H7B 109.5 . . ?
H7A C7 H7C 109.5 . . ?
H7B C7 H7C 109.5 . . ?
O3 C9 H9A 110.1 . . ?
O3 C9 H9B 110.1 . . ?
C8 C9 O3 107.8(12) . . ?
C8 C9 H9A 110.1 . . ?
C8 C9 H9B 110.1 . . ?
H9A C9 H9B 108.5 . . ?
O3 C9A C8 105.3(6) . . ?
O3 C9A H9AA 110.7 . . ?
O3 C9A H9AB 110.7 . . ?
C8 C9A H9AA 110.7 . . ?
C8 C9A H9AB 110.7 . . ?
H9AA C9A H9AB 108.8 . . ?
loop_
_geom_bond_atom_site_label_1
_geom_bond_atom_site_label_2
_geom_bond_distance
_geom_bond_site_symmetry_2
_geom_bond_publ_flag
S1 O1 1.438(4) . ?
S1 O2 1.434(4) . ?
S1 N1 1.620(5) . ?
S1 C1 1.767(6) . ?
O3 C10 1.415(7) . ?
O3 C9 1.433(17) . ?
O3 C9A 1.372(9) . ?
N1 C10 1.496(7) . ?
N1 C8 1.466(8) . ?
C1 C6 1.373(7) . ?
C1 C2 1.373(7) . ?
C6 H6 0.9500 . ?
C6 C5 1.396(8) . ?
C2 H2 0.9500 . ?
C2 C3 1.384(8) . ?
C4 C5 1.390(8) . ?
C4 C3 1.385(8) . ?
C4 C7 1.498(8) . ?
C17 H17 0.9500 . ?
C17 C12 1.392(8) . ?
C17 C15 1.372(9) . ?
C12 C13 1.388(8) . ?
C12 C11 1.516(8) . ?
C5 H5 0.9500 . ?
C3 H3 0.9500 . ?
C16 H16 0.9500 . ?
C16 C15 1.377(9) . ?
C16 C14 1.380(10) . ?
C13 H13 0.9500 . ?
C13 C14 1.384(10) . ?
C15 H15 0.9500 . ?
C10 H10 1.0000 . ?
C10 C11 1.525(8) . ?
C14 H14 0.9500 . ?
C11 H11A 0.9900 . ?
C11 H11B 0.9900 . ?
C8 H8BC 0.9900 . ?
C8 H8BD 0.9900 . ?
C8 H8A 0.9900 . ?
C8 H8B 0.9900 . ?
C8 C9 1.418(18) . ?
C8 C9A 1.523(10) . ?
C7 H7A 0.9800 . ?
C7 H7B 0.9800 . ?
C7 H7C 0.9800 . ?
C9 H9A 0.9900 . ?
C9 H9B 0.9900 . ?
C9A H9AA 0.9900 . ?
C9A H9AB 0.9900 . ?
loop_
_refln_index_h
_refln_index_k
_refln_index_l
_refln_F_squared_meas
_refln_F_squared_sigma
-1 0 0 4387.63 116.38
1 0 0 4743.58 116.56
1 0 0 4472.27 116.12
-2 0 0 1107.11 45.46
2 0 0 1142.47 44.77
2 0 0 1108.02 44.58
-3 0 0 398.89 31.57
3 0 0 408.07 29.27
3 0 0 408.52 27.58
3 0 0 423.32 27.06
4 0 0 459.82 34.24
4 0 0 404.48 29.95
4 0 0 436.87 34
5 0 0 223.71 24.54
5 0 0 200.25 26.77
5 0 0 191.51 26.96
6 0 0 39.73 19.65
6 0 0 23.76 15.46
6 0 0 4.54 11.67
6 0 0 8.5 11.59
7 -1 0 97.18 31.91
7 -1 0 65.9 23.15
7 -1 0 91.05 25.66
6 -1 0 291.23 29.87
6 -1 0 176.9 31.14
6 -1 0 240.63 32.41
5 -1 0 153.64 19.51
5 -1 0 140.01 21.42
5 -1 0 181.57 23.36
4 -1 0 542.45 34.1
4 -1 0 535.71 36.44
3 -1 0 1340.12 51.65
3 -1 0 1365.57 55.46
2 -1 0 117.56 11.28
2 -1 0 97.59 8.55
-2 1 0 97.97 9.55
-2 1 0 107.33 10.83
1 -1 0 92.75 4.04
1 -1 0 97.68 7.16
-1 1 0 97.53 7.27
0 -1 0 539.84 19.65
0 -1 0 541.03 19.74
0 1 0 498.83 19.31
0 1 0 537.79 19.45
-1 -1 0 5649.5 152.24
1 1 0 5733.82 151.99
-2 -1 0 59.78 12.19
2 1 0 57.31 5.4
2 1 0 80.9 11.87
-3 -1 0 140.7 25.15
3 1 0 170.54 19.5
3 1 0 153.32 12.06
4 1 0 964.35 57.66
4 1 0 1008.09 41.17
4 1 0 1016.17 58.38
5 1 0 82.35 11.5
5 1 0 95.07 23.56
5 1 0 93.27 22.23
5 1 0 81.8 13.72
6 1 0 21.67 16.28
6 1 0 -10.18 10.92
6 1 0 10.66 7.88
6 1 0 11.11 7.62
7 -2 0 17.16 17.75
7 -2 0 31.27 16.18
7 -2 0 33.02 22.69
6 -2 0 31.19 15.1
6 -2 0 25.37 12.33
6 -2 0 9.89 9.5
5 -2 0 108.02 15.26
5 -2 0 101.98 24.46
5 -2 0 132.02 18.64
4 -2 0 110.47 19.07
4 -2 0 127.51 13
-4 2 0 105.77 19.07
3 -2 0 1061.56 45.64
3 -2 0 1065.12 36.77
-3 2 0 1036.92 45.99
2 -2 0 247.01 16.41
-2 2 0 242.61 16.28
1 -2 0 2369.37 67.47
-1 2 0 2358.47 67.23
-1 2 0 2249.75 58.57
0 -2 0 4503.89 121.25
0 2 0 4356.76 119.67
0 2 0 4492.65 119.01
-1 -2 0 3889.15 100.07
-1 -2 0 4047.45 122.26
1 2 0 4143.25 121.26
-2 -2 0 1946.85 79.62
2 2 0 1898.05 90.02
-3 -2 0 173.47 24.36
3 2 0 218.88 24.67
4 2 0 908 59.5
5 2 0 248.09 48.87
5 2 0 236.01 39.7
6 2 0 62.66 25.27
6 2 0 28.41 17.83
7 -3 0 -7.03 10.95
7 -3 0 2.03 18.84
7 -3 0 -0.29 14.65
6 -3 0 75.07 16.99
6 -3 0 77.78 14.3
6 -3 0 75.64 23.07
5 -3 0 3.04 4.31
5 -3 0 9.2 8.91
-5 3 0 30.62 12.2
4 -3 0 408.73 28.86
4 -3 0 380.6 18.27
-4 3 0 421.3 30.52
3 -3 0 282.91 21.66
-3 3 0 278.7 26.11
2 -3 0 513.64 27.19
-2 3 0 519.36 26.85
1 -3 0 27.21 6.65
1 -3 0 15.61 4.6
-1 3 0 11.16 3.76
-1 3 0 21.69 6.45
0 -3 0 1711.93 63.37
0 3 0 1730.82 61.42
0 3 0 1691.86 60.14
-1 -3 0 2749.13 98.98
1 3 0 2784.78 96.88
-2 -3 0 47.26 14.74
2 3 0 52.34 15.21
-3 -3 0 879.52 60.75
3 3 0 851.29 56.19
4 3 0 58.2 17.11
5 3 0 254.18 43.43
5 3 0 180.81 35.58
6 3 0 33.66 20.37
6 3 0 36.17 22.27
7 -4 0 -3.59 21.54
7 -4 0 55.28 17.64
6 -4 0 239.34 45.24
6 -4 0 169.85 27.07
5 -4 0 840.31 48.62
-5 4 0 775.99 49.68
4 -4 0 11.75 7.82
-4 4 0 34.68 12.09
3 -4 0 -1.88 3.94
-3 4 0 10.05 6.03
2 -4 0 38.05 9.29
-2 4 0 42.27 4.62
-2 4 0 35.54 10.88
1 -4 0 220.28 18.32
1 -4 0 265.88 20.92
-1 4 0 256.98 20.36
-1 4 0 246.25 17.76
0 4 0 481.41 31.38
0 4 0 429.5 28.66
-1 -4 0 1063.76 59.16
1 4 0 988.78 51.48
1 4 0 996.76 54.19
-2 -4 0 335.42 35.36
2 4 0 297.69 31.34
-3 -4 0 0.05 10.87
3 4 0 1.16 8.6
4 4 0 98.23 25.79
5 4 0 63.24 22.74
6 -5 0 17.54 21.17
6 -5 0 47.05 16.47
-6 5 0 48.05 22.17
5 -5 0 249.5 25.35
-5 5 0 220.52 27.97
4 -5 0 285.29 24.49
-4 5 0 295.97 27.77
3 -5 0 3.54 7.7
-3 5 0 28.55 11.65
2 -5 0 352.62 26.37
-2 5 0 296.3 24.99
-2 5 0 295.9 17.33
1 -5 0 53.42 13.04
-1 5 0 44.15 9.66
-1 5 0 28.57 11.17
0 -5 0 48.59 15.64
0 5 0 44.93 13.15
0 5 0 51.09 13.31
-1 -5 0 332.18 35.57
-1 -5 0 306.88 23.19
1 5 0 304.54 30.79
1 5 0 335.03 30.89
-2 -5 0 285.1 16.11
-2 -5 0 316.04 18.03
-2 -5 0 272.34 36.92
2 5 0 285.45 32.21
2 5 0 331.36 33.67
3 5 0 116.61 26.19
4 5 0 117.54 29.8
6 -6 0 15.68 12.78
6 -6 0 41.35 25.22
5 -6 0 231.53 27.17
-5 6 0 269.37 32.14
4 -6 0 408.01 32.78
-4 6 0 423.51 34.91
3 -6 0 250.27 24.95
-3 6 0 255.31 25.96
2 -6 0 41.03 11.81
-2 6 0 46.31 9.32
-2 6 0 63.46 15.03
-1 6 0 773.67 46.53
-1 6 0 819.78 47.42
0 6 0 231.34 26.45
0 6 0 181.9 41.23
-1 -6 0 27.49 10.76
-1 -6 0 25.98 10.7
1 6 0 32.98 12.83
1 6 0 37.51 12.5
-2 -6 0 157.66 14.26
-2 -6 0 156.76 15.81
2 6 0 244.2 34.81
3 6 0 -5.56 12.14
4 6 0 85.43 25.64
6 -7 0 44.36 23.48
6 -7 0 -29.5 12.82
5 -7 0 32.83 14.77
-5 7 0 33.8 18.61
4 -7 0 406.81 36.05
-4 7 0 411.03 37.18
3 -7 0 137.17 25.16
-3 7 0 130.59 24.68
2 -7 0 286.24 32.55
-2 7 0 322.89 32.61
-2 7 0 268.95 23
-1 7 0 8.59 9.49
-1 7 0 -8.96 10.24
0 7 0 201.81 26.22
-1 -7 0 13.23 13.6
-1 -7 0 16.63 11.97
1 7 0 -0.47 11.83
-2 -7 0 6.73 9.78
-2 -7 0 9.02 9.42
2 7 0 11.1 14.57
3 7 0 46.08 21.08
5 -8 0 104.36 23.78
4 -8 0 140.37 31.79
3 -8 0 195.23 32.77
-3 8 0 163 13.76
-2 8 0 0.87 8.64
-1 8 0 147.87 23.63
0 -8 0 328.79 43.88
0 -8 0 342.03 41.31
0 8 0 286.84 33.93
-1 -8 0 72.01 22.89
-1 -8 0 58.99 20.48
1 8 0 61.28 23.43
-2 -8 0 1.8 10.93
-2 -8 0 12.24 13.02
2 8 0 18.13 18.13
4 -9 0 163.34 29.96
-3 9 0 86.33 13.22
-2 9 0 43.57 17.11
1 -9 0 35.44 21.04
-1 9 0 3.52 14.73
0 -9 0 126.29 33.66
0 9 0 77.81 25.58
1 9 -1 94.7 25.62
-1 -9 1 86.88 24.06
-1 -9 1 87.57 28.57
0 9 -1 211.85 35.01
0 -9 1 163.99 33.53
-1 9 -1 487.98 43.92
-2 9 -1 65.05 17.53
-3 9 -1 120.89 15.11
3 -9 1 94.81 25.76
4 -9 1 122.39 29.13
2 8 -1 5.13 16.39
-2 -8 1 21.28 12.26
1 8 -1 25.18 16.79
-1 -8 1 69.33 22.32
0 8 -1 75.14 21.01
0 -8 1 25.03 17.91
-1 8 -1 36.89 14.57
1 -8 1 3.81 17
-2 8 -1 7.55 9.92
-3 8 -1 8.41 6.24
3 -8 1 28.1 26.14
4 -8 1 53.8 18.38
5 -8 1 135.25 26.14
3 7 -1 63.28 22.6
2 7 -1 7.01 12.45
-2 -7 1 6.29 9.86
-2 -7 1 4.89 10.22
1 7 -1 4.93 11.13
-1 -7 1 8.06 11.92
0 7 -1 93.88 21.1
0 -7 1 97.71 20.21
-1 7 -1 426.31 37.71
-1 7 -1 410.72 33.93
-2 7 -1 395.43 36.55
-2 7 -1 401.85 27.75
2 -7 1 426.33 37.07
-3 7 -1 153.84 27.25
3 -7 1 136.46 24.22
-4 7 -1 286.12 33.58
4 -7 1 257.52 29.43
5 -7 1 -5.09 23.2
6 -7 1 22.99 16.55
4 6 -1 83.61 30.27
3 6 -1 112.71 31.31
2 6 -1 56.32 18.48
-2 -6 1 66.53 13.25
1 6 -1 283.28 31.31
1 6 -1 298.69 32.28
-1 -6 1 246.04 23.99
0 6 -1 298.38 29.73
0 6 -1 273.04 29.54
0 -6 1 240.03 26.28
-1 6 -1 603.11 36.65
-1 6 -1 578.24 39.53
1 -6 1 598.21 42.23
-2 6 -1 24.17 7.17
-2 6 -1 0.89 7.74
2 -6 1 20 9.6
-3 6 -1 214.32 24.87
3 -6 1 195.86 22.78
-4 6 -1 77.85 32.41
4 -6 1 88.26 18.81
-5 6 -1 124.45 26.06
5 -6 1 160.67 22.51
6 -6 1 15.58 15.95
5 5 -1 274.09 48.01
4 5 -1 262.62 37.29
3 5 -1 18.54 18.23
2 5 -1 123.92 26.64
2 5 -1 103.5 22.84
-2 -5 1 117.53 12.51
1 5 -1 653.77 45.29
1 5 -1 662.87 42.69
-1 -5 1 659.51 36.28
0 5 -1 559.19 38.16
0 5 -1 665.02 41.21
0 -5 1 655.37 39.36
-1 5 -1 211.57 18.68
-1 5 -1 177.54 19.47
1 -5 1 177.56 19.67
-2 5 -1 260 22.94
-2 5 -1 261.79 15.89
2 -5 1 260.69 23.62
-3 5 -1 136.35 18.02
3 -5 1 130.19 21.62
-4 5 -1 18.31 10.3
4 -5 1 2.56 7.46
-5 5 -1 69.99 19.68
5 -5 1 96.59 21.16
5 4 -1 219.74 41.72
4 4 -1 248.72 33.86
3 4 -1 18.35 11.98
2 4 -1 77.23 20.5
2 4 -1 118.74 22.23
-2 -4 1 56.88 7.77
1 4 -1 804.33 47.45
1 4 -1 814.78 43.64
-1 -4 1 742.15 35.63
0 4 -1 1239.23 52.96
0 4 -1 1168.06 52.1
0 -4 1 1192.11 51.27
0 -4 1 944.07 71.57
-1 4 -1 13.72 6.68
-1 4 -1 15.35 5.74
1 -4 1 27.59 8.13
-2 4 -1 749.12 38.18
-2 4 -1 683.91 24.06
-2 4 -1 681.1 24.53
2 -4 1 646.17 36.55
-3 4 -1 657.61 39.17
3 -4 1 743.19 40.57
-4 4 -1 310.09 28.48
4 -4 1 320.14 28.85
-5 4 -1 347.62 64.07
5 -4 1 425.79 35.8
5 -4 1 355.99 17.97
6 -4 1 15.62 8.2
6 -4 1 -19.37 8.7
7 -4 1 132.48 26.44
7 -4 1 140.67 19.3
7 -4 1 174.09 40.77
6 3 -1 57.51 24.4
6 3 -1 52.58 22.82
5 3 -1 67.97 20.8
4 3 -1 1356.06 79.04
3 3 -1 1066.1 63.76
2 3 -1 441.58 34.97
-2 -3 1 444.55 19.8
1 3 -1 2982.96 102.74
1 3 -1 3006.03 96.53
-1 -3 1 2891.25 85.32
0 3 -1 1581.43 60.61
0 3 -1 1589.39 58.49
0 -3 1 1676.52 60.09
0 -3 1 1728.87 60.54
-1 3 -1 148.06 13.37
1 -3 1 166.3 14.32
-2 3 -1 418.21 25.64
-2 3 -1 462.39 15.57
2 -3 1 481.48 27.37
-3 3 -1 55.93 12.3
-3 3 -1 54.32 6.03
3 -3 1 47.55 5.63
3 -3 1 32.57 11.71
-4 3 -1 882.76 49.27
4 -3 1 871.16 35.4
4 -3 1 909.75 49.28
-5 3 -1 39.79 14.94
5 -3 1 33.94 12.01
5 -3 1 31.41 7.75
6 -3 1 25.35 15.48
6 -3 1 8.14 7.29
7 -3 1 4.99 12.61
7 -3 1 12.94 19.11
7 -3 1 33.91 17.34
6 2 -1 29.68 15.86
6 2 -1 -4.97 13.34
5 2 -1 209.08 29.08
5 2 -1 205.06 30.2
4 2 -1 226.98 14.83
4 2 -1 252.94 30.73
3 2 -1 529.42 22.6
3 2 -1 510.35 39.69
2 2 -1 60.06 13.35
2 2 -1 61.78 6.41
-2 -2 1 72.12 7.59
1 2 -1 647.01 35.62
1 2 -1 683.49 26.73
-1 -2 1 653.78 25.97
0 2 -1 4782.86 127.42
0 -2 1 4819.09 129.38
0 -2 1 4856.15 127.59
-1 2 -1 1772.1 56.74
-1 2 -1 1805.75 50.42
1 -2 1 1773.15 56.92
-2 2 -1 348.71 22.2
-2 2 -1 344.28 15.74
2 -2 1 360.95 22.16
2 -2 1 357.41 16.07
-3 2 -1 247.25 17.34
-3 2 -1 271.07 22.87
3 -2 1 247.28 16.43
3 -2 1 266.8 22.75
-4 2 -1 453.94 33.96
-4 2 -1 438.05 29.59
4 -2 1 385.12 32.48
4 -2 1 394.46 26.26
5 -2 1 162.94 19.26
5 -2 1 135.58 25.36
6 -2 1 114.2 24.69
6 -2 1 145.36 20.72
6 -2 1 79 26.71
7 -2 1 51.5 25.83
7 -2 1 48.35 22.25
7 -2 1 22.53 24.07
7 -2 1 59.55 18.55
6 1 -1 17.68 13.74
6 1 -1 18.31 10.56
6 1 -1 33.86 15.92
5 1 -1 290.07 32.41
5 1 -1 280.63 33.03
5 1 -1 309.95 26.37
4 1 -1 1001.9 59.04
4 1 -1 1048.87 47.69
4 1 -1 1026.39 56.55
3 1 -1 677.58 32.97
3 1 -1 618.22 40.13
2 1 -1 175.54 13.68
2 1 -1 191.36 18.3
-2 -1 1 180.19 14.4
1 1 -1 54.7 6.17
-1 -1 1 52.73 6.33
0 1 -1 3185.14 77.56
0 1 -1 2701.04 79.23
0 -1 1 3055.01 77.38
0 -1 1 2892.51 79.96
-1 1 -1 9767.45 232.92
-1 1 -1 9765.44 238.31
1 -1 1 9317.87 240.5
1 -1 1 9733.35 238.53
1 -1 1 9999 233.31
-2 1 -1 293.6 20.79
-2 1 -1 284.4 17.37
2 -1 1 301.96 20.4
2 -1 1 277.26 17.02
-3 1 -1 507.51 29.89
-3 1 -1 517.15 33.95
3 -1 1 488.02 28.06
3 -1 1 489.25 33.96
-4 1 -1 203.3 22.26
4 -1 1 236.62 25.19
4 -1 1 239.76 26.78
-5 1 -1 8.84 12.66
5 -1 1 19.76 11.3
5 -1 1 -8.66 9.26
5 -1 1 3.05 6.99
6 -1 1 41.46 16.89
6 -1 1 53.91 17.73
6 -1 1 36.36 13.71
6 -1 1 12.4 10.6
7 -1 1 51.81 21.97
7 -1 1 15.43 19.91
7 -1 1 62.55 20.17
7 -1 1 44.89 21.52
7 0 -1 -13.51 15.22
7 0 -1 60.81 19.21
7 0 -1 21.36 14.31
6 0 -1 57.37 18.69
6 0 -1 88.85 18.62
6 0 -1 67.1 19.49
5 0 -1 169.48 21.46
5 0 -1 143.3 21.44
5 0 -1 170.6 23.51
4 0 -1 73.81 17.06
4 0 -1 105.65 19.04
4 0 -1 82.6 17.05
3 0 -1 2304.22 83.47
3 0 -1 2319.42 83.08
3 0 -1 2303.72 79.95
2 0 -1 757.86 36.1
2 0 -1 746.02 35.91
1 0 -1 3576.31 99.78
-1 0 1 3505.82 100.04
0 0 -1 1484.59 39.82
0 0 -1 1552.09 43.22
0 0 -1 1522.34 45.43
0 0 1 1454.57 39.55
0 0 1 1571.84 43.48
0 0 1 1353.44 44.71
-1 0 -1 981.15 36.93
-1 0 -1 963.35 32.63
-1 0 -1 1023.44 36.08
1 0 1 956.34 32.24
1 0 1 939.4 36.26
1 0 1 1044.84 36.16
-2 0 -1 485.68 27.95
2 0 1 550.7 28.95
2 0 1 535.4 30.36
2 0 1 512.66 23.86
-3 0 -1 212.55 21.43
3 0 1 220.39 21.13
3 0 1 227.34 16.54
3 0 1 207.25 21.36
-4 0 -1 432.82 35.91
4 0 1 433.75 26.67
4 0 1 457.34 37.3
4 0 1 439.83 34.36
-5 0 -1 730.9 69.38
5 0 1 724.76 43.49
5 0 1 735.82 53.84
5 0 1 736.4 39.5
5 0 1 720.21 50.63
6 0 1 32.1 18.06
6 0 1 -12.68 10.11
6 0 1 29.06 11.66
6 0 1 10.54 14.57
7 -1 -1 28.27 18.23
7 -1 -1 25.14 16.93
7 -1 -1 89.3 26.31
6 -1 -1 106.37 23.67
6 -1 -1 66.96 16.83
6 -1 -1 44.94 16.46
5 -1 -1 102.37 19.24
5 -1 -1 101.17 22.91
5 -1 -1 116.77 20.2
4 -1 -1 254.17 22.2
4 -1 -1 269.74 28.48
3 -1 -1 1099.21 57.72
3 -1 -1 1082.81 45.84
3 -1 -1 1118.08 44.96
2 -1 -1 1931.42 57.26
2 -1 -1 2013.2 75.86
-2 1 1 1856.21 57.46
1 -1 -1 3322.97 82.79
1 -1 -1 3526.56 87.5
1 -1 -1 3252.93 102.76
-1 1 1 3430.38 87.62
-1 1 1 3355.85 82.61
0 -1 -1 330.98 18.38
0 -1 -1 299.4 15.89
0 1 1 271.32 17.28
0 1 1 323.71 16.52
-1 -1 -1 1455.55 42.42
-1 -1 -1 1441.74 53.35
1 1 1 1471.6 53.23
1 1 1 1488.85 43.51
-2 -1 -1 736.76 48.79
2 1 1 757.71 24.41
2 1 1 752.77 39.81
-3 -1 -1 276.9 26.87
3 1 1 270.04 13.85
3 1 1 330.86 28.32
3 1 1 288.72 26.68
-4 -1 -1 13.44 8.56
4 1 1 13.37 8.56
4 1 1 4.9 8.61
4 1 1 4.97 4.02
4 1 1 2.95 4.39
-5 -1 -1 189.78 37.96
5 1 1 164.48 31.66
5 1 1 119 11.03
5 1 1 125.05 11.72
6 1 1 24.56 15.99
6 1 1 51.11 20.49
7 -2 -1 -20.39 12.87
7 -2 -1 2.61 22.07
7 -2 -1 34.6 11.86
6 -2 -1 -25 13.39
6 -2 -1 8.94 9.59
6 -2 -1 5.67 7.13
5 -2 -1 30.73 17.03
5 -2 -1 64.42 12.71
5 -2 -1 67.05 13.48
4 -2 -1 6.23 5.12
4 -2 -1 1.89 5.13
4 -2 -1 41.05 14.82
3 -2 -1 135.05 12.72
3 -2 -1 140.06 21.04
3 -2 -1 120.3 10.85
-3 2 1 138.64 13.31
2 -2 -1 1037.49 35.84
2 -2 -1 1022.69 32.07
2 -2 -1 1016.61 54.75
-2 2 1 1024.99 36.03
1 -2 -1 1131.27 36.71
1 -2 -1 1096.36 52.12
1 -2 -1 1106.77 36.9
-1 2 1 1121.2 36.99
-1 2 1 1177.55 37.29
0 -2 -1 487.18 26.05
0 -2 -1 528.53 29.06
0 2 1 513.49 25.54
-1 -2 -1 1776.41 68.11
-1 -2 -1 1833.68 54.89
1 2 1 1732.2 66.71
-2 -2 -1 436.78 33.23
2 2 1 474.44 34.12
-3 -2 -1 135.94 26.8
3 2 1 118.38 22.19
-4 -2 -1 492.89 45.35
4 2 1 545.47 45.95
4 2 1 470.26 41.86
5 2 1 16.49 12.7
5 2 1 18.53 13.97
6 2 1 74.77 25.81
6 2 1 75.94 25.23
7 -3 -1 27.05 23.49
7 -3 -1 51.83 14.78
6 -3 -1 -9.27 9.11
5 -3 -1 465.88 24.72
5 -3 -1 425.91 31.48
5 -3 -1 479.39 48.15
4 -3 -1 397.27 40.45
4 -3 -1 371.45 18.33
4 -3 -1 406.7 18.74
4 -3 -1 389.65 26.1
-4 3 1 409.92 28.32
3 -3 -1 330.53 20.67
-3 3 1 309.15 21.01
2 -3 -1 160.68 13.21
2 -3 -1 161.88 9.59
-2 3 1 159.86 10
-2 3 1 165.18 13.43
1 -3 -1 6.42 3.61
-1 3 1 5.62 3.69
-1 3 1 6.91 3.49
0 -3 -1 496.76 30.34
0 -3 -1 519.54 33.38
0 3 1 550.73 30.68
0 3 1 572.95 30.53
-1 -3 -1 824.36 46.97
-1 -3 -1 811.74 36.23
1 3 1 859.32 46.56
-2 -3 -1 271.45 26.99
2 3 1 246.31 25.08
-3 -3 -1 630.03 49.4
3 3 1 551.39 44.66
5 3 1 21.04 17.39
5 3 1 -6.64 11.73
7 -4 -1 -9.24 15.8
7 -4 -1 19.32 19.67
6 -4 -1 124.05 33.89
6 -4 -1 118.78 20.2
5 -4 -1 196.01 40.55
5 -4 -1 208.29 21.1
-5 4 1 223.57 25.67
4 -4 -1 156.79 34.36
-4 4 1 208.17 19.67
3 -4 -1 44.57 10.83
-3 4 1 41.89 11.73
2 -4 -1 160.25 14.74
2 -4 -1 147.64 11.5
-2 4 1 130.48 14.43
-2 4 1 128.41 10.39
1 -4 -1 418.8 26.45
-1 4 1 418.96 28.31
-1 4 1 430.12 25.58
0 -4 -1 357 29.5
0 -4 -1 316.05 26.53
0 4 1 333.06 25.92
0 4 1 320.83 24.94
-1 -4 -1 76.96 11.93
-1 -4 -1 100.36 19.83
1 4 1 76.56 17.12
-2 -4 -1 -0.34 9.55
-2 -4 -1 4.38 3.03
-2 -4 -1 7.88 3.68
2 4 1 9.55 9.03
3 4 1 75.45 20.17
4 4 1 194.08 37.39
5 4 1 28.64 18.02
5 4 1 47.97 19.28
6 -5 -1 45.83 15.4
6 -5 -1 9.25 18.97
-6 5 1 61.69 34.97
5 -5 -1 64.64 23.34
5 -5 -1 74.83 14.7
-5 5 1 79.48 16.97
4 -5 -1 421.77 29.4
4 -5 -1 396.15 46.9
-4 5 1 433.48 31.86
3 -5 -1 16.7 8.12
-3 5 1 16.34 8.89
2 -5 -1 253.73 22.37
2 -5 -1 208.81 17.77
-2 5 1 223.13 16.61
-2 5 1 235.08 21.36
1 -5 -1 123.31 15.59
-1 5 1 81.22 15.55
-1 5 1 74.03 13.8
0 -5 -1 154.76 21.57
0 -5 -1 143.44 22.24
0 5 1 166.18 19.99
0 5 1 145.57 23.44
-1 -5 -1 7.21 7.39
-1 -5 -1 22.69 13.12
1 5 1 2.62 10.21
1 5 1 13.9 8.73
-2 -5 -1 -6.68 4.82
-2 -5 -1 0.99 4.95
-2 -5 -1 20.62 15.11
2 5 1 -8.57 8.58
3 5 1 93.21 22.49
4 5 1 148.82 36.5
6 -6 -1 40.73 13.89
6 -6 -1 19.8 23.71
-6 6 1 -26.88 20.04
5 -6 -1 -25.81 12.94
5 -6 -1 14.06 10.5
-5 6 1 22.87 14.42
4 -6 -1 160.53 20.58
4 -6 -1 202.59 43.09
-4 6 1 195.36 24.72
3 -6 -1 229.63 24.1
-3 6 1 272.47 25.86
-2 6 1 102.32 13.51
-2 6 1 100.67 17.72
1 -6 -1 351.24 31.41
1 -6 -1 353.61 39.37
-1 6 1 346.62 28.34
-1 6 1 388.91 30.07
0 -6 -1 534.66 44.68
0 -6 -1 519.23 43.93
0 6 1 542.13 40.27
0 6 1 527.82 41.62
-1 -6 -1 68.55 21.3
-1 -6 -1 79.71 18.97
1 6 1 96.47 29.7
1 6 1 68.34 19.38
-2 -6 -1 6.4 7.35
-2 -6 -1 5.17 6.48
2 6 1 17.64 11.59
3 6 1 39.61 19.34
5 -7 -1 412.79 52.87
5 -7 -1 287.85 30.54
-5 7 1 316.71 37.02
4 -7 -1 103.81 34.75
4 -7 -1 157.31 21.93
-4 7 1 108.1 24.36
3 -7 -1 194.8 26.16
3 -7 -1 216.5 42.97
-3 7 1 236.16 16.23
-3 7 1 250.32 29.97
2 -7 -1 278.65 40.03
-2 7 1 220.25 40.75
-2 7 1 331.3 32.06
1 -7 -1 140.3 29.89
1 -7 -1 89.55 24.03
-1 7 1 122 23.8
-1 7 1 140.68 24.25
0 -7 -1 2.88 16.11
0 -7 -1 61.98 22.17
0 7 1 47.38 15.33
-1 -7 -1 100.94 22.35
1 7 1 99.55 22.82
-2 -7 -1 19.45 10.72
-2 -7 -1 20.25 9.24
2 7 1 14.66 14.69
4 -8 -1 56.64 18.36
4 -8 -1 50.38 23.1
-4 8 1 31.93 29.4
3 -8 -1 82.72 28.99
-3 8 1 73.64 12.88
2 -8 -1 70.79 30.91
-2 8 1 57.44 17.07
1 -8 -1 154.64 38.23
-1 8 1 153.13 27.38
0 -8 -1 41.3 22.35
0 8 1 30.92 16.83
-1 -8 -1 49.73 19.79
-1 -8 -1 18.13 18.1
1 8 1 45.36 23.13
3 -9 -1 45.15 23.31
-3 9 1 45.99 13.8
2 -9 -1 80.06 34.09
-2 9 1 -11.13 15.44
1 -9 -1 80.15 32.22
-1 9 1 153.43 44.44
1 9 -2 43.75 23.65
-1 -9 2 90.44 39.58
0 9 -2 79.56 20.72
0 -9 2 3.04 23.34
-1 9 -2 66.32 15.78
-2 9 -2 32.03 12.06
2 -9 2 56.91 20.39
-3 9 -2 32.15 12.82
-3 9 -2 49.74 11.02
3 -9 2 68.1 20.99
4 -9 2 1.99 15.16
2 8 -2 131.77 30.42
-2 -8 2 92.4 20.33
1 8 -2 119.32 28.02
-1 -8 2 87.62 23.2
0 8 -2 171.85 30.53
-1 8 -2 -0.13 10.25
1 -8 2 33 18.25
-2 8 -2 5.69 9.71
2 -8 2 7.55 13.63
-3 8 -2 156.12 16.39
-3 8 -2 184.31 15.08
3 -8 2 168.84 31.09
4 -8 2 76.95 21.79
5 -8 2 44.04 15.66
3 7 -2 7.1 16.05
2 7 -2 10.63 13.51
1 7 -2 75.84 21.45
-1 -7 2 86.9 17.61
0 7 -2 122.55 23.85
0 -7 2 81.3 19.78
-1 7 -2 604.6 41.86
-1 7 -2 572.21 44.64
1 -7 2 604.77 47.71
1 -7 2 671.52 48
-2 7 -2 117.81 18.94
-2 7 -2 91.53 19.26
2 -7 2 84.64 20.32
2 -7 2 115.35 24.43
-3 7 -2 78.97 9.36
-3 7 -2 57.73 8.38
-3 7 -2 98.64 21.57
3 -7 2 23.68 14.41
4 -7 2 164.64 27.45
5 -7 2 7.44 13.2
6 -7 2 21.5 16.87
4 6 -2 161.29 34.48
3 6 -2 22.08 14.38
2 6 -2 122.33 27.77
-2 -6 2 162.57 19.96
1 6 -2 27.4 13.39
1 6 -2 40.78 15.96
-1 -6 2 38.62 13.37
0 6 -2 364.12 31.81
0 6 -2 363.1 33.54
0 -6 2 314.09 30.67
-1 6 -2 209.16 27.03
-1 6 -2 180.59 23.1
1 -6 2 276.47 28.87
1 -6 2 276.6 27.59
-2 6 -2 209.72 17.49
-2 6 -2 200.58 24.75
2 -6 2 167.48 23.77
2 -6 2 190.72 22.86
-3 6 -2 370.11 17.1
-3 6 -2 378.23 33.92
-3 6 -2 346.47 16.21
3 -6 2 344.68 35.95
3 -6 2 352.42 32.76
-4 6 -2 153.45 26.25
4 -6 2 219.84 25.28
5 -6 2 41.65 14.45
6 -6 2 2.07 15.43
5 5 -2 117.77 31.46
4 5 -2 149.39 32.54
3 5 -2 48.92 24.41
-3 -5 2 70.4 9.7
2 5 -2 -21.15 9.14
2 5 -2 25.8 12.12
-2 -5 2 -1.03 6.47
1 5 -2 286.45 26.73
1 5 -2 275.64 29.74
-1 -5 2 331.31 25.38
0 5 -2 623.17 40.46
0 5 -2 562.64 36.45
0 -5 2 578.08 38.64
0 -5 2 599 39.2
-1 5 -2 82.59 15.44
-1 5 -2 72.3 14.76
1 -5 2 72.03 14.52
1 -5 2 79.12 18.06
-2 5 -2 61.97 10.86
-2 5 -2 48.13 12.05
2 -5 2 70.33 17.5
2 -5 2 78.13 15.92
-3 5 -2 235.42 12.47
-3 5 -2 244.34 25.86
3 -5 2 228.28 24.62
-4 5 -2 486.51 40.38
4 -5 2 482.47 38.02
-5 5 -2 132.09 26.77
5 -5 2 164.93 27.35
6 -5 2 96.01 24.69
5 4 -2 77.57 24.19
4 4 -2 53.01 20.13
3 4 -2 596.63 47.26
3 4 -2 641.46 50.69
-3 -4 2 614.34 28.89
2 4 -2 19.23 10.59
2 4 -2 41.17 12.14
-2 -4 2 54.19 10.7
1 4 -2 100.31 21.06
1 4 -2 89.58 16.58
-1 -4 2 77.51 11.71
0 4 -2 463.11 29.39
0 -4 2 452.25 31.35
0 -4 2 493.7 32.13
-1 4 -2 3.12 5.34
1 -4 2 5.69 5.74
1 -4 2 21.42 11.18
-2 4 -2 209.16 20.11
-2 4 -2 204.33 14.3
2 -4 2 203.58 22.68
2 -4 2 209.64 20.22
-3 4 -2 178.78 20.68
-3 4 -2 173.58 11.94
3 -4 2 180.14 20.28
3 -4 2 202.33 23.31
-4 4 -2 888.56 52.52
-4 4 -2 949.05 37.25
4 -4 2 855.26 35.51
4 -4 2 944.66 59.04
4 -4 2 1000.38 54.84
-5 4 -2 680.8 51.2
5 -4 2 699.59 49.19
5 -4 2 701.53 53.77
5 -4 2 622.15 32.15
6 -4 2 19.11 8.93
6 -4 2 2.89 11.98
7 -4 2 54.14 21.48
7 -4 2 32.54 15.57
6 3 -2 24.47 21.14
6 3 -2 42.18 26.73
5 3 -2 40.38 18.91
4 3 -2 664.62 29.21
4 3 -2 696.77 55.51
3 3 -2 57.7 8.53
-3 -3 2 52.53 10.93
2 3 -2 882.22 45.51
2 3 -2 923.93 38.64
2 3 -2 866.13 53.29
-2 -3 2 911.38 39.49
1 3 -2 552.06 31.43
1 3 -2 561.26 30.59
-1 -3 2 575.35 30.41
0 3 -2 156.93 15.03
0 3 -2 148.33 15.82
0 -3 2 140.37 15.08
0 -3 2 145.73 14.8
-1 3 -2 5884.96 158.92
1 -3 2 5897.35 158.99
1 -3 2 5564.38 166.63
-2 3 -2 178.63 13.03
-2 3 -2 164.2 17.04
2 -3 2 179.74 20.26
2 -3 2 179.7 17.38
-3 3 -2 171.47 14.03
-3 3 -2 124.95 17.75
3 -3 2 158.48 20.8
3 -3 2 195.06 14.63
3 -3 2 165.89 19
-4 3 -2 488.74 38.03
-4 3 -2 542.71 30.8
4 -3 2 573.87 38.59
4 -3 2 502.67 28.54
4 -3 2 446.62 38.43
-5 3 -2 202.36 28.58
-5 3 -2 189.88 22.1
5 -3 2 185.57 19.26
5 -3 2 185.8 25.42
5 -3 2 229.91 30.04
6 -3 2 194.21 34.67
6 -3 2 207.63 23.96
6 -3 2 251 32.54
7 -3 2 52.3 21.32
7 -3 2 73.01 20.26
6 2 -2 32.14 19.03
6 2 -2 30.86 17.1
6 2 -2 35.89 11.6
5 2 -2 388.33 28.15
5 2 -2 481.65 45.25
5 2 -2 418.61 40.41
4 2 -2 671.81 35.43
4 2 -2 691.73 50.03
3 2 -2 427.3 26.15
3 2 -2 431.42 36.21
-3 -2 2 434.07 28.9
2 2 -2 178 15.7
-2 -2 2 211.47 17.44
1 2 -2 1223.96 47.75
1 2 -2 1266.07 45.8
-1 -2 2 1183.24 46.26
0 2 -2 719.97 35.2
0 2 -2 784.57 31.83
0 -2 2 768.26 31.22
0 -2 2 754.94 35.47
-1 2 -2 1633.51 62.76
-1 2 -2 1621.09 56.08
-1 2 -2 1692.77 53.95
1 -2 2 1642.64 62.24
1 -2 2 1624.43 56.5
1 -2 2 1654.68 54.57
-2 2 -2 136.06 15.09
-2 2 -2 127.82 12.1
2 -2 2 135.89 14.43
2 -2 2 155.9 17
2 -2 2 132.68 12.52
-3 2 -2 8.34 6.09
-3 2 -2 4.49 4.83
3 -2 2 8.58 4.47
3 -2 2 10.16 5.72
3 -2 2 8.23 6.3
-4 2 -2 160.67 26.28
-4 2 -2 122.73 16.36
4 -2 2 162.14 16.89
4 -2 2 149.24 19.18
4 -2 2 189.07 22.57
-5 2 -2 378.94 33.89
5 -2 2 334.22 35.98
5 -2 2 359.62 33.1
5 -2 2 338.75 29.82
-6 2 -2 71.62 25.55
6 -2 2 20.27 17.78
6 -2 2 42.13 14.2
6 -2 2 53.35 20.93
7 -2 2 68.85 21.35
7 -2 2 74.11 26.32
7 -2 2 56.93 22.29
7 -2 2 31.4 18.61
6 1 -2 32.16 16.28
6 1 -2 22.32 13.24
6 1 -2 -29.55 12.84
5 1 -2 21.58 12.82
5 1 -2 33.19 16.18
4 1 -2 95.01 18.44
4 1 -2 80.71 17.62
3 1 -2 294.59 27.39
3 1 -2 279.32 23.66
-3 -1 2 279.01 24.93
2 1 -2 255.8 20.33
-2 -1 2 260.14 21.03
1 1 -2 579.13 29.76
1 1 -2 587.73 23.63
-1 -1 2 598.06 30.57
0 1 -2 5955.13 164.32
0 1 -2 6504.37 162.35
0 1 -2 6227.82 154.98
0 -1 2 6206.7 164.83
0 -1 2 6102.8 154.21
-1 1 -2 112.85 10.84
-1 1 -2 123.81 11.62
-1 1 -2 112.14 12.14
1 -1 2 96.04 10.74
1 -1 2 83.24 9.87
1 -1 2 110.64 10.56
-2 1 -2 450.8 28.77
-2 1 -2 472.07 26
2 -1 2 480.9 26.85
2 -1 2 439.64 27.06
2 -1 2 444.92 28.29
-3 1 -2 272.45 26.6
-3 1 -2 323.58 24.75
3 -1 2 339.26 25.31
3 -1 2 304.92 23.75
3 -1 2 296.93 26.29
-4 1 -2 144.81 20.19
4 -1 2 140.44 17.85
4 -1 2 110.77 22.05
4 -1 2 116.11 16.25
-5 1 -2 324.95 34.36
5 -1 2 312.98 28.95
5 -1 2 458.12 40.71
5 -1 2 331.09 31.99
-6 1 -2 268.13 44.17
6 -1 2 250.96 29.63
6 -1 2 272.16 32.96
6 -1 2 291.65 38.44
6 0 -2 16.17 13.51
6 0 -2 68.78 19.13
6 0 -2 38.96 16.43
5 0 -2 97.09 18.75
5 0 -2 105.23 23.93
5 0 -2 96.36 18.59
4 0 -2 40.51 12.05
4 0 -2 32.59 12.5
4 0 -2 26.04 9.31
3 0 -2 975.4 42
3 0 -2 985.38 52.41
2 0 -2 817.34 42.56
-2 0 2 745.32 42.6
1 0 -2 6998.81 190.98
1 0 -2 7103.22 182.4
1 0 -2 7090.39 165.45
-1 0 2 6941.45 191.37
0 0 -2 4703.14 136.59
0 0 -2 4986.54 133.05
0 0 -2 5015.45 126.45
0 0 2 5010.12 125.83
0 0 2 5199.24 134.16
0 0 2 5109.53 138.49
-1 0 -2 374.39 21.39
-1 0 -2 412.62 23.39
-1 0 -2 381.34 22.66
1 0 2 364.48 22.65
1 0 2 364.25 21.5
1 0 2 389.44 22.69
-2 0 -2 505.4 30.92
-2 0 -2 540.95 27.35
2 0 2 544.63 27.77
2 0 2 539.79 32.79
2 0 2 537.62 31.54
-3 0 -2 370.49 29.11
3 0 2 356.34 22.69
3 0 2 382.01 29.68
3 0 2 327.6 29.1
-4 0 -2 100.84 21.28
4 0 2 81.16 18.2
4 0 2 112.33 13.5
4 0 2 71.36 17.23
-5 0 -2 64.33 21.06
5 0 2 94.9 15.52
5 0 2 85.7 19.52
6 0 2 56.06 16.23
6 0 2 31.25 20.84
6 0 2 51.85 20.7
7 -1 -2 66.87 18.68
7 -1 -2 32.75 19.04
7 -1 -2 35.38 22.08
6 -1 -2 32.52 15.27
6 -1 -2 11.42 10.16
6 -1 -2 9.14 9.86
5 -1 -2 53.1 15.94
5 -1 -2 54.01 15.05
5 -1 -2 33.51 12.83
4 -1 -2 364.25 28.43
4 -1 -2 406.25 35.65
4 -1 -2 391.75 25.88
3 -1 -2 204.48 14.37
2 -1 -2 53.08 13.36
2 -1 -2 58.82 4.65
2 -1 -2 57.63 8.53
-2 1 2 45.93 12.12
1 -1 -2 829.33 33.4
1 -1 -2 773.06 42
-1 1 2 839.48 44.42
-1 1 2 833.13 33.94
-1 1 2 790.66 21.96
0 -1 -2 2114.53 73.44
0 -1 -2 2127.8 68.36
0 1 2 2097.97 73.45
0 1 2 2151.59 69.45
-1 -1 -2 138.33 12.36
-1 -1 -2 134.53 14.45
1 1 2 154.38 15.46
1 1 2 124.93 12.23
-2 -1 -2 354.34 27.84
-2 -1 -2 330.41 18.38
2 1 2 255.76 23.64
2 1 2 320.7 26.07
2 1 2 317.2 18.81
-3 -1 -2 133.67 19.35
3 1 2 143.34 20.49
3 1 2 138.71 19.24
3 1 2 154.8 12.07
4 1 2 65.55 9.68
4 1 2 75.66 18.66
4 1 2 53.15 15.42
5 1 2 -13.12 10.98
6 1 2 89.57 25.27
6 1 2 87.34 25.32
7 -2 -2 6.25 12.32
7 -2 -2 -1.43 13.18
7 -2 -2 17.21 20.28
6 -2 -2 83.25 16.6
6 -2 -2 76.97 16.01
6 -2 -2 26.98 16.43
5 -2 -2 26.67 9.53
5 -2 -2 30.24 12.22
4 -2 -2 254.51 33.72
4 -2 -2 288.05 22.54
4 -2 -2 288.75 19.82
3 -2 -2 72.7 19.65
3 -2 -2 86.33 10.45
3 -2 -2 98.62 8.84
-3 2 2 66.13 8.68
2 -2 -2 125.36 11.06
2 -2 -2 98.42 7.58
2 -2 -2 125.85 24.25
-2 2 2 118.74 7.92
1 -2 -2 153.08 13.32
1 -2 -2 157.45 18.52
-1 2 2 143.09 10.35
-1 2 2 172.73 14.21
0 -2 -2 547.29 33.25
0 -2 -2 529.18 29.82
0 2 2 523.44 33.11
0 2 2 573.04 30.54
-1 -2 -2 339.97 27.78
-1 -2 -2 368.98 22.96
1 2 2 331.39 26.4
1 2 2 381.64 24.54
-2 -2 -2 105.74 9.38
-2 -2 -2 121.11 22.62
2 2 2 104.81 20.63
2 2 2 91.69 10.18
-3 -2 -2 610.69 47.38
3 2 2 522.06 41.42
3 2 2 586.54 43.48
-4 -2 -2 574.78 72.11
4 2 2 497.14 44.54
4 2 2 494.71 44.14
5 2 2 67.05 21.91
5 2 2 41.82 20.19
6 2 2 -22.41 11.81
6 2 2 3.24 17.95
7 -3 -2 44.17 26.4
7 -3 -2 25.72 13.25
7 -3 -2 22.77 16.09
6 -3 -2 30.19 11.26
6 -3 -2 21.37 18.27
6 -3 -2 35.93 9.82
5 -3 -2 224.45 17.85
5 -3 -2 195.2 17.55
5 -3 -2 307.04 40.16
4 -3 -2 36.3 9.23
4 -3 -2 55.39 9.67
4 -3 -2 67.5 20.53
4 -3 -2 49.34 8.35
-4 3 2 44.15 10.53
3 -3 -2 337.57 36.39
3 -3 -2 328.73 18.4
3 -3 -2 318.9 18.19
-3 3 2 312.06 18.92
2 -3 -2 268.27 29.56
2 -3 -2 254.2 16.08
2 -3 -2 263.1 16.9
-2 3 2 260.28 17.66
-2 3 2 252.59 15.58
1 -3 -2 316.56 31.08
1 -3 -2 331.18 22.28
-1 3 2 340.83 22.91
-1 3 2 349.11 20.82
0 -3 -2 1895.11 78.39
0 -3 -2 1993.41 76.18
0 3 2 1953.58 73.81
-1 -3 -2 627.01 35.23
-1 -3 -2 679.92 42.37
1 3 2 665.94 41.45
-2 -3 -2 310.63 33.1
-2 -3 -2 334.41 18.42
2 3 2 389.01 33.4
-3 -3 -2 294.28 35.94
3 3 2 360.8 35.19
4 3 2 45.97 17.24
4 3 2 25.16 14.6
5 3 2 49.46 22.21
5 3 2 42.26 17.75
6 -4 -2 204.7 22.12
6 -4 -2 203.75 44.25
5 -4 -2 103.47 28.23
5 -4 -2 98.8 20.41
-5 4 2 131.63 20.82
4 -4 -2 247.37 44.24
4 -4 -2 174.97 16.12
-4 4 2 164.61 17.11
3 -4 -2 24.97 13.83
3 -4 -2 15.23 5.81
3 -4 -2 10.25 4.33
-3 4 2 4.12 5.37
2 -4 -2 26.38 7.52
2 -4 -2 19.19 10.6
-2 4 2 37.53 8.09
-2 4 2 40.9 9.22
1 -4 -2 189.84 26.14
1 -4 -2 169.57 19.23
-1 4 2 173.63 18.08
-1 4 2 184.21 17.38
0 -4 -2 163.99 20.55
0 -4 -2 184.87 22.84
0 4 2 173.31 19.28
0 4 2 188.25 20.38
-1 -4 -2 143.84 25.84
-1 -4 -2 149.53 18.15
1 4 2 146.34 20.24
-2 -4 -2 4.58 5.35
-2 -4 -2 15.55 13.19
2 4 2 33.27 13.33
3 4 2 83.4 19.65
4 4 2 94.13 24.86
5 4 2 117.77 49.08
6 -5 -2 65.61 27.33
5 -5 -2 113.65 16.02
5 -5 -2 117.53 33.45
-5 5 2 70.26 16.43
4 -5 -2 136.5 18.44
-4 5 2 144.4 18.06
3 -5 -2 139.98 15.9
3 -5 -2 132.35 12.36
3 -5 -2 129.06 30.62
-3 5 2 119.36 15.5
2 -5 -2 75.8 13.35
-2 5 2 59.13 12.37
-2 5 2 60.92 11.93
1 -5 -2 162.61 31.79
1 -5 -2 185.59 22.07
-1 5 2 184.1 19.94
-1 5 2 203.25 21.22
0 -5 -2 454.44 38.26
0 -5 -2 389.15 34.98
0 5 2 416.69 34.68
0 5 2 398.61 32.08
-1 -5 -2 1028.76 64.44
-1 -5 -2 1002.64 53.79
1 5 2 1043.57 61.73
1 5 2 983.05 58.98
-2 -5 -2 54.01 10.59
3 5 2 76.09 22.1
4 5 2 84.61 27.28
6 -6 -2 1.91 11.44
6 -6 -2 -2.59 19
-6 6 2 7.58 18.52
5 -6 -2 221.73 47.82
5 -6 -2 129.28 19.73
-5 6 2 141.32 22.6
4 -6 -2 243.62 23.56
4 -6 -2 275.24 43.25
-4 6 2 186.05 24.51
3 -6 -2 85.11 13.48
3 -6 -2 110.74 33.44
-3 6 2 118.09 19.9
-3 6 2 68.04 11.34
2 -6 -2 553.25 53.94
2 -6 -2 517.94 34.24
-2 6 2 542.3 36.77
-2 6 2 521.75 44.72
1 -6 -2 141.04 20.15
1 -6 -2 118.84 28.07
-1 6 2 78.88 18.76
-1 6 2 131.72 21.45
0 -6 -2 7.95 10.57
0 -6 -2 20.34 14.94
0 6 2 9.73 9.13
0 6 2 12.61 12.13
-1 -6 -2 4.16 11.12
1 6 2 13.15 12.48
-2 -6 -2 93.81 15.6
2 6 2 69.92 22.76
3 6 2 57.96 19.71
5 -7 -2 102.31 33.98
5 -7 -2 135.01 24.65
-5 7 2 119.03 24.82
4 -7 -2 34.28 20.88
-4 7 2 45.57 19.38
3 -7 -2 84.24 28.25
-3 7 2 98.45 19.35
-3 7 2 87.8 15.5
2 -7 -2 -20.49 10.62
2 -7 -2 -4.35 16.18
-2 7 2 11.11 10.01
-2 7 2 53.21 15.91
1 -7 -2 212.84 39.96
1 -7 -2 267.14 33.24
-1 7 2 233.63 27.65
-1 7 2 245.64 30.66
0 -7 -2 258.08 35.41
0 7 2 292.63 34.33
-1 -7 -2 134.49 23.62
1 7 2 83.44 26.69
-2 -7 -2 114.92 17.42
-2 -7 -2 169.81 22.41
2 7 2 91.97 24.71
4 -8 -2 38.03 25.59
-4 8 2 35.09 23.76
3 -8 -2 84.6 27.85
-3 8 2 27.02 19.38
-3 8 2 65.41 14.78
2 -8 -2 48.7 23.39
-2 8 2 10.85 13.32
1 -8 -2 -5.69 22.75
1 -8 -2 15.36 21.74
-1 8 2 33.34 17.49
0 -8 -2 94.93 27.91
0 8 2 106.41 26.34
-1 10 -3 20.37 18.98
-2 10 -3 23.66 17.52
2 -10 3 -5.32 20.52
1 9 -3 206.94 37.92
-1 -9 3 207.26 34.83
0 9 -3 142.93 31.74
-1 9 -3 57.66 21.06
-2 9 -3 33.64 14.55
2 -9 3 93.1 23.56
-3 9 -3 116.73 19.09
3 -9 3 101.39 26.62
4 -9 3 87.66 23.43
2 8 -3 3.04 16.12
-2 -8 3 10.54 18.12
1 8 -3 45.73 22.92
-1 -8 3 73.61 21.2
0 8 -3 266.07 32.14
0 -8 3 324.9 37.2
-1 8 -3 125.58 23.44
1 -8 3 103.7 26.58
1 -8 3 108.23 22.49
-2 8 -3 81.55 17.01
2 -8 3 40.26 18.55
-3 8 -3 50.22 11.79
-3 8 -3 18.41 10.8
3 -8 3 41.32 19.77
4 -8 3 118.5 22
5 -8 3 30.9 17.75
3 7 -3 37.11 18.08
-3 -7 3 0.5 12.12
2 7 -3 -2.23 11.29
-2 -7 3 -26.35 11.87
1 7 -3 141.16 27.02
-1 -7 3 127 24.58
0 7 -3 123.04 24.83
0 -7 3 134.49 25.54
-1 7 -3 565.54 40.49
-1 7 -3 508.5 41.81
1 -7 3 555.46 57.26
1 -7 3 538.14 43.15
-2 7 -3 136.48 23.76
-2 7 -3 179.99 24.29
2 -7 3 158.63 30.47
2 -7 3 190.26 31.45
-3 7 -3 295.41 22.3
-3 7 -3 345.47 23.35
3 -7 3 341.44 32.99
4 -7 3 147.85 26.97
5 -7 3 23.73 14.45
6 -7 3 70.15 16.45
4 6 -3 65.41 26.73
3 6 -3 49.8 20.2
-3 -6 3 38.22 12.66
2 6 -3 220.85 29.77
-2 -6 3 151.52 22.04
1 6 -3 102.55 23.93
1 6 -3 119.42 23.79
-1 -6 3 134.77 20.32
0 6 -3 1391.04 73.47
0 -6 3 1465.92 71
0 -6 3 1306.65 68.33
-1 6 -3 315.19 29.84
1 -6 3 339.41 30.56
1 -6 3 302.03 31.79
-2 6 -3 440.19 29.6
2 -6 3 419.96 40.11
2 -6 3 431.1 34.65
-3 6 -3 512.96 39.61
-3 6 -3 498.8 27.12
3 -6 3 495.4 44.5
3 -6 3 541.72 40.85
-4 6 -3 208.88 13.16
-4 6 -3 152.88 27.81
4 -6 3 272.26 29.49
5 -6 3 80.54 19.67
6 -6 3 26.37 19.79
5 5 -3 64.02 25.18
4 5 -3 19.98 16.02
3 5 -3 74.16 21.27
-3 -5 3 72.06 15.11
2 5 -3 54.5 26.59
2 5 -3 44.61 17.36
1 5 -3 -0.39 6.2
1 5 -3 15.81 9.55
-1 -5 3 9.47 9.33
0 5 -3 279.04 26.19
0 -5 3 286.51 28.24
0 -5 3 281.99 26.17
-1 5 -3 429.85 32.15
1 -5 3 477.67 34
1 -5 3 418.13 35.56
-2 5 -3 53.26 12.51
-2 5 -3 69.6 13.61
2 -5 3 64.11 15.99
2 -5 3 59.94 15.34
-3 5 -3 114.99 13.15
-3 5 -3 108.12 19.95
3 -5 3 119.61 22.63
3 -5 3 112.6 23.96
-4 5 -3 216.64 28.61
-4 5 -3 236.03 17.59
4 -5 3 195.3 27.28
4 -5 3 193.38 34.62
-5 5 -3 310.51 21.71
5 -5 3 257.55 55.96
6 -5 3 46.94 11.67
6 -5 3 5.46 14.46
5 4 -3 119.99 32.04
4 4 -3 171.95 34.47
4 4 -3 138.1 39.54
4 4 -3 159.86 16.27
3 4 -3 308.42 37.28
3 4 -3 288.76 22.51
3 4 -3 244.11 26.29
-3 -4 3 261.79 23.67
2 4 -3 273.89 30.47
2 4 -3 248.09 23.91
2 4 -3 243.52 21.69
-2 -4 3 177.12 20.33
1 4 -3 789.41 44.13
1 4 -3 879.24 45.34
0 4 -3 237.44 20.55
0 4 -3 231.71 23.75
0 -4 3 207.84 21.71
0 -4 3 234.3 22.27
-1 4 -3 694.06 38.41
1 -4 3 682.79 38.74
1 -4 3 664.28 43.08
-2 4 -3 2911.41 90.94
-2 4 -3 2911.2 100.81
2 -4 3 2915.41 101.85
2 -4 3 2944.01 112.81
-3 4 -3 344.17 30.15
-3 4 -3 391.13 23.86
3 -4 3 401.8 36.53
3 -4 3 331.06 30.2
-4 4 -3 1254.54 53.52
-4 4 -3 1289.67 69.97
4 -4 3 1258.11 66.99
4 -4 3 1267.41 72.33
4 -4 3 1271.1 53.53
-5 4 -3 258.92 24.65
5 -4 3 275.38 23.47
5 -4 3 238.37 32.7
5 -4 3 232.83 29.02
-6 4 -3 83.49 20.8
6 -4 3 68.64 22.79
6 -4 3 45.33 15.22
6 3 -3 15.51 19.91
6 3 -3 15.59 16.6
6 3 -3 9.95 10.22
5 3 -3 91.18 15.06
5 3 -3 145.5 31.47
4 3 -3 700.25 39.43
4 3 -3 761.96 58.12
4 3 -3 698.57 56.73
3 3 -3 153.33 30.23
3 3 -3 142.16 16.55
3 3 -3 114.21 20.05
-3 -3 3 130.02 18.23
2 3 -3 119.78 14.35
2 3 -3 105.82 13.91
-2 -3 3 106.53 15.62
1 3 -3 320.16 25.36
1 3 -3 330.6 23.27
-1 -3 3 355.23 27.01
-1 -3 3 337.36 23.95
0 3 -3 216.42 18.03
0 3 -3 212.66 21.03
0 -3 3 199.86 17.36
0 -3 3 213.85 21.45
-1 3 -3 534.73 30.91
-1 3 -3 566.7 31.32
-1 3 -3 587.25 37.72
1 -3 3 506.23 29.82
1 -3 3 465.26 33.43
-2 3 -3 -3 3.85
-2 3 -3 2.17 4.53
2 -3 3 12.55 5.21
2 -3 3 8.57 5.76
2 -3 3 -3.09 6.52
-3 3 -3 955.69 52.53
-3 3 -3 974.03 43.55
3 -3 3 955.94 51.17
3 -3 3 965.46 44.6
3 -3 3 849 52.69
-4 3 -3 90.8 24.46
-4 3 -3 130.24 17.27
4 -3 3 83.08 18.06
4 -3 3 119.6 16.38
4 -3 3 110.92 23.37
-5 3 -3 211.11 24.81
5 -3 3 185.61 30.88
5 -3 3 196.38 28.46
5 -3 3 178.04 21.09
-6 3 -3 156.92 27.9
6 -3 3 116.1 21.87
6 -3 3 125.74 27.31
6 -3 3 71.26 21.12
6 2 -3 -20.9 14.75
6 2 -3 -1.86 12.43
6 2 -3 -6.08 13.87
5 2 -3 90.02 17.55
5 2 -3 122.83 26.94
4 2 -3 142.9 29.07
4 2 -3 170.93 19.44
3 2 -3 114.36 15.77
3 2 -3 118.48 15.67
2 2 -3 4.22 4.43
2 2 -3 1.4 3.84
-2 -2 3 20.09 7.61
1 2 -3 11.94 4.69
1 2 -3 11.81 6.08
-1 -2 3 11.46 4.86
-1 -2 3 14.94 6.67
0 2 -3 782.71 40.86
0 2 -3 822.7 39.97
0 2 -3 856.22 35.63
0 -2 3 804.05 34.12
0 -2 3 823.5 42.41
-1 2 -3 1356.98 59.1
-1 2 -3 1371.23 52.59
-1 2 -3 1306.1 52.36
1 -2 3 1381.92 59.56
1 -2 3 1353.91 51.97
1 -2 3 1322.74 53.25
-2 2 -3 586.23 31.06
-2 2 -3 522.06 35.62
-2 2 -3 540.95 33.48
2 -2 3 519.57 31.12
2 -2 3 541.21 41.57
2 -2 3 560.29 36.19
-3 2 -3 826.33 43.19
-3 2 -3 868.76 50.07
3 -2 3 851.04 48.08
3 -2 3 894.35 49.57
3 -2 3 902.29 44.67
-4 2 -3 631.71 40.24
4 -2 3 604.77 45.19
4 -2 3 578.48 38.86
4 -2 3 613.76 42.11
-5 2 -3 132.13 25.42
5 -2 3 110.5 25.69
5 -2 3 135.09 23.93
5 -2 3 137.78 26.21
-6 2 -3 108.62 27.6
6 -2 3 47.5 20.24
6 -2 3 59.28 21.6
6 -2 3 66.62 20
6 1 -3 53 18.8
6 1 -3 43.31 17.97
6 1 -3 17.91 13.87
5 1 -3 172.26 23.99
5 1 -3 179.89 26.22
5 1 -3 121.43 22.09
4 1 -3 148.87 20.98
4 1 -3 155.91 28.68
3 1 -3 7.33 6.36
-3 -1 3 14.47 9.01
2 1 -3 904.04 34.34
2 1 -3 906.71 47.85
-2 -1 3 876.61 48.98
1 1 -3 11.77 3.82
1 1 -3 0.6 3.76
-1 -1 3 -2.29 4.8
-1 -1 3 5.79 3.05
0 1 -3 2645.07 76.11
0 1 -3 2672.82 85.08
0 1 -3 2557.11 88.31
0 -1 3 2417.14 87.35
0 -1 3 2611.9 85.64
0 -1 3 2570.48 74.87
-1 1 -3 539.05 32.07
-1 1 -3 572.38 31.11
-1 1 -3 527.98 29.2
1 -1 3 601.09 30.64
1 -1 3 560.61 31.21
1 -1 3 526.05 32.69
-2 1 -3 166.06 16.58
-2 1 -3 142.1 16.56
-2 1 -3 169.72 18.17
2 -1 3 157.74 21.72
2 -1 3 152.9 16.93
2 -1 3 176.17 17.85
-3 1 -3 115.97 20.13
-3 1 -3 74.47 17.34
3 -1 3 89.42 17.88
3 -1 3 104.19 25.53
3 -1 3 102.87 15.1
-4 1 -3 206.25 23.18
4 -1 3 185.35 20.61
4 -1 3 157.79 20.56
4 -1 3 164.62 28.27
-5 1 -3 404.01 40.1
5 -1 3 383.9 36.7
5 -1 3 419.59 41.96
5 -1 3 436.01 34.04
6 -1 3 34.75 18.28
6 -1 3 22.78 18.77
6 -1 3 30.65 15.89
6 0 -3 86.52 23.73
6 0 -3 77.63 19.44
6 0 -3 73.49 17.62
5 0 -3 175.5 25.3
5 0 -3 146.09 27.71
5 0 -3 205.64 22.41
4 0 -3 244.16 20.32
4 0 -3 224.1 27.55
3 0 -3 513.66 25.35
3 0 -3 476.97 37.96
-3 0 3 478.06 40.62
2 0 -3 87.19 6.26
2 0 -3 108.53 16.04
-2 0 3 96.45 20.24
1 0 -3 4235.55 103.8
1 0 -3 4053.81 132.48
1 0 -3 4374.59 125.75
-1 0 3 4151.43 102.97
-1 0 3 4285.9 135.73
0 0 -3 1023.9 48.68
0 0 -3 1090.4 45.04
0 0 -3 1011.53 37.97
0 0 3 1016.09 49.47
0 0 3 1060.66 37.61
0 0 3 1064.88 45.83
-1 0 -3 286.41 22.11
-1 0 -3 270.15 20.62
-1 0 -3 263.55 26.45
1 0 3 298.88 21.19
1 0 3 321.71 23.89
1 0 3 296.55 23.22
-2 0 -3 15.66 7.06
-2 0 -3 16.6 6.21
2 0 3 15.34 7.92
2 0 3 10.66 5.45
2 0 3 11.75 6.61
-3 0 -3 196.92 23.49
3 0 3 206.95 23.23
3 0 3 183.71 22.42
3 0 3 190.52 18.69
-4 0 -3 196.64 34.27
4 0 3 190.37 26.95
4 0 3 242.14 21.1
4 0 3 229.01 28.4
5 0 3 9.95 10.81
5 0 3 7.28 12.36
6 0 3 33.92 20.42
6 0 3 36.14 15.76
6 -1 -3 15.62 12.82
6 -1 -3 10.27 10.56
6 -1 -3 1.99 11.01
5 -1 -3 47.23 13.13
5 -1 -3 47.58 18.05
5 -1 -3 57.48 14.62
4 -1 -3 518.47 27.02
4 -1 -3 536.07 46.84
3 -1 -3 279.52 13.24
3 -1 -3 308.64 32.03
3 -1 -3 284.34 27.71
2 -1 -3 593.13 43.24
2 -1 -3 649.75 34.95
-2 1 3 701.3 48.02
1 -1 -3 460.02 27.87
1 -1 -3 453.85 34.13
-1 1 3 462.94 34.62
-1 1 3 482.84 16.68
-1 1 3 494.76 28.93
0 -1 -3 406 26.67
0 -1 -3 457.76 31.11
0 1 3 432.43 23.09
0 1 3 404.21 27.13
0 1 3 437.98 31.45
-1 -1 -3 90.2 13.44
-1 -1 -3 84.32 12.46
1 1 3 108.32 13.61
1 1 3 100.37 13.88
-2 -1 -3 45.98 13.89
-2 -1 -3 39.71 9.34
2 1 3 39.6 11.34
2 1 3 29 8.91
2 1 3 43.6 11.7
-3 -1 -3 -1.73 9.24
-3 -1 -3 1.24 4.21
3 1 3 6.32 8.68
3 1 3 -3.61 5.76
3 1 3 -3.43 5.74
-4 -1 -3 262 34.14
4 1 3 242.53 19.08
4 1 3 292.27 33.7
4 1 3 259.48 32.44
5 1 3 76.25 22.69
5 1 3 64.83 9.68
5 1 3 68.67 21.24
6 1 3 40.3 21.15
6 1 3 25.87 18.32
6 -2 -3 69.02 26.69
6 -2 -3 56.44 13.17
6 -2 -3 45.97 14.8
5 -2 -3 91.62 12.09
5 -2 -3 45.92 15.32
5 -2 -3 99.37 18.27
5 -2 -3 95.24 27.69
4 -2 -3 286.54 36.54
4 -2 -3 289.13 16.42
4 -2 -3 299.54 29.05
3 -2 -3 785.08 23.67
3 -2 -3 820.17 57.27
3 -2 -3 794.29 38.44
2 -2 -3 919.84 41.09
2 -2 -3 911.16 58.46
-2 2 3 894.18 58.49
1 -2 -3 1421.48 56.91
1 -2 -3 1406.94 83.82
-1 2 3 1445.99 45.96
-1 2 3 1556.98 59.6
-1 2 3 1430.79 72.75
0 -2 -3 758.3 44.91
0 -2 -3 693.86 39
0 2 3 756.37 41.33
0 2 3 700.68 53.65
-1 -2 -3 736.62 40.1
-1 -2 -3 685.14 42.67
1 2 3 673.16 40.38
1 2 3 793.32 44.77
-2 -2 -3 75.5 16.92
-2 -2 -3 66.23 11.55
2 2 3 74.62 13.93
2 2 3 71.26 17.86
2 2 3 47.22 14.12
-3 -2 -3 302.23 32.82
-3 -2 -3 309.96 19.49
3 2 3 316.57 33.92
3 2 3 378.66 36.26
3 2 3 320.2 21.96
4 2 3 26.15 13.03
4 2 3 0.18 9.5
5 2 3 13.15 16.86
5 2 3 61.37 21.67
6 -3 -3 111.14 23.08
6 -3 -3 72.08 26.44
6 -3 -3 96.82 17.57
5 -3 -3 235.7 24.7
5 -3 -3 213.09 17.06
5 -3 -3 235.24 20.84
4 -3 -3 120.4 10.67
4 -3 -3 93.32 13.04
4 -3 -3 117.95 28.62
3 -3 -3 87.98 22.94
3 -3 -3 107.3 12.97
-3 3 3 84.05 7.94
2 -3 -3 253.1 20.87
2 -3 -3 285.08 32.76
-2 3 3 252.89 21.04
-2 3 3 273.45 15.24
1 -3 -3 451.17 29.6
1 -3 -3 401.67 37.59
-1 3 3 417.34 22.86
-1 3 3 402.28 28.7
0 -3 -3 1747.46 74.47
0 3 3 1809.3 75.26
-1 -3 -3 436.01 31.72
-1 -3 -3 440.77 36.72
1 3 3 513.16 37.75
-2 -3 -3 260.31 20.86
-2 -3 -3 261.66 29.99
2 3 3 274.48 31.06
3 3 3 139.76 41.31
3 3 3 147.52 28.09
4 3 3 100.02 25.21
5 3 3 56.46 20.23
5 3 3 60.61 23.9
6 -4 -3 39.87 14.69
6 -4 -3 95.82 30.91
6 -4 -3 84.83 11.17
5 -4 -3 89.02 11.16
5 -4 -3 123.31 33.27
5 -4 -3 100.78 14.31
5 -4 -3 79.08 10.75
4 -4 -3 457.74 25.61
4 -4 -3 533.62 24.82
4 -4 -3 535.86 53.96
-4 4 3 516.52 25.62
3 -4 -3 221.41 32.48
3 -4 -3 230.49 18.91
-3 4 3 203.91 15.44
2 -4 -3 188.06 27.25
2 -4 -3 124.89 15.88
-2 4 3 146.03 13.77
-2 4 3 139.36 16.33
1 -4 -3 631.42 49.92
1 -4 -3 593.23 38.31
-1 4 3 637.2 39.17
-1 4 3 596.56 32.96
0 -4 -3 234.77 28.56
0 -4 -3 294.03 28.5
0 4 3 271.38 27.2
-1 -4 -3 413.06 32.72
-1 -4 -3 292.48 56.51
1 4 3 391.64 36.57
-2 -4 -3 222.83 20.59
2 4 3 219.14 30.2
3 4 3 33.74 17.04
4 4 3 100.09 27.78
4 4 3 19.45 14.96
6 -5 -3 10.81 22.87
6 -5 -3 -19.68 9.28
5 -5 -3 16.71 8.18
5 -5 -3 21.87 14.59
4 -5 -3 11.04 6.11
4 -5 -3 20.89 15.23
-4 5 3 13.76 7.79
3 -5 -3 123.6 28.83
3 -5 -3 97.37 15.93
-3 5 3 122.12 16.88
2 -5 -3 198.62 20.99
2 -5 -3 205.84 32.34
-2 5 3 137.32 16.94
-2 5 3 171.53 19.5
1 -5 -3 402.68 32.56
1 -5 -3 380.13 40.78
-1 5 3 410.14 30.59
-1 5 3 380.33 31.66
0 -5 -3 667.85 51.24
0 -5 -3 702.13 50.04
0 5 3 674.29 47.04
0 5 3 656.51 43.34
-1 -5 -3 277.08 29.09
-1 -5 -3 241.26 43.66
1 5 3 265.13 31.25
-2 -5 -3 52.89 13.03
2 5 3 70.46 21.56
3 5 3 66.94 24.06
5 -6 -3 122.27 32.55
-5 6 3 171.08 20.85
4 -6 -3 68.21 23.56
-4 6 3 73.29 17.35
3 -6 -3 190.63 39.84
3 -6 -3 203.07 26.58
-3 6 3 163.33 21.64
-3 6 3 203.04 21.92
2 -6 -3 221.17 25.79
2 -6 -3 163.18 40.83
-2 6 3 188.15 22.72
-2 6 3 186.43 22.1
1 -6 -3 22.22 12.95
1 -6 -3 9.28 14.73
-1 6 3 8.53 10.79
-1 6 3 24.67 12.92
0 -6 -3 222.3 36.71
0 -6 -3 174.79 29.7
0 6 3 222.77 29.73
0 6 3 182.41 27.29
-1 -6 -3 214.68 31.13
1 6 3 166.43 33.49
-2 -6 -3 139.86 20.23
2 6 3 76.99 23.92
4 -7 -3 45.88 30.39
-4 7 3 87.14 20.82
3 -7 -3 47.22 14.82
3 -7 -3 28.72 22.17
-3 7 3 43.9 16.36
2 -7 -3 37.29 18.33
2 -7 -3 39.59 24.4
-2 7 3 15.66 16.74
-2 7 3 53.88 14.6
1 -7 -3 3.8 26.53
1 -7 -3 34.55 19.34
-1 7 3 8.59 17.78
-1 7 3 24.64 16.44
0 -7 -3 51.51 22.96
0 7 3 18.22 17.44
-1 -7 -3 91.92 24.75
3 -8 -3 69.66 25.07
-3 8 3 38.35 22.64
-3 8 3 23.34 16.68
2 -8 -3 13.96 22.41
2 -8 -3 22.77 23.94
-2 8 3 26.05 16.13
1 -8 -3 -30.75 20.22
-1 8 3 -4.7 16.3
-1 10 -4 62.36 22
-2 10 -4 45.13 20.24
2 -10 4 23.93 24.45
1 9 -4 115.06 30.54
-1 -9 4 189.42 35.18
0 9 -4 140.03 29.42
-1 9 -4 85.83 21.02
1 -9 4 94.29 26.37
-2 9 -4 119.52 22.59
2 -9 4 62.09 23.27
-3 9 -4 42.15 17.86
-3 9 -4 54.88 14.3
3 -9 4 77.02 24.92
4 -9 4 33.98 23.52
2 8 -4 100.11 30.39
-2 -8 4 70.94 22.29
1 8 -4 210.04 39.65
-1 -8 4 247.52 36.25
0 8 -4 135.06 28.16
0 -8 4 211.29 33.24
-1 8 -4 121.23 25.41
1 -8 4 86.86 21.25
-2 8 -4 60.68 16.19
-2 8 -4 17.98 16.05
2 -8 4 84.97 23.59
-3 8 -4 40.82 13.49
3 -8 4 52.55 21.61
-4 8 -4 84.84 12.96
-4 8 -4 104.77 14.56
4 -8 4 120.58 27.27
5 -8 4 27.69 19.24
3 7 -4 47.94 17.05
-3 -7 4 0.78 18.62
2 7 -4 204.99 38.53
-2 -7 4 217.92 29.14
1 7 -4 284.43 35.71
-1 -7 4 272.66 32.07
0 7 -4 340.92 37.83
0 -7 4 457.38 42.96
0 -7 4 359.55 37.19
1 -7 4 610.1 46.3
1 -7 4 648.27 51.6
-2 7 -4 96.8 20.7
2 -7 4 151.73 27.65
2 -7 4 150.18 32.42
-3 7 -4 471.81 31.61
3 -7 4 476.01 43.61
-4 7 -4 121.53 15.12
4 -7 4 133.49 27.09
5 -7 4 -18.73 9.81
4 6 -4 75.29 25.71
-4 -6 4 58.23 20.53
3 6 -4 7.74 14.22
-3 -6 4 80.82 19.93
2 6 -4 26.82 19.42
-2 -6 4 -1.61 10.84
1 6 -4 549.94 48.22
1 6 -4 481.06 38.13
-1 -6 4 527.29 41.28
0 6 -4 721.97 47.52
0 -6 4 691.11 47
0 -6 4 688.2 49.36
-1 6 -4 293.75 32
1 -6 4 318.72 30.73
1 -6 4 314.76 33.75
-2 6 -4 319.05 27.78
-2 6 -4 339.14 31.61
2 -6 4 272.27 32.93
2 -6 4 300.34 30.69
-3 6 -4 170.28 29.17
-3 6 -4 173.36 19.91
3 -6 4 132.21 25.75
3 -6 4 132.96 30.26
-4 6 -4 151.93 16.93
4 -6 4 109.19 27.34
-5 6 -4 80.88 14.01
5 -6 4 76.42 20.15
-6 6 -4 14.76 13.03
6 -6 4 -26.1 12.69
5 5 -4 -4.47 16.3
4 5 -4 141.48 34.68
4 5 -4 132.96 17.06
-4 -5 4 92.01 21.68
3 5 -4 286.86 26.62
3 5 -4 290.2 38.3
3 5 -4 382.67 36.23
-3 -5 4 312.51 32.59
2 5 -4 53.24 17.41
2 5 -4 43.87 10.47
-2 -5 4 31.17 12.29
1 5 -4 113.43 17.68
1 5 -4 91.79 18.62
-1 -5 4 121.59 23.39
-1 -5 4 119.41 22.1
0 5 -4 869.92 49.19
0 5 -4 898.61 56.05
0 -5 4 916.59 55.88
0 -5 4 909.22 50.12
-1 5 -4 226.93 25.3
-1 5 -4 231.23 24.6
1 -5 4 229.81 23.57
1 -5 4 237.33 27.93
-2 5 -4 210.15 20.8
-2 5 -4 176.79 27.61
2 -5 4 230.63 28.53
2 -5 4 229.1 25.03
-3 5 -4 371.79 26.8
-3 5 -4 322.01 33.79
3 -5 4 345.29 32.9
3 -5 4 331.1 35.62
-4 5 -4 207.57 21.22
4 -5 4 218.81 29.21
4 -5 4 230.88 39.41
-5 5 -4 259.42 25.16
5 -5 4 273.27 42.87
5 -5 4 332.79 35.62
-6 5 -4 -8.12 13.76
6 -5 4 -2.96 14.5
6 -5 4 -20.16 10.19
5 4 -4 70.27 24.48
4 4 -4 41.17 12.71
4 4 -4 60.83 19.35
4 4 -4 34.11 19.49
-4 -4 4 9.49 15
3 4 -4 46 14.86
3 4 -4 17.04 14.53
3 4 -4 40.77 12.21
-3 -4 4 39.67 14.01
2 4 -4 118.58 20.85
2 4 -4 69.51 14.75
-2 -4 4 93.43 19.64
1 4 -4 7.37 9.44
1 4 -4 23.26 8.89
-1 -4 4 34.38 13.03
-1 -4 4 -4.61 5.65
0 4 -4 191.1 19.44
0 4 -4 198.95 24.32
0 -4 4 200.86 19.89
0 -4 4 208.27 23.93
-1 4 -4 2224.01 94.1
-1 4 -4 2179.54 82.69
-1 4 -4 2202.8 82.74
1 -4 4 2169.87 91.51
1 -4 4 2069.28 80.27
-2 4 -4 346.88 34.07
-2 4 -4 353.51 29.96
-2 4 -4 387.79 27.41
2 -4 4 372.79 29.59
2 -4 4 381.14 34.56
-3 4 -4 316.15 25.23
-3 4 -4 336.02 31.66
3 -4 4 359.41 35.41
3 -4 4 366.72 32.61
3 -4 4 327.89 27.14
-4 4 -4 757.58 52.41
-4 4 -4 738.57 42.64
4 -4 4 755.14 44.39
4 -4 4 753.65 56.08
4 -4 4 842.34 54.12
-5 4 -4 30.37 13.41
5 -4 4 29.82 17.25
5 -4 4 -7.15 16.55
5 -4 4 40.33 13.71
-6 4 -4 95.81 23.43
6 -4 4 40.23 22.76
6 -4 4 108.94 23.26
6 3 -4 -7.45 14.26
6 3 -4 -6.56 15.37
5 3 -4 231.16 26.49
5 3 -4 207.43 32.66
5 3 -4 219.42 41.4
4 3 -4 236.08 26.98
4 3 -4 233.58 41.24
4 3 -4 269.27 25.95
-4 -3 4 251.62 33.2
3 3 -4 189.94 21.4
-3 -3 4 159.74 23.08
2 3 -4 335.45 25.04
2 3 -4 335.82 31.11
-2 -3 4 331.23 29.97
1 3 -4 20.4 6.94
-1 -3 4 40.98 12.06
-1 -3 4 29.31 9.51
0 3 -4 950.09 53.49
0 3 -4 870.5 47.66
0 3 -4 838.34 41.2
0 -3 4 885.55 41.92
0 -3 4 864.28 50.32
-1 3 -4 452.79 30.07
-1 3 -4 466.32 31.04
-1 3 -4 516.21 38.39
1 -3 4 432.93 35.4
1 -3 4 477.63 31.77
-2 3 -4 252.19 27.03
-2 3 -4 209.02 21.61
-2 3 -4 181.46 19.81
2 -3 4 195.13 20.63
2 -3 4 211.14 21.49
2 -3 4 196.42 23.69
-3 3 -4 31.99 13.93
-3 3 -4 38.67 11.31
3 -3 4 23.28 11.35
3 -3 4 27.98 10.58
3 -3 4 51.65 14.15
-4 3 -4 110.98 21.43
-4 3 -4 114.07 23.49
4 -3 4 130.34 17.79
4 -3 4 133.64 24.86
4 -3 4 107.33 23.05
-5 3 -4 104.45 22.24
5 -3 4 75 17.55
5 -3 4 59.52 22.54
5 -3 4 71.03 19.99
-6 3 -4 21.06 20.04
6 -3 4 -10.17 22.82
6 -3 4 5.55 15.18
6 2 -4 180.76 37.24
6 2 -4 180.73 31.57
6 2 -4 186.45 29.12
5 2 -4 197.35 36.11
5 2 -4 255.52 29.21
5 2 -4 223.66 27.59
4 2 -4 229.53 32.63
4 2 -4 223.41 25.32
4 2 -4 177.91 21.14
-4 -2 4 140.42 27.56
3 2 -4 72.08 17.18
3 2 -4 71.45 12.85
-3 -2 4 93.18 20.5
2 2 -4 280.09 19.41
2 2 -4 273.6 26.91
-2 -2 4 289.59 28.93
1 2 -4 1329.97 49.1
1 2 -4 1318.78 64.7
-1 -2 4 1212.81 61.53
-1 -2 4 1304.44 49.02
0 2 -4 99.48 15.22
0 2 -4 59.25 10.35
0 2 -4 99.11 18.08
0 -2 4 70.62 10.03
0 -2 4 61.04 14.65
-1 2 -4 478.28 30.79
-1 2 -4 446.94 41.56
-1 2 -4 456.97 29.27
1 -2 4 454.74 31.23
1 -2 4 463.74 34.62
1 -2 4 425.66 27.88
-2 2 -4 284.94 24.96
-2 2 -4 282.08 27.31
-2 2 -4 280.57 23.28
2 -2 4 270.47 26.7
2 -2 4 258.53 24.37
2 -2 4 282.18 25.55
-3 2 -4 41.84 13.32
-3 2 -4 22.89 10.24
-3 2 -4 20.3 10.16
3 -2 4 49.26 13.78
3 -2 4 56.43 14.39
3 -2 4 35.33 12.76
-4 2 -4 108.28 21.8
-4 2 -4 161.02 30.61
4 -2 4 138.75 23.71
4 -2 4 191.15 26.69
4 -2 4 124.61 23.77
-5 2 -4 125.21 26.37
5 -2 4 66.95 19.25
5 -2 4 129.9 23.91
5 -2 4 109.71 24.09
6 -2 4 49.21 21.63
6 -2 4 87.63 27.94
6 -2 4 32.71 19.93
6 1 -4 121.09 29.13
6 1 -4 87.54 20.79
6 1 -4 96.77 23.88
5 1 -4 441.93 42.64
5 1 -4 363.85 37.7
5 1 -4 397.35 32.43
4 1 -4 340.04 24.65
4 1 -4 407.25 38.69
-4 -1 4 472.23 42.59
3 1 -4 288.13 31.1
3 1 -4 295.89 19.59
-3 -1 4 298.12 32.21
2 1 -4 154.83 11.57
2 1 -4 162.86 21.32
-2 -1 4 150.81 20.5
1 1 -4 826.73 31.85
1 1 -4 877.52 46.16
1 1 -4 805.71 56.92
-1 -1 4 856.69 32.09
-1 -1 4 853.43 50.85
0 1 -4 615.62 36.35
0 1 -4 632.87 30.31
0 1 -4 637.81 40.9
0 -1 4 607.92 40.39
0 -1 4 648.17 38.4
0 -1 4 623.19 29.04
-1 1 -4 305.62 26.32
-1 1 -4 278.65 23.94
-1 1 -4 288.51 27.89
1 -1 4 261.29 21.62
1 -1 4 293.22 26.57
-2 1 -4 117.1 16.36
-2 1 -4 128.28 17.39
-2 1 -4 174.27 20.02
2 -1 4 161.09 18.61
2 -1 4 145.98 18.87
2 -1 4 165.47 19.37
-3 1 -4 61.72 15.94
-3 1 -4 32.92 14.07
-3 1 -4 37.09 12.92
3 -1 4 62.68 16.38
3 -1 4 39.67 12.94
3 -1 4 57.25 13.51
-4 1 -4 127.67 37.94
4 -1 4 104.64 23.04
4 -1 4 70.5 20.25
4 -1 4 100.41 19.83
5 -1 4 159.04 25.3
5 -1 4 143.13 27.15
5 -1 4 145.59 31.79
6 -1 4 5.17 16.44
6 -1 4 -0.21 16.5
6 -1 4 -17.63 14.08
6 0 -4 30.72 19.6
6 0 -4 41.95 13.45
6 0 -4 12.57 12.39
5 0 -4 88.29 18.75
5 0 -4 84.59 24.86
5 0 -4 136.51 27.04
4 0 -4 829.31 59.04
4 0 -4 821.61 35.36
4 0 -4 825.32 36.8
3 0 -4 292.92 32
3 0 -4 296.43 14.63
3 0 -4 313.91 15.69
-3 0 4 356.55 37.47
2 0 -4 1059.83 60.09
2 0 -4 1040.24 51.7
-2 0 4 995.03 60.67
1 0 -4 3011.59 110.78
1 0 -4 2804.23 76.97
1 0 -4 2861.69 98.41
-1 0 4 2816.73 109.63
-1 0 4 2891.36 75.89
-1 0 4 2833.01 99.41
0 0 -4 1114.1 43.78
0 0 -4 1095.91 51.6
0 0 -4 1139.11 56.42
0 0 4 1134.65 59.04
0 0 4 1117.3 42.85
0 0 4 941.29 63.56
-1 0 -4 2.08 5.21
-1 0 -4 23.31 9.01
1 0 4 8.02 6.51
1 0 4 9.81 5.35
1 0 4 6.82 5.17
-2 0 -4 111.59 15.22
-2 0 -4 90.88 18.98
2 0 4 79.42 15.43
2 0 4 107.65 18.95
2 0 4 95.66 18.93
-3 0 -4 25.68 9.49
-3 0 -4 42.49 13.03
3 0 4 26.81 11.27
3 0 4 35.19 14.07
3 0 4 12.37 8.85
-4 0 -4 102.47 23.49
4 0 4 95.42 23.48
4 0 4 121.01 17.81
4 0 4 81.64 21.32
5 0 4 0.16 11.04
5 0 4 -10.33 10.48
5 0 4 14.9 12.86
6 0 4 -5.23 18.63
6 0 4 16.61 16.84
6 -1 -4 38.98 15.42
6 -1 -4 -27.58 14.27
6 -1 -4 9.71 9.77
5 -1 -4 317.48 38.88
5 -1 -4 246.95 17.97
5 -1 -4 278.9 30.45
4 -1 -4 435.66 17.88
4 -1 -4 357.85 31.89
4 -1 -4 498.77 47.57
4 -1 -4 405.65 17.12
3 -1 -4 492.97 34.31
3 -1 -4 453.99 42.58
-3 1 4 450.89 43.14
2 -1 -4 221.89 27.85
2 -1 -4 231.11 21.35
-2 1 4 265.41 32.2
1 -1 -4 201.34 25.03
1 -1 -4 216.03 20.75
-1 1 4 224.54 12.16
-1 1 4 230 26.28
-1 1 4 157.35 30.29
0 -1 -4 595.6 36.72
0 -1 -4 526.61 46.85
0 1 4 615.15 42.78
0 1 4 620.83 30.94
0 1 4 599.74 38.03
-1 -1 -4 93.34 17.41
-1 -1 -4 67.62 15.08
1 1 4 70.53 15.45
1 1 4 63.53 21.71
1 1 4 89.34 18.86
-2 -1 -4 30.63 10.36
2 1 4 41.71 11.37
2 1 4 47.19 12.98
2 1 4 34.88 13.59
-3 -1 -4 -3.41 10.66
-3 -1 -4 -2.93 5.7
3 1 4 14.79 9.35
3 1 4 13.48 8.01
3 1 4 9.05 6.63
4 1 4 79.69 16.41
4 1 4 149.35 29.61
4 1 4 128.01 27.26
5 1 4 17.82 13.57
5 1 4 32.09 16.06
5 1 4 13.23 10.22
6 -2 -4 28.64 19.41
6 -2 -4 24.37 17.39
6 -2 -4 27.39 13.05
6 -2 -4 8.75 7.29
5 -2 -4 109.68 21.83
5 -2 -4 182.07 44.72
5 -2 -4 150.22 10.76
4 -2 -4 450.17 32.41
4 -2 -4 459.72 48.55
3 -2 -4 851.09 45.28
3 -2 -4 848.86 62.53
2 -2 -4 84.57 16.21
2 -2 -4 102.22 24.37
-2 2 4 61.28 18.17
1 -2 -4 611.7 38.11
1 -2 -4 585.25 45.88
-1 2 4 618.77 38.87
-1 2 4 673.33 51.56
-1 2 4 601.11 27.27
0 -2 -4 674.47 42.41
0 -2 -4 660.87 45.18
0 2 4 706.56 50.02
0 2 4 658.4 35.51
0 2 4 638.08 41.28
-1 -2 -4 553.15 40.83
1 2 4 589.79 38.62
1 2 4 595.81 41.25
1 2 4 603.36 43.11
-2 -2 -4 599.93 37.26
-2 -2 -4 521.52 43.6
2 2 4 583.43 40.04
2 2 4 570.12 44.48
2 2 4 588.46 43.37
-3 -2 -4 366.07 26.4
3 2 4 301.93 34.01
3 2 4 392.27 39.27
3 2 4 371.8 28.15
4 2 4 38.77 17.08
4 2 4 44.37 16.62
4 2 4 22.3 9.25
5 2 4 93.64 25.26
5 2 4 81.49 25.72
6 -3 -4 184.74 40.11
6 -3 -4 169.79 21.54
6 -3 -4 110.52 11.16
6 -3 -4 81.31 18.56
5 -3 -4 18.64 11.47
5 -3 -4 27.09 20.17
4 -3 -4 509.59 55.59
4 -3 -4 505.27 32.63
3 -3 -4 342.86 28.03
3 -3 -4 436.09 46.99
2 -3 -4 69.27 14.25
2 -3 -4 54.63 18.45
-2 3 4 57.86 13.56
-2 3 4 67.7 7.41
1 -3 -4 428.37 33.17
1 -3 -4 417.59 39.44
-1 3 4 438.09 24.84
-1 3 4 489.72 45.03
-1 3 4 454.81 33.99
0 -3 -4 597.08 41.83
0 -3 -4 614.53 45.66
0 3 4 542.93 44.35
0 3 4 531.89 40.86
-1 -3 -4 33.3 19.54
-1 -3 -4 20.5 10.41
1 3 4 38.41 13.24
1 3 4 -3.51 10.27
-2 -3 -4 374.37 30.21
2 3 4 402.13 33.13
2 3 4 355.2 36.78
2 3 4 399.6 37.26
-3 -3 -4 14.31 7.21
3 3 4 7.06 13.5
3 3 4 -3.88 10.43
4 3 4 -1.71 14.66
4 3 4 23.07 16.83
6 -4 -4 31.31 24.28
6 -4 -4 9.57 12.49
6 -4 -4 38.59 11.25
5 -4 -4 -6.24 14.98
4 -4 -4 109.74 16.09
4 -4 -4 148.1 36.35
3 -4 -4 166.54 19.41
3 -4 -4 123.21 31.73
-3 4 4 134.27 9.36
2 -4 -4 84.72 16.63
2 -4 -4 62.79 20.53
-2 4 4 114.07 12.33
-2 4 4 120 21.97
1 -4 -4 29.25 13.83
1 -4 -4 -9.17 7.92
-1 4 4 29.08 10.38
-1 4 4 11.13 7.05
0 -4 -4 443.29 40.38
0 -4 -4 376.28 42.5
0 4 4 390.46 35.63
-1 -4 -4 625.03 45.48
-1 -4 -4 503.77 46.81
1 4 4 613.23 48.53
-2 -4 -4 43.84 15.39
2 4 4 18.34 13.83
-3 -4 -4 68.95 11.63
3 4 4 36.49 21.58
3 4 4 57.73 19.4
4 4 4 84.48 28.49
4 4 4 59.82 31.5
5 -5 -4 60.09 10.6
5 -5 -4 26.5 23.69
4 -5 -4 42.35 18.26
-4 5 4 80.07 8.88
3 -5 -4 95.57 18.25
3 -5 -4 46.21 19.83
-3 5 4 91.74 13.4
2 -5 -4 275.34 42.1
2 -5 -4 236.03 27.3
-2 5 4 233.33 26.55
-2 5 4 262.53 21.98
1 -5 -4 94.86 22.03
1 -5 -4 86.63 25.63
-1 5 4 81.39 17.62
-1 5 4 82.11 20.19
0 -5 -4 53.62 19.09
0 -5 -4 79.22 21.31
0 5 4 75.75 20.12
0 5 4 70.67 18.65
-1 -5 -4 30.21 14.9
1 5 4 8.54 15.39
-2 -5 -4 53.14 16.95
2 5 4 35.02 20.78
3 5 4 77.11 24.08
3 5 4 5.25 17.25
5 -6 -4 97.37 46.92
4 -6 -4 26.41 18.95
4 -6 -4 0.63 17.42
-4 6 4 31.5 10.95
3 -6 -4 98.46 19.18
3 -6 -4 102.91 34.79
-3 6 4 89.98 17.6
-3 6 4 85.86 19.68
2 -6 -4 44.18 17.64
2 -6 -4 57.25 22.46
-2 6 4 38.09 14.01
-2 6 4 40.45 14
1 -6 -4 -4.32 22.03
1 -6 -4 30.01 17.24
-1 6 4 45.35 18.74
-1 6 4 10.9 13.65
0 -6 -4 -12.85 14.44
0 6 4 -21.08 11.74
-1 -6 -4 5.83 15.39
1 6 4 46.45 19.58
-2 -6 -4 46.12 17.97
2 6 4 26.52 17.8
3 -7 -4 19.53 22.24
3 -7 -4 46.58 17.33
-3 7 4 -3.26 14.97
-3 7 4 24.59 18.33
2 -7 -4 9.9 22.25
2 -7 -4 16.89 21.01
-2 7 4 11.5 18
-2 7 4 11.14 14.85
1 -7 -4 72.48 27.24
-1 7 4 33.59 17.48
0 -7 -4 -8.4 31.49
0 7 4 57.91 20
1 9 -5 54.45 24.57
0 9 -5 80.01 25.28
-1 9 -5 92.1 24.98
1 -9 5 48.17 20.84
-2 9 -5 49.51 21.02
-2 9 -5 10.4 13.88
2 -9 5 21.58 17.48
-3 9 -5 9.45 14.09
-3 9 -5 72.86 20.53
3 -9 5 46.39 20.72
-4 9 -5 52.48 19.42
-4 9 -5 80.14 19.96
4 -9 5 59.94 22.09
2 8 -5 47.32 18.24
-2 -8 5 42.5 22.39
1 8 -5 154.27 33.1
-1 -8 5 192.02 37.87
0 -8 5 8.56 12.68
1 -8 5 34.18 17.26
-2 8 -5 16.85 15.13
2 -8 5 -23.4 9.29
-3 8 -5 38.22 16.3
3 -8 5 17.57 12.02
-4 8 -5 33.49 14.16
4 -8 5 23.97 18.14
-5 8 -5 12.56 12.31
5 -8 5 42.22 19.74
3 7 -5 17.01 19.24
-3 -7 5 -8.39 20.76
2 7 -5 66.14 23.94
-2 -7 5 63.42 22.57
1 7 -5 40.34 21.06
-1 -7 5 94.85 23.01
0 -7 5 776.14 86.26
0 -7 5 890.17 63.89
1 -7 5 140.63 41.05
1 -7 5 147 27.86
-2 7 -5 109.47 22.78
2 -7 5 92.21 19.7
-3 7 -5 147.85 21.44
3 -7 5 129.7 26.41
-4 7 -5 54.62 15.46
4 -7 5 102.61 24.81
-5 7 -5 57.42 16.71
5 -7 5 27.79 18.39
4 6 -5 10.81 12.53
4 6 -5 35.75 19.49
-4 -6 5 3.1 20.45
3 6 -5 243.08 45.56
3 6 -5 272.78 29.81
-3 -6 5 276.24 37.13
2 6 -5 136.31 33.16
-2 -6 5 135.76 24.79
1 6 -5 137.69 27.17
1 6 -5 91.7 20.92
-1 -6 5 117.24 27.03
-1 -6 5 116.17 24.68
0 6 -5 104.38 24.22
0 6 -5 101.63 20.9
0 -6 5 100.64 21.55
0 -6 5 116.98 25.39
-1 6 -5 263.56 30.35
-1 6 -5 255 30.02
1 -6 5 279.14 30.31
1 -6 5 317.16 36.27
-2 6 -5 143.36 25.3
-2 6 -5 177.55 22.99
2 -6 5 196.2 26.97
2 -6 5 243.55 41.01
-3 6 -5 191.55 22.36
3 -6 5 221.24 28.79
-4 6 -5 37.36 14.14
4 -6 5 57.46 18.63
-5 6 -5 9.79 13.13
5 -6 5 21.06 17.26
6 -6 5 9.42 16.74
4 5 -5 -4.14 11.03
4 5 -5 -17.57 14.46
-4 -5 5 -31.11 15.12
3 5 -5 68.57 24.55
3 5 -5 99.85 18.78
3 5 -5 43.94 18.96
-3 -5 5 70.19 18.23
2 5 -5 19.29 12.26
2 5 -5 4.03 8.37
-2 -5 5 18.04 11.51
1 5 -5 61.64 15.37
1 5 -5 57.1 15.72
-1 -5 5 70.22 16.9
-1 -5 5 66.17 19.19
0 5 -5 38.03 14.84
0 5 -5 19.95 8.34
0 -5 5 8.62 10.85
0 -5 5 22.26 9.34
-1 5 -5 136.02 27.51
-1 5 -5 138.65 19.22
-1 5 -5 137.92 20.51
1 -5 5 131.32 22.23
1 -5 5 145.32 26.87
-2 5 -5 192.5 34.8
-2 5 -5 193.92 22.68
-2 5 -5 214.22 28.02
2 -5 5 175.23 27.4
2 -5 5 166.85 21.17
-3 5 -5 65.87 18.49
-3 5 -5 42.74 13.14
3 -5 5 40.58 13.36
3 -5 5 35.87 15.03
-4 5 -5 199.22 24.28
4 -5 5 126.69 29.28
-5 5 -5 124.78 24.04
5 -5 5 109.54 26.91
-6 5 -5 11.29 19.73
6 -5 5 18.03 13.34
6 -5 5 49.9 21.7
5 4 -5 7.99 12.12
5 4 -5 13.34 19.24
4 4 -5 139.64 33.37
4 4 -5 170.74 25.52
4 4 -5 208.09 28.03
-4 -4 5 201.95 30.02
3 4 -5 96.15 20.53
3 4 -5 79 18.48
-3 -4 5 58.55 17.99
2 4 -5 232.35 26.66
2 4 -5 237 24.74
-2 -4 5 247.81 28.19
1 4 -5 488.05 40.59
1 4 -5 442.03 32.28
-1 -4 5 487.31 33.76
-1 -4 5 490.42 38.96
0 4 -5 69.42 19.05
0 4 -5 94.99 17.23
0 4 -5 109.5 23.41
0 -4 5 73.8 17.62
0 -4 5 59.81 12.88
-1 4 -5 434.83 39.75
-1 4 -5 438.63 32.25
-1 4 -5 435.64 34.4
1 -4 5 380.22 29.96
1 -4 5 444.68 40.53
-2 4 -5 126.36 22.11
-2 4 -5 112.46 24.24
-2 4 -5 87.82 17.17
2 -4 5 149.72 23.55
2 -4 5 126.52 22.76
-3 4 -5 315.81 31.26
-3 4 -5 347.11 29
3 -4 5 309.96 29.91
3 -4 5 314.81 31.53
-4 4 -5 353.26 31.47
4 -4 5 402.2 71.4
4 -4 5 380.13 34.82
4 -4 5 394.02 40.99
-5 4 -5 -23.63 11.65
5 -4 5 26.47 16.09
5 -4 5 1.55 10.16
-6 4 -5 -3.99 18.25
6 -4 5 47.57 22.6
5 3 -5 385.23 38.28
5 3 -5 423.42 50.02
5 3 -5 384.6 39.62
4 3 -5 166.79 22.67
4 3 -5 168.6 25.53
-4 -3 5 90.02 26.64
3 3 -5 82.32 19.48
3 3 -5 76.54 15.46
-3 -3 5 55.9 17.51
2 3 -5 30.15 13.46
2 3 -5 52.67 11.8
-2 -3 5 16.66 11.65
1 3 -5 21.55 7.33
1 3 -5 13.58 11.23
-1 -3 5 21.59 7.82
-1 -3 5 21.66 11.38
0 3 -5 202.83 24.3
0 3 -5 186.22 23.81
0 3 -5 214.18 20.12
0 -3 5 224.48 21.59
0 -3 5 258.64 28.64
-1 3 -5 34.9 11.09
-1 3 -5 29.38 11.63
-1 3 -5 57.83 13.68
1 -3 5 47.25 14.47
1 -3 5 59.84 13.52
-2 3 -5 268.23 29.72
-2 3 -5 252.18 25.98
-2 3 -5 228.59 24.82
2 -3 5 260.63 29.55
2 -3 5 245.87 26.37
2 -3 5 223.08 24.32
-3 3 -5 306.76 29.17
-3 3 -5 260.78 30.72
-3 3 -5 307.74 32.93
3 -3 5 308.43 30.35
3 -3 5 280.77 31.78
3 -3 5 313.35 30.39
-4 3 -5 35.23 14.31
4 -3 5 42.72 15.65
4 -3 5 61.73 16.73
4 -3 5 90.62 26.23
-5 3 -5 -17.48 13.83
5 -3 5 -8.34 18.22
5 -3 5 -3.7 10.56
5 -3 5 3.9 11.78
6 -3 5 -4.36 15.43
6 -3 5 -5.54 15
6 2 -5 -7.03 15.06
6 2 -5 9.9 17.02
6 2 -5 14.52 14.75
6 2 -5 44.85 21.92
5 2 -5 81.89 20.67
5 2 -5 95.63 26.25
5 2 -5 104.29 26.7
4 2 -5 251.19 22.94
4 2 -5 245.07 29.72
-4 -2 5 212.81 38.11
3 2 -5 16.83 7.14
3 2 -5 18.9 10.94
-3 -2 5 12.82 13.16
2 2 -5 22.2 11.6
-2 -2 5 29.9 12.09
1 2 -5 99.53 20.26
1 2 -5 97.17 11.66
1 2 -5 92.52 20.3
-1 -2 5 109.72 12.4
-1 -2 5 76.45 17.75
0 2 -5 267.87 26.6
0 2 -5 269.75 28.13
0 -2 5 281.31 20.91
0 -2 5 272.42 29.95
-1 2 -5 222.2 22.86
-1 2 -5 212.62 25.23
-1 2 -5 193.58 20.98
1 -2 5 202.07 19.77
1 -2 5 221.84 26.43
1 -2 5 221.22 23.8
-2 2 -5 172.89 22.51
-2 2 -5 137.56 18.82
-2 2 -5 172.16 22.27
2 -2 5 192.78 20.94
2 -2 5 169.62 23.58
2 -2 5 172.91 22.27
-3 2 -5 316.99 30.36
-3 2 -5 346.29 33.45
-3 2 -5 321.41 34.56
3 -2 5 332.32 33.02
3 -2 5 350.18 33.48
3 -2 5 310.87 33.6
-4 2 -5 235.76 31.13
4 -2 5 204.56 27.41
4 -2 5 251.87 29.1
4 -2 5 234.76 41.71
5 -2 5 -13.6 25.25
5 -2 5 59.55 20.73
5 -2 5 89.46 24.51
6 -2 5 36.72 17.4
6 -2 5 61.06 27.31
6 -2 5 65.27 24.33
6 1 -5 24.71 16.89
6 1 -5 -14.71 15.3
6 1 -5 23.73 14.27
6 1 -5 32.6 19.07
5 1 -5 158.01 18.28
5 1 -5 99.42 27.9
5 1 -5 122.58 18.56
4 1 -5 165.17 31.25
4 1 -5 186.5 16.85
-4 -1 5 224.67 47.59
3 1 -5 121.77 26.04
3 1 -5 93.67 10.93
-3 -1 5 101.07 22.91
2 1 -5 279.94 15.73
2 1 -5 254.46 30.34
2 1 -5 330.41 30.58
-2 -1 5 274.59 31.31
1 1 -5 1230.19 44.89
1 1 -5 1256.91 67.91
1 1 -5 1317.56 64.3
-1 -1 5 1189.68 68.54
-1 -1 5 1227.45 43.96
0 1 -5 1118.51 62.2
0 1 -5 1060.32 45.65
0 1 -5 1015.19 54.09
0 -1 5 1177.1 64.19
0 -1 5 1064.72 43.99
0 -1 5 1033.01 56.63
-1 1 -5 738.72 48.34
-1 1 -5 683.02 40.27
-1 1 -5 754.58 45.56
1 -1 5 792.41 41.43
1 -1 5 787.71 48.14
1 -1 5 705.01 48.51
-2 1 -5 12.02 9
-2 1 -5 15.37 7.61
-2 1 -5 14.19 9.08
2 -1 5 -6.51 7.07
2 -1 5 11.76 6.52
2 -1 5 19.26 8.15
-3 1 -5 182.87 22.75
-3 1 -5 176.94 45.64
3 -1 5 143.77 25.04
3 -1 5 220.17 27.27
3 -1 5 172.91 23.5
-4 1 -5 401.41 42.73
4 -1 5 396.82 35.95
4 -1 5 393.21 39.35
4 -1 5 444.76 40.87
5 -1 5 140.04 29.97
5 -1 5 101.48 22.35
5 -1 5 72.23 21.95
6 -1 5 -3 19.58
6 -1 5 36.76 21.44
6 -1 5 3.76 17.03
6 0 -5 48.91 13.85
6 0 -5 28.5 21.7
6 0 -5 31.18 17.18
5 0 -5 7.82 8.01
5 0 -5 -21.78 13.26
5 0 -5 1.83 6.37
4 0 -5 524.25 41.84
4 0 -5 583.38 50.61
4 0 -5 503.62 20.25
4 0 -5 504.43 20.78
-4 0 5 541.63 53.76
3 0 -5 154.39 20.1
3 0 -5 92.9 22.35
-3 0 5 105.72 26.67
2 0 -5 612.75 49.05
2 0 -5 641.87 43.06
-2 0 5 625.13 50.63
1 0 -5 219.13 26.93
1 0 -5 171.04 22.7
-1 0 5 188.6 12.82
-1 0 5 224.37 23.91
-1 0 5 226.92 28.29
0 0 -5 111.57 22.32
0 0 -5 136.61 17.85
0 0 5 136.82 13.96
0 0 5 84.56 17.32
0 0 5 113.13 23.8
-1 0 -5 74.77 16.58
-1 0 -5 52.2 15.96
1 0 5 39.64 13.26
1 0 5 86.34 15.18
1 0 5 62.56 16.16
-2 0 -5 2.22 10.88
-2 0 -5 29.18 11.98
2 0 5 17.81 9.31
2 0 5 21.35 9.37
2 0 5 17.98 11.46
-3 0 -5 55.85 15.02
-3 0 -5 42.71 14.56
3 0 5 45.04 15.76
3 0 5 56.89 18.65
3 0 5 39.71 13.99
4 0 5 219.93 32.72
4 0 5 230.55 30.03
4 0 5 218.05 26.05
5 0 5 163.25 32.01
5 0 5 112.02 20.12
5 0 5 139.52 31.07
6 -1 -5 43.48 9.74
6 -1 -5 32.21 8.17
6 -1 -5 22.88 24.28
6 -1 -5 35 19.05
6 -1 -5 -18.39 25.79
5 -1 -5 86.59 24.93
5 -1 -5 37.11 20.42
4 -1 -5 179 25.67
4 -1 -5 143.63 31.84
3 -1 -5 663.08 55.32
3 -1 -5 718.8 45.53
-3 1 5 653.69 59.26
2 -1 -5 38.45 15.16
2 -1 -5 51.93 12.67
1 -1 -5 158.17 23.09
1 -1 -5 88.81 19.67
-1 1 5 129.82 23.67
-1 1 5 82.65 20.06
-1 1 5 100.39 9.06
0 -1 -5 276.38 30.67
0 -1 -5 259.25 25.56
0 1 5 241.4 19.82
0 1 5 230.87 25.7
0 1 5 237.51 29.54
-1 -1 -5 158.77 20.7
-1 -1 -5 178.02 23.2
1 1 5 180.47 20.04
1 1 5 164.68 27.3
1 1 5 137.61 24.75
-2 -1 -5 216.86 24.64
-2 -1 -5 233.97 28.64
2 1 5 241.56 29.22
2 1 5 222.12 25.62
2 1 5 256.44 27.07
-3 -1 -5 279.37 27.6
3 1 5 272.45 29.06
3 1 5 324.41 47.88
3 1 5 313.14 35.29
4 1 5 62.21 16.55
4 1 5 71.22 21.51
4 1 5 57.17 18.52
5 1 5 190 43.37
5 1 5 219.71 38.91
6 -2 -5 44.3 21.94
6 -2 -5 9.88 14.02
6 -2 -5 9.95 23.02
5 -2 -5 72.64 27.53
5 -2 -5 110.13 20.85
4 -2 -5 19.47 13.55
4 -2 -5 -0.85 10.53
3 -2 -5 321.98 39.07
3 -2 -5 305.3 28.84
-3 2 5 339.74 44.15
2 -2 -5 155.94 26.05
2 -2 -5 154.09 34.03
-2 2 5 185.75 34.01
-2 2 5 152.65 22.42
1 -2 -5 50.79 14.28
1 -2 -5 45.26 15.04
-1 2 5 64.36 21.46
-1 2 5 47.05 8.68
-1 2 5 55.1 15.81
0 -2 -5 307.18 32.14
0 -2 -5 286.08 28.88
0 2 5 334.82 30.57
0 2 5 329.29 36.21
0 2 5 299.97 24.15
-1 -2 -5 92.07 19.94
-1 -2 -5 157.11 22.11
1 2 5 80.03 19.98
1 2 5 138.49 23.7
1 2 5 105.12 23.82
-2 -2 -5 22.6 12.07
2 2 5 43.11 16.61
2 2 5 68.98 18.67
2 2 5 86.65 18.77
-3 -2 -5 200.64 23.39
3 2 5 177.49 32.92
3 2 5 208.07 35.9
3 2 5 152.99 24.62
4 2 5 75.01 23.55
4 2 5 114.81 31.6
4 2 5 67.64 24.57
6 -3 -5 27.22 15.72
6 -3 -5 58.07 26.52
6 -3 -5 70.47 17.69
5 -3 -5 31.27 15.17
5 -3 -5 35.72 17.03
4 -3 -5 135.97 22.25
4 -3 -5 156.15 36.11
3 -3 -5 173.98 54.87
3 -3 -5 170.69 23.01
2 -3 -5 90.67 25.42
2 -3 -5 111.37 20.71
-2 3 5 73.94 6.89
-2 3 5 39.32 15.41
-2 3 5 80.22 6.7
1 -3 -5 347.71 32.79
1 -3 -5 391.09 41.93
-1 3 5 414.98 24.84
-1 3 5 351.26 34.03
-1 3 5 420.39 26.13
-1 3 5 377.77 41.53
0 -3 -5 71.05 18.69
0 -3 -5 90.9 20.42
0 3 5 93.57 18.71
0 3 5 111.84 25.01
0 3 5 78.76 19.21
-1 -3 -5 554.2 43.7
-1 -3 -5 610.4 71.35
1 3 5 538.58 46.82
1 3 5 550.15 41.98
1 3 5 532.28 46.98
-2 -3 -5 24.15 9.74
2 3 5 34.68 14.5
2 3 5 22.55 13.01
2 3 5 46.32 16.79
3 3 5 -10.33 11.69
4 3 5 11.85 17.82
4 3 5 60.79 26.11
5 -4 -5 38.87 14.9
5 -4 -5 27.3 20.8
4 -4 -5 54.41 14.82
4 -4 -5 22.17 22.66
3 -4 -5 121.21 33.55
3 -4 -5 54.91 15.02
2 -4 -5 30.01 14.67
2 -4 -5 36.21 28.61
-2 4 5 39.38 8.57
-2 4 5 43.77 9.19
1 -4 -5 166.13 28.25
1 -4 -5 182.63 35.18
-1 4 5 178.89 18.76
-1 4 5 140.36 26.66
0 -4 -5 20.56 14.87
0 -4 -5 52.09 18.61
0 4 5 29.53 13.22
0 4 5 41.07 16.06
-1 -4 -5 39.34 15.74
1 4 5 5.35 13.17
1 4 5 27.51 15.93
-2 -4 -5 43.88 16.06
2 4 5 14.03 14.94
2 4 5 48.66 18.51
-3 -4 -5 27.18 12.43
3 4 5 34.64 19.6
3 4 5 45.83 19.14
5 -5 -5 -2.27 12.86
4 -5 -5 46 16.19
4 -5 -5 40.83 25.44
3 -5 -5 14.62 21.88
3 -5 -5 29.97 17.3
-3 5 5 29.68 7.52
2 -5 -5 172.34 36.23
2 -5 -5 193.77 28.52
-2 5 5 174.79 29.51
-2 5 5 182.18 19.64
1 -5 -5 40.85 37.09
1 -5 -5 -4.2 16.42
-1 5 5 46.19 15.26
-1 5 5 26.21 12.73
0 -5 -5 312.67 38.2
0 5 5 194.14 34.24
0 5 5 223.45 30.37
-1 -5 -5 -0.89 13.5
1 5 5 8.55 15.21
-2 -5 -5 24.79 16.79
2 5 5 48.96 18.14
2 5 5 57.13 24.91
4 -6 -5 60.76 17.03
3 -6 -5 164.17 42.39
3 -6 -5 88.56 23.48
-3 6 5 131.79 26.55
-3 6 5 161.17 29
2 -6 -5 34.49 17.97
2 -6 -5 4.78 16.56
-2 6 5 37.27 15.78
-2 6 5 46.64 18.74
1 -6 -5 30.6 25.34
-1 6 5 0.89 16.71
-1 6 5 52.56 21.37
0 -6 -5 84.97 25.05
0 6 5 58.09 23.89
-1 -6 -5 65.6 22.82
1 6 5 67.38 24.08
1 9 -6 82.27 23.14
0 9 -6 20.36 22.02
0 -9 6 -3.43 18.28
-1 9 -6 -18.51 15.23
1 -9 6 30.71 19.38
-2 9 -6 -8.69 27.96
2 -9 6 20.44 14.39
-3 9 -6 50.79 27.22
3 -9 6 8.07 18.22
2 8 -6 23.31 17.29
1 8 -6 12.16 18.73
0 -8 6 10.58 10.91
1 -8 6 123.08 27.45
-2 8 -6 6.59 18.47
2 -8 6 -15.07 14.05
-3 8 -6 159.41 27.27
3 -8 6 110.99 26.1
-4 8 -6 89.58 22.09
4 -8 6 83.46 24
3 7 -6 46.49 24.12
3 7 -6 26.42 13.93
-3 -7 6 -18.17 24.43
2 7 -6 148.04 28.59
2 7 -6 78.81 27.11
-2 -7 6 181.21 34.75
1 7 -6 48.24 18.52
-1 -7 6 0.93 19.09
0 7 -6 201.99 36.2
0 -7 6 195.06 27.15
-1 7 -6 48.1 20
1 -7 6 67.22 17.94
-2 7 -6 78.6 29.31
2 -7 6 34.41 15.15
-3 7 -6 77.03 19.79
3 -7 6 40.79 19.01
-4 7 -6 10.18 14.07
4 -7 6 18.31 16.11
-5 7 -6 90.01 22.87
5 -7 6 124.79 28.18
4 6 -6 -20.06 14.86
3 6 -6 86.26 20.91
3 6 -6 49.89 25.55
-3 -6 6 67.34 27.26
2 6 -6 106.99 25.76
-2 -6 6 111.51 27.76
1 6 -6 552.39 47.54
1 6 -6 403.23 35.66
-1 -6 6 444.15 39.61
-1 -6 6 418.95 42.5
0 6 -6 107.07 26.54
0 6 -6 95.52 19.3
0 -6 6 119.4 23.61
0 -6 6 134.35 30.97
-1 6 -6 51.32 17.02
-1 6 -6 58.17 19.32
-1 6 -6 43.52 21.49
1 -6 6 34.6 18.36
1 -6 6 22.57 12.14
-2 6 -6 237.13 28.91
2 -6 6 231.52 29.69
-3 6 -6 130.39 23.46
3 -6 6 153.36 27.81
-4 6 -6 18.39 13.12
4 -6 6 0.9 15.12
-5 6 -6 45.25 18.41
5 -6 6 37.7 18.25
4 5 -6 30.09 24.27
-4 -5 6 -11.49 21.46
3 5 -6 10.09 15.43
3 5 -6 7.49 12.68
-3 -5 6 2.82 16.23
2 5 -6 46.79 17.79
2 5 -6 91.03 23.22
-2 -5 6 79.99 26.17
1 5 -6 323.92 29.76
1 5 -6 348.84 38.56
-1 -5 6 229.26 27.2
-1 -5 6 342.36 42.45
0 5 -6 696.23 46.63
0 5 -6 697.82 54.12
0 5 -6 736.96 56.44
0 -5 6 661.19 44.52
0 -5 6 648.32 53.25
-1 5 -6 6.57 10.87
-1 5 -6 8.89 11.47
-1 5 -6 16.49 10.09
1 -5 6 6.11 9.16
1 -5 6 5.7 12.32
-2 5 -6 95.24 20.06
-2 5 -6 85.73 22.18
-2 5 -6 57.96 17.96
2 -5 6 61.4 17.99
2 -5 6 78.88 18.74
-3 5 -6 84.78 20.12
3 -5 6 104.4 33.58
-4 5 -6 179.92 26.3
4 -5 6 162.68 29.23
4 -5 6 234.01 27.13
-5 5 -6 24.7 19.27
5 -5 6 20.1 13.66
5 -5 6 28.53 15.36
5 4 -6 5.07 17.9
5 4 -6 36.6 20.37
-5 -4 6 -26.7 28.84
4 4 -6 234.26 31.58
4 4 -6 192.76 29.68
-4 -4 6 176.36 33.68
3 4 -6 100.29 22.46
3 4 -6 95.71 21.39
-3 -4 6 69.57 20.83
2 4 -6 39.86 13.19
2 4 -6 49.73 17.27
-2 -4 6 8.91 13.87
1 4 -6 132.9 25.18
1 4 -6 173.31 19.8
1 4 -6 173.8 31.32
-1 -4 6 160.22 19.51
-1 -4 6 230.7 30.56
0 4 -6 225.66 29.86
0 4 -6 240.42 23.6
0 4 -6 291.75 32.72
0 -4 6 237.2 31.88
0 -4 6 245.32 23.8
-1 4 -6 402.67 41.09
-1 4 -6 347.45 31.33
-1 4 -6 371.96 33.69
1 -4 6 377.36 30.98
-2 4 -6 24.16 11.87
-2 4 -6 42.85 13.99
-2 4 -6 42.86 13.53
2 -4 6 22.52 15.89
2 -4 6 36.53 12.92
-3 4 -6 922.76 64.02
-3 4 -6 845.77 53.15
-3 4 -6 805.89 80.44
3 -4 6 881.78 64.41
3 -4 6 822.74 54.88
3 -4 6 844.26 56.33
-4 4 -6 309.48 31.93
4 -4 6 286.13 34.29
4 -4 6 221.06 31.8
-5 4 -6 21.78 23.4
5 -4 6 33.85 16.92
5 -4 6 79.42 23.87
5 3 -6 128.01 23.91
5 3 -6 59.22 22.62
5 3 -6 47.89 26.06
4 3 -6 81.27 19.46
4 3 -6 55.01 20.21
-4 -3 6 78.56 25.06
3 3 -6 85.48 14.67
3 3 -6 96.31 24.68
2 3 -6 57.1 18.24
2 3 -6 27.75 9.92
-2 -3 6 33.32 13.86
1 3 -6 84.59 21.68
1 3 -6 52.66 10.96
1 3 -6 58.77 16.59
-1 -3 6 57.48 15.44
-1 -3 6 107.17 14.87
0 3 -6 928.35 47.9
0 3 -6 790.93 53.9
0 3 -6 927.48 60.24
0 -3 6 890.61 60.68
0 -3 6 934.75 46.56
-1 3 -6 457.28 40.64
-1 3 -6 402.92 31.79
-1 3 -6 362.98 34.64
1 -3 6 419.77 40.54
1 -3 6 396.71 30.65
-2 3 -6 70.79 18.67
-2 3 -6 79.05 17.43
-2 3 -6 80.92 21.9
2 -3 6 38.02 11.51
2 -3 6 83.31 20.1
2 -3 6 75.6 23.87
-3 3 -6 59.45 18.14
-3 3 -6 54.86 16.14
-3 3 -6 97.97 21.95
3 -3 6 78.48 18.16
3 -3 6 41.93 15.56
3 -3 6 76.19 17.7
-4 3 -6 120.96 25.25
4 -3 6 118.4 25.03
4 -3 6 142.61 30.18
4 -3 6 121.56 24.87
5 -3 6 37.39 20
5 -3 6 43.83 19.77
5 2 -6 56.62 41.04
5 2 -6 51.74 17.45
5 2 -6 90.76 18.43
4 2 -6 266.62 35.3
4 2 -6 215.96 21.65
-4 -2 6 174.92 37.84
3 2 -6 93.62 23.46
3 2 -6 103.07 14.27
3 2 -6 125.39 30.12
-3 -2 6 55.66 25.01
2 2 -6 189.31 33.81
2 2 -6 133.5 13.4
2 2 -6 131.63 31.92
-2 -2 6 108.63 24.66
1 2 -6 26.97 13.16
1 2 -6 20.69 8.45
1 2 -6 52.42 15.2
-1 -2 6 38.42 9.64
-1 -2 6 19.4 15.48
0 2 -6 548.15 42.09
0 2 -6 521.1 33.28
0 2 -6 513.1 44.05
0 -2 6 492.48 46.29
0 -2 6 549.36 45.73
-1 2 -6 321.12 32.46
-1 2 -6 360.82 29.19
-1 2 -6 456.52 39.83
1 -2 6 342.19 34.08
1 -2 6 351.18 37.13
1 -2 6 337.77 27.86
-2 2 -6 323.74 32.23
-2 2 -6 294.26 29.18
-2 2 -6 313.01 34.66
2 -2 6 350.99 35.87
2 -2 6 308.57 32.76
2 -2 6 356.92 31.23
-3 2 -6 97.55 22.73
-3 2 -6 83.05 20.82
-3 2 -6 77.55 19.09
3 -2 6 83.19 21.21
3 -2 6 61.91 17.59
3 -2 6 51.45 18.48
4 -2 6 238.82 31.15
4 -2 6 229.19 33.05
4 -2 6 192.81 28.56
5 -2 6 76.76 24.56
5 -2 6 120.86 28.55
5 -2 6 170.13 32.28
5 1 -6 16.62 12.31
5 1 -6 30.47 10.39
5 1 -6 -0.38 16.59
4 1 -6 42.91 8.07
4 1 -6 67.18 20.26
4 1 -6 79.94 10.5
3 1 -6 119.57 28.33
3 1 -6 184.13 31.17
3 1 -6 139.75 10.91
-3 -1 6 120.3 29.78
2 1 -6 41.94 7.62
2 1 -6 66.22 19.07
2 1 -6 42.74 15.04
-2 -1 6 55.28 30.71
1 1 -6 369.74 22.13
1 1 -6 358.86 34.11
1 1 -6 333.26 36.37
-1 -1 6 394.5 22.44
-1 -1 6 412.57 40.98
0 1 -6 501.9 30.98
0 1 -6 467.75 38.23
0 1 -6 509.13 43.77
0 -1 6 445.07 39.02
0 -1 6 480.56 29.25
0 -1 6 453.41 42.99
-1 1 -6 525.97 43.3
-1 1 -6 489.23 35.31
-1 1 -6 488.14 40.44
1 -1 6 511.38 33.49
1 -1 6 423.44 38.64
1 -1 6 541.53 45.96
-2 1 -6 55.77 15.16
-2 1 -6 50.42 15.17
-2 1 -6 36.19 14.34
2 -1 6 73.07 18.02
2 -1 6 88.26 18.46
2 -1 6 85.8 20.39
-3 1 -6 218.89 29.42
3 -1 6 174.09 32.36
3 -1 6 140.77 26.14
3 -1 6 207.35 32.41
-4 1 -6 365.31 36.51
4 -1 6 426.61 41.57
4 -1 6 394.88 43.07
4 -1 6 344.17 37.89
5 -1 6 92.82 25.87
5 -1 6 164.92 30
5 -1 6 159.87 32.48
5 0 -6 123.07 32.92
4 0 -6 131.76 35.88
4 0 -6 83.21 22.16
3 0 -6 618.07 55.87
-3 0 6 721.04 63.61
2 0 -6 1055 60.49
2 0 -6 1049.74 68.97
-2 0 6 944.79 68.88
1 0 -6 161.44 25.11
1 0 -6 126.82 24.15
-1 0 6 153.68 30.7
-1 0 6 119.23 11.6
-1 0 6 112.5 21.96
0 0 -6 54.03 16.69
0 0 -6 50.56 15.18
0 0 6 62.28 11.48
0 0 6 78.17 20.26
0 0 6 68.58 19.64
-1 0 -6 408.12 37.33
-1 0 -6 373.76 34.36
1 0 6 389.87 36.68
1 0 6 363.46 37.76
1 0 6 399.42 31.41
-2 0 -6 91.72 20.09
-2 0 -6 93.27 23.94
2 0 6 94.35 21.49
2 0 6 95.57 20.29
2 0 6 68.25 17.52
-3 0 -6 231.57 29.8
3 0 6 317.46 33.37
3 0 6 221.39 33.21
3 0 6 255.18 32.84
-4 0 -6 84.91 20.23
4 0 6 86.68 25.77
4 0 6 75.26 22.21
4 0 6 95.1 27.84
5 0 6 57.72 25.05
5 0 6 60.37 22.87
5 0 6 103 26.41
5 -1 -6 67.1 22.91
5 -1 -6 99.04 24.51
4 -1 -6 -10.27 12.61
4 -1 -6 2.72 13.34
3 -1 -6 69.39 21.15
3 -1 -6 4.98 13.7
2 -1 -6 70.37 20.53
2 -1 -6 67.1 17.76
-2 1 6 57.02 23.61
1 -1 -6 132.78 24.95
1 -1 -6 186.21 28.85
-1 1 6 176.47 32.47
-1 1 6 196.69 14.15
-1 1 6 208.11 27.97
0 -1 -6 27.91 14.31
0 -1 -6 17.76 9.74
0 1 6 6.57 15.95
0 1 6 16.93 7.73
-1 -1 -6 253.91 30.74
-1 -1 -6 290.34 34.14
1 1 6 274.92 31.86
1 1 6 287.13 28.41
1 1 6 331.45 35.93
-2 -1 -6 600.84 47.15
2 1 6 691.78 49.42
2 1 6 593.09 48.13
-3 -1 -6 173.75 25.63
3 1 6 146.01 27.63
3 1 6 120.84 27.25
3 1 6 87.59 23.36
-4 -1 -6 40.9 16.75
4 1 6 35.32 19.56
4 1 6 41.86 18.06
4 1 6 68.02 21.43
5 -2 -6 61.8 19.12
5 -2 -6 41.24 28.14
4 -2 -6 333.68 42.02
4 -2 -6 257.46 47.87
3 -2 -6 117.26 23.27
3 -2 -6 104.32 31.31
2 -2 -6 29.09 14.19
2 -2 -6 47.95 18.72
-2 2 6 39.52 13.67
1 -2 -6 213.43 38.4
1 -2 -6 217.75 25.68
-1 2 6 162.98 24.43
-1 2 6 184.07 15.61
-1 2 6 114.31 28.97
0 -2 -6 415.95 41.18
0 -2 -6 422.89 40.64
0 2 6 347.77 45.4
0 2 6 385.08 37.39
0 2 6 451.06 30.86
-1 -2 -6 43.78 16.34
1 2 6 54.93 19.09
1 2 6 52.57 17.09
1 2 6 36.49 11.61
-2 -2 -6 373.97 36.08
2 2 6 369.97 37.5
2 2 6 302.61 34.65
2 2 6 249.61 35.22
-3 -2 -6 -14.44 10.75
3 2 6 36.27 17.84
3 2 6 15.65 17.52
3 2 6 13.87 16.15
4 2 6 -8.4 21.09
4 2 6 19.73 23.68
4 2 6 4.94 18.55
5 -3 -6 85.09 36.87
5 -3 -6 94.19 34.98
4 -3 -6 105.34 25.9
4 -3 -6 97.51 35.93
3 -3 -6 28.66 15.34
3 -3 -6 9.42 17.94
2 -3 -6 23.77 17.12
2 -3 -6 61.69 28.45
-2 3 6 19.36 16.18
1 -3 -6 120.58 24.46
1 -3 -6 140.51 30.88
-1 3 6 147.02 27.2
-1 3 6 137.4 15.55
0 -3 -6 82.91 25.64
0 3 6 99.15 24.17
0 3 6 134.69 22.54
0 3 6 60.29 28.6
-1 -3 -6 9.52 13.1
1 3 6 2.74 9.64
1 3 6 0.04 14.14
2 3 6 70.95 21
2 3 6 59.43 23.64
2 3 6 43.48 19.12
-3 -3 -6 76.72 21.8
3 3 6 53.84 20.15
3 3 6 46.79 24.61
3 3 6 76.39 24.8
4 -4 -6 93.11 27.95
4 -4 -6 79.87 32.57
3 -4 -6 94.3 29.08
3 -4 -6 77.48 20.47
2 -4 -6 54.77 24.8
2 -4 -6 50.69 18.04
-2 4 6 9.72 13.09
-2 4 6 28.01 7.86
-2 4 6 28.55 7.02
1 -4 -6 121.27 28.14
-1 4 6 156.93 29.88
-1 4 6 85.43 16.01
-1 4 6 100.89 18.27
0 -4 -6 124.71 28.58
0 4 6 115.01 20.46
0 4 6 90.92 26.7
-1 -4 -6 -6.21 15.94
1 4 6 11.3 14.07
1 4 6 27.52 17.02
-2 -4 -6 -4.54 15.59
2 4 6 -31.42 15.89
2 4 6 -10.45 13.82
4 -5 -6 125.9 61.86
3 -5 -6 120.54 26.3
3 -5 -6 132.95 35.78
2 -5 -6 101.03 34.01
-2 5 6 68.18 14.35
-2 5 6 87.1 26.81
1 -5 -6 39.88 21.58
-1 5 6 33.45 16.95
-1 5 6 62.97 21.64
-1 5 6 44.45 13.66
0 -5 -6 169.39 34.82
0 5 6 129.16 26.16
0 5 6 104.42 26.46
0 5 6 168.78 29.48
-1 -5 -6 128.91 28.2
1 5 6 78.41 25.52
1 5 6 62.5 24.6
0 -9 7 -3.55 19.36
1 -9 7 55.56 16.78
2 -9 7 29.9 21.57
0 -8 7 0.84 12.29
1 -8 7 8.9 15.82
2 -8 7 22.01 14.62
-3 8 -7 53.09 25.11
3 -8 7 -25.01 11.69
-4 8 -7 -21.96 23.54
2 7 -7 22.78 16.62
1 7 -7 224.14 35.3
-1 -7 7 266.77 42.33
0 7 -7 340.64 43.27
0 -7 7 373.99 36.73
-1 7 -7 116.92 28.19
1 -7 7 67.07 19.67
-2 7 -7 48.11 22.7
2 -7 7 -6.08 12.54
-3 7 -7 51.68 19.67
3 -7 7 37.77 17.76
-4 7 -7 36.29 20.04
4 -7 7 8.96 17.09
3 6 -7 81.17 27.67
-1 -6 7 124.58 24.98
0 6 -7 302.35 56.49
0 -6 7 194.66 31.98
-1 6 -7 98.16 27.16
-1 6 -7 69.58 20.96
1 -6 7 97.65 33.5
-2 6 -7 -24.71 14.27
-2 6 -7 -1.8 10.39
2 -6 7 7.45 11.59
-3 6 -7 8.17 19.33
3 -6 7 51.04 17.1
-4 6 -7 16.82 18.14
4 -6 7 12.83 13.45
4 5 -7 98.58 27.72
3 5 -7 66.61 19.98
3 5 -7 36.83 22.13
2 5 -7 123.47 23.62
2 5 -7 102.47 25.84
1 5 -7 149.88 30.52
1 5 -7 222.87 29.08
-1 -5 7 206.99 25.87
0 5 -7 435.29 46.47
0 5 -7 281.82 57.72
0 5 -7 409.62 35.84
0 -5 7 370.68 33.99
-1 5 -7 104.56 25.11
-1 5 -7 105.11 20.77
-1 5 -7 122.75 31.11
1 -5 7 60.49 16.64
-2 5 -7 15.53 16.22
-2 5 -7 39.54 21.09
2 -5 7 11.99 12.71
-3 5 -7 59.59 23.89
-3 5 -7 89.52 27.37
4 -5 7 227.78 38.46
4 -5 7 260.75 33.12
5 -5 7 15.13 17.74
5 -5 7 -6.47 17.26
4 4 -7 40.1 21.92
4 4 -7 39.15 17.53
3 4 -7 465.62 36.9
3 4 -7 421.67 46.16
2 4 -7 97.18 20.08
2 4 -7 177.94 33.23
-2 -4 7 81.98 27.15
1 4 -7 88.1 22.11
1 4 -7 61.42 14.53
-1 -4 7 92.15 24.31
-1 -4 7 58.77 15.36
0 4 -7 558.01 50.69
0 4 -7 485.24 46.53
0 4 -7 512.52 38.07
0 -4 7 557.68 52.55
0 -4 7 556.18 37.98
-1 4 -7 794.85 61.22
-1 4 -7 674 51.08
1 -4 7 714.59 45.58
1 -4 7 757.51 61.39
-2 4 -7 348.22 39.3
-2 4 -7 304.77 35.42
-2 4 -7 298.39 32.73
2 -4 7 318.21 33.48
-3 4 -7 129.29 24.6
-3 4 -7 99.5 26.27
3 -4 7 124.77 29.38
3 -4 7 143.28 27.5
4 -4 7 6.9 15.07
4 -4 7 15.7 22.2
5 -4 7 20 18.2
5 -4 7 14.92 18.96
5 3 -7 41.17 18.89
5 3 -7 29.34 22.69
4 3 -7 79.44 17.22
4 3 -7 98.99 26.53
3 3 -7 199.41 31.01
3 3 -7 108.99 18.01
2 3 -7 143.37 17.81
2 3 -7 136.61 30.61
-2 -3 7 145.77 33.8
1 3 -7 290.75 24.7
1 3 -7 340.95 37.69
1 3 -7 251.75 34.11
-1 -3 7 281.98 24.33
-1 -3 7 307.22 37.61
0 3 -7 246.27 32.41
0 3 -7 275.13 33.66
0 3 -7 330.14 28.83
0 -3 7 300.28 25.6
0 -3 7 255.61 35.19
-1 3 -7 180.12 23.46
-1 3 -7 169.16 32.56
-1 3 -7 192.79 27.78
1 -3 7 192.22 22.28
1 -3 7 144.97 29.68
-2 3 -7 189.57 27.77
-2 3 -7 135.01 25.78
-2 3 -7 129.16 25.92
2 -3 7 170.75 34.53
2 -3 7 124.01 26.81
2 -3 7 161.3 22.7
-3 3 -7 32.82 15.79
3 -3 7 15.27 14.31
3 -3 7 36.19 15.77
4 -3 7 -9.78 14.44
4 -3 7 5.08 12.54
5 -3 7 49.84 20.4
5 -3 7 8.72 16.52
5 2 -7 -10.74 12.41
5 2 -7 51.89 20.84
4 2 -7 16.79 15.33
3 2 -7 177.17 62.17
3 2 -7 87.89 12.65
2 2 -7 214.73 18.62
2 2 -7 209.35 40.19
2 2 -7 245.12 33.68
-2 -2 7 266.35 47.11
1 2 -7 257.58 34.29
1 2 -7 276.48 36.68
1 2 -7 334.78 24.73
-1 -2 7 278.45 37.3
-1 -2 7 357.06 24.45
0 2 -7 259.74 22.95
0 2 -7 273.61 32.68
0 2 -7 246.8 33.02
0 -2 7 263.67 36.55
0 -2 7 259.48 23.82
-1 2 -7 935.55 62.61
-1 2 -7 1051.23 67.72
-1 2 -7 997.75 55.83
1 -2 7 1038.42 70.31
1 -2 7 884.14 50.83
1 -2 7 934.72 63.39
-2 2 -7 200.68 31.35
-2 2 -7 259.85 31.82
2 -2 7 236.71 32.69
2 -2 7 201.52 24.35
2 -2 7 220.55 32.17
-3 2 -7 237.4 31.69
3 -2 7 162.05 30.47
3 -2 7 156.25 31.09
3 -2 7 107.74 25.81
-4 2 -7 185.29 28.86
4 -2 7 144.61 28.47
4 -2 7 140.45 31.83
5 -2 7 62.45 23.74
5 -2 7 23.14 16.69
5 1 -7 37.51 22.13
4 1 -7 65.04 24.79
3 1 -7 10.52 14.07
2 1 -7 550.87 47.68
2 1 -7 616.68 26.8
2 1 -7 627.82 55.75
1 1 -7 383.08 24.58
1 1 -7 346.68 35.86
1 1 -7 428.44 42.73
-1 -1 7 354.38 41.79
-1 -1 7 386.29 24.39
0 1 -7 212.81 38.56
0 1 -7 140.34 18.43
0 1 -7 153.03 27.44
0 -1 7 145.09 17.84
0 -1 7 157.18 34.54
0 -1 7 162 30.13
-1 1 -7 122.12 22.22
-1 1 -7 60.61 18.23
-1 1 -7 107.76 27.59
1 -1 7 108.53 27.48
1 -1 7 107.86 18.72
1 -1 7 118.98 27.59
-2 1 -7 164.15 32.04
2 -1 7 176.58 23.87
2 -1 7 128.95 29.88
-3 1 -7 1.48 15.33
3 -1 7 13.87 14.58
3 -1 7 25.48 15.84
3 -1 7 -5.58 18.96
-4 1 -7 137.38 27.29
4 -1 7 88.78 29.97
4 -1 7 151.61 32.19
4 -1 7 107.11 24.67
5 0 -7 102.86 33.11
4 0 -7 94.81 27.86
3 0 -7 -1.04 14.49
2 0 -7 110.74 25.88
2 0 -7 165.38 48
1 0 -7 34.25 16.87
1 0 -7 36.39 17.03
-1 0 7 45.78 22.28
-1 0 7 53.75 9.46
0 0 -7 38.94 18.22
0 0 -7 17.48 11.31
0 0 7 34.2 19.78
0 0 7 34.7 11.26
0 0 7 41.85 15.87
-1 0 -7 90.7 22.77
1 0 7 119.31 24.4
1 0 7 106.62 19.5
1 0 7 84.97 22.03
-2 0 -7 384.28 38.71
2 0 7 380.14 40.73
2 0 7 444.25 48.08
2 0 7 452.97 39.47
-3 0 -7 204.77 30.84
3 0 7 186.09 32.83
3 0 7 221.2 40.57
3 0 7 292.21 35.7
-4 0 -7 19.6 16.67
4 0 7 -3.48 15.59
4 0 7 46.4 22.57
4 0 7 0.38 14.13
5 -1 -7 -11.78 20.97
4 -1 -7 101.86 31.24
3 -1 -7 98.71 26.18
3 -1 -7 141.38 32.4
2 -1 -7 -15.22 10.06
1 -1 -7 4.69 14.26
1 -1 -7 6.45 16.22
-1 1 7 34.9 14.1
-1 1 7 -9.85 6.07
0 -1 -7 94.23 24.71
0 1 7 92.66 27.68
0 1 7 52.25 18.74
0 1 7 90.59 17.14
-1 -1 -7 -1.77 12.39
1 1 7 29.32 19.49
1 1 7 21.65 10.8
1 1 7 6.72 12.33
-2 -1 -7 123.44 25.47
2 1 7 153.39 26.84
2 1 7 104.84 28.97
-3 -1 -7 65.52 23.45
3 1 7 118.24 28.86
3 1 7 115.88 27.07
3 1 7 82.74 28.94
-4 -1 -7 55.04 22.04
4 1 7 47.13 31.63
4 1 7 69.68 21.27
5 -2 -7 68.74 31.38
4 -2 -7 312.4 48.2
3 -2 -7 30.83 19.53
2 -2 -7 19.88 18.26
1 -2 -7 78.62 22.83
-1 2 7 105.57 31.33
0 -2 -7 -8.62 14.24
0 2 7 32.3 11.58
0 2 7 22.53 14.46
-1 -2 -7 137.49 28.55
1 2 7 111.86 38.87
1 2 7 115.89 22.54
1 2 7 121.52 28.41
-2 -2 -7 22.52 17.13
2 2 7 58.61 20.3
2 2 7 107.13 28.75
2 2 7 41.51 19.41
-3 -2 -7 -0.35 16.34
3 2 7 21.23 24.88
3 2 7 25.99 19.8
3 2 7 24.8 23.76
4 -3 -7 -11.62 22.46
3 -3 -7 45.93 25.65
2 -3 -7 91.5 33.06
-2 3 7 148.79 46.64
1 -3 -7 128.17 31.27
-1 3 7 100.15 26.65
-1 3 7 82.97 15.69
-1 3 7 101.11 15.73
0 -3 -7 98.9 29.19
0 3 7 110.87 26.19
0 3 7 68.11 18.23
-1 -3 -7 -55.09 26.81
1 3 7 9.14 11.61
1 3 7 6.27 14.19
-2 -3 -7 25.52 20.72
2 3 7 19.2 17.26
2 3 7 -3.74 28.38
2 3 7 -15.19 15.4
3 -4 -7 147.32 31.7
2 -4 -7 65.55 26.14
-2 4 7 47.85 24.88
1 -4 -7 34.41 26.19
-1 4 7 24.9 14.43
-1 4 7 19.6 11.58
-1 4 7 42.51 21.02
0 -4 -7 34.17 20.84
0 4 7 64.97 18.72
0 4 7 36.89 21.23
-1 -4 -7 69.29 27.31
1 4 7 54.24 21.21
1 4 7 80.56 21.22
1 8 -8 -12.63 18.21
0 8 -8 156.13 34.42
0 -8 8 97.91 26.82
1 -8 8 8.02 16.81
2 -8 8 8.41 18.18
2 7 -8 39.71 23.01
1 7 -8 187.22 38.15
-1 -7 8 135.55 29.13
0 7 -8 45.69 22.19
0 -7 8 59.14 24.5
-1 7 -8 27.54 19.18
1 -7 8 45.57 16.79
-2 7 -8 35.46 19.49
2 -7 8 29.19 18.86
3 -7 8 24.11 16.85
3 6 -8 6.74 20.58
2 6 -8 109.06 30.29
1 6 -8 93.49 28.05
-1 -6 8 52.15 16.95
0 6 -8 155.35 36.57
0 -6 8 150.38 30.08
-1 6 -8 80.92 23.42
1 -6 8 69.18 18.7
-2 6 -8 -9.63 13.59
2 -6 8 11.19 13.07
-3 6 -8 -14.53 10.72
3 -6 8 32.8 17.15
4 -6 8 19.34 17.02
3 5 -8 150.62 31.27
3 5 -8 200.24 33.19
2 5 -8 202.69 31.75
2 5 -8 221.17 41.85
1 5 -8 78.26 18.63
1 5 -8 80.05 26.4
-1 -5 8 82.71 20.16
0 5 -8 29.52 18.82
0 5 -8 45.71 16.12
0 -5 8 40.4 15.64
-1 5 -8 192.39 37.06
1 -5 8 152.72 28.78
-2 5 -8 37.66 20.96
2 -5 8 82.91 19.14
-3 5 -8 129.32 32.02
3 -5 8 148.22 30.21
4 -5 8 34.41 18.39
4 4 -8 29.79 22.12
4 4 -8 -15.32 35.08
3 4 -8 66.24 17.41
3 4 -8 40.33 24.94
2 4 -8 52.16 15.93
2 4 -8 68.18 23.22
1 4 -8 3.8 11.41
1 4 -8 32.14 20.77
-1 -4 8 29.79 11.73
0 4 -8 173.79 35
0 -4 8 196.48 23.92
-1 4 -8 81.83 26.05
-1 4 -8 58.95 22.13
1 -4 8 101.69 19.69
-2 4 -8 151.31 34.97
2 -4 8 124 30.9
-3 4 -8 90.67 26.26
3 -4 8 121.87 24.73
3 -4 8 60.93 21.47
4 -4 8 -3.78 17.75
4 -4 8 0.06 12.39
4 3 -8 26.43 14.54
4 3 -8 31.78 24.76
3 3 -8 35.45 20.78
3 3 -8 22.95 11.1
2 3 -8 82.43 15.66
2 3 -8 107.26 29.28
1 3 -8 359.9 29.03
1 3 -8 272.51 36.7
-1 -3 8 286.16 27.6
0 3 -8 76.94 22.57
0 -3 8 61.51 14.91
-1 3 -8 54.45 19.26
-1 3 -8 36.83 16.3
1 -3 8 56.54 15.23
-2 3 -8 106.84 28.1
2 -3 8 58.53 16.41
2 -3 8 65.11 25.09
-3 3 -8 75.37 24.02
3 -3 8 109.09 24.69
-4 3 -8 100.3 27.9
4 -3 8 104.85 26.54
4 -3 8 85.32 24.29
4 2 -8 52.08 22.78
4 2 -8 -0.06 7.65
3 2 -8 -6.77 16.95
3 2 -8 11.16 6.88
2 2 -8 145.1 33.95
1 2 -8 70.54 13.28
1 2 -8 29.35 16.37
-1 -2 8 88.88 15.35
0 2 -8 48.53 12.81
0 2 -8 75.27 23.64
0 -2 8 64.31 15.56
-1 2 -8 64.08 37.04
-1 2 -8 131.32 28.59
1 -2 8 51.75 19.61
1 -2 8 99.06 20.75
-2 2 -8 -4.46 13.33
2 -2 8 -2.55 7.94
2 -2 8 -12.79 13.91
-3 2 -8 2.84 17.02
3 -2 8 40.76 15.87
3 -2 8 52.52 22.16
-4 2 -8 7.14 19.89
4 -2 8 14.36 20.58
4 -2 8 46.85 21.22
4 1 -8 -28.66 22.5
3 1 -8 98.31 31.31
2 1 -8 129.46 31.01
1 1 -8 45.84 18.2
-1 -1 8 27.69 8.24
0 1 -8 145.25 34.21
0 -1 8 91.68 23.48
0 -1 8 58.08 14.08
-1 1 -8 4.29 15.12
1 -1 8 25.04 11.26
1 -1 8 44.99 18.12
-2 1 -8 28.04 15.57
2 -1 8 1.28 11.9
2 -1 8 -30.44 13.67
-3 1 -8 247.71 37.28
3 -1 8 249.15 36.96
3 -1 8 364.24 39.34
-4 1 -8 45.84 24.11
4 -1 8 80.39 25.09
4 -1 8 30 22.69
4 0 -8 77.43 29.46
3 0 -8 156.3 35.83
2 0 -8 13.1 18.49
1 0 -8 4.49 13.82
-1 0 8 17.92 7.72
0 0 -8 10.52 14.51
0 0 8 -13.45 6.64
0 0 8 -5.21 10.26
-1 0 -8 6.66 14.46
1 0 8 3.55 9.84
1 0 8 30.68 16.74
-2 0 -8 10.45 15.2
2 0 8 16.88 15.01
2 0 8 -15.57 9.67
-3 0 -8 -3.96 16.78
3 0 8 -11.34 12.74
3 0 8 -35.45 14.1
4 -1 -8 23.58 22.12
3 -1 -8 16.29 21.22
2 -1 -8 5.34 17.18
1 -1 -8 14.45 17.24
-1 1 8 -4.43 14.56
-1 1 8 2.21 7.08
0 -1 -8 68.51 23.32
0 1 8 92 18.01
0 1 8 122.58 30.58
-1 -1 -8 63.96 24.75
1 1 8 57.33 15.66
-2 -1 -8 63.13 23.92
2 1 8 96.53 25.98
2 1 8 47.65 20.3
-3 -1 -8 -21.89 19.85
3 1 8 4.96 22.24
3 1 8 -25.55 14.38
3 -2 -8 57.98 24.97
2 -2 -8 42.9 21.68
1 -2 -8 124.76 31.79
-1 2 8 151 34.04
-1 2 8 152.03 15.98
0 -2 -8 33.36 23.12
0 2 8 31.14 13.3
0 2 8 -2.14 13.33
-1 -2 -8 214.56 38.45
1 2 8 213.83 28.44
1 2 8 199.26 37.09
-2 -2 -8 -28.29 18.46
2 2 8 3.26 16.37
2 -3 -8 -7.7 27
1 -3 -8 54.96 23.61
-1 3 8 18.83 17.28
-1 3 8 34.96 13.53
0 -3 -8 1.08 21.68
0 3 8 28.02 15.48
0 3 8 11.86 18.81
1 7 -9 42.96 22.17
-1 -7 9 73.09 25.15
0 7 -9 29.75 24.37
0 -7 9 27.27 17.31
-1 7 -9 8.34 18.94
1 -7 9 14.12 20.39
-2 7 -9 17.9 20.79
2 -7 9 14.79 16.98
2 6 -9 22.19 18
1 6 -9 53.76 22.38
-1 -6 9 10.09 16.06
0 6 -9 24.42 21.79
0 -6 9 -8.78 13
-1 6 -9 29.34 20.84
1 -6 9 30.88 15.09
-2 6 -9 1.8 18.48
2 -6 9 20.13 15.52
-3 6 -9 8.12 19.83
3 -6 9 43.79 17.63
2 5 -9 14.07 18.07
2 5 -9 0.97 21.33
1 5 -9 21.58 22.3
1 5 -9 29.18 19.57
-1 -5 9 0.87 13.71
0 5 -9 14.42 15.68
0 -5 9 10.9 17.05
-1 5 -9 -19.99 12.24
1 -5 9 9.88 12.86
-2 5 -9 158.13 33.95
2 -5 9 147.85 29.13
-3 5 -9 79.07 27.29
3 -5 9 82.83 21.88
3 4 -9 71.52 19.12
3 4 -9 38.18 24.31
2 4 -9 19.6 15.66
1 4 -9 120.19 28.2
1 4 -9 119.47 32.72
-1 -4 9 180.95 24.07
0 4 -9 235.66 32.01
0 4 -9 300.54 43.5
0 -4 9 285.57 30.97
-1 4 -9 52.13 21.3
1 -4 9 -11.45 24.87
-2 4 -9 44.93 25.54
2 -4 9 27.65 17.46
-3 4 -9 27.94 18.75
3 -4 9 37.75 22.16
3 -4 9 12.34 13.35
3 3 -9 30.72 14.35
3 3 -9 11.07 21.85
2 3 -9 14.01 17.88
2 3 -9 -4.28 11.13
1 3 -9 24.78 12.34
1 3 -9 56.54 21.82
-1 -3 9 19.49 14.64
0 3 -9 52.55 21.8
0 3 -9 95.85 26.93
0 -3 9 96.89 18.39
-1 3 -9 -20.5 23.02
-1 3 -9 21.96 19.07
1 -3 9 48.45 17.57
-2 3 -9 8.69 17.1
2 -3 9 -34.98 15.46
2 -3 9 -2.53 15.27
-3 3 -9 21.56 20.07
3 -3 9 -28.95 21.74
3 -3 9 10.93 15.86
3 2 -9 15.38 19.75
2 2 -9 243.24 47.1
1 2 -9 141.73 35.7
1 2 -9 150.19 20.78
-1 -2 9 124.98 19.99
0 2 -9 107.56 20.98
0 2 -9 104.21 31.55
0 -2 9 88.87 17.77
-1 2 -9 173.67 28.28
-1 2 -9 157.36 33.51
1 -2 9 218.54 28.27
1 -2 9 102.36 28.94
-2 2 -9 38.06 22.17
2 -2 9 34.59 21.14
2 -2 9 5.32 14.06
-3 2 -9 19.28 20.55
3 -2 9 27.21 19.18
3 -2 9 31.04 19.77
3 1 -9 89.86 29.91
2 1 -9 29.27 23.61
1 1 -9 45.75 21.33
0 1 -9 66.72 23.82
0 -1 9 95.02 17.18
0 -1 9 36.56 16.8
-1 1 -9 35.2 19.81
1 -1 9 47.56 19.45
-2 1 -9 9.07 21.34
2 -1 9 10.92 15.28
2 -1 9 21.92 16.63
3 0 -9 35.28 25.28
2 0 -9 10.46 17.48
1 0 -9 48.66 22.51
0 0 -9 49.6 23.25
0 0 9 109.3 32.56
0 0 9 85.36 17.85
-1 0 -9 101.75 31.96
1 0 9 99.7 22.71
1 0 9 60.07 25.92
-2 0 -9 4.62 20.84
2 0 9 -17.08 16.66
2 0 9 5.48 21.86
3 -1 -9 -4.82 21.61
2 -1 -9 23.96 20.66
1 -1 -9 14.85 24.69
-1 1 9 50.08 27.18
-1 1 9 10.68 8.69
0 -1 -9 55.87 27.63
0 1 9 43.88 15.66
0 1 9 9.98 16.94
-1 -1 -9 118.44 31.12
1 1 9 115.71 23.82
1 -2 -9 16.2 21.48
-1 2 9 25.31 25.43
-1 6 -10 44.22 30.81
1 5 -10 35.63 26.16
-1 -5 10 58.94 23.95
0 5 -10 45.62 21.8
0 -5 10 74.22 24.11
-1 5 -10 14.37 22.02
1 -5 10 42.91 18.7
1 4 -10 63.08 30.16
1 4 -10 35.74 19.23
-1 -4 10 30.03 18.56
0 4 -10 23.97 21.41
0 -4 10 -4.07 14.03
-1 4 -10 85.88 27.85
1 -4 10 53.81 18.5
-2 4 -10 -30.69 17.43
2 -4 10 -22.58 14.81
2 3 -10 49.32 17.44
2 3 -10 -67.1 28.48
1 3 -10 73.41 21.13
1 3 -10 101.4 32.64
-1 -3 10 114.01 22.06
0 3 -10 4.54 20.32
0 3 -10 51.7 23.25
0 -3 10 24.55 15.54
-1 3 -10 1.89 18.96
1 -3 10 3.72 15.83
-2 3 -10 35.66 20.69
2 -3 10 -9.09 31.52
2 -3 10 9.85 18.05
1 2 -10 42.8 26.93
-1 -2 10 2.72 13.74
0 2 -10 167.73 37.88
0 -2 10 189.48 26.51
1 -2 10 -12.55 12.42
1 1 -10 77.65 29.43
0 1 -10 64.55 24.13
0 -1 10 77.15 19.08
-1 1 -10 54.04 20.84
