#------------------------------------------------------------------------------
#$Date: 2020-02-04 22:54:03 +0200 (Tue, 04 Feb 2020) $
#$Revision: 247814 $
#$URL: file:///home/coder/svn-repositories/cod/cif/7/15/72/7157262.cif $
#------------------------------------------------------------------------------
#
# This file is available in the Crystallography Open Database (COD),
# http://www.crystallography.net/
#
# All data on this site have been placed in the public domain by the
# contributors.
#
data_7157262
loop_
_publ_author_name
'Yang, Shichao'
'Li, Hongji'
'Li, Pinhua'
'Yang, Jingya'
'Wang, Lei'
_publ_section_title
;
 Room temperature iron(ii)-catalyzed radical cyclization of unsaturated
 oximes with hypervalent iodine reagents.
;
_journal_issue                   4
_journal_name_full               'Organic &amp; biomolecular chemistry'
_journal_page_first              715
_journal_page_last               724
_journal_paper_doi               10.1039/c9ob02424g
_journal_volume                  18
_journal_year                    2020
_chemical_formula_moiety         'C17 H17 N O4 S'
_chemical_formula_sum            'C17 H17 N O4 S'
_chemical_formula_weight         331.38
_space_group_crystal_system      triclinic
_space_group_IT_number           2
_space_group_name_Hall           '-P 1'
_space_group_name_H-M_alt        'P -1'
_atom_sites_solution_hydrogens   geom
_audit_creation_method           SHELXL-2014/7
_cell_angle_alpha                92.62(3)
_cell_angle_beta                 95.69(3)
_cell_angle_gamma                94.25(3)
_cell_formula_units_Z            2
_cell_length_a                   5.7496(11)
_cell_length_b                   11.342(2)
_cell_length_c                   12.287(3)
_cell_measurement_reflns_used    4101
_cell_measurement_temperature    295(2)
_cell_measurement_theta_max      27.625
_cell_measurement_theta_min      2.390
_cell_volume                     794.0(3)
_computing_cell_refinement       'Bruker SMART'
_computing_data_collection       'Bruker SMART'
_computing_data_reduction        'Bruker SAINT'
_computing_structure_refinement  'SHELXL-2014/7 (Sheldrick, 2014)'
_computing_structure_solution    'SHELXL-2014/7 (Sheldrick, 2014)'
_diffrn_ambient_temperature      295(2)
_diffrn_measured_fraction_theta_full 0.994
_diffrn_measured_fraction_theta_max 0.994
_diffrn_measurement_device_type  'CCD area detector'
_diffrn_measurement_method       'phi and omega scans'
_diffrn_radiation_type           MoK\a
_diffrn_radiation_wavelength     0.71073
_diffrn_reflns_av_R_equivalents  0.0155
_diffrn_reflns_av_unetI/netI     0.0366
_diffrn_reflns_Laue_measured_fraction_full 0.994
_diffrn_reflns_Laue_measured_fraction_max 0.994
_diffrn_reflns_limit_h_max       6
_diffrn_reflns_limit_h_min       -6
_diffrn_reflns_limit_k_max       13
_diffrn_reflns_limit_k_min       -11
_diffrn_reflns_limit_l_max       14
_diffrn_reflns_limit_l_min       -14
_diffrn_reflns_number            4101
_diffrn_reflns_point_group_measured_fraction_full 0.994
_diffrn_reflns_point_group_measured_fraction_max 0.994
_diffrn_reflns_theta_full        25.050
_diffrn_reflns_theta_max         25.050
_diffrn_reflns_theta_min         2.390
_diffrn_source                   'fine-focus sealed tube'
_exptl_absorpt_coefficient_mu    0.224
_exptl_absorpt_correction_T_max  0.994
_exptl_absorpt_correction_T_min  0.955
_exptl_absorpt_correction_type   multi-scan
_exptl_absorpt_process_details   'Sadabs, (Sheldrick 2001)'
_exptl_crystal_colour            colorless
_exptl_crystal_density_diffrn    1.386
_exptl_crystal_description       block
_exptl_crystal_F_000             348
_exptl_crystal_size_max          0.130
_exptl_crystal_size_mid          0.090
_exptl_crystal_size_min          0.050
_refine_diff_density_max         0.544
_refine_diff_density_min         -0.296
_refine_diff_density_rms         0.045
_refine_ls_extinction_method     none
_refine_ls_goodness_of_fit_ref   1.034
_refine_ls_hydrogen_treatment    constr
_refine_ls_matrix_type           full
_refine_ls_number_parameters     209
_refine_ls_number_reflns         2808
_refine_ls_number_restraints     0
_refine_ls_restrained_S_all      1.034
_refine_ls_R_factor_all          0.0647
_refine_ls_R_factor_gt           0.0466
_refine_ls_shift/su_max          0.000
_refine_ls_shift/su_mean         0.000
_refine_ls_structure_factor_coef Fsqd
_refine_ls_weighting_details
'w=1/[\s^2^(Fo^2^)+(0.0544P)^2^+0.3509P] where P=(Fo^2^+2Fc^2^)/3'
_refine_ls_weighting_scheme      calc
_refine_ls_wR_factor_gt          0.1114
_refine_ls_wR_factor_ref         0.1222
_reflns_Friedel_coverage         0.000
_reflns_number_gt                2154
_reflns_number_total             2808
_reflns_threshold_expression     'I > 2\s(I)'
_cod_data_source_file            c9ob02424g2.cif
_cod_data_source_block           t
_cod_depositor_comments          'Adding full bibliography for 7157262.cif.'
_cod_database_code               7157262
_shelx_shelxl_version_number     2014/7
_shelx_space_group_comment
;
The symmetry employed for this shelxl refinement is uniquely defined
by the following loop, which should always be used as a source of
symmetry information in preference to the above space-group names.
They are only intended as comments.
;
_shelx_estimated_absorpt_t_min   0.972
_shelx_estimated_absorpt_t_max   0.989
_shelx_res_file
;

    t.res created by SHELXL-2014/7


TITL t in P-1
CELL 0.71073   5.7496  11.3418  12.2874  92.623  95.689  94.255
ZERR    2.00   0.0011   0.0023   0.0025   0.030   0.030   0.030
LATT  1
SFAC C H N O S
UNIT 34 34 2 8 2
L.S. 20
ACTA
OMIT -3 50.1
OMIT 0 0 1
OMIT 0 1 0
OMIT 0 2 3
TEMP 22
SIZE 0.05 0.09 0.13
BOND $h
FMAP 2
PLAN 20
WGHT    0.054400    0.350900
FVAR       0.25865
S1    5    0.262656    0.258670    0.508482    11.00000    0.04296    0.03664 =
         0.03846    0.00495    0.00010    0.00453
N1    3   -0.234850    0.502228    0.173608    11.00000    0.04996    0.06980 =
         0.08618    0.04011   -0.02143   -0.01256
O1    4    0.448536    0.336541    0.562649    11.00000    0.05783    0.04912 =
         0.05414   -0.00767   -0.01513   -0.00118
O2    4    0.098222    0.199117    0.570631    11.00000    0.06337    0.05119 =
         0.04956    0.01411    0.02218    0.00790
O3    4    0.105987    0.331364    0.428004    11.00000    0.03692    0.03796 =
         0.05303    0.01341    0.00032    0.00302
O4    4   -0.160824    0.436436    0.263807    11.00000    0.05022    0.07796 =
         0.10220    0.05556   -0.02308   -0.02096
C1    1    0.380781    0.156331    0.422253    11.00000    0.03145    0.03280 =
         0.03654    0.00951   -0.00113    0.00251
C2    1    0.268909    0.044275    0.399296    11.00000    0.03588    0.03798 =
         0.04348    0.01100    0.00488   -0.00231
AFIX  43
H2    2    0.131673    0.022304    0.429950    11.00000   -1.20000
AFIX   0
C3    1    0.363351   -0.034062    0.330606    11.00000    0.04686    0.03576 =
         0.04630    0.00267    0.00136   -0.00042
AFIX  43
H3    2    0.289835   -0.109773    0.316137    11.00000   -1.20000
AFIX   0
C4    1    0.565648   -0.002879    0.282369    11.00000    0.04265    0.05000 =
         0.03482    0.00477   -0.00382    0.01105
C5    1    0.673605    0.109666    0.306339    11.00000    0.03209    0.06016 =
         0.04596    0.01229    0.00685    0.00410
AFIX  43
H5    2    0.809086    0.132120    0.274491    11.00000   -1.20000
AFIX   0
C6    1    0.584934    0.189301    0.376365    11.00000    0.03184    0.03918 =
         0.05289    0.00980   -0.00216   -0.00445
AFIX  43
H6    2    0.661112    0.264182    0.392606    11.00000   -1.20000
AFIX   0
C7    1    0.664862   -0.088231    0.205266    11.00000    0.06994    0.07371 =
         0.05277   -0.00439    0.01001    0.01838
AFIX 137
H7A   2    0.595333   -0.080144    0.131940    11.00000   -1.50000
H7B   2    0.630973   -0.167707    0.226180    11.00000   -1.50000
H7C   2    0.831564   -0.071284    0.208499    11.00000   -1.50000
AFIX   0
C8    1   -0.316588    0.660777    0.002253    11.00000    0.04671    0.05335 =
         0.04770    0.00448   -0.00461    0.00400
AFIX  43
H8    2   -0.438081    0.604432    0.011406    11.00000   -1.20000
AFIX   0
C9    1   -0.346665    0.741063   -0.077942    11.00000    0.05899    0.07234 =
         0.04162    0.00773   -0.00416    0.01583
AFIX  43
H9    2   -0.487861    0.738581   -0.122344    11.00000   -1.20000
AFIX   0
C10   1   -0.169003    0.824499   -0.092369    11.00000    0.07228    0.07274 =
         0.04486    0.02310    0.00808    0.01954
AFIX  43
H10   2   -0.189918    0.878586   -0.146457    11.00000   -1.20000
AFIX   0
C11   1    0.040128    0.828354   -0.026985    11.00000    0.06157    0.06967 =
         0.06666    0.03037    0.01258    0.00099
AFIX  43
H11   2    0.160580    0.885047   -0.036745    11.00000   -1.20000
AFIX   0
C12   1    0.071096    0.747513    0.053566    11.00000    0.04542    0.06189 =
         0.05186    0.01411    0.00081    0.00246
AFIX  43
H12   2    0.213205    0.750184    0.097284    11.00000   -1.20000
AFIX   0
C13   1   -0.106508    0.662959    0.069772    11.00000    0.04093    0.04163 =
         0.03509    0.00240    0.00109    0.00716
C14   1   -0.075016    0.581232    0.158017    11.00000    0.03662    0.03869 =
         0.04710    0.00610   -0.00219    0.00082
C15   1    0.138289    0.582137    0.238789    11.00000    0.04937    0.05459 =
         0.06200    0.02480   -0.01471   -0.00795
AFIX  23
H15A  2    0.180738    0.660264    0.273675    11.00000   -1.20000
H15B  2    0.271043    0.554612    0.204817    11.00000   -1.20000
AFIX   0
C16   1    0.051322    0.495706    0.318795    11.00000    0.05349    0.05221 =
         0.06948    0.02056   -0.00384    0.00325
AFIX  13
H16   2    0.010850    0.541137    0.383071    11.00000   -1.20000
AFIX   0
C17   1    0.216430    0.412308    0.355708    11.00000    0.04633    0.04740 =
         0.06461    0.01938    0.00095   -0.00451
AFIX  23
H17A  2    0.355256    0.454354    0.394704    11.00000   -1.20000
H17B  2    0.263571    0.367999    0.293263    11.00000   -1.20000

AFIX   0
HKLF 4

REM  t in P-1
REM R1 =  0.0466 for    2154 Fo > 4sig(Fo)  and  0.0647 for all    2808 data
REM    209 parameters refined using      0 restraints

END

WGHT      0.0521      0.3783

REM Highest difference peak  0.544,  deepest hole -0.296,  1-sigma level  0.045
Q1    1   0.0977  0.4343  0.2626  11.00000  0.05    0.54
Q2    1   0.1726  0.4641  0.4100  11.00000  0.05    0.33
Q3    1   0.3200  0.2013  0.4592  11.00000  0.05    0.31
Q4    1   0.1330  0.5396  0.1794  11.00000  0.05    0.18
Q5    1   0.3683  0.4331  0.3604  11.00000  0.05    0.18
Q6    1   0.7988 -0.1372  0.2581  11.00000  0.05    0.17
Q7    1   0.5429  0.3752  0.5165  11.00000  0.05    0.17
Q8    1   0.4170  0.2852  0.5150  11.00000  0.05    0.15
Q9    1  -0.1136  0.4832  0.3053  11.00000  0.05    0.15
Q10   1   0.1033  0.2508  0.6333  11.00000  0.05    0.15
Q11   1   0.4979 -0.1588  0.1770  11.00000  0.05    0.15
Q12   1   0.1634  0.3404  0.2605  11.00000  0.05    0.14
Q13   1  -0.0938  0.6322  0.1240  11.00000  0.05    0.14
Q14   1   0.4153  0.1845  0.3782  11.00000  0.05    0.14
Q15   1   0.2404  0.1979  0.5826  11.00000  0.05    0.13
Q16   1  -0.2568  0.3993  0.2761  11.00000  0.05    0.13
Q17   1   0.3407 -0.0151  0.3913  11.00000  0.05    0.13
Q18   1  -0.0539  0.6040  0.1001  11.00000  0.05    0.13
Q19   1   0.2895  0.6076  0.2486  11.00000  0.05    0.12
Q20   1   0.8923 -0.0436  0.1055  11.00000  0.05    0.12
;
_shelx_res_checksum              32899
_shelx_hkl_file
;
  -1   0   0   28.93    0.39
  -2   0   0   50.70    0.72
  -3   0   0    0.71    0.13
  -4   0   0    5.67    0.32
  -5   0   0    5.12    0.36
   5   0   0    4.19    0.31
   6   0   0    6.70    0.42
   6  -1   0    0.94    0.20
  -6   1   0    0.48    0.22
  -5   1   0    4.51    0.36
  -4   1   0    0.78    0.18
  -3   1   0   22.49    0.54
  -2   1   0    0.09    0.07
  -1   1   0   14.55    0.29
   0   1   0   -0.05    0.01
   1   1   0  885.82    8.71
   1   1   0  889.79    8.36
  -2  -1   0    0.23    0.07
   2   1   0    0.14    0.06
  -3  -1   0   43.81    0.74
   3   1   0   45.89    0.80
   4   1   0    5.82    0.32
   5   1   0    0.54    0.16
   5   1   0    0.53    0.14
   6   1   0    2.72    0.33
   7   1   0    4.41    0.36
  -6   2   0    3.33    0.41
   5  -2   0    0.13    0.10
  -5   2   0   -0.04    0.13
   4  -2   0    4.71    0.27
  -4   2   0    4.81    0.32
   3  -2   0   16.62    0.41
  -3   2   0   16.65    0.48
   2  -2   0    1.95    0.12
  -2   2   0    2.12    0.16
  -1   2   0   15.70    0.30
  -1   2   0   15.97    0.33
   0   2   0   32.87    0.41
   0   2   0   32.90    0.44
   1   2   0    7.75    0.15
   1   2   0    7.47    0.22
   2   2   0   10.02    0.30
   2   2   0    9.94    0.23
   3   2   0    0.83    0.13
   3   2   0    1.09    0.13
   4   2   0    1.85    0.23
   4   2   0    1.96    0.20
   5   2   0   12.49    0.52
   6   2   0    2.34    0.32
  -7   3   0    0.86    0.28
  -6   3   0    0.47    0.24
  -5   3   0    2.40    0.32
   4  -3   0    0.11    0.08
  -4   3   0    0.08    0.14
   3  -3   0    6.78    0.25
  -3   3   0    7.25    0.34
   2  -3   0    0.18    0.05
  -2   3   0    0.09    0.08
  -2   3   0    0.18    0.07
  -1   3   0  160.74    1.73
  -1   3   0  162.20    1.67
   0   3   0    0.67    0.10
   0   3   0    0.65    0.08
   1   3   0    0.33    0.08
   1   3   0    0.42    0.06
   2   3   0    1.07    0.10
   2   3   0    0.98    0.13
   3   3   0   13.56    0.33
   3   3   0   14.03    0.45
   4   3   0    0.09    0.12
   5   3   0   12.09    0.54
   6   3   0    2.33    0.33
   7   3   0   -0.11    0.15
  -7   4   0   -0.19    0.18
  -6   4   0   15.46    0.74
  -5   4   0    0.44    0.19
  -4   4   0   12.32    0.53
   3  -4   0    5.09    0.21
  -3   4   0    5.20    0.31
   2  -4   0    8.71    0.32
  -2   4   0    9.31    0.35
  -2   4   0    9.15    0.30
  -1   4   0   30.06    0.52
  -1   4   0   25.79    0.52
   0   4   0   13.55    0.30
   0   4   0   13.65    0.34
   1   4   0   26.70    0.53
   1   4   0   26.11    0.37
   2   4   0   14.69    0.27
   2   4   0   14.73    0.43
   3   4   0    0.65    0.11
   3   4   0    0.69    0.15
   4   4   0   20.29    0.64
   5   4   0    0.29    0.15
   6   4   0   -0.12    0.11
  -7   5   0    0.20    0.25
  -6   5   0    0.25    0.24
  -5   5   0   19.58    0.75
  -4   5   0    0.07    0.14
  -3   5   0   93.07    1.48
  -3   5   0   95.13    1.35
  -2   5   0    0.06    0.09
  -2   5   0    0.08    0.09
  -1   5   0    3.63    0.22
  -1   5   0    3.45    0.21
   0   5   0    2.49    0.15
   0   5   0    2.39    0.18
   1   5   0    2.34    0.12
   1   5   0    2.43    0.20
   2   5   0   34.31    0.46
   2   5   0   35.49    0.74
   3   5   0   15.67    0.53
   4   5   0   10.85    0.49
   5   5   0    2.88    0.34
   6   5   0    0.10    0.17
  -6   6   0    0.27    0.23
  -5   6   0    0.42    0.20
  -4   6   0    5.13    0.40
  -3   6   0    3.50    0.28
  -3   6   0    3.74    0.30
  -2   6   0  100.92    1.39
  -2   6   0  101.61    1.48
  -1   6   0    0.29    0.13
  -1   6   0    0.54    0.12
   0   6   0    3.12    0.18
   0   6   0    3.31    0.24
   1   6   0    7.18    0.22
   1   6   0    7.21    0.33
   2   6   0    7.66    0.36
   3   6   0    0.15    0.13
   4   6   0    4.94    0.37
   5   6   0    1.53    0.28
   6   6   0    0.22    0.21
  -6   7   0    0.68    0.27
  -5   7   0   -0.12    0.15
  -4   7   0    0.32    0.18
  -3   7   0   10.31    0.49
  -3   7   0    9.93    0.44
  -2   7   0    4.98    0.33
  -2   7   0    4.50    0.32
  -1   7   0    0.55    0.13
  -1   7   0    0.50    0.16
   0   7   0    0.48    0.11
   0   7   0    0.28    0.14
   1   7   0    0.05    0.06
   1   7   0    0.07    0.12
   2   7   0   15.87    0.54
   3   7   0   14.42    0.56
   4   7   0    0.86    0.22
   5   7   0    3.13    0.40
   6   7   0    1.26    0.32
  -6   8   0   -0.27    0.18
  -5   8   0    0.51    0.25
  -4   8   0    4.65    0.40
  -4   8   0    4.29    0.34
  -3   8   0    1.65    0.27
  -3   8   0    1.09    0.22
  -2   8   0   15.64    0.56
  -2   8   0   15.12    0.55
  -1   8   0    2.58    0.26
  -1   8   0    3.15    0.30
   0   8   0    0.02    0.09
   0   8   0    0.14    0.16
   1   8   0    5.09    0.34
   2   8   0    1.54    0.25
   3   8   0   22.04    0.72
   4   8   0    8.74    0.51
   5   8   0    1.46    0.31
  -5   9   0   -0.06    0.18
  -4   9   0    5.32    0.44
  -3   9   0   12.85    0.58
  -3   9   0   12.05    0.52
  -2   9   0    0.11    0.15
  -2   9   0   -0.18    0.16
  -1   9   0    3.56    0.28
  -1   9   0    2.89    0.31
   0   9   0   -0.03    0.16
   0   9   0   -0.12    0.08
   1   9   0    3.26    0.34
   2   9   0   10.42    0.51
   3   9   0    0.10    0.17
   4   9   0    1.17    0.27
   5   9   0    2.42    0.41
  -5  10   0    2.47    0.40
  -4  10   0    0.16    0.20
  -3  10   0    1.44    0.25
  -3  10   0    1.37    0.28
  -2  10   0   12.62    0.57
  -2  10   0   11.58    0.53
  -1  10   0   -0.19    0.15
  -1  10   0    0.17    0.13
   0  10   0    5.08    0.39
   1  10   0    2.70    0.34
   2  10   0    0.68    0.23
   3  10   0    4.70    0.47
   4  10   0    0.39    0.24
   5  10   0   -0.09    0.22
  -5  11   0    0.02    0.33
  -4  11   0    0.18    0.20
  -3  11   0    0.09    0.19
  -3  11   0    0.55    0.22
  -2  11   0    2.32    0.35
  -2  11   0    1.96    0.29
  -1  11   0   19.47    0.73
   0  11   0    0.02    0.20
   1  11   0    2.07    0.33
   2  11   0    3.72    0.44
   3  11   0   -0.09    0.22
   4  11   0    0.35    0.26
  -4  12   0    0.07    0.21
  -3  12   0    0.61    0.22
  -3  12   0    0.97    0.25
  -2  12   0    0.11    0.16
  -2  12   0    0.27    0.20
  -1  12   0    2.26    0.35
   0  12   0   18.34    0.75
   1  12   0   -0.08    0.21
   2  12   0    0.35    0.27
   3  12   0    0.38    0.26
  -3  13   0    1.02    0.29
  -2  13   0    1.12    0.30
  -1  13   0    0.35    0.24
   0  13   0   11.45    0.65
   1  13   0    4.57    0.50
   2  13   0    0.56    0.33
  -2  14   0    0.17    0.23
  -1  14   0    0.88    0.29
   0  14   0    1.50    0.38
   1  14   0    2.53    0.44
   1  14  -1    1.07    0.36
   0  14  -1    0.92    0.33
  -1  14  -1    1.54    0.35
  -2  14  -1   -0.10    0.24
   3  13  -1   -0.07    0.26
   2  13  -1   -0.14    0.23
   1  13  -1    0.62    0.30
   0  13  -1    0.80    0.31
  -1  13  -1    0.73    0.28
  -2  13  -1    1.02    0.31
  -3  13  -1   -0.01    0.17
  -3  13  -1    0.13    0.23
   3  12  -1    0.18    0.25
   2  12  -1    2.76    0.41
   1  12  -1    0.61    0.27
   0  12  -1    0.00    0.21
  -1  12  -1    0.33    0.25
  -2  12  -1    0.91    0.27
  -2  12  -1    0.62    0.25
  -3  12  -1    0.91    0.26
  -3  12  -1    1.34    0.29
  -4  12  -1    2.00    0.37
   4  11  -1   -0.28    0.20
   3  11  -1    0.16    0.21
   2  11  -1    4.31    0.46
   1  11  -1    6.31    0.48
   0  11  -1   -0.05    0.20
  -1  11  -1    9.14    0.52
  -2  11  -1    0.67    0.20
  -2  11  -1    0.77    0.27
  -3  11  -1    0.06    0.19
  -3  11  -1    0.04    0.17
  -4  11  -1    0.05    0.19
   5  10  -1    0.51    0.30
   4  10  -1    0.14    0.22
   3  10  -1    0.06    0.19
   2  10  -1    1.57    0.31
   1  10  -1    7.99    0.50
   0  10  -1    0.33    0.21
  -1  10  -1    0.65    0.22
  -1  10  -1    0.86    0.19
  -2  10  -1   25.74    0.77
  -2  10  -1   24.68    0.79
  -3  10  -1    0.13    0.17
  -3  10  -1    0.00    0.16
  -4  10  -1   12.53    0.61
  -4  10  -1   12.70    0.65
  -5  10  -1   -0.05    0.19
   5   9  -1    0.61    0.25
   4   9  -1    0.12    0.20
   3   9  -1    0.48    0.21
   2   9  -1    3.61    0.38
   1   9  -1    0.70    0.22
   0   9  -1    0.28    0.19
  -1   9  -1    0.19    0.20
  -1   9  -1    0.29    0.14
  -2   9  -1    3.57    0.36
  -2   9  -1    3.28    0.30
  -3   9  -1   17.13    0.65
  -3   9  -1   16.28    0.66
  -4   9  -1    0.29    0.20
  -5   9  -1    6.10    0.52
   5   8  -1    0.86    0.27
   4   8  -1   -0.08    0.16
   3   8  -1    2.45    0.31
   2   8  -1    1.31    0.24
   1   8  -1    0.30    0.17
   0   8  -1    0.21    0.16
   0   8  -1    0.12    0.09
  -1   8  -1    5.48    0.38
  -1   8  -1    5.27    0.30
  -2   8  -1    4.24    0.31
  -2   8  -1    4.86    0.37
  -3   8  -1   -0.13    0.14
  -3   8  -1    0.02    0.14
  -4   8  -1    9.43    0.55
  -4   8  -1    8.32    0.46
  -5   8  -1    0.02    0.18
  -6   8  -1    0.50    0.26
   6   7  -1    0.24    0.22
   5   7  -1    1.92    0.32
   4   7  -1    1.16    0.25
   3   7  -1    0.55    0.18
   2   7  -1    6.52    0.37
   1   7  -1    5.13    0.20
   1   7  -1    5.53    0.33
   0   7  -1    0.64    0.12
   0   7  -1    0.73    0.18
  -1   7  -1   20.76    0.55
  -1   7  -1   19.71    0.57
  -2   7  -1   18.14    0.57
  -2   7  -1   18.05    0.58
  -3   7  -1   17.26    0.62
  -3   7  -1   16.98    0.58
  -4   7  -1    0.52    0.20
  -5   7  -1    2.58    0.38
  -6   7  -1    0.70    0.29
   6   6  -1    0.70    0.26
   5   6  -1    0.77    0.22
   4   6  -1   52.59    1.14
   3   6  -1    1.91    0.26
   2   6  -1   18.23    0.55
   1   6  -1    0.36    0.13
   1   6  -1    0.30    0.06
   0   6  -1    7.06    0.25
   0   6  -1    7.42    0.32
  -1   6  -1    2.02    0.18
  -1   6  -1    1.94    0.21
  -2   6  -1   96.85    1.39
  -2   6  -1   94.38    1.42
  -3   6  -1    0.32    0.15
  -3   6  -1    0.36    0.16
  -4   6  -1    7.29    0.45
  -5   6  -1    0.81    0.24
  -6   6  -1    1.35    0.33
   6   5  -1    0.19    0.18
   5   5  -1    0.02    0.14
   4   5  -1    8.44    0.43
   3   5  -1  102.29    1.52
   2   5  -1    0.02    0.09
   1   5  -1   84.18    0.87
   1   5  -1   81.62    1.16
   0   5  -1    7.48    0.23
   0   5  -1    6.95    0.29
  -1   5  -1   47.26    0.79
  -1   5  -1   47.87    0.80
  -2   5  -1    0.19    0.11
  -2   5  -1    0.23    0.12
  -3   5  -1   66.24    1.12
  -3   5  -1   67.40    1.21
  -4   5  -1    0.82    0.22
  -5   5  -1    1.08    0.27
  -6   5  -1    1.99    0.36
   6   4  -1   -0.07    0.13
   5   4  -1    0.08    0.13
   4   4  -1    0.53    0.16
   3   4  -1    0.86    0.15
   2   4  -1   13.16    0.40
   1   4  -1    2.81    0.19
   1   4  -1    2.66    0.08
   0   4  -1   66.72    0.91
   0   4  -1   66.82    0.81
  -1   4  -1    4.05    0.20
  -2   4  -1   34.92    0.70
  -2   4  -1   34.85    0.66
  -3   4  -1    1.50    0.22
   3  -4   1    1.50    0.11
  -4   4  -1    9.17    0.47
  -5   4  -1    2.19    0.34
  -6   4  -1    1.93    0.38
   7  -4   1    2.11    0.28
   7   3  -1    0.53    0.16
   6   3  -1    1.25    0.25
   5   3  -1    5.03    0.36
   4   3  -1    8.54    0.40
   3   3  -1    0.24    0.07
   3   3  -1    0.25    0.09
   2   3  -1   17.55    0.25
   2   3  -1   17.35    0.42
   1   3  -1    1.41    0.12
   0   3  -1   13.93    0.32
   0   3  -1   12.94    0.25
  -1   3  -1    4.30    0.20
  -1   3  -1    4.45    0.20
  -2   3  -1    0.25    0.09
  -2   3  -1    0.30    0.10
  -3   3  -1    4.47    0.28
   3  -3   1    4.53    0.19
  -4   3  -1    0.55    0.19
   4  -3   1    0.57    0.12
  -5   3  -1    8.52    0.49
  -6   3  -1   -0.11    0.21
   7   2  -1    0.81    0.19
   6   2  -1    2.85    0.33
   5   2  -1    0.80    0.18
   4   2  -1   28.25    0.58
   4   2  -1   28.70    0.69
   3   2  -1    0.25    0.09
  -3  -2   1    0.27    0.08
   2   2  -1    0.56    0.09
  -2  -2   1    0.71    0.07
   1   2  -1   34.92    0.51
   0   2  -1   23.43    0.32
   0   2  -1   24.09    0.37
  -1   2  -1    0.12    0.09
  -1   2  -1    0.15    0.07
  -2   2  -1    3.20    0.19
  -3   2  -1    6.23    0.31
  -4   2  -1    4.34    0.32
  -5   2  -1    1.48    0.27
   6  -2   1    8.21    0.46
   7   1  -1    2.92    0.37
   6   1  -1    0.69    0.19
   6   1  -1    0.75    0.18
   5   1  -1   24.17    0.69
   4   1  -1    0.95    0.16
  -4  -1   1    0.88    0.17
   3   1  -1   19.81    0.47
  -3  -1   1   18.78    0.44
   2   1  -1   51.13    0.71
  -2  -1   1   50.61    0.66
   1   1  -1   55.58    0.64
  -1  -1   1   55.83    0.57
   0  -1   1    0.39    0.06
  -1   1  -1   40.27    0.56
  -2   1  -1   46.72    0.74
  -3   1  -1    0.14    0.10
  -4   1  -1    0.20    0.13
  -5   1  -1    3.43    0.36
   6  -1   1    0.77    0.18
   6  -1   1    0.51    0.15
   6   0  -1    9.93    0.53
   5   0  -1    0.48    0.15
   5   0  -1    0.30    0.13
  -5   0   1    0.35    0.16
   4   0  -1   -0.05    0.08
  -4   0   1    0.22    0.11
  -3   0   1    1.04    0.14
  -2   0   1   36.41    0.57
   1   0  -1   31.58    0.46
  -1   0   1   32.63    0.42
   0   0   1   -0.12    0.01
   1   0   1  107.30    1.12
  -2   0  -1    0.31    0.09
  -3   0  -1    5.56    0.28
   4   0   1    7.87    0.36
   5   0   1    1.09    0.20
   6   0   1    1.99    0.29
   6  -1  -1    0.84    0.20
  -6   1   1    1.05    0.26
   5  -1  -1   18.20    0.63
   5  -1  -1   17.94    0.57
  -5   1   1   18.07    0.62
   4  -1  -1    0.41    0.13
  -4   1   1    0.40    0.14
   3  -1  -1   19.81    0.50
  -3   1   1   20.07    0.50
   2  -1  -1    4.44    0.19
  -2   1   1    4.44    0.20
   1  -1  -1    0.61    0.07
  -1   1   1    0.48    0.08
   0   1   1   28.92    0.38
   1   1   1  149.29    1.47
   2   1   1   60.85    0.80
   3   1   1    0.22    0.09
   4   1   1    8.20    0.40
   4   1   1    8.35    0.36
   5   1   1    9.04    0.45
   5   1   1    8.87    0.41
   6   1   1    0.87    0.23
   7   1   1    0.94    0.24
  -6   2   1    3.70    0.42
   5  -2  -1   -0.02    0.09
  -5   2   1   -0.03    0.13
   4  -2  -1    0.24    0.11
  -4   2   1    0.21    0.13
   3  -2  -1    5.30    0.25
  -3   2   1    5.48    0.29
   2  -2  -1   46.44    0.67
  -2   2   1   45.62    0.75
   1  -2  -1   14.60    0.31
  -1   2   1   13.34    0.31
   0   2   1    0.64    0.07
   0   2   1    0.72    0.08
   1   2   1    0.20    0.06
   1   2   1    0.30    0.08
   2   2   1    8.89    0.30
   2   2   1    8.93    0.25
   3   2   1    5.65    0.29
   3   2   1    5.39    0.24
   4   2   1   11.68    0.41
   4   2   1   11.38    0.47
   5   2   1    0.60    0.19
   6   2   1    1.18    0.24
   7   2   1    0.36    0.21
  -7   3   1    1.62    0.34
  -6   3   1    0.32    0.22
  -5   3   1    1.10    0.23
   4  -3  -1    0.02    0.09
  -4   3   1    0.10    0.13
   3  -3  -1    3.18    0.19
  -3   3   1    3.14    0.24
   2  -3  -1   44.71    0.65
  -2   3   1   45.74    0.66
  -2   3   1   45.32    0.78
  -1   3   1   42.68    0.58
  -1   3   1   43.88    0.67
   0   3   1    6.15    0.19
   0   3   1    6.51    0.20
   1   3   1  157.28    1.71
   1   3   1  157.98    1.57
   2   3   1   -0.02    0.07
   2   3   1   -0.05    0.07
   3   3   1   42.59    0.70
   3   3   1   43.62    0.85
   4   3   1   37.74    0.75
   4   3   1   38.07    0.89
   5   3   1    2.94    0.34
   6   3   1    0.45    0.19
  -7   4   1    0.14    0.24
  -6   4   1    7.01    0.50
  -5   4   1    0.76    0.23
   4  -4  -1    3.12    0.24
  -4   4   1    3.28    0.35
   3  -4  -1    0.41    0.10
  -3   4   1    0.49    0.16
   2  -4  -1    1.24    0.13
  -2   4   1    1.16    0.13
  -2   4   1    0.98    0.16
  -1   4   1   33.88    0.61
  -1   4   1   33.95    0.55
   0   4   1    0.09    0.07
   0   4   1    0.06    0.06
   1   4   1   34.05    0.62
   1   4   1   33.47    0.50
   2   4   1   23.50    0.43
   2   4   1   23.45    0.57
   3   4   1   14.02    0.49
   3   4   1   13.63    0.37
   4   4   1   51.28    1.09
   5   4   1   24.36    0.80
   6   4   1    0.25    0.19
  -7   5   1    0.30    0.24
  -6   5   1    1.19    0.30
  -5   5   1   15.64    0.67
  -4   5   1    1.30    0.24
   3  -5  -1    9.97    0.34
  -3   5   1   11.06    0.46
  -3   5   1   11.04    0.37
  -2   5   1    3.98    0.25
  -2   5   1    3.95    0.22
  -1   5   1   -0.01    0.06
  -1   5   1    0.09    0.09
   0   5   1    0.69    0.11
   0   5   1    0.74    0.12
   1   5   1   11.72    0.37
   1   5   1   11.63    0.29
   2   5   1   22.19    0.58
   2   5   1   21.46    0.41
   3   5   1    0.12    0.12
   4   5   1    1.31    0.24
   5   5   1    3.42    0.39
   6   5   1    1.08    0.26
  -6   6   1    1.25    0.32
  -5   6   1    2.63    0.37
  -4   6   1   13.78    0.59
  -3   6   1    0.59    0.15
  -3   6   1    0.54    0.19
  -2   6   1   56.53    1.03
  -2   6   1   56.09    0.92
  -1   6   1    3.38    0.22
  -1   6   1    3.35    0.23
   0   6   1    3.91    0.21
   0   6   1    3.67    0.23
   1   6   1    1.87    0.14
   1   6   1    1.77    0.20
   2   6   1   32.35    0.76
   2   6   1   31.96    0.54
   3   6   1    0.14    0.14
   4   6   1    0.39    0.17
   5   6   1    0.09    0.15
   6   6   1    0.06    0.18
  -6   7   1    0.06    0.23
  -5   7   1   -0.11    0.14
  -4   7   1    1.30    0.25
  -3   7   1   16.84    0.54
  -3   7   1   16.39    0.61
  -2   7   1    4.10    0.30
  -2   7   1    4.60    0.31
  -1   7   1   10.72    0.40
  -1   7   1   10.37    0.40
   0   7   1    0.88    0.18
   0   7   1    0.94    0.14
   1   7   1   10.54    0.43
   1   7   1   10.32    0.31
   2   7   1   13.16    0.50
   3   7   1   13.33    0.55
   4   7   1   -0.05    0.12
   5   7   1    0.41    0.21
   6   7   1    0.73    0.27
  -6   8   1    0.44    0.24
  -5   8   1    0.32    0.20
  -4   8   1    7.21    0.47
  -3   8   1    9.44    0.44
  -3   8   1    9.17    0.48
  -2   8   1   25.61    0.68
  -2   8   1   26.79    0.73
  -1   8   1    3.61    0.31
  -1   8   1    3.62    0.26
   0   8   1    0.82    0.15
   0   8   1    0.66    0.19
   1   8   1    8.96    0.43
   2   8   1    1.03    0.21
   3   8   1   14.93    0.61
   5   8   1   -0.05    0.17
  -5   9   1    1.30    0.31
  -4   9   1    0.94    0.26
  -3   9   1    2.50    0.33
  -3   9   1    1.93    0.26
  -2   9   1    0.31    0.18
  -2   9   1    0.52    0.17
  -1   9   1   24.69    0.71
  -1   9   1   24.69    0.68
   0   9   1    0.33    0.20
   0   9   1   -0.04    0.09
   1   9   1    3.20    0.34
   2   9   1   10.94    0.54
   3   9   1    0.38    0.19
   4   9   1    0.40    0.22
   5   9   1    3.20    0.44
  -5  10   1    0.76    0.27
  -4  10   1    3.08    0.41
  -3  10   1    1.73    0.30
  -3  10   1    1.58    0.27
  -2  10   1    0.04    0.16
  -2  10   1    0.08    0.15
  -1  10   1    3.69    0.30
  -1  10   1    3.51    0.36
   0  10   1    4.15    0.40
   1  10   1    1.16    0.24
   2  10   1    4.40    0.43
   3  10   1    2.14    0.36
   4  10   1   -0.03    0.17
  -4  11   1    0.68    0.26
  -3  11   1    1.48    0.29
  -2  11   1    0.01    0.14
  -2  11   1   -0.04    0.17
  -1  11   1    0.83    0.20
  -1  11   1    0.41    0.21
   0  11   1    0.03    0.18
   1  11   1   -0.03    0.18
   2  11   1    0.58    0.25
   3  11   1    0.52    0.26
   4  11   1   -0.20    0.25
  -4  12   1    1.67    0.35
  -3  12   1    1.97    0.33
  -2  12   1    1.14    0.29
  -2  12   1    1.30    0.27
  -1  12   1    0.14    0.20
   0  12   1    0.10    0.20
   1  12   1    1.47    0.32
   2  12   1    0.19    0.24
   3  12   1    0.20    0.24
  -3  13   1    0.64    0.25
  -2  13   1    0.39    0.25
  -1  13   1    1.27    0.33
   0  13   1    2.10    0.36
   1  13   1    0.93    0.33
   2  13   1    0.01    0.28
  -1  14   1    0.14    0.27
   0  14   1    0.10    0.26
   1  14   1    0.68    0.35
   1  14  -2    1.12    0.38
   0  14  -2    1.10    0.34
  -1  14  -2    1.26    0.35
  -2  14  -2   -0.07    0.22
   3  13  -2   -0.15    0.29
   2  13  -2    2.36    0.41
   1  13  -2    1.52    0.38
   0  13  -2    1.37    0.35
  -1  13  -2    0.17    0.23
  -2  13  -2    0.38    0.25
  -3  13  -2    0.46    0.24
  -3  13  -2    0.10    0.26
   3  12  -2    0.55    0.29
   2  12  -2    5.11    0.51
   1  12  -2    4.17    0.47
   0  12  -2    5.35    0.53
  -1  12  -2    3.11    0.41
  -2  12  -2    0.18    0.23
  -3  12  -2    0.49    0.23
  -3  12  -2    0.56    0.25
  -4  12  -2    1.40    0.34
  -4  12  -2    1.34    0.29
   4  11  -2    0.12    0.24
   3  11  -2    0.31    0.24
   2  11  -2    0.24    0.25
   1  11  -2   42.08    1.09
   0  11  -2    6.11    0.50
  -1  11  -2    6.07    0.46
  -2  11  -2    0.29    0.23
  -2  11  -2    0.26    0.16
  -3  11  -2    0.20    0.22
  -3  11  -2    0.41    0.22
  -4  11  -2   -0.15    0.17
  -4  11  -2    0.50    0.23
   5  10  -2    2.66    0.44
   4  10  -2    0.75    0.27
   3  10  -2    0.67    0.27
   2  10  -2    0.13    0.20
   1  10  -2    2.21    0.32
   0  10  -2   33.75    0.91
  -1  10  -2    2.32    0.33
  -1  10  -2    2.71    0.29
  -2  10  -2   11.83    0.53
  -2  10  -2   10.27    0.54
  -3  10  -2    0.10    0.20
  -3  10  -2    0.28    0.20
  -4  10  -2    0.31    0.22
  -4  10  -2    0.41    0.21
  -5  10  -2    0.93    0.30
   5   9  -2   -0.16    0.19
   4   9  -2    1.47    0.31
   3   9  -2    1.26    0.27
   2   9  -2    2.86    0.35
   1   9  -2    4.20    0.39
   0   9  -2    0.01    0.18
  -1   9  -2    1.08    0.24
  -1   9  -2    0.99    0.18
  -2   9  -2    0.30    0.21
  -2   9  -2    0.29    0.15
  -3   9  -2    2.67    0.35
  -3   9  -2    2.85    0.34
  -4   9  -2    0.00    0.18
  -4   9  -2    0.35    0.20
  -5   9  -2    0.16    0.21
   5   8  -2    0.32    0.22
   4   8  -2    1.86    0.31
   3   8  -2    1.98    0.28
   2   8  -2    4.19    0.34
   1   8  -2    0.05    0.15
   0   8  -2    0.58    0.20
   0   8  -2    0.93    0.15
  -1   8  -2    0.28    0.13
  -1   8  -2    0.37    0.18
  -2   8  -2   17.04    0.62
  -2   8  -2   17.91    0.60
  -3   8  -2    1.04    0.23
  -3   8  -2    0.70    0.20
  -4   8  -2    3.60    0.37
  -4   8  -2    2.93    0.40
  -5   8  -2    0.77    0.27
  -6   8  -2    0.32    0.31
   6   7  -2    0.05    0.20
   5   7  -2    3.41    0.39
   4   7  -2    8.02    0.47
   3   7  -2    5.02    0.36
   2   7  -2    2.38    0.27
   1   7  -2    0.37    0.16
   0   7  -2    4.84    0.32
   0   7  -2    4.20    0.22
  -1   7  -2    2.69    0.22
  -1   7  -2    2.24    0.25
  -2   7  -2    0.07    0.16
  -2   7  -2    0.05    0.11
  -3   7  -2   48.85    1.10
  -3   7  -2   49.50    1.05
  -4   7  -2    0.97    0.25
  -5   7  -2    0.66    0.26
  -6   7  -2    1.43    0.37
   6   6  -2    3.42    0.40
   5   6  -2   -0.01    0.14
   4   6  -2   53.08    1.12
   3   6  -2    6.66    0.37
   2   6  -2    4.16    0.29
   1   6  -2    8.38    0.37
   1   6  -2    8.43    0.20
   0   6  -2   18.77    0.41
   0   6  -2   18.48    0.52
  -1   6  -2   15.79    0.49
  -1   6  -2   15.02    0.44
  -2   6  -2   26.10    0.67
  -2   6  -2   25.01    0.65
  -3   6  -2    0.63    0.20
  -3   6  -2    0.27    0.15
  -4   6  -2    7.07    0.46
  -5   6  -2    1.87    0.34
  -6   6  -2    6.14    0.54
   6   5  -2    0.04    0.16
   5   5  -2    0.06    0.13
   4   5  -2    3.36    0.29
   3   5  -2   86.00    1.33
   2   5  -2    8.83    0.36
   1   5  -2    2.80    0.21
   0   5  -2    3.52    0.22
   0   5  -2    3.51    0.17
  -1   5  -2    0.66    0.14
  -1   5  -2    0.52    0.11
  -2   5  -2    3.99    0.26
  -2   5  -2    4.02    0.26
  -3   5  -2    9.49    0.42
  -3   5  -2    9.59    0.46
  -4   5  -2    2.03    0.30
  -5   5  -2    0.87    0.26
  -6   5  -2    0.87    0.29
   7   4  -2    0.50    0.17
   6   4  -2    0.07    0.15
   5   4  -2    1.10    0.22
   4   4  -2    0.19    0.12
   3   4  -2   16.39    0.49
   2   4  -2    0.55    0.11
   1   4  -2   19.28    0.44
  -1  -4   2   19.60    0.24
   0   4  -2    8.01    0.22
   0   4  -2    8.10    0.29
  -1   4  -2   38.19    0.66
  -1   4  -2   39.02    0.69
  -2   4  -2   70.04    1.08
  -2   4  -2   73.62    1.13
  -3   4  -2    0.00    0.12
  -4   4  -2   12.26    0.55
  -5   4  -2    6.98    0.48
  -6   4  -2    1.20    0.32
   7  -4   2    1.54    0.25
   7   3  -2    0.47    0.16
   6   3  -2    0.90    0.21
   6   3  -2    0.35    0.17
   5   3  -2    8.14    0.42
   4   3  -2    0.42    0.14
   3   3  -2   40.48    0.76
   2   3  -2   53.63    0.81
   1   3  -2    7.77    0.25
  -1  -3   2    7.83    0.11
   0   3  -2   14.04    0.28
   0   3  -2   13.46    0.33
  -1   3  -2    1.23    0.13
  -1   3  -2    1.06    0.13
  -2   3  -2   66.23    1.01
  -2   3  -2   68.80    1.05
  -3   3  -2   18.67    0.57
  -4   3  -2    0.04    0.14
  -5   3  -2   21.14    0.76
   6  -3   2    1.35    0.25
   7  -3   2    1.16    0.25
   7   2  -2    0.40    0.16
   6   2  -2    0.21    0.14
   5   2  -2    1.35    0.21
   4   2  -2    7.41    0.34
   3   2  -2    5.04    0.24
  -3  -2   2    5.09    0.20
   2   2  -2   41.14    0.64
  -2  -2   2   41.55    0.52
   1   2  -2   11.37    0.27
  -1  -2   2   11.57    0.17
   0   2  -2  575.60    6.17
   0  -2   2  594.42    5.77
  -1   2  -2  242.54    2.43
  -1   2  -2  243.80    2.43
  -2   2  -2    0.42    0.11
  -3   2  -2   31.32    0.73
  -4   2  -2    0.34    0.16
   5  -2   2    2.47    0.29
   6  -2   2    8.79    0.50
   7  -2   2    1.57    0.33
   7   1  -2    1.40    0.26
   6   1  -2    6.38    0.45
   5   1  -2    2.59    0.31
   5   1  -2    2.50    0.26
   4   1  -2    2.61    0.20
  -4  -1   2    2.81    0.21
   3   1  -2    1.35    0.14
  -3  -1   2    1.47    0.15
   2   1  -2   40.95    0.73
   2   1  -2   42.46    0.60
  -2  -1   2   42.48    0.58
   1   1  -2    2.09    0.13
   1   1  -2    2.33    0.11
  -1  -1   2    2.01    0.10
   0  -1   2    9.40    0.20
   1  -1   2  455.25    4.47
   2  -1   2   82.73    1.10
  -3   1  -2   50.19    0.91
   3  -1   2   49.63    0.88
   4  -1   2    4.29    0.30
   5  -1   2   -0.02    0.10
   6  -1   2    1.07    0.22
   7  -1   2    0.89    0.22
   7   0  -2    1.73    0.31
   6   0  -2    9.96    0.53
   5   0  -2    6.98    0.35
   5   0  -2    7.15    0.43
  -5   0   2    6.82    0.38
   4   0  -2    0.00    0.09
   4   0  -2    0.07    0.07
  -4   0   2    0.03    0.10
   3   0  -2   14.55    0.45
   3   0  -2   14.30    0.36
  -3   0   2   14.11    0.39
   2   0  -2    6.50    0.26
   2   0  -2    6.23    0.18
  -2   0   2    6.17    0.21
   1   0  -2    7.12    0.22
  -1   0   2    6.79    0.18
   0   0  -2   62.54    0.78
   0   0   2   61.53    0.71
   1   0   2   39.00    0.57
   2   0   2   15.23    0.38
   3   0   2    1.93    0.20
   4   0   2   21.91    0.62
   5   0   2    2.72    0.30
   6   0   2    1.58    0.30
   6   0   2    1.44    0.27
   7   0   2    1.12    0.27
   6  -1  -2    6.75    0.45
   5  -1  -2    3.90    0.32
   4  -1  -2    0.11    0.08
   4  -1  -2    0.07    0.10
  -4   1   2    0.11    0.11
   3  -1  -2    4.02    0.23
  -3   1   2    3.50    0.22
   2  -1  -2   19.99    0.44
  -2   1   2   19.18    0.42
   1  -1  -2  884.49    9.22
  -1   1   2  899.04    9.12
   0   1   2   39.50    0.54
   1   1   2   24.96    0.43
   2   1   2   54.36    0.80
   3   1   2    3.67    0.23
   4   1   2    3.53    0.27
   5   1   2    0.88    0.20
   5   1   2    0.61    0.18
   6   1   2    0.43    0.18
   7   1   2    0.74    0.24
  -6   2   2    5.66    0.42
   5  -2  -2    1.59    0.24
  -5   2   2    1.86    0.26
   4  -2  -2    0.03    0.10
  -4   2   2    0.05    0.11
   3  -2  -2    0.11    0.09
  -3   2   2    0.12    0.09
   2  -2  -2    4.54    0.21
  -2   2   2    4.56    0.22
   1  -2  -2  978.23   10.48
  -1   2   2  990.50   10.33
   0   2   2  978.68    9.81
   0   2   2 1000.00    9.64
   1   2   2    0.80    0.12
   1   2   2    0.50    0.09
   2   2   2   29.31    0.53
   2   2   2   28.52    0.60
   3   2   2   16.83    0.51
   3   2   2   17.15    0.46
   4   2   2    0.27    0.14
   4   2   2    0.42    0.15
   5   2   2    9.85    0.51
   6   2   2    2.16    0.33
   7   2   2    0.18    0.18
  -6   3   2    1.32    0.29
   5  -3  -2   11.81    0.50
  -5   3   2   12.37    0.55
   4  -3  -2    1.62    0.20
  -4   3   2    2.06    0.26
   3  -3  -2    6.83    0.29
  -3   3   2    6.93    0.33
   2  -3  -2   79.01    1.05
  -2   3   2   79.75    1.13
  -2   3   2   78.55    0.91
  -1   3   2   28.59    0.53
  -1   3   2   28.02    0.42
   0   3   2  219.14    2.20
   0   3   2  220.39    2.16
   1   3   2   53.49    0.79
   1   3   2   53.58    0.73
   2   3   2   19.01    0.42
   2   3   2   19.27    0.49
   3   3   2    7.50    0.36
   3   3   2    7.55    0.31
   4   3   2    9.55    0.47
   4   3   2    9.34    0.39
   5   3   2    0.66    0.20
   6   3   2    1.31    0.28
  -7   4   2    0.31    0.23
  -6   4   2    0.32    0.20
  -5   4   2    4.25    0.36
   4  -4  -2   15.56    0.49
  -4   4   2   15.36    0.59
   3  -4  -2    9.92    0.35
  -3   4   2    8.88    0.40
   2  -4  -2   80.26    1.09
  -2   4   2   78.21    1.17
  -2   4   2   77.22    0.97
  -1   4   2  115.44    1.42
  -1   4   2  118.92    1.29
   0   4   2    8.08    0.26
   0   4   2    7.90    0.26
   1   4   2   34.09    0.63
   1   4   2   32.90    0.55
   2   4   2   32.56    0.58
   2   4   2   32.42    0.70
   3   4   2    1.03    0.18
   3   4   2    0.95    0.17
   4   4   2    0.33    0.15
   5   4   2   20.15    0.76
   6   4   2    0.13    0.18
  -7   5   2    1.45    0.33
  -6   5   2    0.21    0.20
  -5   5   2    2.02    0.31
  -4   5   2    3.63    0.37
   3  -5  -2    6.33    0.31
  -3   5   2    5.67    0.34
  -3   5   2    5.84    0.26
  -2   5   2    2.19    0.18
  -2   5   2    2.64    0.25
  -1   5   2   44.58    0.70
  -1   5   2   44.29    0.78
   0   5   2    1.27    0.14
   0   5   2    1.27    0.15
   1   5   2    1.82    0.16
   1   5   2    1.82    0.19
   2   5   2    5.09    0.29
   2   5   2    5.51    0.25
   3   5   2   10.67    0.46
   4   5   2   12.01    0.54
   5   5   2    0.76    0.22
   6   5   2    0.33    0.21
  -6   6   2    0.54    0.23
  -5   6   2    0.08    0.19
  -4   6   2   17.02    0.65
  -3   6   2    0.01    0.13
  -3   6   2    0.13    0.11
  -2   6   2    2.66    0.23
  -2   6   2    2.43    0.20
  -1   6   2    1.69    0.18
  -1   6   2    2.30    0.23
   0   6   2    1.14    0.16
   0   6   2    0.95    0.14
   1   6   2   13.81    0.38
   1   6   2   14.03    0.45
   2   6   2    7.68    0.29
   2   6   2    8.19    0.39
   3   6   2    6.05    0.38
   4   6   2    1.17    0.24
   5   6   2    0.72    0.23
   6   6   2    0.63    0.26
  -6   7   2    0.73    0.28
  -5   7   2    1.52    0.30
  -4   7   2    2.43    0.34
  -3   7   2   22.11    0.70
  -3   7   2   20.13    0.56
  -2   7   2    0.17    0.14
  -2   7   2    0.09    0.13
  -1   7   2    0.80    0.17
  -1   7   2    0.78    0.15
   0   7   2    4.59    0.29
   0   7   2    4.51    0.25
   1   7   2    0.89    0.18
   1   7   2    1.08    0.15
   2   7   2   13.78    0.53
   3   7   2    0.01    0.13
   4   7   2    1.42    0.27
   5   7   2    1.86    0.33
   6   7   2    1.31    0.33
  -6   8   2    0.94    0.29
  -5   8   2    0.00    0.16
  -4   8   2    9.67    0.54
  -3   8   2    4.27    0.35
  -2   8   2   18.10    0.61
  -2   8   2   18.63    0.56
  -1   8   2    1.20    0.20
  -1   8   2    1.14    0.21
   0   8   2    1.78    0.21
   0   8   2    1.54    0.22
   1   8   2    2.39    0.27
   1   8   2    2.53    0.20
   2   8   2    2.03    0.27
   3   8   2    1.30    0.24
   4   8   2    0.57    0.22
   5   8   2    0.20    0.20
  -5   9   2    0.05    0.19
  -4   9   2    0.02    0.15
  -3   9   2   11.97    0.57
  -2   9   2    5.08    0.35
  -2   9   2    4.85    0.35
  -1   9   2   24.89    0.69
  -1   9   2   23.82    0.69
   0   9   2    4.72    0.35
   0   9   2    4.30    0.28
   1   9   2    1.60    0.26
   2   9   2   19.80    0.70
   3   9   2    2.32    0.33
   4   9   2    0.27    0.21
   5   9   2    4.48    0.50
  -5  10   2    1.77    0.35
  -4  10   2    0.85    0.27
  -3  10   2    0.29    0.19
  -2  10   2    0.75    0.21
  -2  10   2    0.94    0.22
  -1  10   2   10.54    0.50
  -1  10   2   10.62    0.47
   0  10   2   11.81    0.55
   1  10   2    2.77    0.33
   2  10   2    1.14    0.26
   3  10   2    9.16    0.55
   4  10   2    0.60    0.24
  -4  11   2    3.73    0.47
  -3  11   2    3.02    0.38
  -2  11   2    0.20    0.17
  -2  11   2    0.23    0.18
  -1  11   2    0.18    0.13
  -1  11   2    0.07    0.17
   0  11   2    0.08    0.20
   1  11   2    0.15    0.21
   2  11   2    1.93    0.35
   3  11   2    0.50    0.26
   4  11   2    0.24    0.26
  -4  12   2    0.14    0.20
  -3  12   2    1.45    0.32
  -2  12   2    3.89    0.41
  -1  12   2    0.34    0.23
   0  12   2    1.07    0.28
   1  12   2    1.81    0.34
   2  12   2    0.55    0.26
   3  12   2    2.93    0.44
  -3  13   2    0.53    0.24
  -1  13   2    5.19    0.52
   0  13   2    0.06    0.22
   1  13   2   -0.28    0.21
   2  13   2   -0.41    0.23
  -1  14   2    4.90    0.53
   0  14   2    3.18    0.46
   1  14   2   -0.32    0.27
   1  14  -3    0.80    0.32
   0  14  -3    0.14    0.26
  -1  14  -3    0.75    0.30
  -2  14  -3    0.10    0.26
   2  13  -3    0.84    0.31
   1  13  -3    5.26    0.55
   0  13  -3    0.67    0.29
  -1  13  -3    0.44    0.29
  -2  13  -3    0.02    0.21
  -3  13  -3    2.32    0.40
   3  12  -3    0.24    0.27
   2  12  -3    2.30    0.39
   1  12  -3    2.83    0.41
   0  12  -3    5.59    0.55
  -1  12  -3    2.41    0.40
  -2  12  -3    4.65    0.50
  -3  12  -3    0.82    0.28
  -3  12  -3    0.46    0.24
  -4  12  -3    0.32    0.25
  -4  12  -3    0.32    0.23
   4  11  -3    0.14    0.25
   3  11  -3   -0.02    0.24
   2  11  -3    0.31    0.24
   1  11  -3    1.59    0.33
   0  11  -3    0.89    0.27
  -1  11  -3    0.58    0.25
  -2  11  -3    5.51    0.47
  -2  11  -3    5.56    0.42
  -3  11  -3    5.13    0.47
  -3  11  -3    6.26    0.52
  -4  11  -3    0.17    0.22
  -4  11  -3    0.27    0.23
   5  10  -3    0.30    0.27
   4  10  -3    1.58    0.35
   3  10  -3   -0.06    0.19
   2  10  -3    2.58    0.35
   1  10  -3    4.31    0.42
   0  10  -3    0.07    0.20
  -1  10  -3    6.20    0.47
  -1  10  -3    5.94    0.44
  -2  10  -3    0.62    0.23
  -2  10  -3    0.41    0.19
  -3  10  -3    0.52    0.23
  -3  10  -3    0.34    0.21
  -4  10  -3    5.39    0.56
  -4  10  -3    5.40    0.48
  -5  10  -3    0.27    0.24
   5   9  -3   -0.28    0.19
   4   9  -3    0.42    0.24
   3   9  -3    2.40    0.34
   2   9  -3    3.95    0.39
   1   9  -3    0.12    0.18
   0   9  -3    0.87    0.26
  -1   9  -3   10.22    0.52
  -1   9  -3    9.94    0.43
  -2   9  -3    8.67    0.46
  -2   9  -3    7.75    0.47
  -3   9  -3    8.61    0.52
  -3   9  -3    8.57    0.52
  -4   9  -3    0.23    0.18
  -4   9  -3   -0.14    0.19
  -5   9  -3    1.92    0.39
   5   8  -3    0.20    0.23
   4   8  -3    0.81    0.26
   3   8  -3    4.48    0.36
   2   8  -3    5.30    0.39
   1   8  -3    0.66    0.21
   0   8  -3    2.47    0.30
   0   8  -3    2.34    0.20
  -1   8  -3    0.21    0.13
  -1   8  -3    0.45    0.20
  -2   8  -3   25.88    0.77
  -2   8  -3   25.97    0.74
  -3   8  -3    6.57    0.44
  -3   8  -3    6.18    0.44
  -4   8  -3   16.73    0.73
  -5   8  -3    0.10    0.23
   6   7  -3    0.20    0.22
   6   7  -3    1.33    0.27
   5   7  -3    0.17    0.19
   4   7  -3    6.50    0.44
   3   7  -3   19.21    0.64
   2   7  -3    1.17    0.22
   1   7  -3    1.65    0.24
   0   7  -3    3.46    0.31
   0   7  -3    3.20    0.20
  -1   7  -3    0.60    0.14
  -1   7  -3    0.55    0.20
  -2   7  -3    1.32    0.22
  -2   7  -3    1.32    0.25
  -3   7  -3   33.82    0.92
  -3   7  -3   36.15    0.92
  -4   7  -3   10.42    0.57
  -5   7  -3    4.56    0.50
  -6   7  -3    2.04    0.40
   6   6  -3    0.29    0.19
   6   6  -3    1.06    0.24
   5   6  -3    1.87    0.29
   4   6  -3    0.96    0.20
   3   6  -3   15.11    0.54
   2   6  -3    2.04    0.25
   1   6  -3    5.69    0.33
  -1  -6   3    5.74    0.17
   0   6  -3   36.14    0.62
   0   6  -3   35.86    0.76
  -1   6  -3    5.40    0.28
  -1   6  -3    5.61    0.33
  -2   6  -3    5.77    0.35
  -2   6  -3    5.92    0.35
  -3   6  -3    0.17    0.17
  -3   6  -3    0.58    0.19
  -4   6  -3   12.70    0.62
  -5   6  -3   -0.16    0.20
   6  -6   3    2.06    0.31
   6   5  -3    0.99    0.23
   5   5  -3    4.10    0.33
   4   5  -3    6.00    0.35
   3   5  -3   16.01    0.51
   2   5  -3   25.54    0.60
   1   5  -3   18.14    0.49
  -1  -5   3   17.69    0.28
   0   5  -3    3.82    0.25
   0   5  -3    4.32    0.19
   0   5  -3    3.98    0.18
  -1   5  -3  131.60    1.61
  -1   5  -3  127.88    1.66
  -2   5  -3    0.36    0.14
  -2   5  -3    0.52    0.15
  -3   5  -3   14.11    0.56
  -4   5  -3    5.25    0.40
  -5   5  -3    0.51    0.23
   6   4  -3    0.29    0.15
   5   4  -3    0.50    0.16
   4   4  -3   21.40    0.62
   3   4  -3    1.80    0.20
   2   4  -3   20.41    0.50
   1   4  -3   51.12    0.82
  -1  -4   3   52.16    0.58
   0   4  -3   18.35    0.38
   0   4  -3   18.30    0.46
   0  -4   3   18.79    0.37
  -1   4  -3   16.12    0.44
  -1   4  -3   16.59    0.43
  -2   4  -3   80.00    1.22
  -2   4  -3   82.41    1.25
  -3   4  -3    0.07    0.13
  -4   4  -3    6.66    0.45
   5  -4   3    1.67    0.26
   6  -4   3    1.41    0.26
   7   3  -3    0.61    0.19
   6   3  -3    0.45    0.18
   5   3  -3    4.96    0.33
   5   3  -3    5.32    0.40
   4   3  -3    6.71    0.34
   3   3  -3   27.83    0.60
   2   3  -3   15.54    0.39
  -2  -3   3   16.25    0.24
   1   3  -3   19.13    0.45
   1   3  -3   19.42    0.42
  -1  -3   3   19.02    0.29
   0   3  -3   16.38    0.39
   0   3  -3   16.13    0.33
   0  -3   3   16.35    0.33
  -1   3  -3   18.63    0.45
   1  -3   3   19.01    0.43
  -2   3  -3   42.08    0.79
  -2   3  -3   40.68    0.79
  -3   3  -3   28.67    0.73
  -4   3  -3    2.57    0.32
   4  -3   3    2.02    0.27
   5  -3   3    1.09    0.22
   6  -3   3    0.98    0.23
   7  -3   3    1.43    0.30
   7   2  -3    0.83    0.23
   6   2  -3    1.75    0.30
   5   2  -3    1.30    0.20
   5   2  -3    1.22    0.24
   4   2  -3    2.05    0.27
   4   2  -3    1.67    0.19
   3   2  -3    0.03    0.08
   3   2  -3   -0.04    0.06
  -3  -2   3   -0.09    0.05
   2   2  -3   44.17    0.65
   2   2  -3   43.09    0.80
  -2  -2   3   43.04    0.56
   1   2  -3   11.26    0.28
   1   2  -3   11.21    0.33
  -1  -2   3   11.08    0.22
   0   2  -3  175.50    1.81
   0   2  -3  175.92    1.78
   0  -2   3  176.45    1.77
  -1   2  -3  278.09    2.80
   1  -2   3  279.83    2.78
   2  -2   3    5.12    0.26
   3  -2   3    1.44    0.20
   4  -2   3    7.99    0.42
   5  -2   3    0.56    0.18
   6  -2   3    0.37    0.18
   7  -2   3    0.32    0.19
   7   1  -3    0.74    0.22
   6   1  -3    1.17    0.24
   5   1  -3   14.06    0.60
   4   1  -3    0.29    0.15
   4   1  -3    0.23    0.10
  -4  -1   3    0.09    0.10
   3   1  -3   12.54    0.33
   3   1  -3   12.60    0.45
  -3  -1   3   12.15    0.34
   2   1  -3   43.77    0.79
   2   1  -3   44.46    0.60
  -2  -1   3   43.78    0.62
   1   1  -3   49.29    0.75
   1   1  -3   49.91    0.60
  -1  -1   3   50.22    0.62
   0   1  -3   56.42    0.75
   0  -1   3   56.01    0.72
   1  -1   3  339.70    3.28
   2  -1   3    1.93    0.17
   3  -1   3    1.47    0.19
   4  -1   3    9.35    0.44
   5  -1   3    2.68    0.31
   6  -1   3    0.36    0.18
   7  -1   3    0.69    0.21
   7   0  -3    0.30    0.17
   6   0  -3    5.23    0.43
   5   0  -3    0.24    0.14
  -5   0   3    0.27    0.14
   4   0  -3    8.72    0.31
   4   0  -3    8.27    0.42
  -4   0   3    8.33    0.36
   3   0  -3    0.44    0.12
   3   0  -3    0.57    0.09
  -3   0   3    0.71    0.13
   2   0  -3    7.49    0.29
   2   0  -3    7.49    0.18
  -2   0   3    7.34    0.24
   1   0  -3   53.59    0.78
  -1   0   3   53.62    0.70
   0   0  -3    5.30    0.24
   0   0   3    5.57    0.21
   1   0   3   76.50    0.98
   2   0   3   41.04    0.72
   3   0   3   17.15    0.50
   4   0   3    9.83    0.43
   5   0   3    7.55    0.42
   6   0   3    1.07    0.25
   6   0   3    0.86    0.22
   7   0   3    0.08    0.14
   6  -1  -3    1.93    0.30
   5  -1  -3   13.27    0.56
  -5   1   3   12.10    0.51
   4  -1  -3    0.10    0.11
   4  -1  -3    0.00    0.06
  -4   1   3    0.00    0.11
   3  -1  -3    0.40    0.11
   3  -1  -3    0.42    0.07
  -3   1   3    0.34    0.10
   2  -1  -3    0.99    0.13
  -2   1   3    1.22    0.14
   1  -1  -3   14.24    0.37
  -1   1   3   14.19    0.33
   0   1   3    6.56    0.24
   1   1   3   26.88    0.50
   2   1   3   32.80    0.63
   3   1   3    2.99    0.23
   4   1   3    6.48    0.35
   5   1   3    0.08    0.14
   5   1   3    0.07    0.14
   6   1   3    0.86    0.23
   7   1   3    0.29    0.19
   6  -2  -3    3.74    0.35
  -6   2   3    3.62    0.41
   5  -2  -3    0.67    0.20
  -5   2   3    1.05    0.23
   4  -2  -3    0.07    0.11
  -4   2   3    0.12    0.12
   3  -2  -3   -0.07    0.08
  -3   2   3   -0.04    0.08
   2  -2  -3    1.91    0.17
  -2   2   3    1.80    0.16
   1  -2  -3    1.64    0.18
  -1   2   3    1.49    0.15
   0   2   3    1.20    0.09
   0   2   3    1.09    0.14
   1   2   3   26.22    0.51
   1   2   3   26.10    0.50
   2   2   3   33.41    0.63
   3   2   3    0.60    0.15
   3   2   3    0.60    0.14
   4   2   3   15.47    0.53
   4   2   3   15.24    0.58
   5   2   3   14.64    0.58
   5   2   3   15.24    0.65
   6   2   3    0.59    0.20
  -6   3   3   -0.22    0.15
   5  -3  -3   20.96    0.69
  -5   3   3   21.15    0.72
   4  -3  -3    0.12    0.13
  -4   3   3    0.24    0.14
   3  -3  -3    5.64    0.29
  -3   3   3    5.82    0.31
   2  -3  -3    1.51    0.17
  -2   3   3    1.38    0.17
  -2   3   3    1.61    0.10
   1  -3  -3    8.87    0.34
  -1   3   3    8.82    0.20
  -1   3   3    8.69    0.30
   0   3   3    3.96    0.17
   0   3   3    3.93    0.21
   1   3   3   53.93    0.80
   1   3   3   53.07    0.82
   2   3   3   30.99    0.62
   2   3   3   31.25    0.68
   3   3   3    7.50    0.37
   3   3   3    7.62    0.34
   4   3   3    4.02    0.33
   4   3   3    4.28    0.32
   5   3   3    7.50    0.47
   6   3   3    4.06    0.44
  -7   4   3    0.16    0.23
  -6   4   3    0.22    0.20
  -5   4   3   12.94    0.58
   4  -4  -3    8.83    0.42
  -4   4   3    8.83    0.45
   3  -4  -3    6.14    0.33
  -3   4   3    6.31    0.34
   2  -4  -3  119.40    1.55
  -2   4   3  115.74    1.26
  -2   4   3  117.07    1.57
  -1   4   3   24.01    0.53
  -1   4   3   23.68    0.42
   0   4   3    9.22    0.28
   0   4   3    9.69    0.32
   1   4   3    8.24    0.31
   1   4   3    8.72    0.31
   2   4   3   54.96    0.98
   2   4   3   54.69    0.87
   3   4   3    8.76    0.41
   3   4   3    9.59    0.38
   4   4   3   10.38    0.50
   5   4   3    0.56    0.19
   6   4   3    1.13    0.27
  -7   5   3    0.90    0.30
  -6   5   3    0.19    0.19
  -5   5   3    2.14    0.32
   4  -5  -3   11.75    0.61
  -4   5   3   11.94    0.53
   3  -5  -3   -0.14    0.15
  -3   5   3    0.25    0.14
  -2   5   3    2.58    0.23
  -2   5   3    2.61    0.17
  -1   5   3   29.98    0.54
  -1   5   3   29.08    0.63
   0   5   3   10.63    0.33
   0   5   3   11.04    0.36
   1   5   3   30.08    0.60
   1   5   3   30.98    0.66
   2   5   3    1.70    0.21
   2   5   3    2.12    0.22
   3   5   3    5.08    0.34
   3   5   3    4.64    0.31
   4   5   3    9.77    0.50
   5   5   3    4.07    0.43
   6   5   3    1.21    0.30
  -6   6   3    2.54    0.38
  -5   6   3    0.66    0.22
  -4   6   3    0.15    0.14
   3  -6  -3    0.07    0.17
  -3   6   3    0.12    0.15
  -2   6   3    1.64    0.22
  -2   6   3    1.45    0.17
  -1   6   3    4.14    0.26
  -1   6   3    3.87    0.24
   0   6   3   18.53    0.49
   0   6   3   19.33    0.49
   1   6   3    0.20    0.11
   1   6   3    0.17    0.10
   2   6   3    0.30    0.13
   2   6   3    0.21    0.13
   3   6   3   21.67    0.71
   4   6   3    0.00    0.12
   5   6   3    1.00    0.26
   6   6   3    0.10    0.19
  -6   7   3    0.01    0.21
  -5   7   3    2.74    0.38
  -4   7   3   -0.02    0.15
  -3   7   3    4.97    0.38
  -2   7   3    0.10    0.12
  -2   7   3   -0.02    0.12
  -1   7   3    6.10    0.31
  -1   7   3    5.56    0.31
   0   7   3    4.11    0.26
   0   7   3    4.27    0.27
   1   7   3   32.35    0.68
   1   7   3   33.33    0.77
   2   7   3    1.81    0.25
   3   7   3    0.56    0.18
   4   7   3    0.85    0.22
   5   7   3    0.08    0.18
  -6   8   3    0.97    0.32
  -5   8   3    0.41    0.21
  -3   8   3    5.58    0.39
  -2   8   3    5.01    0.35
  -2   8   3    4.05    0.29
  -1   8   3    0.47    0.15
  -1   8   3    0.47    0.17
   0   8   3   21.28    0.60
   0   8   3   20.88    0.58
   1   8   3    6.62    0.38
   1   8   3    6.45    0.32
   2   8   3   11.71    0.52
   3   8   3    2.39    0.32
   4   8   3    0.00    0.15
   5   8   3    0.45    0.23
  -5   9   3    0.78    0.26
  -4   9   3    1.19    0.28
  -3   9   3    4.73    0.40
  -2   9   3    1.86    0.27
  -2   9   3    1.78    0.24
  -1   9   3    9.29    0.44
  -1   9   3    9.03    0.43
   0   9   3    1.82    0.27
   0   9   3    1.99    0.24
   1   9   3    2.71    0.32
   2   9   3    8.66    0.47
   3   9   3    4.53    0.45
   4   9   3    0.00    0.16
   5   9   3    0.20    0.22
  -5  10   3    1.32    0.32
  -4  10   3    0.78    0.26
  -3  10   3    3.94    0.43
  -2  10   3    1.36    0.25
  -1  10   3    1.19    0.22
  -1  10   3    0.62    0.20
   0  10   3    4.21    0.30
   0  10   3    4.06    0.35
   1  10   3    2.90    0.36
   2  10   3    0.02    0.19
   3  10   3    3.03    0.39
   4  10   3    0.96    0.28
  -4  11   3    3.21    0.45
  -3  11   3    0.45    0.22
  -2  11   3    2.51    0.34
  -1  11   3    0.89    0.20
  -1  11   3    0.72    0.23
   0  11   3    0.98    0.24
   1  11   3    0.02    0.20
   2  11   3    0.22    0.24
   3  11   3    0.27    0.26
   4  11   3    0.57    0.26
  -4  12   3    0.59    0.27
  -3  12   3    0.93    0.28
  -2  12   3    2.57    0.35
  -1  12   3    0.27    0.23
   0  12   3    0.19    0.21
   1  12   3    4.40    0.47
   2  12   3    0.04    0.25
   3  12   3    1.27    0.37
  -3  13   3    1.15    0.30
   0  13   3   -0.16    0.23
   1  13   3    0.35    0.26
   2  13   3   -0.06    0.25
   0  14   3    0.13    0.28
   1  14  -4    0.45    0.33
   0  14  -4    0.36    0.32
  -1  14  -4    0.41    0.29
  -2  14  -4    0.76    0.32
   2  13  -4    1.33    0.36
   1  13  -4    5.40    0.56
   0  13  -4    0.08    0.24
  -1  13  -4    0.57    0.29
  -2  13  -4    0.46    0.26
  -3  13  -4    0.40    0.27
   3  12  -4   -0.36    0.21
   2  12  -4    0.10    0.24
   1  12  -4    1.06    0.31
   0  12  -4    6.13    0.54
  -1  12  -4   -0.23    0.20
  -2  12  -4    4.95    0.52
  -3  12  -4    2.07    0.36
  -3  12  -4    2.37    0.40
  -4  12  -4    0.16    0.26
  -4  12  -4    0.31    0.24
   4  11  -4    0.74    0.33
   3  11  -4    1.52    0.34
   2  11  -4    1.88    0.35
   1  11  -4    4.39    0.46
   0  11  -4    7.05    0.51
  -1  11  -4    0.18    0.23
  -2  11  -4    0.04    0.17
  -2  11  -4    0.24    0.22
  -3  11  -4    7.99    0.56
  -3  11  -4    8.75    0.57
  -4  11  -4    0.47    0.25
  -4  11  -4    0.88    0.27
   4  10  -4    0.88    0.28
   3  10  -4    0.04    0.20
   2  10  -4   16.53    0.69
   1  10  -4    1.97    0.32
   0  10  -4   11.21    0.57
  -1  10  -4   17.82    0.71
  -2  10  -4   -0.04    0.17
  -2  10  -4    0.25    0.17
  -3  10  -4    0.05    0.18
  -3  10  -4    0.07    0.19
  -4  10  -4    1.91    0.34
  -4  10  -4    1.75    0.36
  -5  10  -4    0.03    0.25
   5   9  -4    0.00    0.23
   5   9  -4    0.64    0.18
   4   9  -4    0.51    0.25
   3   9  -4    0.62    0.23
   2   9  -4   12.93    0.60
   1   9  -4   47.93    1.08
   0   9  -4    2.15    0.32
  -1   9  -4   10.79    0.57
  -1   9  -4   10.35    0.45
  -2   9  -4    4.75    0.37
  -2   9  -4    5.87    0.43
  -3   9  -4    2.59    0.35
  -3   9  -4    2.65    0.36
  -4   9  -4    2.02    0.33
  -4   9  -4    1.94    0.35
  -5   9  -4    1.59    0.36
   5   8  -4    0.50    0.15
   5   8  -4    0.15    0.21
   4   8  -4    4.65    0.40
   3   8  -4    0.31    0.19
   2   8  -4   -0.05    0.17
   1   8  -4   15.05    0.58
   0   8  -4    5.37    0.39
  -1   8  -4    0.15    0.14
  -1   8  -4    0.15    0.19
  -2   8  -4   10.67    0.53
  -2   8  -4   10.15    0.48
  -3   8  -4    0.46    0.22
  -3   8  -4    0.40    0.19
  -4   8  -4   -0.03    0.18
  -5   8  -4    1.40    0.34
   6   7  -4    2.27    0.37
   5   7  -4    2.37    0.34
   5   7  -4    3.10    0.39
   4   7  -4    5.99    0.42
   3   7  -4   34.04    0.86
   2   7  -4   10.59    0.47
   1   7  -4   10.71    0.41
   1   7  -4   10.22    0.46
   0   7  -4    0.15    0.16
   0   7  -4    0.06    0.07
   0  -7   4    0.11    0.09
  -1   7  -4    0.78    0.16
  -1   7  -4    0.84    0.21
  -2   7  -4    0.03    0.15
  -2   7  -4    0.29    0.19
  -3   7  -4    0.17    0.17
  -3   7  -4    0.08    0.16
  -4   7  -4   -0.05    0.17
  -5   7  -4   -0.22    0.19
   5  -7   4    0.66    0.18
   6  -7   4    0.68    0.23
   6   6  -4    0.40    0.17
   5   6  -4    1.49    0.27
   5   6  -4    2.21    0.33
   4   6  -4    0.64    0.20
   3   6  -4   14.43    0.53
   2   6  -4   21.27    0.62
   1   6  -4    0.47    0.16
   1   6  -4    0.48    0.12
   0   6  -4   32.50    0.61
   0   6  -4   32.26    0.73
   0  -6   4   31.70    0.59
  -1   6  -4    6.83    0.32
  -1   6  -4    7.21    0.38
  -2   6  -4   23.60    0.67
  -2   6  -4   22.60    0.68
  -3   6  -4   16.82    0.62
  -3   6  -4   16.14    0.62
  -4   6  -4    0.12    0.19
   5  -6   4    0.45    0.18
   6  -6   4    0.84    0.23
   6   5  -4    0.20    0.15
   5   5  -4    8.00    0.52
   5   5  -4    8.14    0.45
   4   5  -4    2.13    0.30
   4   5  -4    2.16    0.27
   3   5  -4    2.44    0.27
   3   5  -4    1.76    0.25
   2   5  -4   18.31    0.58
   2   5  -4   18.12    0.52
   1   5  -4    8.70    0.35
   1   5  -4    7.71    0.32
  -1  -5   4    8.16    0.22
   0   5  -4    0.14    0.07
   0   5  -4    0.00    0.12
   0  -5   4    0.18    0.08
  -1   5  -4   14.42    0.48
  -1   5  -4   14.71    0.31
   1  -5   4   14.42    0.42
  -2   5  -4   11.75    0.46
  -2   5  -4   12.66    0.49
  -3   5  -4   15.83    0.59
   4  -5   4    6.01    0.40
   5  -5   4    4.44    0.39
   6  -5   4    0.53    0.20
   6   4  -4    0.33    0.16
   5   4  -4    2.60    0.29
   5   4  -4    3.11    0.38
   4   4  -4   29.97    0.71
   4   4  -4   29.09    0.87
   3   4  -4    7.03    0.33
   3   4  -4    6.70    0.39
   2   4  -4   13.65    0.42
   2   4  -4   13.55    0.47
  -2  -4   4   13.69    0.23
   1   4  -4   80.09    1.15
   1   4  -4   79.07    1.11
  -1  -4   4   79.05    0.90
   0   4  -4   34.90    0.59
   0   4  -4   34.73    0.67
   0  -4   4   35.99    0.59
  -1   4  -4   88.99    1.28
  -1   4  -4   89.96    1.03
   1  -4   4   88.01    1.21
  -2   4  -4    0.00    0.10
   2  -4   4    0.31    0.12
   3  -4   4   -0.01    0.13
   4  -4   4    0.78    0.20
   5  -4   4    0.45    0.18
   6  -4   4    2.01    0.34
   7   3  -4    0.36    0.16
   6   3  -4   -0.11    0.11
   5   3  -4    0.99    0.23
   4   3  -4    3.51    0.26
   4   3  -4    3.59    0.33
   3   3  -4   22.57    0.53
   3   3  -4   21.89    0.66
   2   3  -4   29.10    0.68
   2   3  -4   29.83    0.56
  -2  -3   4   29.09    0.42
   1   3  -4   22.22    0.51
   1   3  -4   22.77    0.47
  -1  -3   4   22.15    0.38
   0   3  -4   31.41    0.59
   0   3  -4   31.42    0.55
   0  -3   4   31.97    0.55
  -1   3  -4   49.12    0.83
   1  -3   4   48.33    0.79
   2  -3   4   26.53    0.63
   3  -3   4   12.22    0.48
   4  -3   4    0.75    0.21
   5  -3   4    0.48    0.19
   6  -3   4    0.01    0.16
   7   2  -4    0.14    0.16
   6   2  -4    6.75    0.49
   5   2  -4    0.17    0.15
   4   2  -4   14.35    0.59
   4   2  -4   14.23    0.44
   3   2  -4   25.90    0.70
   3   2  -4   26.24    0.53
  -3  -2   4   26.00    0.49
   2   2  -4    9.32    0.27
   2   2  -4    9.16    0.37
  -2  -2   4    9.55    0.25
   1   2  -4    3.33    0.17
   1   2  -4    3.23    0.19
  -1  -2   4    3.41    0.16
   0   2  -4    1.03    0.13
   0   2  -4    0.69    0.11
   0  -2   4    0.89    0.12
  -1   2  -4   57.23    0.88
   1  -2   4   56.35    0.86
   2  -2   4   43.93    0.81
   3  -2   4    0.62    0.16
   4  -2   4   59.64    1.18
   5  -2   4    0.46    0.20
   6  -2   4    0.73    0.23
   7  -2   4    0.41    0.21
   7   1  -4    0.19    0.16
   6   1  -4    0.28    0.17
   5   1  -4   12.43    0.59
   4   1  -4    3.24    0.21
   4   1  -4    3.26    0.29
  -4  -1   4    3.36    0.23
   3   1  -4   37.73    0.60
   3   1  -4   36.96    0.84
  -3  -1   4   37.51    0.66
   2   1  -4  105.04    1.12
   2   1  -4  103.62    1.42
  -2  -1   4  101.86    1.20
   1   1  -4   27.85    0.57
   1   1  -4   27.78    0.42
  -1  -1   4   28.02    0.48
   0   1  -4   11.91    0.29
   0   1  -4   11.41    0.34
   0  -1   4   11.97    0.32
   1  -1   4    1.79    0.17
   2  -1   4   48.47    0.86
   3  -1   4   12.14    0.46
   4  -1   4    8.46    0.43
   5  -1   4   21.47    0.74
   6  -1   4    0.00    0.18
   7  -1   4    0.96    0.25
   7   0  -4    1.32    0.28
   6   0  -4    1.57    0.29
   5   0  -4    0.01    0.12
   4   0  -4    8.59    0.43
  -4   0   4    8.73    0.37
   3   0  -4    0.16    0.10
   3   0  -4    0.32    0.07
  -3   0   4    0.30    0.10
   2   0  -4   13.69    0.43
  -2   0   4   14.15    0.36
   1   0  -4   31.81    0.62
  -1   0   4   32.81    0.55
   0   0  -4    9.41    0.34
   0   0   4    9.41    0.30
   1   0   4   11.47    0.36
   2   0   4    7.01    0.31
   3   0   4    0.29    0.13
   4   0   4    1.62    0.25
   5   0   4   10.44    0.51
   6   0   4    0.32    0.21
   6  -1  -4    4.80    0.42
   5  -1  -4    0.17    0.15
  -5   1   4    0.16    0.14
   4  -1  -4   -0.06    0.10
  -4   1   4    0.19    0.12
   3  -1  -4   10.07    0.23
   3  -1  -4   10.55    0.42
  -3   1   4    9.94    0.37
   2  -1  -4    0.14    0.10
  -2   1   4    0.09    0.08
  -1   1   4   13.09    0.36
   0   1   4   65.92    0.92
   1   1   4   10.61    0.35
   2   1   4   56.79    0.94
   3   1   4   15.43    0.51
   4   1   4    1.41    0.24
   5   1   4    0.42    0.20
   6   1   4    0.13    0.15
   6  -2  -4    3.71    0.41
  -6   2   4    3.35    0.39
   5  -2  -4    5.47    0.40
  -5   2   4    5.30    0.37
   4  -2  -4    8.60    0.44
  -4   2   4    9.04    0.42
   3  -2  -4    2.72    0.25
  -3   2   4    2.55    0.23
   2  -2  -4   68.22    1.07
  -2   2   4   67.22    1.02
   1  -2  -4   73.58    1.12
  -1   2   4   75.29    1.04
   0   2   4   28.02    0.46
   0   2   4   27.50    0.55
   1   2   4   39.61    0.71
   2   2   4    5.27    0.29
   3   2   4   24.18    0.64
   4   2   4    4.61    0.33
   4   2   4    4.55    0.35
   5   2   4   11.67    0.54
   5   2   4   10.28    0.55
   6   2   4    0.05    0.14
  -6   3   4    0.87    0.24
   5  -3  -4    3.68    0.35
  -5   3   4    3.92    0.39
   4  -3  -4    0.68    0.20
  -4   3   4    0.69    0.20
   3  -3  -4    4.00    0.30
  -3   3   4    3.59    0.28
   2  -3  -4  112.31    1.54
  -2   3   4  111.06    1.49
   1  -3  -4  255.73    2.82
  -1   3   4  253.56    2.70
  -1   3   4  253.55    2.36
   0   3   4    3.23    0.16
   0   3   4    3.09    0.21
   1   3   4   27.73    0.57
   1   3   4   28.10    0.59
   2   3   4   58.29    1.01
   2   3   4   57.18    0.96
   3   3   4    2.72    0.28
   3   3   4    2.98    0.26
   4   3   4    0.87    0.22
   4   3   4    0.91    0.20
   5   3   4    9.66    0.54
   6   3   4    3.07    0.41
  -7   4   4    0.10    0.22
  -6   4   4    2.29    0.35
   5  -4  -4    5.18    0.40
  -5   4   4    5.62    0.41
   4  -4  -4   14.59    0.56
  -4   4   4   14.85    0.58
   3  -4  -4    3.11    0.30
  -3   4   4    2.92    0.30
   2  -4  -4    3.19    0.30
  -2   4   4    3.07    0.23
  -2   4   4    2.90    0.13
  -1   4   4  270.76    2.60
  -1   4   4  274.77    2.91
   0   4   4   56.41    0.82
   0   4   4   56.14    0.91
   1   4   4    1.55    0.20
   1   4   4    1.39    0.17
   2   4   4   27.41    0.64
   2   4   4   28.16    0.68
   3   4   4    3.60    0.31
   3   4   4    4.38    0.32
   4   4   4    3.05    0.38
   4   4   4    2.64    0.31
   5   4   4    0.01    0.15
   6   4   4    7.97    0.57
  -7   5   4    0.40    0.24
  -6   5   4    0.20    0.18
  -5   5   4    0.53    0.22
   4  -5  -4    5.29    0.40
  -4   5   4    5.62    0.39
   3  -5  -4    2.38    0.29
  -3   5   4    2.57    0.29
  -2   5   4   36.27    0.57
  -2   5   4   36.09    0.80
  -1   5   4    1.02    0.13
  -1   5   4    1.18    0.18
   0   5   4    9.38    0.36
   0   5   4    9.35    0.32
   1   5   4    7.12    0.32
   1   5   4    7.52    0.33
   2   5   4    1.83    0.23
   2   5   4    1.61    0.21
   3   5   4    0.14    0.17
   3   5   4    0.06    0.12
   4   5   4    0.47    0.17
   5   5   4    0.08    0.15
   6   5   4    1.42    0.32
  -6   6   4    2.27    0.37
  -5   6   4    0.51    0.20
  -4   6   4    5.98    0.41
   3  -6  -4    3.77    0.37
  -3   6   4    3.08    0.33
  -2   6   4    0.03    0.12
  -2   6   4    0.04    0.11
  -1   6   4   24.35    0.52
  -1   6   4   23.69    0.63
   0   6   4    5.71    0.27
   0   6   4    6.12    0.32
   1   6   4    0.51    0.16
   1   6   4    0.52    0.14
   2   6   4    6.99    0.38
   2   6   4    7.88    0.37
   3   6   4    1.70    0.26
   4   6   4    3.16    0.37
   5   6   4    0.59    0.22
   6   6   4    0.42    0.22
  -6   7   4   -0.01    0.19
  -5   7   4    5.07    0.52
  -4   7   4    0.94    0.24
  -3   7   4    4.54    0.35
  -2   7   4    4.27    0.32
  -1   7   4   13.70    0.49
  -1   7   4   13.29    0.43
   0   7   4   20.06    0.57
   0   7   4   18.67    0.54
   1   7   4    8.81    0.39
   1   7   4    8.29    0.40
   2   7   4    7.35    0.41
   2   7   4    7.85    0.37
   3   7   4    1.53    0.25
   4   7   4    0.93    0.25
   5   7   4    0.60    0.24
  -6   8   4    0.61    0.26
  -5   8   4    0.90    0.25
  -4   8   4    2.77    0.37
  -3   8   4    0.29    0.18
  -2   8   4    1.13    0.24
  -1   8   4   12.60    0.51
  -1   8   4   12.70    0.46
   0   8   4   16.25    0.54
   0   8   4   15.63    0.53
   1   8   4   15.17    0.55
   1   8   4   15.09    0.50
   2   8   4    3.55    0.36
   3   8   4    5.37    0.41
   4   8   4    0.23    0.19
   5   8   4   -0.03    0.18
  -5   9   4    1.43    0.32
  -4   9   4    2.74    0.38
  -3   9   4    2.66    0.35
  -2   9   4    0.20    0.15
  -1   9   4    0.66    0.19
  -1   9   4    0.58    0.18
   0   9   4    6.84    0.37
   0   9   4    7.55    0.40
   1   9   4    1.00    0.22
   2   9   4    0.49    0.18
   3   9   4    2.28    0.33
   4   9   4    1.41    0.30
  -5  10   4    0.77    0.28
  -4  10   4    2.16    0.37
  -3  10   4    1.34    0.29
  -2  10   4    4.09    0.37
  -1  10   4    0.15    0.15
  -1  10   4    0.51    0.18
   0  10   4    0.59    0.16
   0  10   4    0.10    0.19
   1  10   4    1.52    0.29
   2  10   4   -0.22    0.16
   3  10   4    0.02    0.18
   4  10   4    2.21    0.37
  -4  11   4    2.00    0.36
  -3  11   4    3.63    0.44
  -2  11   4    0.46    0.19
  -1  11   4    2.31    0.31
   0  11   4    1.74    0.30
   1  11   4    0.16    0.21
   2  11   4    2.60    0.37
   3  11   4    0.43    0.23
  -4  12   4    1.88    0.41
  -3  12   4    0.93    0.28
  -2  12   4    3.17    0.39
   0  12   4    0.64    0.26
   1  12   4    3.51    0.44
   2  12   4   -0.04    0.21
   3  12   4    1.35    0.35
  -3  13   4    3.74    0.48
  -2  13   4    1.91    0.33
   0  13   4   -0.32    0.20
   1  13   4   -0.21    0.22
   2  13   4    0.75    0.31
   0  14  -5    4.70    0.56
  -1  14  -5    0.13    0.26
   2  13  -5   -0.14    0.24
   1  13  -5    1.63    0.38
   0  13  -5    0.07    0.22
  -1  13  -5    1.70    0.40
  -2  13  -5    0.00    0.22
  -3  13  -5    4.20    0.53
   3  12  -5   -0.02    0.27
   2  12  -5    0.49    0.29
   1  12  -5    1.93    0.38
   0  12  -5    1.42    0.36
  -1  12  -5    1.01    0.31
  -2  12  -5    0.31    0.24
  -3  12  -5    0.74    0.28
  -4  12  -5    2.36    0.41
   4  11  -5    1.56    0.28
   4  11  -5    1.62    0.36
   3  11  -5    3.61    0.35
   3  11  -5    1.77    0.36
   2  11  -5    0.55    0.27
   1  11  -5    3.96    0.45
   0  11  -5    4.17    0.45
  -1  11  -5    2.15    0.36
  -2  11  -5    5.98    0.50
  -3  11  -5    0.21    0.22
  -3  11  -5    0.83    0.27
   3 -11   5    1.68    0.25
  -4  11  -5    0.35    0.23
   4 -11   5    1.39    0.24
   4  10  -5    1.20    0.26
   4  10  -5    0.10    0.23
   3  10  -5   -0.02    0.24
   3  10  -5    0.79    0.19
   2  10  -5    3.24    0.31
   2  10  -5    2.22    0.36
   1  10  -5    0.85    0.27
   0  10  -5    2.30    0.34
  -1  10  -5    7.67    0.51
  -2  10  -5    2.44    0.36
   2 -10   5    2.57    0.29
  -3  10  -5   -0.44    0.14
  -3  10  -5   -0.28    0.19
  -4  10  -5    1.79    0.35
   4 -10   5    2.87    0.36
   5   9  -5    1.46    0.35
   5   9  -5    1.95    0.35
   4   9  -5    1.42    0.31
   4   9  -5    1.68    0.30
   3   9  -5    2.75    0.34
   3   9  -5    2.36    0.36
   2   9  -5    0.11    0.21
   2   9  -5    0.39    0.14
   1   9  -5    0.02    0.20
   0   9  -5    1.05    0.26
  -1   9  -5    1.20    0.27
   1  -9   5    1.02    0.19
  -2   9  -5    3.58    0.42
   2  -9   5    3.61    0.29
  -3   9  -5    4.40    0.46
   3  -9   5    4.64    0.36
   4  -9   5    9.08    0.54
   5  -9   5    1.24    0.25
   5   8  -5    0.43    0.18
   5   8  -5   -0.15    0.20
   4   8  -5    1.16    0.25
   4   8  -5    1.15    0.27
   3   8  -5    1.19    0.25
   3   8  -5    0.57    0.22
   2   8  -5   13.71    0.56
   2   8  -5   13.48    0.57
   1   8  -5    4.74    0.31
   1   8  -5    4.76    0.39
   0   8  -5   15.25    0.60
  -1   8  -5    6.69    0.44
   1  -8   5    6.82    0.36
  -2   8  -5    2.27    0.32
   2  -8   5    2.65    0.29
  -3   8  -5    0.09    0.17
   3  -8   5    0.22    0.14
   4  -8   5    7.52    0.49
   5  -8   5    2.16    0.35
   6   7  -5    1.37    0.30
   5   7  -5    0.39    0.21
   5   7  -5    0.60    0.20
   4   7  -5    0.05    0.12
   4   7  -5    0.04    0.15
   3   7  -5   21.20    0.69
   3   7  -5   21.34    0.76
   2   7  -5    1.76    0.26
   2   7  -5    2.10    0.28
   1   7  -5    2.22    0.24
   1   7  -5    2.22    0.30
   0   7  -5    1.09    0.23
   0  -7   5    1.08    0.16
  -1   7  -5   51.55    1.08
   1  -7   5   51.26    0.95
  -2   7  -5    0.42    0.20
   2  -7   5    0.55    0.19
  -3   7  -5   15.38    0.64
   3  -7   5   16.28    0.63
   4  -7   5    1.34    0.27
   5  -7   5    3.14    0.40
   6   6  -5    0.18    0.14
   5   6  -5    3.47    0.56
   5   6  -5    2.73    0.38
   4   6  -5    0.36    0.16
   4   6  -5    0.12    0.15
   3   6  -5    0.45    0.18
   3   6  -5    0.30    0.15
   2   6  -5   17.03    0.56
   2   6  -5   18.34    0.61
   1   6  -5    3.25    0.29
   1   6  -5    3.28    0.24
   0   6  -5   11.13    0.36
   0   6  -5   10.73    0.45
   0  -6   5   10.34    0.35
  -1   6  -5    5.07    0.35
   1  -6   5    5.30    0.30
  -2   6  -5   10.69    0.49
   2  -6   5    9.30    0.43
  -3   6  -5   28.49    0.85
   3  -6   5   28.43    0.82
   4  -6   5   18.50    0.71
   5  -6   5    0.26    0.19
   6  -6   5    1.65    0.34
   6   5  -5    0.15    0.16
   5   5  -5    0.33    0.17
   4   5  -5    0.18    0.15
   4   5  -5    0.04    0.11
   3   5  -5    0.08    0.12
   3   5  -5   -0.03    0.13
   2   5  -5    4.10    0.28
   2   5  -5    4.05    0.29
   1   5  -5    0.24    0.10
   1   5  -5    0.31    0.14
  -1  -5   5    0.26    0.09
   0   5  -5    3.45    0.29
   0   5  -5    3.47    0.21
   0  -5   5    3.95    0.22
  -1   5  -5    4.05    0.29
  -1   5  -5    4.09    0.22
   1  -5   5    4.23    0.26
  -2   5  -5   19.17    0.62
   2  -5   5   18.56    0.58
   3  -5   5    1.44    0.25
   4  -5   5    4.06    0.36
   5  -5   5    1.45    0.29
   6  -5   5    1.00    0.28
   6   4  -5    1.70    0.32
   5   4  -5    0.20    0.15
   4   4  -5    7.06    0.37
   4   4  -5    7.78    0.47
   3   4  -5    7.00    0.34
   3   4  -5    7.11    0.41
   2   4  -5    3.22    0.26
   2   4  -5    2.47    0.23
  -2  -4   5    3.02    0.19
   1   4  -5    0.20    0.09
   1   4  -5    0.31    0.13
  -1  -4   5    0.27    0.09
   0   4  -5   60.36    0.91
   0   4  -5   62.00    0.99
   0  -4   5   59.71    0.89
  -1   4  -5   16.60    0.41
  -1   4  -5   16.42    0.50
   1  -4   5   15.38    0.45
  -2   4  -5    4.48    0.31
   2  -4   5    4.45    0.29
   3  -4   5    0.22    0.15
   4  -4   5    0.40    0.17
   5  -4   5    0.04    0.17
   6  -4   5    0.31    0.20
   7   3  -5    0.63    0.23
   6   3  -5    0.09    0.16
   5   3  -5    8.32    0.52
   4   3  -5    0.11    0.12
   4   3  -5    0.11    0.14
   3   3  -5   10.36    0.36
   3   3  -5   10.35    0.47
   2   3  -5   97.21    1.47
   2   3  -5   97.00    1.24
  -2  -3   5   97.66    1.12
   1   3  -5   32.91    0.68
   1   3  -5   33.90    0.62
  -1  -3   5   34.66    0.56
   0   3  -5    6.87    0.29
   0   3  -5    7.87    0.30
   0  -3   5    6.99    0.28
  -1   3  -5  216.37    2.45
   1  -3   5  220.69    2.42
   2  -3   5   78.30    1.24
   3  -3   5   11.14    0.47
   4  -3   5    0.19    0.16
   5  -3   5    0.27    0.20
   6  -3   5    0.30    0.22
   7   2  -5    0.17    0.19
   6   2  -5    1.48    0.30
   5   2  -5    2.31    0.32
   4   2  -5   11.66    0.55
   3   2  -5    0.33    0.13
   3   2  -5    0.26    0.10
  -3  -2   5    0.25    0.09
   2   2  -5   13.49    0.34
   2   2  -5   13.74    0.47
  -2  -2   5   13.68    0.34
   1   2  -5   26.97    0.50
   1   2  -5   26.00    0.60
  -1  -2   5   25.97    0.49
   0   2  -5   24.26    0.54
   0   2  -5   23.95    0.50
   0  -2   5   24.34    0.51
  -1   2  -5    0.58    0.13
   1  -2   5    0.59    0.14
   2  -2   5  144.41    1.86
   3  -2   5    1.50    0.24
   4  -2   5   26.03    0.79
   5  -2   5    3.12    0.39
   6  -2   5    0.04    0.17
   7   1  -5    0.42    0.22
   6   1  -5    0.37    0.19
   5   1  -5    5.61    0.42
   4   1  -5    4.97    0.37
  -4  -1   5    5.84    0.30
   3   1  -5    5.01    0.21
   3   1  -5    5.02    0.34
  -3  -1   5    5.12    0.25
   2   1  -5    0.61    0.13
   2   1  -5    0.54    0.09
  -2  -1   5    0.46    0.10
   1   1  -5   13.99    0.30
   1   1  -5   13.18    0.42
  -1  -1   5   13.68    0.36
   0   1  -5   28.92    0.53
   0   1  -5   29.60    0.63
   0  -1   5   28.97    0.57
   1  -1   5    8.36    0.34
   2  -1   5    0.18    0.13
   3  -1   5   33.12    0.80
   4  -1   5    0.84    0.24
   5  -1   5    1.81    0.31
   6  -1   5    0.35    0.22
   7   0  -5    0.38    0.21
   6   0  -5   -0.05    0.16
   5   0  -5    0.46    0.18
   4   0  -5    1.04    0.21
  -4   0   5    0.56    0.15
   3   0  -5    1.97    0.25
  -3   0   5    2.10    0.21
   2   0  -5   12.92    0.45
  -2   0   5   12.42    0.37
   1   0  -5    1.97    0.21
   1   0  -5    1.89    0.11
  -1   0   5    2.00    0.19
   0   0  -5    0.21    0.12
   0   0   5    0.25    0.11
   1   0   5    2.97    0.22
   2   0   5    6.09    0.33
   3   0   5    0.73    0.19
   4   0   5    9.65    0.50
   5   0   5    1.18    0.26
   6   0   5    0.02    0.21
   7  -1  -5    1.27    0.32
   6  -1  -5    0.85    0.26
   5  -1  -5    6.38    0.43
  -5   1   5    6.04    0.38
   4  -1  -5    0.39    0.16
  -4   1   5    0.30    0.13
   3  -1  -5    2.86    0.28
  -3   1   5    3.20    0.23
   2  -1  -5    0.54    0.14
  -2   1   5    0.83    0.15
   1  -1  -5    0.64    0.15
  -1   1   5    0.61    0.13
   0   1   5    8.51    0.33
   1   1   5   14.45    0.44
   2   1   5    3.33    0.27
   3   1   5    9.39    0.43
   4   1   5    4.89    0.39
   5   1   5    2.19    0.32
   6   1   5    1.92    0.33
   6  -2  -5    2.81    0.39
   5  -2  -5    2.60    0.34
  -5   2   5    2.29    0.29
   4  -2  -5   20.78    0.69
  -4   2   5   21.91    0.66
   3  -2  -5    3.85    0.32
  -3   2   5    3.20    0.25
   2  -2  -5   59.64    1.07
  -2   2   5   58.41    0.97
   1  -2  -5   21.47    0.60
  -1   2   5   21.50    0.53
   0   2   5    0.52    0.14
   1   2   5    4.72    0.28
   2   2   5   48.74    0.92
   3   2   5   11.80    0.49
   4   2   5    1.71    0.28
   4   2   5    1.61    0.25
   5   2   5    4.33    0.38
   5   2   5    4.00    0.41
   6   2   5    0.33    0.19
   6  -3  -5    1.90    0.39
  -6   3   5    2.67    0.37
   5  -3  -5   -0.18    0.16
  -5   3   5    0.27    0.17
   4  -3  -5   18.61    0.67
  -4   3   5   16.37    0.59
   3  -3  -5   15.52    0.56
  -3   3   5   15.44    0.53
   2  -3  -5    4.03    0.31
  -2   3   5    4.01    0.26
  -1   3   5   43.27    0.56
  -1   3   5   43.67    0.81
   0   3   5   20.38    0.42
   0   3   5   20.84    0.53
   1   3   5   44.04    0.82
   1   3   5   43.64    0.78
   2   3   5    9.23    0.40
   2   3   5    9.19    0.39
   3   3   5    7.79    0.42
   3   3   5    7.70    0.42
   4   3   5    5.64    0.40
   4   3   5    5.91    0.40
   5   3   5    1.44    0.28
   6   3   5    3.27    0.44
  -6   4   5    1.11    0.27
   5  -4  -5   -0.02    0.18
  -5   4   5    0.02    0.15
   4  -4  -5   -0.09    0.18
  -4   4   5    0.12    0.14
   3  -4  -5    2.95    0.32
  -3   4   5    3.45    0.34
   2  -4  -5    0.98    0.23
  -2   4   5    0.77    0.17
  -1   4   5   13.61    0.45
  -1   4   5   13.45    0.30
   0   4   5   34.10    0.72
   0   4   5   34.82    0.62
   1   4   5    0.18    0.14
   1   4   5    0.27    0.10
   2   4   5    8.49    0.39
   2   4   5    7.39    0.40
   3   4   5    1.40    0.23
   3   4   5    2.15    0.29
   4   4   5    0.03    0.13
   4   4   5   -0.07    0.17
   5   4   5   -0.01    0.14
   6   4   5    0.91    0.28
  -7   5   5    0.49    0.28
  -6   5   5    0.32    0.20
  -5   5   5    1.12    0.26
   4  -5  -5    0.00    0.20
  -4   5   5    0.17    0.15
   3  -5  -5    8.64    0.50
  -3   5   5    8.47    0.44
  -2   5   5    1.11    0.20
  -1   5   5   -0.03    0.11
  -1   5   5    0.14    0.08
   0   5   5    1.03    0.19
   0   5   5    1.00    0.14
   1   5   5   48.70    0.92
   1   5   5   48.04    0.90
   2   5   5    4.92    0.33
   2   5   5    4.99    0.35
   3   5   5    0.79    0.23
   3   5   5    0.67    0.18
   4   5   5    1.47    0.27
   5   5   5    0.11    0.15
   6   5   5    0.54    0.26
  -6   6   5    1.81    0.35
  -5   6   5    0.36    0.20
  -4   6   5    0.32    0.17
   3  -6  -5   10.92    0.58
  -3   6   5   12.69    0.56
  -2   6   5    4.79    0.35
  -1   6   5    1.10    0.20
  -1   6   5    0.98    0.15
   0   6   5   25.36    0.67
   0   6   5   25.01    0.59
   1   6   5    5.16    0.31
   1   6   5    5.63    0.35
   2   6   5    3.66    0.32
   2   6   5    2.74    0.29
   3   6   5   17.56    0.66
   4   6   5    1.16    0.24
   5   6   5    0.27    0.19
  -6   7   5    0.02    0.22
  -5   7   5    1.57    0.32
  -4   7   5    0.83    0.24
  -3   7   5    0.37    0.17
  -2   7   5    7.74    0.43
  -1   7   5   10.81    0.47
  -1   7   5   10.38    0.38
   0   7   5   13.22    0.46
   0   7   5   13.64    0.51
   1   7   5    7.67    0.40
   1   7   5    8.07    0.41
   2   7   5    9.01    0.47
   2   7   5    9.62    0.44
   3   7   5    0.19    0.15
   4   7   5    4.53    0.47
   5   7   5    0.18    0.19
  -5   8   5    0.11    0.19
  -4   8   5   -0.03    0.15
  -3   8   5    1.36    0.26
  -2   8   5    0.15    0.15
  -1   8   5    0.13    0.14
  -1   8   5    0.04    0.14
   0   8   5   41.34    0.91
   0   8   5   38.72    0.86
   1   8   5    7.96    0.41
   1   8   5    7.26    0.41
   2   8   5    0.07    0.15
   3   8   5    3.72    0.41
   4   8   5   -0.16    0.15
   5   8   5    0.67    0.25
  -5   9   5    2.23    0.38
  -4   9   5    1.06    0.27
  -3   9   5    0.65    0.22
  -2   9   5    0.09    0.15
  -1   9   5   -0.02    0.12
   0   9   5    0.42    0.16
   0   9   5    0.05    0.15
   1   9   5    8.31    0.43
   1   9   5    7.19    0.42
   2   9   5    0.18    0.16
   3   9   5    0.30    0.20
   4   9   5    0.50    0.23
  -4  10   5    0.82    0.26
  -3  10   5    2.37    0.35
  -2  10   5    4.22    0.44
  -1  10   5    3.26    0.36
   0  10   5    0.55    0.21
   0  10   5    0.69    0.19
   1  10   5    3.94    0.41
   2  10   5    0.18    0.18
   3  10   5    0.26    0.21
   4  10   5    0.13    0.20
  -4  11   5    0.83    0.28
  -3  11   5    0.86    0.25
  -2  11   5    1.63    0.30
  -1  11   5    2.84    0.35
   0  11   5    1.34    0.29
   1  11   5    0.00    0.17
   2  11   5    2.28    0.38
   3  11   5    1.72    0.34
  -3  12   5    1.71    0.33
  -2  12   5    1.87    0.33
  -1  12   5    2.23    0.40
   0  12   5   -0.04    0.19
   1  12   5    0.04    0.20
   2  12   5    0.09    0.23
  -3  13   5    1.86    0.52
  -2  13   5    1.68    0.31
   1  13   5   -0.22    0.22
   2  13  -6   -0.06    0.25
   1  13  -6    1.26    0.36
   0  13  -6    1.75    0.41
  -1  13  -6    2.33    0.41
  -2  13  -6    0.28    0.26
   3  12  -6    1.00    0.33
   2  12  -6    0.88    0.31
   1  12  -6    0.62    0.27
   0  12  -6    1.43    0.35
  -1  12  -6    0.61    0.28
  -2  12  -6    0.53    0.29
  -3  12  -6    0.73    0.30
   4  11  -6   -0.28    0.22
   4  11  -6    0.16    0.14
   3  11  -6    2.86    0.42
   3  11  -6    2.87    0.38
   2  11  -6   -0.16    0.23
   1  11  -6    2.56    0.38
   0  11  -6    0.10    0.23
  -1  11  -6    1.08    0.30
  -2  11  -6    0.21    0.22
  -3  11  -6    0.95    0.29
  -4  11  -6    1.72    0.39
   4 -11   6    2.23    0.36
   4  10  -6    0.24    0.16
   4  10  -6    0.05    0.25
   3  10  -6    0.36    0.25
   3  10  -6    0.56    0.18
   2  10  -6   -0.16    0.20
   1  10  -6    0.05    0.20
   0  10  -6   -0.13    0.19
  -1  10  -6    0.14    0.22
  -2  10  -6    2.10    0.37
   2 -10   6    2.48    0.32
  -3  10  -6    0.04    0.23
   3 -10   6    0.61    0.20
   4 -10   6    1.33    0.28
   5   9  -6    1.06    0.27
   4   9  -6    0.97    0.24
   4   9  -6    0.47    0.24
   3   9  -6   11.44    0.59
   3   9  -6   11.89    0.61
   2   9  -6    5.58    0.39
   2   9  -6    5.61    0.46
   1   9  -6    5.64    0.44
   0   9  -6    8.98    0.54
  -1   9  -6    4.71    0.41
   1  -9   6    4.36    0.37
  -2   9  -6    0.10    0.18
   2  -9   6    0.13    0.15
  -3   9  -6    2.04    0.35
   3  -9   6    2.28    0.33
   4  -9   6    0.89    0.25
   5   8  -6    1.65    0.33
   4   8  -6    2.48    0.36
   4   8  -6    2.39    0.35
   3   8  -6    0.08    0.13
   3   8  -6   -0.08    0.18
   2   8  -6   58.63    1.21
   2   8  -6   59.76    1.25
   1   8  -6    3.51    0.37
   1   8  -6    3.72    0.29
   0   8  -6   47.44    1.11
  -1   8  -6    5.58    0.45
   1  -8   6    5.41    0.34
  -2   8  -6    0.06    0.18
   2  -8   6    0.08    0.13
  -3   8  -6    0.48    0.21
   3  -8   6    0.21    0.17
   4  -8   6    2.54    0.38
   5  -8   6    0.47    0.23
   5   7  -6    0.16    0.15
   4   7  -6    0.31    0.18
   4   7  -6    0.47    0.19
   3   7  -6    1.96    0.29
   3   7  -6    1.86    0.27
   2   7  -6   13.49    0.57
   2   7  -6   15.07    0.59
   1   7  -6   46.94    0.96
   1   7  -6   47.27    1.03
   0   7  -6    0.98    0.24
   0  -7   6    1.21    0.18
  -1   7  -6   53.07    1.13
   1  -7   6   52.76    1.00
  -2   7  -6   -0.03    0.16
   2  -7   6    0.14    0.15
  -3   7  -6    0.12    0.17
   3  -7   6   -0.03    0.14
   4  -7   6    0.27    0.19
   5  -7   6    7.77    0.54
   6   6  -6    0.46    0.20
   5   6  -6    0.68    0.23
   4   6  -6    2.13    0.29
   4   6  -6    2.64    0.35
   3   6  -6    0.00    0.16
   3   6  -6    0.23    0.14
   2   6  -6    0.05    0.12
   2   6  -6    0.06    0.17
   1   6  -6    0.11    0.11
   1   6  -6    0.03    0.15
   0   6  -6    0.68    0.20
   0   6  -6    0.93    0.16
   0  -6   6    0.87    0.17
  -1   6  -6    1.14    0.23
   1  -6   6    1.73    0.23
  -2   6  -6    4.25    0.36
   2  -6   6    4.24    0.34
   3  -6   6    1.39    0.26
   4  -6   6    0.12    0.17
   5  -6   6    0.42    0.23
   6   5  -6    0.06    0.15
   5   5  -6    1.71    0.31
   4   5  -6    0.03    0.12
   4   5  -6   -0.01    0.14
   3   5  -6    0.21    0.16
   3   5  -6    0.17    0.16
   2   5  -6    4.35    0.31
   2   5  -6    4.37    0.32
   1   5  -6   23.15    0.60
   1   5  -6   21.90    0.61
  -1  -5   6   22.76    0.48
   0   5  -6   11.39    0.40
   0   5  -6   11.81    0.45
   0  -5   6   11.11    0.38
  -1   5  -6    5.17    0.35
   1  -5   6    5.72    0.33
  -2   5  -6    1.75    0.25
   2  -5   6    2.36    0.29
   3  -5   6    1.57    0.26
   4  -5   6    0.36    0.21
   5  -5   6    0.15    0.19
   6  -5   6    1.38    0.37
   6   4  -6    1.50    0.32
   5   4  -6    0.46    0.19
   4   4  -6    4.23    0.37
   3   4  -6   -0.19    0.09
   3   4  -6    0.11    0.14
   2   4  -6    2.17    0.26
   2   4  -6    2.41    0.23
   1   4  -6    7.27    0.34
   1   4  -6    7.03    0.32
  -1  -4   6    7.29    0.28
   0   4  -6    6.86    0.31
   0   4  -6    7.01    0.34
   0  -4   6    6.61    0.30
  -1   4  -6   19.24    0.57
   1  -4   6   19.54    0.55
   2  -4   6   31.68    0.79
   3  -4   6   16.31    0.61
   4  -4   6    4.11    0.37
   5  -4   6    0.34    0.21
   6  -4   6    0.03    0.22
   6   3  -6    0.04    0.15
   5   3  -6   17.17    0.75
   4   3  -6    0.30    0.17
   3   3  -6    8.32    0.34
   3   3  -6    8.37    0.44
   2   3  -6   52.54    0.83
   2   3  -6   53.07    1.05
  -2  -3   6   50.62    0.76
   1   3  -6    1.48    0.18
   1   3  -6    1.66    0.21
  -1  -3   6    1.67    0.18
   0   3  -6   18.93    0.50
   0   3  -6   19.07    0.52
   0  -3   6   19.39    0.50
  -1   3  -6    9.19    0.38
   1  -3   6    9.52    0.38
   2  -3   6   38.17    0.85
   3  -3   6    8.67    0.47
   4  -3   6    0.12    0.16
   5  -3   6    6.77    0.50
   6  -3   6    0.62    0.28
   7   2  -6    0.20    0.21
   6   2  -6   -0.13    0.15
   5   2  -6    0.62    0.21
   4   2  -6   22.15    0.77
   3   2  -6    0.42    0.17
   3   2  -6    0.52    0.13
  -3  -2   6    0.22    0.09
   2   2  -6   22.42    0.46
   2   2  -6   22.59    0.65
  -2  -2   6   21.74    0.48
   1   2  -6  128.87    1.72
   1   2  -6  130.38    1.49
  -1  -2   6  128.18    1.53
   0   2  -6   14.66    0.48
   0   2  -6   13.78    0.40
   0  -2   6   14.16    0.42
   1  -2   6    1.03    0.17
   2  -2   6   30.34    0.75
   3  -2   6    0.82    0.21
   4  -2   6    6.23    0.43
   5  -2   6    2.89    0.38
   6  -2   6    0.34    0.24
   7   1  -6    0.56    0.27
   6   1  -6    0.29    0.22
   5   1  -6    0.85    0.24
   4   1  -6    0.18    0.15
   3   1  -6   27.18    0.77
  -3  -1   6   26.08    0.59
   2   1  -6    4.99    0.19
   2   1  -6    5.62    0.33
  -2  -1   6    5.18    0.25
   1   1  -6   11.65    0.30
   1   1  -6   11.37    0.43
  -1  -1   6   11.60    0.37
   0   1  -6    0.17    0.13
   0  -1   6    0.11    0.11
   1  -1   6    0.80    0.17
   2  -1   6    2.16    0.25
   3  -1   6   39.60    0.94
   4  -1   6    1.07    0.25
   5  -1   6    1.98    0.34
   6  -1   6   -0.24    0.21
   7   0  -6   -0.05    0.19
   6   0  -6    0.54    0.23
   5   0  -6    1.00    0.25
   4   0  -6   23.61    0.77
  -4   0   6   22.71    0.63
   3   0  -6   11.82    0.51
  -3   0   6   11.50    0.40
   2   0  -6   20.58    0.62
  -2   0   6   19.22    0.50
   1   0  -6    0.05    0.12
  -1   0   6    0.01    0.10
   0   0  -6    7.18    0.37
   0   0   6    7.20    0.32
   1   0   6   19.37    0.55
   2   0   6   18.22    0.57
   3   0   6   26.52    0.76
   4   0   6   28.08    0.85
   5   0   6    0.88    0.26
   6   0   6   -0.29    0.21
   7  -1  -6   -0.04    0.21
   6  -1  -6    0.80    0.26
   5  -1  -6    2.13    0.34
  -5   1   6    2.27    0.28
   4  -1  -6    5.98    0.42
  -4   1   6    6.38    0.37
   3  -1  -6   39.50    0.94
  -3   1   6   41.41    0.84
   2  -1  -6    0.49    0.16
  -2   1   6    0.47    0.13
   1  -1  -6    1.17    0.21
  -1   1   6    0.97    0.17
   0   1   6    7.19    0.33
   1   1   6    3.00    0.26
   2   1   6    3.31    0.29
   3   1   6   15.96    0.60
   4   1   6   21.84    0.73
   5   1   6    9.83    0.55
   6   1   6    7.11    0.53
   6  -2  -6    0.24    0.24
   5  -2  -6    0.08    0.17
  -5   2   6    0.24    0.15
   4  -2  -6   33.10    0.92
  -4   2   6   31.60    0.82
   3  -2  -6    4.63    0.36
  -3   2   6    4.98    0.32
   2  -2  -6    4.87    0.37
  -2   2   6    5.24    0.29
   1  -2  -6   35.25    0.85
  -1   2   6   35.24    0.73
  -1   2   6   35.32    0.48
   0   2   6   10.15    0.40
   1   2   6    9.01    0.40
   2   2   6    9.13    0.43
   3   2   6    0.50    0.22
   4   2   6   -0.05    0.16
   5   2   6   -0.02    0.21
   5   2   6    0.55    0.20
   6   2   6    1.66    0.32
   6  -3  -6    3.86    0.47
  -6   3   6    3.70    0.43
   5  -3  -6   -0.07    0.19
  -5   3   6   -0.01    0.13
   4  -3  -6   11.84    0.58
  -4   3   6   11.10    0.50
   3  -3  -6   36.49    0.93
  -3   3   6   37.20    0.85
   2  -3  -6   10.27    0.49
  -2   3   6    9.88    0.41
  -1   3   6   14.30    0.48
  -1   3   6   14.18    0.29
   0   3   6    2.04    0.24
   0   3   6    1.95    0.15
   1   3   6    4.29    0.25
   1   3   6    4.26    0.31
   2   3   6   15.10    0.54
   2   3   6   15.39    0.52
   3   3   6    4.33    0.39
   3   3   6    4.26    0.33
   4   3   6    0.67    0.24
   4   3   6    0.72    0.20
   5   3   6    0.57    0.20
   6   3   6    1.10    0.30
  -6   4   6    2.21    0.36
   5  -4  -6   -0.22    0.19
  -5   4   6   -0.03    0.16
   4  -4  -6    0.29    0.21
  -4   4   6    0.38    0.17
   3  -4  -6    0.40    0.22
  -3   4   6    0.35    0.16
   2  -4  -6    3.76    0.38
  -2   4   6    4.39    0.31
  -1   4   6    4.97    0.19
  -1   4   6    4.81    0.31
   0   4   6   25.70    0.54
   0   4   6   26.41    0.67
   1   4   6    2.14    0.27
   1   4   6    2.12    0.21
   2   4   6   -0.22    0.08
   2   4   6    0.02    0.19
   3   4   6    2.08    0.28
   3   4   6    2.35    0.32
   4   4   6    0.04    0.14
   4   4   6   -0.09    0.19
   5   4   6    0.21    0.17
   6   4   6    2.91    0.43
  -6   5   6    0.41    0.23
  -5   5   6    5.15    0.45
   4  -5  -6   -0.07    0.21
  -4   5   6    0.27    0.17
   3  -5  -6    0.27    0.22
  -3   5   6    0.08    0.14
  -2   5   6   57.84    1.13
  -1   5   6   16.10    0.40
  -1   5   6   16.34    0.56
   0   5   6    7.52    0.39
   0   5   6    8.02    0.32
   1   5   6   24.25    0.63
   1   5   6   24.62    0.68
   2   5   6   -0.06    0.10
   2   5   6    0.18    0.20
   3   5   6    0.79    0.23
   3   5   6    0.79    0.20
   4   5   6    0.36    0.19
   5   5   6    0.65    0.24
  -6   6   6    3.17    0.45
  -5   6   6   -0.04    0.16
   4  -6  -6    1.57    0.32
  -4   6   6    2.06    0.32
  -3   6   6    1.66    0.28
  -2   6   6    3.01    0.34
  -1   6   6   13.84    0.53
   0   6   6   35.97    0.74
   0   6   6   36.50    0.85
   1   6   6   19.37    0.63
   1   6   6   20.15    0.60
   2   6   6    8.77    0.46
   2   6   6    9.90    0.48
   3   6   6    0.23    0.19
   3   6   6    0.02    0.13
   4   6   6    0.64    0.21
   5   6   6    1.05    0.29
  -6   7   6    0.24    0.23
  -5   7   6    3.93    0.48
  -4   7   6    0.43    0.19
  -3   7   6    1.67    0.28
  -2   7   6    7.90    0.44
  -1   7   6    0.90    0.23
   0   7   6    0.16    0.18
   0   7   6    0.07    0.12
   1   7   6   17.95    0.59
   1   7   6   17.71    0.62
   2   7   6    0.35    0.18
   2   7   6    0.03    0.12
   3   7   6    0.97    0.23
   4   7   6    1.60    0.32
   5   7   6   -0.25    0.13
  -5   8   6    1.24    0.31
  -4   8   6    1.27    0.29
  -3   8   6    0.32    0.18
  -2   8   6    0.58    0.19
  -1   8   6    4.50    0.37
   0   8   6    3.79    0.30
   0   8   6    3.28    0.34
   1   8   6    2.28    0.28
   1   8   6    2.35    0.29
   2   8   6    5.01    0.40
   3   8   6    2.69    0.37
   4   8   6    0.61    0.24
  -5   9   6    2.47    0.40
  -4   9   6    0.50    0.22
  -3   9   6    0.32    0.20
  -2   9   6    0.33    0.18
  -1   9   6    0.17    0.17
   0   9   6    3.20    0.33
   0   9   6    2.92    0.33
   1   9   6    0.50    0.20
   1   9   6    0.64    0.19
   2   9   6    1.07    0.24
   3   9   6    1.80    0.33
   4   9   6    0.14    0.22
  -4  10   6    2.23    0.37
  -3  10   6    1.00    0.27
  -2  10   6    2.93    0.38
  -1  10   6    0.53    0.21
   0  10   6    0.12    0.15
   0  10   6    0.08    0.20
   1  10   6    2.83    0.36
   2  10   6   -0.17    0.14
   3  10   6    0.50    0.24
  -4  11   6    0.37    0.21
  -3  11   6    2.97    0.41
  -2  11   6    0.80    0.24
  -1  11   6    4.09    0.44
   1  11   6    0.43    0.22
   2  11   6    1.18    0.29
   3  11   6    1.03    0.28
  -3  12   6    0.09    0.17
  -2  12   6    2.76    0.38
  -1  12   6    1.67    0.31
   1  12   6   -0.43    0.19
   2  12   6    1.01    0.34
  -2  13   6    0.49    0.21
   1  13  -7    0.89    0.35
   0  13  -7    0.21    0.26
  -1  13  -7    3.56    0.49
  -2  13  -7    0.31    0.28
   3  12  -7   -0.23    0.22
   2  12  -7    1.83    0.38
   1  12  -7    0.21    0.27
   0  12  -7    3.56    0.48
  -1  12  -7    0.26    0.27
  -2  12  -7    3.91    0.50
  -3  12  -7    1.31    0.37
   3  11  -7   -0.12    0.22
   2  11  -7   -0.28    0.21
   1  11  -7    0.18    0.26
   0  11  -7   -0.06    0.20
  -1  11  -7    0.82    0.28
  -2  11  -7    0.32    0.23
  -3  11  -7    2.87    0.44
   4  10  -7   -0.02    0.22
   4  10  -7    0.16    0.17
   3  10  -7    0.04    0.24
   3  10  -7    0.03    0.12
   2  10  -7    4.72    0.50
   1  10  -7    0.94    0.27
   0  10  -7    2.02    0.34
  -1  10  -7    1.39    0.31
  -2  10  -7    0.44    0.25
   2 -10   7    0.55    0.20
  -3  10  -7    0.11    0.22
   3 -10   7    0.19    0.18
   4 -10   7    1.81    0.34
   4   9  -7    0.05    0.15
   4   9  -7   -0.10    0.20
   3   9  -7    4.83    0.43
   3   9  -7    3.98    0.42
   2   9  -7    2.20    0.35
   2   9  -7    2.10    0.30
   1   9  -7    5.33    0.43
   0   9  -7    2.53    0.35
  -1   9  -7    6.41    0.47
  -2   9  -7    1.23    0.29
   2  -9   7    0.58    0.22
  -3   9  -7    0.84    0.26
   3  -9   7    1.08    0.27
   4  -9   7    0.45    0.23
   5   8  -7    5.33    0.50
   4   8  -7    0.00    0.14
   4   8  -7    0.15    0.22
   3   8  -7    0.94    0.26
   3   8  -7    0.77    0.21
   2   8  -7   14.86    0.62
   2   8  -7   15.31    0.62
   1   8  -7    0.89    0.26
   0   8  -7   15.83    0.65
  -1   8  -7    1.80    0.32
   1  -8   7    1.56    0.24
  -2   8  -7    0.02    0.17
   2  -8   7    0.10    0.14
  -3   8  -7    2.55    0.37
   3  -8   7    3.29    0.39
   4  -8   7    2.08    0.35
   5   7  -7    0.52    0.22
   4   7  -7    1.64    0.30
   4   7  -7    1.27    0.28
   3   7  -7    0.20    0.16
   3   7  -7    0.28    0.20
   2   7  -7   20.89    0.68
   2   7  -7   21.16    0.72
   1   7  -7   11.03    0.53
   1   7  -7   10.90    0.47
   0   7  -7    5.10    0.40
   0  -7   7    5.47    0.33
  -1   7  -7   21.64    0.74
   1  -7   7   20.76    0.64
  -2   7  -7   -0.04    0.15
   2  -7   7   -0.19    0.14
   3  -7   7    0.33    0.19
   4  -7   7    2.14    0.35
   5  -7   7    1.89    0.38
   6   6  -7    0.34    0.22
   5   6  -7    0.02    0.14
   4   6  -7    1.81    0.32
   3   6  -7    0.02    0.15
   3   6  -7   -0.04    0.12
   2   6  -7    7.15    0.42
   2   6  -7    6.95    0.41
   1   6  -7    5.45    0.34
   1   6  -7    5.77    0.40
   0   6  -7   35.66    0.78
   0   6  -7   36.47    0.89
   0  -6   7   36.00    0.76
  -1   6  -7    2.28    0.31
   1  -6   7    2.12    0.26
  -2   6  -7    1.97    0.30
   2  -6   7    2.30    0.30
   3  -6   7   -0.06    0.16
   4  -6   7    0.39    0.22
   5  -6   7    0.04    0.18
   6   5  -7    0.35    0.22
   5   5  -7    0.15    0.15
   4   5  -7    3.08    0.38
   3   5  -7   12.43    0.57
   3   5  -7   11.05    0.47
   2   5  -7    6.07    0.38
   2   5  -7    5.52    0.36
   1   5  -7   29.83    0.76
   1   5  -7   27.59    0.71
  -1  -5   7   28.29    0.60
   0   5  -7    7.68    0.39
   0   5  -7    7.07    0.36
   0  -5   7    6.98    0.35
  -1   5  -7   34.07    0.84
   1  -5   7   33.02    0.79
  -2   5  -7   54.46    1.17
   2  -5   7   52.96    1.10
   3  -5   7    5.09    0.41
   4  -5   7    0.00    0.17
   5  -5   7   -0.02    0.19
   6   4  -7    0.65    0.27
   5   4  -7    0.06    0.16
   4   4  -7    0.06    0.13
   3   4  -7    0.51    0.20
   3   4  -7    0.48    0.17
   2   4  -7    4.95    0.32
   2   4  -7    4.85    0.34
   1   4  -7    0.87    0.19
   1   4  -7    0.86    0.19
  -1  -4   7    1.07    0.18
   0   4  -7   26.33    0.66
   0   4  -7   26.42    0.67
   0  -4   7   25.56    0.63
  -1   4  -7    2.27    0.26
   1  -4   7    2.17    0.26
   2  -4   7    6.25    0.39
   3  -4   7   57.96    1.23
   4  -4   7   11.19    0.59
   5  -4   7    5.26    0.54
   6   3  -7    0.36    0.21
   5   3  -7    3.71    0.44
   4   3  -7    0.05    0.15
   3   3  -7    1.63    0.27
   2   3  -7    5.88    0.37
   2   3  -7    5.84    0.30
  -2  -3   7    5.90    0.28
   1   3  -7   13.36    0.50
   1   3  -7   13.86    0.42
  -1  -3   7   13.36    0.42
   0   3  -7    2.36    0.23
   0   3  -7    2.05    0.24
   0  -3   7    2.60    0.26
  -1   3  -7    2.23    0.25
   1  -3   7    2.09    0.27
   2  -3   7    0.62    0.20
   3  -3   7    3.91    0.36
   4  -3   7    2.17    0.35
   5  -3   7    1.54    0.32
   6  -3   7    0.71    0.29
   6   2  -7    1.66    0.34
   5   2  -7    1.34    0.29
   4   2  -7   12.94    0.61
   3   2  -7    2.55    0.31
  -3  -2   7    3.01    0.22
   2   2  -7    4.76    0.24
   2   2  -7    4.72    0.34
  -2  -2   7    4.72    0.26
   1   2  -7    0.93    0.14
   1   2  -7    1.31    0.21
  -1  -2   7    1.22    0.19
   0   2  -7   22.32    0.54
   0   2  -7   22.55    0.65
   0  -2   7   20.54    0.56
   1  -2   7    0.92    0.20
   2  -2   7    1.59    0.25
   3  -2   7    0.03    0.17
   4  -2   7    0.70    0.24
   5  -2   7   -0.07    0.19
   6  -2   7   -0.08    0.25
   6   1  -7    0.18    0.20
   5   1  -7    0.90    0.25
   4   1  -7   -0.03    0.15
   3   1  -7   22.87    0.75
  -3  -1   7   22.09    0.57
   2   1  -7    1.36    0.23
   2   1  -7    1.30    0.13
  -2  -1   7    1.45    0.19
   1   1  -7    7.44    0.26
   1   1  -7    7.20    0.40
  -1  -1   7    7.31    0.33
   0   1  -7   23.28    0.69
   0  -1   7   23.37    0.61
   1  -1   7    1.95    0.25
   2  -1   7    3.50    0.32
   3  -1   7   21.09    0.71
   4  -1   7    0.35    0.22
   5  -1   7   -0.06    0.20
   6  -1   7   -0.20    0.23
   7   0  -7   -0.21    0.18
   6   0  -7    1.31    0.31
   5   0  -7    0.80    0.25
   4   0  -7    9.59    0.54
  -4   0   7   10.27    0.44
   3   0  -7    1.44    0.25
  -3   0   7    1.57    0.22
   2   0  -7   22.72    0.70
  -2   0   7   22.79    0.58
   1   0  -7   16.67    0.59
  -1   0   7   15.23    0.48
   0   0   7    1.82    0.23
   1   0   7   14.69    0.52
   2   0   7   25.16    0.72
   3   0   7   11.20    0.54
   4   0   7    1.44    0.28
   5   0   7    0.10    0.21
   6   0   7   -0.26    0.22
   7  -1  -7   -0.43    0.20
   6  -1  -7    0.34    0.23
   5  -1  -7    0.30    0.20
  -5   1   7    0.58    0.25
   4  -1  -7    0.45    0.22
  -4   1   7    0.54    0.18
   3  -1  -7   29.28    0.86
  -3   1   7   31.23    0.75
   2  -1  -7    0.78    0.22
  -2   1   7    0.55    0.16
   1  -1  -7   13.48    0.55
  -1   1   7   13.80    0.48
   0   1   7   19.52    0.58
   1   1   7    0.59    0.19
   2   1   7    1.49    0.26
   3   1   7   32.30    0.90
   4   1   7    2.96    0.37
   5   1   7    0.52    0.27
   6   1   7    0.96    0.27
   6   1   7    1.06    0.39
   6  -2  -7    0.19    0.23
   5  -2  -7    0.32    0.22
  -5   2   7    0.70    0.21
   4  -2  -7    0.13    0.19
  -4   2   7    0.27    0.16
   3  -2  -7    0.07    0.18
  -3   2   7    0.11    0.14
   2  -2  -7   10.94    0.53
  -2   2   7   10.18    0.44
   1  -2  -7    2.07    0.30
  -1   2   7    1.99    0.12
  -1   2   7    2.20    0.25
   0   2   7   12.20    0.48
   1   2   7    2.39    0.29
   2   2   7   10.73    0.50
   3   2   7    0.72    0.26
   4   2   7    4.46    0.46
   5   2   7    0.06    0.21
   5   2   7    0.22    0.15
   6   2   7    3.21    0.43
   6  -3  -7   -0.51    0.17
  -6   3   7   -0.03    0.15
   5  -3  -7    0.39    0.24
  -5   3   7    0.71    0.21
   4  -3  -7    0.20    0.21
  -4   3   7    0.36    0.18
   3  -3  -7    7.90    0.51
  -3   3   7    8.58    0.43
   2  -3  -7    0.04    0.21
  -2   3   7   -0.06    0.12
  -1   3   7    0.17    0.15
   0   3   7    0.02    0.15
   0   3   7    0.02    0.07
   1   3   7   23.40    0.68
   1   3   7   23.54    0.60
   2   3   7    5.59    0.44
   2   3   7    6.28    0.36
   3   3   7    0.71    0.19
   3   3   7    0.87    0.26
   4   3   7    0.45    0.19
   4   3   7    0.97    0.29
   5   3   7   -0.40    0.34
   5   3   7    0.22    0.16
   6   3   7   -0.05    0.17
  -6   4   7    0.76    0.24
   5  -4  -7   -0.37    0.21
  -5   4   7   -0.06    0.16
   4  -4  -7    0.61    0.25
  -4   4   7    0.77    0.21
   3  -4  -7    0.41    0.27
  -3   4   7    0.16    0.15
   2  -4  -7    3.23    0.39
  -2   4   7    3.65    0.31
  -1   4   7    0.18    0.15
   0   4   7   11.95    0.49
   0   4   7   11.42    0.37
   1   4   7    1.63    0.28
   1   4   7    1.61    0.21
   2   4   7    2.29    0.27
   2   4   7    2.31    0.34
   3   4   7    7.54    0.45
   3   4   7    8.21    0.50
   4   4   7   -0.04    0.19
   4   4   7   -0.06    0.14
   5   4   7    0.66    0.23
  -6   5   7    0.81    0.29
   5  -5  -7    4.04    0.48
  -5   5   7    4.52    0.47
   4  -5  -7   -0.03    0.21
  -4   5   7    0.26    0.18
   3  -5  -7    8.04    0.59
  -3   5   7    8.62    0.48
  -2   5   7    0.28    0.17
  -1   5   7    2.56    0.32
   0   5   7   12.56    0.52
   0   5   7   12.54    0.41
   1   5   7   13.40    0.57
   1   5   7   13.19    0.48
   2   5   7    2.05    0.32
   2   5   7    2.36    0.28
   3   5   7    0.46    0.17
   3   5   7    0.35    0.22
   4   5   7    0.96    0.25
   5   5   7    0.07    0.17
  -6   6   7    1.75    0.37
  -5   6   7    0.09    0.19
   4  -6  -7    3.98    0.48
  -4   6   7    3.84    0.42
  -3   6   7    1.49    0.27
  -2   6   7    9.00    0.49
  -1   6   7    0.13    0.16
   0   6   7   45.80    1.02
   0   6   7   45.69    0.87
   1   6   7   24.06    0.73
   1   6   7   24.92    0.69
   2   6   7    0.81    0.25
   2   6   7    0.72    0.19
   3   6   7    1.52    0.28
   3   6   7    2.04    0.30
   4   6   7   -0.09    0.13
   5   6   7    0.24    0.18
  -5   7   7    1.83    0.36
  -4   7   7    1.77    0.32
  -3   7   7    2.83    0.36
  -2   7   7    2.05    0.31
  -1   7   7    3.99    0.35
   0   7   7    0.03    0.18
   0   7   7   -0.12    0.10
   1   7   7   23.00    0.69
   1   7   7   22.41    0.73
   2   7   7   11.29    0.54
   2   7   7   11.26    0.54
   3   7   7    1.97    0.30
   4   7   7    1.45    0.30
  -5   8   7   -0.09    0.18
  -4   8   7    0.09    0.17
  -3   8   7    3.50    0.42
  -2   8   7    1.89    0.30
  -1   8   7    5.33    0.39
   0   8   7    1.18    0.24
   1   8   7    0.06    0.17
   1   8   7   -0.12    0.13
   2   8   7    0.15    0.16
   2   8   7    0.54    0.32
   3   8   7    1.67    0.30
   4   8   7    1.69    0.34
  -4   9   7   -0.02    0.15
  -3   9   7    0.03    0.17
  -2   9   7    3.42    0.41
  -1   9   7    2.20    0.32
   0   9   7    9.28    0.50
   1   9   7   -0.19    0.12
   1   9   7    0.38    0.18
   2   9   7    0.64    0.21
   3   9   7    0.15    0.19
   4   9   7    1.62    0.34
  -4  10   7    0.61    0.25
  -3  10   7   -0.06    0.15
  -2  10   7    0.26    0.19
  -1  10   7    6.10    0.44
   0  10   7    0.92    0.23
   1  10   7    0.47    0.22
   2  10   7    0.02    0.18
   3  10   7    0.17    0.18
  -3  11   7    2.70    0.42
  -2  11   7    1.60    0.33
  -1  11   7    0.72    0.22
   0  11   7    3.54    0.53
   1  11   7    0.33    0.25
   2  11   7    0.06    0.21
  -2  12   7    4.25    0.49
  -1  12   7    2.65    0.38
   0  13  -8   -0.06    0.23
  -1  13  -8    1.10    0.36
   2  12  -8    2.27    0.40
   1  12  -8    1.18    0.34
   0  12  -8    0.01    0.25
  -1  12  -8    0.45    0.30
  -2  12  -8    4.56    0.55
   3  11  -8    0.71    0.33
   2  11  -8   -0.02    0.21
   1  11  -8    0.35    0.27
   0  11  -8    0.07    0.24
  -1  11  -8    0.58    0.28
  -2  11  -8    0.21    0.22
  -3  11  -8    5.27    0.57
   3 -11   8    6.27    0.54
   4  10  -8    6.16    0.52
   4  10  -8    5.12    0.62
   3  10  -8    0.35    0.26
   3  10  -8    0.61    0.21
   2  10  -8    7.79    0.54
   1  10  -8    2.97    0.42
   0  10  -8    1.37    0.31
  -1  10  -8    0.34    0.23
  -2  10  -8    0.46    0.24
  -3  10  -8    2.13    0.40
   3 -10   8    1.99    0.35
   4   9  -8    0.09    0.16
   3   9  -8    0.62    0.22
   3   9  -8    0.43    0.26
   2   9  -8    0.04    0.19
   1   9  -8    6.71    0.49
   0   9  -8    0.33    0.20
  -1   9  -8    7.37    0.52
  -2   9  -8    1.99    0.36
   2  -9   8    2.08    0.33
  -3   9  -8    0.14    0.20
   3  -9   8    0.10    0.22
   4  -9   8    0.60    0.28
   5   8  -8    1.80    0.36
   4   8  -8    1.51    0.31
   3   8  -8    0.59    0.22
   3   8  -8    0.60    0.24
   2   8  -8    0.64    0.21
   2   8  -8    0.40    0.21
   1   8  -8    1.40    0.27
   0   8  -8    0.19    0.18
  -1   8  -8    0.18    0.19
   1  -8   8    0.03    0.16
  -2   8  -8    3.12    0.40
   2  -8   8    3.40    0.38
  -3   8  -8    0.85    0.25
   3  -8   8    0.44    0.23
   4  -8   8    0.60    0.27
   5   7  -8    0.31    0.21
   4   7  -8    0.65    0.22
   3   7  -8    0.38    0.18
   3   7  -8    0.33    0.20
   2   7  -8    0.42    0.20
   2   7  -8    0.48    0.18
   1   7  -8   25.02    0.78
   1   7  -8   24.23    0.73
   0   7  -8   17.72    0.67
  -1   7  -8    0.23    0.18
   1  -7   8   -0.01    0.14
  -2   7  -8    0.09    0.17
   2  -7   8    0.07    0.16
   3  -7   8   -0.19    0.19
   4  -7   8    0.30    0.26
   5   6  -8    0.05    0.15
   4   6  -8    0.06    0.15
   3   6  -8   12.29    0.52
   3   6  -8   11.04    0.58
   2   6  -8    7.88    0.46
   2   6  -8    6.70    0.40
   1   6  -8    3.53    0.31
   1   6  -8    2.77    0.31
   0   6  -8   33.34    0.88
   0  -6   8   33.78    0.78
  -1   6  -8    4.04    0.40
   1  -6   8    4.64    0.37
  -2   6  -8    0.73    0.22
   2  -6   8    0.86    0.24
   3  -6   8    2.35    0.37
   4  -6   8    1.13    0.32
   5  -6   8    0.26    0.26
   6   5  -8   -0.06    0.19
   5   5  -8    2.59    0.39
   4   5  -8    0.00    0.14
   3   5  -8    4.35    0.40
   2   5  -8   15.69    0.54
   2   5  -8   14.85    0.61
   1   5  -8   34.61    0.88
   1   5  -8   34.60    0.82
  -1  -5   8   34.40    0.73
   0   5  -8   11.54    0.52
   0   5  -8   12.46    0.51
   0  -5   8   12.20    0.48
  -1   5  -8   19.54    0.68
   1  -5   8   19.86    0.63
   2  -5   8    1.64    0.29
   3  -5   8    0.14    0.20
   4  -5   8   -0.08    0.19
   5  -5   8    5.17    0.55
   6   4  -8    2.18    0.39
   5   4  -8    0.21    0.21
   4   4  -8    1.20    0.27
   3   4  -8    1.85    0.29
   2   4  -8    1.64    0.26
   2   4  -8    1.62    0.23
   1   4  -8    9.75    0.49
   1   4  -8    9.36    0.41
  -1  -4   8    9.91    0.40
   0   4  -8   15.02    0.57
   0   4  -8   14.59    0.53
   0  -4   8   14.82    0.53
  -1   4  -8    0.84    0.21
   1  -4   8    0.66    0.21
   2  -4   8   26.70    0.80
   3  -4   8    2.17    0.33
   4  -4   8    0.49    0.24
   5  -4   8    6.02    0.53
   6   3  -8    0.26    0.22
   5   3  -8    1.78    0.33
   4   3  -8    0.37    0.19
   3   3  -8    0.23    0.15
   2   3  -8    8.25    0.48
   2   3  -8    7.66    0.34
  -2  -3   8    7.83    0.35
   1   3  -8   14.26    0.58
   1   3  -8   14.56    0.46
  -1  -3   8   14.44    0.48
   0   3  -8    2.10    0.30
   0   3  -8    2.12    0.25
   0  -3   8    2.29    0.28
   1  -3   8   14.87    0.55
   2  -3   8   55.00    1.15
   3  -3   8   18.72    0.74
   4  -3   8    1.32    0.32
   5  -3   8    2.21    0.39
   6   2  -8    1.12    0.31
   5   2  -8    0.17    0.20
   4   2  -8    2.60    0.35
   3   2  -8    0.47    0.20
   2   2  -8    1.56    0.26
  -2  -2   8    1.85    0.23
   1   2  -8    1.38    0.25
   1   2  -8    1.55    0.18
  -1  -2   8    1.62    0.24
   0   2  -8    0.69    0.22
   0  -2   8    0.52    0.19
   1  -2   8   11.51    0.50
   2  -2   8   27.83    0.80
   3  -2   8    2.99    0.37
   4  -2   8    7.76    0.55
   5  -2   8   -0.02    0.21
   6   1  -8    0.59    0.26
   5   1  -8    1.23    0.30
   4   1  -8    0.69    0.25
   3   1  -8   16.67    0.68
  -3  -1   8   16.26    0.52
   2   1  -8    9.75    0.50
  -2  -1   8    9.96    0.40
   1   1  -8    1.58    0.27
  -1  -1   8    1.36    0.23
   0   1  -8    1.18    0.25
   0  -1   8    0.56    0.19
   1  -1   8    0.21    0.18
   2  -1   8    2.73    0.35
   3  -1   8   11.37    0.57
   4  -1   8    6.72    0.50
   5  -1   8    0.54    0.27
   6   0  -8    0.95    0.31
   5   0  -8    1.45    0.30
   4   0  -8   19.64    0.79
  -4   0   8   19.20    0.62
   3   0  -8    7.15    0.48
  -3   0   8    6.04    0.35
   2   0  -8   29.99    0.88
  -2   0   8   31.07    0.74
   1   0  -8    7.82    0.47
  -1   0   8    7.39    0.40
   0   0   8    6.28    0.37
   1   0   8    0.14    0.18
   2   0   8    9.24    0.50
   3   0   8    1.15    0.27
   4   0   8    1.75    0.33
   5   0   8   -0.04    0.21
   6   0   8   -0.18    0.26
   6  -1  -8   -0.39    0.21
   5  -1  -8    2.97    0.41
   4  -1  -8    3.93    0.44
  -4   1   8    3.93    0.32
   3  -1  -8   65.78    1.39
  -3   1   8   64.67    1.18
   2  -1  -8    2.88    0.36
  -2   1   8    2.92    0.30
   1  -1  -8   11.83    0.58
  -1   1   8   11.69    0.47
   0   1   8    7.90    0.42
   1   1   8    0.90    0.24
   2   1   8    6.79    0.48
   3   1   8   20.62    0.75
   4   1   8    0.95    0.30
   5   1   8    0.65    0.29
   6  -2  -8   -0.25    0.23
   5  -2  -8    2.64    0.41
  -5   2   8    2.70    0.33
   4  -2  -8    5.67    0.47
  -4   2   8    5.61    0.39
   3  -2  -8    9.70    0.60
  -3   2   8    9.84    0.46
   2  -2  -8   20.72    0.77
  -2   2   8   20.26    0.63
   1  -2  -8    3.20    0.38
  -1   2   8    3.54    0.31
   0   2   8    7.12    0.41
   1   2   8   15.98    0.61
   2   2   8    1.64    0.30
   3   2   8   14.28    0.65
   4   2   8    7.00    0.54
   5   2   8    0.42    0.18
   5   2   8    0.44    0.27
   6  -3  -8   -0.09    0.22
   5  -3  -8    0.90    0.30
  -5   3   8    0.98    0.25
   4  -3  -8    7.82    0.55
  -4   3   8    7.50    0.45
   3  -3  -8    4.45    0.49
  -3   3   8    3.92    0.33
   2  -3  -8    0.34    0.27
  -2   3   8   -0.06    0.14
  -1   3   8    0.56    0.20
   0   3   8    1.27    0.16
   0   3   8    1.34    0.26
   1   3   8    2.63    0.23
   1   3   8    3.55    0.37
   2   3   8   12.94    0.59
   2   3   8   12.45    0.51
   3   3   8    0.31    0.23
   3   3   8    0.65    0.19
   4   3   8    3.05    0.38
   4   3   8    2.94    0.40
   5   3   8    0.19    0.26
   5   3   8    0.28    0.17
   6  -4  -8   -0.21    0.28
  -6   4   8    0.04    0.16
   5  -4  -8    0.53    0.31
  -5   4   8    1.12    0.27
   4  -4  -8    4.61    0.51
  -4   4   8    4.23    0.37
   3  -4  -8    2.60    0.40
  -3   4   8    2.54    0.32
   2  -4  -8    0.25    0.30
  -2   4   8    0.01    0.15
  -1   4   8    0.21    0.18
   0   4   8   -0.02    0.19
   0   4   8    0.18    0.09
   1   4   8   13.77    0.58
   1   4   8   12.94    0.47
   2   4   8    1.55    0.24
   2   4   8    1.52    0.29
   3   4   8    2.85    0.39
   3   4   8    2.95    0.34
   4   4   8    0.06    0.14
   4   4   8   -0.23    0.20
   5   4   8    0.09    0.15
  -6   5   8   -0.03    0.16
   5  -5  -8    1.87    0.42
  -5   5   8    2.27    0.35
   4  -5  -8    1.11    0.33
  -4   5   8    1.24    0.28
   3  -5  -8    0.19    0.26
  -3   5   8    0.59    0.20
  -2   5   8    5.76    0.42
  -1   5   8    2.51    0.32
   0   5   8    1.62    0.20
   0   5   8    1.64    0.29
   1   5   8    0.68    0.26
   1   5   8    0.32    0.14
   2   5   8    7.42    0.42
   2   5   8    8.49    0.52
   3   5   8    0.14    0.24
   3   5   8    0.40    0.17
   4   5   8    2.12    0.34
   5   5   8    1.06    0.27
  -6   6   8    3.45    0.47
  -5   6   8    0.31    0.20
   4  -6  -8    1.51    0.41
  -4   6   8    1.65    0.32
  -3   6   8    1.63    0.29
  -2   6   8    0.59    0.20
  -1   6   8    3.80    0.39
   0   6   8   11.65    0.55
   1   6   8    0.42    0.16
   1   6   8    0.70    0.24
   2   6   8   -0.13    0.19
   2   6   8    0.11    0.13
   3   6   8   -0.03    0.13
   3   6   8   -0.15    0.18
   4   6   8    0.60    0.22
  -5   7   8    4.29    0.50
  -4   7   8    0.78    0.26
  -3   7   8    1.66    0.31
  -2   7   8    3.39    0.39
  -1   7   8    3.02    0.36
   0   7   8    2.36    0.34
   1   7   8   11.37    0.51
   1   7   8   11.85    0.56
   2   7   8    0.05    0.13
   2   7   8    0.21    0.19
   3   7   8    0.07    0.15
   4   7   8    0.77    0.26
  -5   8   8   -0.05    0.18
  -4   8   8    0.59    0.25
  -3   8   8    1.33    0.31
  -2   8   8    0.19    0.18
  -1   8   8    5.03    0.41
   0   8   8    0.67    0.23
   1   8   8    1.04    0.25
   1   8   8    0.29    0.18
   2   8   8    1.96    0.30
   2   8   8    2.04    0.31
   3   8   8    0.04    0.18
   4   8   8    0.06    0.21
  -4   9   8    0.20    0.19
  -3   9   8    0.12    0.20
  -2   9   8    3.32    0.40
  -1   9   8    1.96    0.33
   0   9   8    7.29    0.49
   1   9   8    2.78    0.37
   1   9   8    1.97    0.30
   2   9   8   -0.16    0.16
   3   9   8   -0.14    0.15
  -3  10   8    0.10    0.19
  -2  10   8    0.11    0.18
  -1  10   8    3.61    0.42
   0  10   8    0.31    0.18
   2  10   8    4.20    0.44
  -3  11   8    0.53    0.25
  -2  11   8    0.08    0.20
  -1  11   8    0.19    0.17
   0  11   8    2.07    0.33
   2  11   8   -0.11    0.18
  -2  12   8    1.87    0.35
  -1  12   8    0.71    0.23
   1  12  -9   -0.06    0.23
   0  12  -9    0.63    0.29
  -1  12  -9    0.11    0.25
   3  11  -9    0.97    0.31
   2  11  -9    0.47    0.29
   1  11  -9    0.93    0.30
   0  11  -9    0.10    0.22
  -1  11  -9    3.06    0.47
  -2  11  -9    0.60    0.29
  -3  11  -9    1.70    0.36
   3  10  -9    0.22    0.25
   2  10  -9    3.18    0.41
   1  10  -9    6.93    0.54
   0  10  -9    2.15    0.37
  -1  10  -9    0.83    0.30
  -2  10  -9    2.72    0.43
  -3  10  -9    0.74    0.28
   3 -10   9    0.19    0.25
   4   9  -9    0.76    0.28
   3   9  -9    0.61    0.22
   3   9  -9    0.71    0.28
   2   9  -9    4.51    0.45
   1   9  -9    9.36    0.59
   0   9  -9    1.12    0.30
  -1   9  -9    9.32    0.61
  -2   9  -9    2.23    0.37
   2  -9   9    1.86    0.36
  -3   9  -9    0.93    0.28
   3  -9   9    0.12    0.24
   4   8  -9   -0.05    0.15
   3   8  -9    0.22    0.18
   3   8  -9    0.32    0.23
   2   8  -9    1.50    0.30
   2   8  -9    1.77    0.30
   1   8  -9    5.90    0.45
   0   8  -9   13.43    0.63
  -1   8  -9    0.66    0.24
   1  -8   9    0.84    0.24
  -2   8  -9    4.72    0.50
   2  -8   9    4.41    0.46
   3  -8   9    0.53    0.25
   4  -8   9    0.36    0.28
   5   7  -9   -0.07    0.18
   4   7  -9   -0.08    0.17
   3   7  -9    0.14    0.17
   2   7  -9    0.20    0.17
   2   7  -9    0.13    0.16
   1   7  -9    9.26    0.60
   1   7  -9   10.72    0.53
   0   7  -9    0.32    0.19
  -1   7  -9    6.01    0.45
   1  -7   9    6.23    0.42
  -2   7  -9    0.62    0.23
   2  -7   9    0.54    0.25
   3  -7   9    0.10    0.22
   4  -7   9    0.21    0.23
   5   6  -9    0.95    0.29
   4   6  -9   -0.07    0.15
   3   6  -9    0.05    0.16
   2   6  -9    1.37    0.28
   2   6  -9    1.39    0.25
   1   6  -9    0.12    0.18
   1   6  -9    0.19    0.17
   0   6  -9   23.84    0.77
   0  -6   9   21.94    0.68
  -1   6  -9    1.18    0.25
   1  -6   9    1.54    0.29
  -2   6  -9   -0.03    0.14
   2  -6   9   -0.19    0.17
   3  -6   9    7.02    0.53
   4  -6   9    0.20    0.24
   5   5  -9    1.99    0.37
   4   5  -9    0.28    0.20
   3   5  -9    6.53    0.50
   2   5  -9    4.20    0.42
   2   5  -9    4.12    0.33
   1   5  -9   16.88    0.64
   1   5  -9   19.08    0.63
   0   5  -9    0.48    0.21
   0   5  -9    0.44    0.23
   0  -5   9    0.49    0.20
  -1   5  -9    6.10    0.41
   1  -5   9    7.21    0.46
   2  -5   9    0.89    0.25
   3  -5   9    0.03    0.24
   4  -5   9    1.43    0.36
   5  -5   9    0.04    0.46
   6   4  -9    2.92    0.47
   5   4  -9    0.33    0.23
   4   4  -9   10.14    0.62
   3   4  -9   -0.03    0.17
   2   4  -9   12.48    0.60
   2   4  -9   12.44    0.56
   1   4  -9   -0.05    0.16
   1   4  -9    0.05    0.15
  -1  -4   9   -0.11    0.16
   0   4  -9   38.26    0.97
   0   4  -9   39.78    0.90
   0  -4   9   39.91    0.91
   1  -4   9    1.25    0.26
   2  -4   9    4.98    0.42
   3  -4   9    1.05    0.28
   4  -4   9    0.57    0.30
   5  -4   9    0.18    0.28
   6   3  -9    0.78    0.31
   5   3  -9    0.00    0.18
   4   3  -9    0.19    0.19
   3   3  -9   18.12    0.74
   2   3  -9    1.71    0.29
  -2  -3   9    1.34    0.22
   1   3  -9   10.34    0.54
   1   3  -9   10.45    0.42
  -1  -3   9   10.66    0.46
   0   3  -9    2.01    0.25
   0   3  -9    1.71    0.31
   0  -3   9    1.81    0.27
   1  -3   9   -0.01    0.21
   2  -3   9   10.44    0.55
   3  -3   9   15.51    0.69
   4  -3   9    1.50    0.33
   5  -3   9    0.40    0.29
   6   2  -9    0.33    0.29
   5   2  -9    0.04    0.20
   4   2  -9   -0.01    0.17
   3   2  -9   -0.08    0.16
   2   2  -9    7.29    0.48
  -2  -2   9    6.86    0.36
   1   2  -9   12.80    0.61
   1   2  -9   13.15    0.43
  -1  -2   9   11.91    0.48
   0   2  -9    0.43    0.23
   0  -2   9    1.04    0.24
   1  -2   9    0.51    0.23
   2  -2   9    4.90    0.47
   3  -2   9   10.68    0.59
   4  -2   9    0.72    0.29
   5  -2   9    0.55    0.31
   6   1  -9   -0.25    0.19
   5   1  -9    0.20    0.22
   4   1  -9    0.08    0.19
   3   1  -9    9.46    0.57
  -3  -1   9    9.80    0.43
   2   1  -9    1.21    0.28
  -2  -1   9    1.20    0.22
   1   1  -9    5.93    0.46
  -1  -1   9    5.50    0.39
   0  -1   9    2.31    0.31
   1  -1   9    2.26    0.33
   2  -1   9    1.39    0.31
   3  -1   9    2.68    0.38
   4  -1   9    3.86    0.47
   5  -1   9    0.02    0.25
   6   0  -9    1.61    0.39
   5   0  -9   -0.04    0.21
   4   0  -9    6.11    0.50
  -4   0   9    6.44    0.44
   3   0  -9    0.29    0.23
  -3   0   9    0.18    0.15
   2   0  -9    5.77    0.47
  -2   0   9    6.30    0.39
   1   0  -9    5.64    0.48
  -1   0   9    5.27    0.37
   0   0   9    3.90    0.36
   1   0   9    1.88    0.32
   2   0   9    2.67    0.36
   3   0   9   -0.18    0.19
   4   0   9    1.91    0.37
   5   0   9   -0.05    0.28
   6  -1  -9    0.26    0.28
   5  -1  -9    2.58    0.43
   4  -1  -9    0.06    0.21
  -4   1   9    0.07    0.12
   3  -1  -9   23.86    0.88
  -3   1   9   23.21    0.71
   2  -1  -9    6.67    0.51
  -2   1   9    6.11    0.40
   1  -1  -9    0.42    0.26
  -1   1   9    0.57    0.22
   0   1   9    3.37    0.37
   1   1   9    2.79    0.38
   2   1   9    8.90    0.55
   3   1   9    3.96    0.46
   4   1   9    0.08    0.24
   5   1   9   -0.08    0.28
   6  -2  -9   -0.09    0.25
   5  -2  -9    0.07    0.25
  -5   2   9    0.25    0.18
   4  -2  -9    0.92    0.30
  -4   2   9    1.22    0.25
   3  -2  -9    0.89    0.30
  -3   2   9    1.16    0.25
   2  -2  -9    9.11    0.60
  -2   2   9    9.51    0.47
  -1   2   9    1.25    0.25
   0   2   9    1.77    0.30
   1   2   9    8.19    0.49
   2   2   9    4.68    0.48
   3   2   9    2.43    0.38
   4   2   9    0.45    0.30
   5   2   9   -0.68    0.23
   5   2   9    0.11    0.14
   6  -3  -9    0.28    0.30
   5  -3  -9   -0.17    0.24
  -5   3   9    0.54    0.22
   4  -3  -9    4.15    0.50
  -4   3   9    4.96    0.40
   3  -3  -9    2.28    0.38
  -3   3   9    2.43    0.31
   2  -3  -9    0.07    0.26
  -2   3   9    0.05    0.15
  -1   3   9    0.43    0.21
   0   3   9    0.68    0.24
   1   3   9    4.40    0.30
   1   3   9    5.00    0.46
   2   3   9    8.82    0.45
   2   3   9    7.88    0.51
   3   3   9    0.95    0.23
   3   3   9    1.05    0.33
   4   3   9   -0.13    0.25
   4   3   9    0.11    0.14
   5   3   9   -0.06    0.29
   5   3   9    0.73    0.24
   6  -4  -9   -0.21    0.28
  -6   4   9    0.14    0.20
   5  -4  -9    0.33    0.29
  -5   4   9    0.11    0.16
   4  -4  -9    0.86    0.33
  -4   4   9    1.38    0.28
   3  -4  -9    1.51    0.37
  -3   4   9    2.02    0.30
  -2   4   9    5.61    0.40
  -1   4   9    0.93    0.24
   0   4   9   10.09    0.55
   1   4   9   19.93    0.73
   1   4   9   20.57    0.63
   2   4   9   -0.01    0.21
   2   4   9    0.46    0.16
   3   4   9    2.44    0.38
   3   4   9    2.21    0.31
   4   4   9    0.20    0.28
   4   4   9    0.41    0.18
   5   4   9    0.38    0.22
  -6   5   9    0.44    0.24
   5  -5  -9    0.10    0.33
  -5   5   9    0.92    0.26
   4  -5  -9    0.47    0.31
  -4   5   9    1.04    0.27
   3  -5  -9    0.77    0.35
  -3   5   9    1.23    0.26
  -2   5   9    1.07    0.24
  -1   5   9    4.75    0.39
   0   5   9    0.71    0.23
   1   5   9   16.33    0.57
   1   5   9   16.45    0.67
   2   5   9   19.39    0.69
   2   5   9   17.09    0.73
   3   5   9    0.51    0.29
   3   5   9    0.38    0.19
   4   5   9    2.25    0.46
   4   5   9    1.82    0.32
   5  -6  -9   -0.44    0.32
  -5   6   9    0.35    0.21
   4  -6  -9    1.38    0.39
  -4   6   9    2.03    0.35
  -3   6   9    0.26    0.18
  -2   6   9    0.44    0.19
  -1   6   9    0.82    0.25
   0   6   9    2.95    0.37
   1   6   9    0.48    0.23
   1   6   9    0.04    0.12
   2   6   9    0.70    0.27
   2   6   9    1.31    0.25
   3   6   9    1.47    0.33
   3   6   9    1.02    0.25
   4   6   9    0.87    0.26
  -5   7   9    2.50    0.40
  -4   7   9    1.29    0.31
  -3   7   9    3.25    0.42
  -2   7   9    0.23    0.17
  -1   7   9    0.92    0.24
   0   7   9    8.82    0.54
   1   7   9    0.22    0.21
   1   7   9    0.13    0.23
   2   7   9   -0.09    0.13
   2   7   9    0.37    0.21
   3   7   9    0.01    0.17
   4   7   9   -0.02    0.16
  -4   8   9    2.75    0.41
  -3   8   9    0.42    0.21
  -2   8   9    1.99    0.34
  -1   8   9    3.80    0.43
   0   8   9    0.25    0.19
   1   8   9    4.40    0.46
   2   8   9    0.04    0.14
   2   8   9    0.18    0.19
   3   8   9   -0.05    0.16
  -4   9   9    1.23    0.35
  -3   9   9    3.65    0.46
  -2   9   9    2.72    0.39
  -1   9   9    1.89    0.33
   0   9   9    5.05    0.45
   1   9   9    0.27    0.18
   2   9   9    1.92    0.33
   3   9   9    0.25    0.23
  -3  10   9    0.85    0.28
  -2  10   9    1.80    0.35
  -1  10   9    6.65    0.52
   0  10   9    0.42    0.19
   2  10   9    0.11    0.33
  -2  11   9    0.59    0.23
  -1  11   9    0.93    0.28
   0  11   9    2.52    0.37
   2  11 -10    1.95    0.39
   1  11 -10    0.75    0.29
   0  11 -10    0.04    0.23
  -1  11 -10    2.34    0.44
  -2  11 -10    0.15    0.26
   2  10 -10    2.74    0.41
   1  10 -10    0.15    0.24
   0  10 -10    2.97    0.43
  -1  10 -10    0.45    0.23
  -2  10 -10    6.00    0.63
   3 -10  10    0.08    0.27
   3   9 -10    1.93    0.36
   2   9 -10    2.42    0.37
   1   9 -10    5.25    0.51
   0   9 -10    0.66    0.28
  -1   9 -10    2.98    0.42
  -2   9 -10    2.72    0.44
   2  -9  10    2.48    0.40
   3  -9  10    3.07    0.47
   4   8 -10    1.19    0.31
   3   8 -10    0.30    0.21
   2   8 -10    0.34    0.22
   2   8 -10    0.11    0.22
   1   8 -10    1.41    0.29
   0   8 -10    4.15    0.45
  -1   8 -10    0.09    0.20
  -2   8 -10    0.37    0.24
   2  -8  10    0.02    0.21
   3  -8  10    3.21    0.47
   4   7 -10    0.22    0.23
   3   7 -10    0.01    0.19
   2   7 -10    0.98    0.26
   2   7 -10    1.01    0.25
   1   7 -10    1.35    0.27
   0   7 -10    1.23    0.28
  -1   7 -10    1.10    0.27
   1  -7  10    0.84    0.27
  -2   7 -10    1.56    0.31
   2  -7  10    2.03    0.35
   3  -7  10   -0.28    0.25
   4  -7  10   -0.16    0.24
   5   6 -10   -0.08    0.18
   4   6 -10    0.58    0.24
   3   6 -10   -0.02    0.19
   2   6 -10    1.15    0.29
   1   6 -10    3.77    0.41
   1   6 -10    3.41    0.36
   0   6 -10    3.94    0.40
   0  -6  10    3.13    0.36
  -1   6 -10    1.91    0.31
   1  -6  10    2.17    0.35
   2  -6  10    2.92    0.39
   3  -6  10    8.51    0.60
   4  -6  10    0.88    0.33
   5   5 -10    1.26    0.34
   4   5 -10   -0.17    0.19
   3   5 -10    0.02    0.18
   2   5 -10    3.75    0.43
   1   5 -10   18.49    0.63
   1   5 -10   17.42    0.71
   0   5 -10    9.60    0.50
   0   5 -10    9.29    0.55
   0  -5  10    9.88    0.51
  -1   5 -10    2.18    0.31
   1  -5  10    3.82    0.42
   2  -5  10    5.23    0.47
   3  -5  10    6.12    0.52
   4  -5  10   10.53    0.68
   5   4 -10   -0.01    0.22
   4   4 -10    0.07    0.20
   3   4 -10    7.62    0.54
   2   4 -10    3.74    0.42
   1   4 -10    4.60    0.45
   1   4 -10    4.89    0.34
  -1  -4  10    4.63    0.36
   0   4 -10   13.95    0.55
   0   4 -10   13.76    0.66
   0  -4  10   13.93    0.59
   1  -4  10    1.36    0.29
   2  -4  10    4.33    0.45
   3  -4  10    3.31    0.44
   4  -4  10    5.05    0.55
   6   3 -10    0.13    0.25
   5   3 -10    0.28    0.22
   4   3 -10    2.13    0.38
   3   3 -10    0.60    0.24
   2   3 -10    8.85    0.57
  -2  -3  10    8.20    0.47
   1   3 -10    4.99    0.48
   1   3 -10    5.11    0.32
  -1  -3  10    5.23    0.39
   0   3 -10    1.10    0.33
   0  -3  10    1.21    0.27
   1  -3  10    6.67    0.50
   2  -3  10    1.47    0.34
   3  -3  10    1.87    0.36
   4  -3  10    3.33    0.47
   6   2 -10    0.25    0.27
   5   2 -10   -0.02    0.23
   4   2 -10    0.08    0.21
   3   2 -10    3.20    0.41
   2   2 -10    5.04    0.47
  -2  -2  10    5.05    0.35
   1   2 -10    0.74    0.28
  -1  -2  10    0.86    0.25
   0   2 -10    4.11    0.45
   0  -2  10    5.15    0.45
   1  -2  10    2.44    0.36
   2  -2  10    6.54    0.50
   3  -2  10    0.12    0.26
   4  -2  10    0.14    0.25
   6   1 -10   -0.15    0.24
   5   1 -10    2.19    0.42
   4   1 -10    0.87    0.29
   3   1 -10    3.71    0.45
  -3  -1  10    4.83    0.34
   2   1 -10   15.02    0.74
  -2  -1  10   13.01    0.53
   1   1 -10    4.38    0.47
  -1  -1  10    4.64    0.40
   0  -1  10   11.15    0.55
   1  -1  10   25.25    0.82
   2  -1  10    1.84    0.34
   3  -1  10    4.66    0.51
   4  -1  10    3.12    0.45
   5  -1  10   -0.21    0.30
   6   0 -10   -0.27    0.25
   5   0 -10    0.05    0.24
   4   0 -10    1.05    0.32
   3   0 -10    4.87    0.52
  -3   0  10    4.97    0.36
   2   0 -10   14.78    0.73
  -2   0  10   14.91    0.58
   1   0 -10   -0.14    0.24
  -1   0  10    0.14    0.19
   0   0  10    4.91    0.45
   1   0  10   19.42    0.73
   2   0  10   12.70    0.64
   3   0  10    2.61    0.42
   4   0  10    2.21    0.41
   5   0  10    0.21    0.31
   6  -1 -10   -0.07    0.29
   5  -1 -10    0.37    0.30
   4  -1 -10    1.58    0.37
  -4   1  10    2.42    0.32
   3  -1 -10    6.38    0.54
  -3   1  10    5.64    0.38
   2  -1 -10    8.41    0.60
  -2   1  10    8.08    0.47
   1  -1 -10    0.10    0.27
  -1   1  10    0.15    0.20
   0   1  10    4.13    0.42
   1   1  10    9.78    0.55
   2   1  10    8.97    0.56
   3   1  10   -0.20    0.25
   4   1  10    0.06    0.26
   5   1  10   -0.48    0.29
   6  -2 -10   -0.60    0.22
   5  -2 -10    0.53    0.32
   4  -2 -10    2.48    0.42
  -4   2  10    3.83    0.41
   3  -2 -10    1.85    0.37
  -3   2  10    2.08    0.30
   2  -2 -10    8.94    0.67
  -2   2  10    8.25    0.46
  -1   2  10    4.21    0.41
   0   2  10    0.70    0.25
   1   2  10    0.93    0.28
   2   2  10    3.68    0.46
   3   2  10    3.45    0.45
   4   2  10   -0.17    0.25
   5   2  10    1.09    0.29
   5   2  10    0.53    0.36
   6  -3 -10    0.57    0.37
   5  -3 -10    2.30    0.46
  -5   3  10    2.93    0.40
   4  -3 -10    2.87    0.47
  -4   3  10    3.27    0.40
   3  -3 -10    5.01    0.55
  -3   3  10    5.00    0.41
   2  -3 -10    0.17    0.28
  -2   3  10    0.07    0.16
  -1   3  10    1.18    0.26
   0   3  10    0.23    0.24
   1   3  10    1.21    0.19
   1   3  10    1.25    0.30
   2   3  10   10.49    0.51
   2   3  10   11.05    0.61
   3   3  10    1.25    0.24
   3   3  10    1.19    0.36
   4   3  10    0.83    0.35
   4   3  10    0.83    0.23
   5  -4 -10    4.03    0.57
  -5   4  10    4.82    0.44
   4  -4 -10    7.28    0.64
  -4   4  10    7.63    0.50
   3  -4 -10    1.03    0.37
  -3   4  10    1.11    0.25
  -2   4  10    5.84    0.43
  -1   4  10    0.08    0.19
   0   4  10    0.82    0.26
   1   4  10   11.30    0.59
   1   4  10   10.33    0.47
   2   4  10    0.24    0.14
   2   4  10    0.81    0.29
   3   4  10    4.57    0.39
   3   4  10    4.98    0.54
   4   4  10    0.35    0.33
   4   4  10    0.66    0.23
   5  -5 -10    1.53    0.46
  -5   5  10    1.52    0.32
   4  -5 -10    2.81    0.50
  -4   5  10    3.07    0.40
  -3   5  10    2.16    0.35
  -2   5  10    0.66    0.23
  -1   5  10    3.58    0.40
   0   5  10    1.00    0.26
   1   5  10    3.80    0.44
   2   5  10    8.26    0.47
   2   5  10    8.33    0.56
   3   5  10   -0.14    0.26
   3   5  10    0.03    0.16
   4   5  10    0.20    0.29
   4   5  10    0.75    0.24
   5  -6 -10   -0.05    0.35
  -5   6  10    0.13    0.19
  -4   6  10    1.04    0.27
  -3   6  10    1.44    0.31
  -2   6  10    0.11    0.18
  -1   6  10    0.92    0.26
   0   6  10    0.25    0.21
   1   6  10    0.15    0.24
   2   6  10    2.07    0.37
   2   6  10    1.60    0.27
   3   6  10    1.26    0.28
   3   6  10    1.35    0.32
   4   6  10    2.18    0.38
  -4   7  10   -0.02    0.17
  -3   7  10    0.07    0.18
  -2   7  10    1.54    0.31
  -1   7  10    1.60    0.32
   0   7  10    0.85    0.28
   1   7  10    1.09    0.30
   2   7  10    0.33    0.24
   2   7  10    0.15    0.17
   3   7  10    0.07    0.16
  -4   8  10   -0.10    0.16
  -3   8  10   -0.17    0.17
  -2   8  10    0.27    0.21
  -1   8  10    2.30    0.38
   0   8  10    1.02    0.26
   1   8  10    0.93    0.28
   2   8  10    0.18    0.29
   2   8  10    0.53    0.23
   3   8  10    0.31    0.22
  -3   9  10    0.05    0.19
  -2   9  10    1.79    0.34
  -1   9  10    0.75    0.26
   0   9  10    3.13    0.41
   1   9  10    1.45    0.30
  -2  10  10    0.98    0.29
  -1  10  10    4.13    0.48
   0  10  10    0.83    0.26
   1  11 -11    2.28    0.39
   0  11 -11    1.90    0.39
  -1  11 -11    0.83    0.30
   2  10 -11    0.17    0.25
   1  10 -11    1.17    0.31
   0  10 -11    3.55    0.47
  -1  10 -11    0.86    0.32
  -2  10 -11    4.60    0.55
   2   9 -11    0.41    0.28
   1   9 -11    1.33    0.31
   0   9 -11    0.12    0.22
  -1   9 -11    3.85    0.50
  -2   9 -11    0.44    0.27
   3  -9  11    1.69    0.48
   4   8 -11    0.12    0.24
   3   8 -11    0.07    0.21
   1   8 -11    0.37    0.23
   0   8 -11    3.08    0.40
  -1   8 -11    1.05    0.29
   2  -8  11    4.11    0.50
   3  -8  11    0.07    0.30
   4   7 -11    0.46    0.29
   3   7 -11    0.99    0.31
   2   7 -11   -0.02    0.20
   1   7 -11    2.01    0.31
   0   7 -11    2.36    0.35
  -1   7 -11    3.66    0.44
   1  -7  11    2.16    0.36
   2  -7  11    0.15    0.28
   3  -7  11    1.26    0.38
   4   6 -11    0.31    0.24
   3   6 -11    1.72    0.36
   2   6 -11    3.12    0.42
   1   6 -11    0.03    0.21
   1   6 -11    0.40    0.18
   0   6 -11   14.98    0.66
  -1   6 -11    1.73    0.32
   1  -6  11    2.28    0.37
   2  -6  11    1.68    0.36
   3  -6  11    1.43    0.37
   5   5 -11    0.34    0.29
   4   5 -11    0.75    0.28
   3   5 -11    3.98    0.48
   2   5 -11    1.60    0.34
   1   5 -11    5.63    0.48
   1   5 -11    5.73    0.39
   0   5 -11    0.19    0.16
   0  -5  11   -0.20    0.20
   1  -5  11    4.41    0.47
   2  -5  11   -0.42    0.23
   3  -5  11    4.65    0.54
   4  -5  11    3.75    0.60
   5   4 -11    0.57    0.29
   4   4 -11    0.70    0.29
   3   4 -11    1.07    0.30
   2   4 -11    3.94    0.46
   1   4 -11    5.85    0.50
  -1  -4  11    6.28    0.43
   0   4 -11    6.34    0.54
   0  -4  11    6.19    0.47
   1  -4  11    3.98    0.44
   2  -4  11    0.11    0.26
   3  -4  11   -0.03    0.28
   4  -4  11    0.14    0.29
   5   3 -11    0.41    0.31
   4   3 -11    0.01    0.22
   3   3 -11    8.68    0.61
   2   3 -11    0.17    0.24
   1   3 -11    7.25    0.54
  -1  -3  11    7.25    0.46
   0   3 -11    1.12    0.34
   0  -3  11    2.20    0.34
   1  -3  11    0.89    0.29
   2  -3  11    0.14    0.28
   3  -3  11    0.42    0.28
   4  -3  11    0.00    0.28
   5   2 -11    0.15    0.26
   4   2 -11    3.35    0.48
   3   2 -11    1.30    0.33
   2   2 -11    4.92    0.52
  -2  -2  11    5.89    0.39
   1   2 -11    5.69    0.51
  -1  -2  11    5.81    0.43
   0  -2  11    3.32    0.40
   1  -2  11    0.84    0.29
   2  -2  11    1.29    0.33
   3  -2  11    0.40    0.29
   4  -2  11    0.66    0.36
   5   1 -11    1.29    0.38
   4   1 -11    0.86    0.31
   3   1 -11   12.14    0.72
  -3  -1  11   12.63    0.60
   2   1 -11   16.43    0.79
  -2  -1  11   18.24    0.65
   1   1 -11    2.21    0.40
  -1  -1  11    2.82    0.34
   0  -1  11    0.47    0.24
   1  -1  11    2.09    0.37
   2  -1  11    8.12    0.61
   3  -1  11    0.95    0.33
   4  -1  11    0.26    0.30
   5   0 -11    0.56    0.32
   4   0 -11    1.01    0.35
   3   0 -11    1.33    0.35
  -3   0  11    1.44    0.26
   2   0 -11   10.61    0.67
  -2   0  11   11.38    0.53
   1   0 -11    9.73    0.65
  -1   0  11    9.73    0.51
   0   0  11    2.40    0.36
   1   0  11    1.72    0.37
   2   0  11    0.66    0.30
   3   0  11    2.09    0.43
   4   0  11   -0.62    0.26
   5  -1 -11   -0.15    0.27
   4  -1 -11    0.12    0.32
  -4   1  11    0.51    0.18
   3  -1 -11   -0.31    0.23
  -3   1  11    0.14    0.17
   2  -1 -11    0.81    0.32
  -2   1  11    0.74    0.22
  -1   1  11    4.42    0.40
   0   1  11    1.14    0.29
   1   1  11    1.75    0.35
   2   1  11    4.58    0.52
   3   1  11   -0.08    0.25
   4   1  11    0.16    0.30
   5  -2 -11   -0.22    0.28
   4  -2 -11    1.14    0.41
  -4   2  11    1.70    0.29
   3  -2 -11    3.00    0.48
  -3   2  11    3.36    0.38
   2  -2 -11   -0.26    0.25
  -2   2  11   -0.15    0.15
  -1   2  11    0.23    0.19
   0   2  11    0.96    0.28
   1   2  11    1.07    0.31
   2   2  11    0.49    0.32
   3   2  11    0.37    0.29
   4   2  11    0.24    0.16
   4   2  11   -0.51    0.24
   5  -3 -11    0.81    0.40
  -5   3  11    1.17    0.27
   4  -3 -11    0.24    0.35
  -4   3  11    0.98    0.25
   3  -3 -11    1.06    0.37
  -3   3  11    1.18    0.28
  -2   3  11    0.80    0.23
  -1   3  11    1.55    0.30
   0   3  11    0.59    0.27
   1   3  11    3.26    0.43
   2   3  11    6.82    0.55
   2   3  11    8.23    0.47
   3   3  11    0.36    0.18
   3   3  11   -0.09    0.30
   4   3  11   -0.19    0.27
   4   3  11    0.20    0.15
   5  -4 -11    1.17    0.42
  -5   4  11    1.72    0.34
   4  -4 -11    1.96    0.46
  -4   4  11    1.47    0.29
   3  -4 -11    0.32    0.35
  -3   4  11    1.01    0.26
  -2   4  11    0.88    0.26
  -1   4  11    0.59    0.23
   0   4  11    1.06    0.31
   1   4  11    1.77    0.38
   2   4  11    3.70    0.47
   2   4  11    4.28    0.37
   3   4  11    0.49    0.29
   3   4  11    0.85    0.24
   4   4  11    1.22    0.41
   4   4  11    1.49    0.33
   5  -5 -11    0.51    0.41
  -5   5  11    1.20    0.31
   4  -5 -11    3.83    0.58
  -4   5  11    3.54    0.45
  -3   5  11    3.04    0.41
  -2   5  11    0.32    0.20
  -1   5  11    1.73    0.33
   0   5  11    3.75    0.44
   1   5  11   -0.07    0.22
   2   5  11    0.92    0.31
   2   5  11    1.33    0.26
   3   5  11    1.76    0.42
   3   5  11    2.02    0.33
   5  -6 -11    0.08    0.40
  -4   6  11    1.50    0.34
  -3   6  11    1.87    0.35
  -2   6  11    1.24    0.29
  -1   6  11    1.46    0.32
   0   6  11    0.05    0.20
   1   6  11    2.84    0.41
   2   6  11    0.41    0.28
   3   6  11    0.32    0.30
   3   6  11    0.70    0.24
  -4   7  11   -0.13    0.17
  -3   7  11    2.48    0.40
  -2   7  11    1.15    0.30
  -1   7  11    1.13    0.29
   0   7  11    3.51    0.44
   1   7  11    0.74    0.29
   2   7  11    1.07    0.33
   3   7  11    0.02    0.17
  -3   8  11    0.06    0.18
  -2   8  11    1.36    0.33
  -1   8  11    4.45    0.50
   0   8  11    1.03    0.30
   1   8  11    0.81    0.29
   2   8  11    0.12    0.23
  -2   9  11    0.30    0.22
  -1   9  11    0.24    0.20
   0   9  11    3.23    0.44
   1   9  11    0.25    0.20
   0  10  11    0.42    0.35
   1  10 -12    4.54    0.52
   0  10 -12    2.18    0.39
  -1  10 -12    1.83    0.36
   1   9 -12    0.50    0.22
   0   9 -12    0.88    0.28
  -1   9 -12    2.18    0.39
   3   8 -12    0.07    0.26
   1   8 -12    0.34    0.22
   0   8 -12    2.50    0.39
  -1   8 -12    1.55    0.34
   2  -8  12    2.44    0.47
   3   7 -12    1.34    0.35
   2   7 -12   -0.05    0.22
   0   7 -12    0.00    0.18
  -1   7 -12    0.68    0.23
   1  -7  12    0.39    0.47
   2  -7  12    2.07    0.42
   3  -7  12    2.77    0.58
   4   6 -12    0.77    0.32
   3   6 -12    0.57    0.31
   2   6 -12    0.86    0.30
   0   6 -12    1.22    0.26
   1  -6  12   -0.11    0.28
   2  -6  12   -0.14    0.26
   3  -6  12    0.08    0.34
   4   5 -12    0.33    0.28
   3   5 -12    0.52    0.28
   2   5 -12    0.90    0.35
   1   5 -12    0.01    0.27
   0   5 -12    0.23    0.15
   0  -5  12    0.02    0.23
   1  -5  12    0.56    0.34
   2  -5  12   -0.18    0.29
   3  -5  12    1.32    0.38
   4   4 -12   -0.25    0.22
   3   4 -12    0.09    0.28
   2   4 -12    3.95    0.51
   1   4 -12    0.01    0.26
   0  -4  12   -0.27    0.25
   1  -4  12   -0.39    0.26
   2  -4  12    0.36    0.31
   3  -4  12    2.48    0.49
   5   3 -12    0.21    0.32
   4   3 -12   -0.38    0.20
   3   3 -12   -0.02    0.28
   2   3 -12    4.82    0.57
   1   3 -12    6.87    0.62
  -1  -3  12    7.08    0.46
   0  -3  12   -0.22    0.24
   1  -3  12    3.42    0.48
   2  -3  12    0.62    0.31
   3  -3  12   -0.34    0.29
   5   2 -12    0.82    0.38
   4   2 -12    0.07    0.26
   3   2 -12    1.14    0.37
   2   2 -12    5.93    0.57
  -2  -2  12    7.40    0.46
   1   2 -12    4.10    0.52
  -1  -2  12    3.81    0.41
   0  -2  12    8.94    0.55
   1  -2  12    0.99    0.33
   2  -2  12    4.37    0.53
   3  -2  12    0.57    0.34
   5   1 -12    0.77    0.35
   4   1 -12    0.01    0.27
   3   1 -12    0.03    0.27
   2   1 -12    1.98    0.42
  -2  -1  12    2.36    0.33
   1   1 -12    6.43    0.60
  -1  -1  12    6.60    0.47
   0  -1  12   -0.12    0.24
   1  -1  12   17.43    0.78
   2  -1  12    0.88    0.37
   3  -1  12   -0.35    0.29
   5   0 -12    0.25    0.37
   4   0 -12   -0.06    0.27
   3   0 -12    0.76    0.35
  -3   0  12    1.18    0.26
   2   0 -12    2.28    0.44
  -2   0  12    2.95    0.37
  -1   0  12    2.59    0.36
   0   0  12   12.15    0.64
   1   0  12   -0.28    0.22
   2   0  12    4.79    0.56
   3   0  12    1.76    0.43
   5  -1 -12   -0.42    0.32
   4  -1 -12    0.08    0.30
   3  -1 -12   -0.02    0.28
  -3   1  12    0.01    0.15
   2  -1 -12   -0.60    0.23
  -2   1  12    0.20    0.19
  -1   1  12    1.45    0.31
   0   1  12    8.67    0.56
   1   1  12   14.84    0.73
   2   1  12    1.49    0.38
   3   1  12   -0.39    0.26
   5  -2 -12    0.17    0.35
   4  -2 -12    1.22    0.44
  -4   2  12    1.41    0.27
   3  -2 -12    0.20    0.34
  -3   2  12    1.16    0.26
   2  -2 -12    0.44    0.34
  -2   2  12    1.43    0.29
  -1   2  12    0.21    0.24
   0   2  12    0.45    0.28
   1   2  12   11.45    0.69
   2   2  12    0.29    0.33
   3   2  12    1.96    0.45
   4   2  12    0.01    0.12
   5  -3 -12    0.12    0.42
  -5   3  12    1.46    0.36
   4  -3 -12    1.25    0.43
  -4   3  12    1.13    0.28
   3  -3 -12    3.54    0.55
  -3   3  12    4.73    0.49
  -2   3  12    0.98    0.27
  -1   3  12    6.04    0.48
   0   3  12    1.28    0.32
   1   3  12    1.82    0.37
   2   3  12    9.66    0.68
   2   3  12   10.02    0.54
   3   3  12   -0.39    0.31
   3   3  12    0.18    0.16
   5  -4 -12   -0.39    0.41
  -5   4  12    0.61    0.25
   4  -4 -12    1.61    0.51
  -4   4  12    1.89    0.33
  -3   4  12    0.92    0.26
  -2   4  12    3.50    0.43
  -1   4  12    0.77    0.28
   0   4  12    2.88    0.44
   1   4  12    0.65    0.30
   2   4  12    3.04    0.49
   3   4  12    4.44    0.58
   3   4  12    4.24    0.46
   4  -5 -12    0.66    0.43
  -4   5  12    1.29    0.30
  -3   5  12    2.48    0.40
  -2   5  12    0.29    0.23
  -1   5  12    0.74    0.27
   0   5  12    0.64    0.27
   1   5  12    0.74    0.30
   2   5  12    0.03    0.27
   3   5  12    0.94    0.25
   3   5  12    0.91    0.35
  -3   6  12    1.56    0.34
  -2   6  12    1.75    0.33
  -1   6  12    0.92    0.29
   0   6  12    0.31    0.25
   1   6  12    1.41    0.35
   2   6  12    0.65    0.30
  -3   7  12    1.10    0.30
  -2   7  12    0.84    0.28
  -1   7  12    0.69    0.27
   0   7  12    1.50    0.34
   1   7  12    0.15    0.23
   2   7  12    1.37    0.37
  -1   8  12    0.92    0.29
   0   8  12    0.10    0.20
   1   8  12    0.65    0.29
   0   9 -13    0.49    0.24
   0   8 -13    0.96    0.28
   3   7 -13    0.88    0.39
   0   7 -13    0.34    0.20
   2  -7  13   -0.42    0.34
   3   6 -13    0.05    0.27
   2   6 -13    0.14    0.28
   1  -6  13   -0.23    0.30
   2  -6  13    5.97    0.64
   4   5 -13   -0.05    0.28
   3   5 -13    2.02    0.45
   2   5 -13   -0.11    0.27
   1   5 -13    1.19    0.40
   0  -5  13    2.17    0.40
   1  -5  13    0.88    0.37
   2  -5  13   -0.45    0.32
   4   4 -13   -0.12    0.30
   3   4 -13   -0.60    0.23
   2   4 -13    1.44    0.42
   1   4 -13    3.04    0.49
   0  -4  13    1.71    0.39
   1  -4  13   -0.09    0.29
   2  -4  13    0.46    0.35
   4   3 -13   -0.06    0.29
   3   3 -13    1.15    0.38
   2   3 -13    4.76    0.60
   1   3 -13    0.43    0.33
  -1  -3  13    0.99    0.30
   0  -3  13    0.17    0.26
   1  -3  13   -0.09    0.31
   2  -3  13   -0.36    0.28
   3  -3  13   -0.27    0.32
   4   2 -13    3.67    0.57
   3   2 -13   -0.03    0.28
   2   2 -13    4.95    0.61
  -2  -2  13    5.17    0.70
   1   2 -13   12.06    0.78
  -1  -2  13   11.77    0.61
   0  -2  13    3.77    0.46
   1  -2  13    0.00    0.30
   2  -2  13   -0.49    0.26
   3  -2  13   -0.37    0.28
   4   1 -13   -0.09    0.32
   3   1 -13    0.70    0.35
   2   1 -13    0.05    0.30
  -2  -1  13    0.79    0.25
  -1  -1  13    8.08    0.56
   0  -1  13    0.25    0.29
   1  -1  13    4.51    0.53
   2  -1  13    1.67    0.44
   3  -1  13   -0.35    0.32
   4   0 -13    0.69    0.38
   3   0 -13    2.13    0.47
  -3   0  13    3.47    0.41
   2   0 -13   -0.15    0.30
  -2   0  13    0.12    0.22
  -1   0  13    0.29    0.23
   0   0  13    1.39    0.35
   1   0  13   -0.08    0.27
   2   0  13    0.91    0.36
   3   0  13    1.27    0.44
   4  -1 -13    0.43    0.38
   3  -1 -13   -0.22    0.30
  -3   1  13    0.26    0.20
   2  -1 -13    4.09    0.57
  -2   1  13    4.31    0.46
  -1   1  13    1.32    0.31
   0   1  13    0.16    0.29
   1   1  13    0.23    0.29
   2   1  13    0.62    0.34
   3   1  13   -0.37    0.34
   4  -2 -13   -0.01    0.36
  -4   2  13    0.64    0.21
   3  -2 -13    0.96    0.45
  -3   2  13    1.58    0.31
  -2   2  13    0.05    0.19
  -1   2  13    1.00    0.31
   0   2  13    0.43    0.27
   1   2  13   -0.05    0.27
   2   2  13   -0.05    0.31
   4  -3 -13    1.02    0.46
  -4   3  13    1.33    0.29
   3  -3 -13    0.00    0.34
  -3   3  13    0.44    0.21
  -2   3  13    0.79    0.25
  -1   3  13    2.12    0.37
   0   3  13    0.42    0.30
   1   3  13   -0.01    0.24
   2   3  13    0.78    0.35
   3   3  13    0.41    0.17
   4  -4 -13    0.88    0.50
  -4   4  13    1.40    0.31
  -3   4  13    1.04    0.27
  -2   4  13    0.54    0.24
  -1   4  13    0.33    0.24
   0   4  13    1.99    0.41
   1   4  13    0.40    0.27
   2   4  13    0.81    0.37
  -3   5  13    1.07    0.29
  -2   5  13    0.66    0.26
  -1   5  13    0.58    0.28
   0   5  13    0.92    0.30
   1   5  13   -0.27    0.26
   2   5  13    0.01    0.46
  -2   6  13    1.21    0.32
  -1   6  13    2.07    0.39
   0   6  13    0.06    0.22
   1   6  13    1.79    0.38
   2   6 -14    3.48    0.59
   1  -6  14    0.10    0.37
   3   5 -14    1.24    0.47
   2   5 -14   -0.19    0.28
   1  -5  14   -0.17    0.34
   3   4 -14    0.12    0.34
   2   4 -14    0.77    0.40
   1   4 -14   -0.07    0.34
   0  -4  14    0.11    0.27
   1  -4  14    0.37    0.34
   2  -4  14   -0.21    0.38
   3   3 -14   -0.02    0.35
   2   3 -14    0.16    0.33
   1   3 -14   -0.25    0.30
  -1  -3  14    0.08    0.24
   0  -3  14   -0.44    0.24
   1  -3  14    0.42    0.39
   2  -3  14    1.03    0.41
   4   2 -14    0.11    0.34
   3   2 -14   -0.19    0.34
   2   2 -14    4.23    0.60
  -1  -2  14    0.94    0.28
   0  -2  14    0.63    0.31
   1  -2  14   -0.22    0.33
   2  -2  14    0.01    0.32
   4   1 -14   -0.18    0.34
   3   1 -14    0.03    0.33
   2   1 -14   -0.28    0.35
  -2  -1  14    0.38    0.23
  -1  -1  14    8.20    0.60
   0  -1  14    2.09    0.40
   1  -1  14    5.38    0.62
   2  -1  14    0.50    0.34
   4   0 -14    0.06    0.35
   3   0 -14    1.02    0.44
   2   0 -14   -0.12    0.34
  -2   0  14    0.07    0.20
  -1   0  14   -0.23    0.23
   0   0  14    5.66    0.57
   1   0  14    0.72    0.35
   2   0  14    0.10    0.35
   4  -1 -14   -0.59    0.33
   3  -1 -14   -0.02    0.36
  -3   1  14    0.05    0.17
  -2   1  14    2.96    0.41
  -1   1  14    3.59    0.48
   0   1  14    2.41    0.42
   1   1  14    4.27    0.57
   2   1  14    1.32    0.68
   4  -2 -14   -0.42    0.35
  -4   2  14    0.29    0.20
   3  -2 -14   -0.35    0.35
  -3   2  14    0.33    0.21
  -2   2  14    0.19    0.22
  -1   2  14    2.76    0.43
   0   2  14    7.69    0.61
   1   2  14    2.45    0.47
  -3   3  14    0.63    0.25
  -2   3  14    0.34    0.23
  -1   3  14    0.37    0.24
   0   3  14    5.32    0.58
   1   3  14    1.54    0.40
  -2   4  14    1.03    0.28
  -1   4  14    0.25    0.28
   0   4  14    0.53    0.29
  -1   5  14    0.50    0.29
   2   4 -15    0.43    0.43
   1   4 -15    1.71    0.48
   0  -4  15   -0.21    0.32
   1  -4  15    1.64    0.51
   2   3 -15   -0.36    0.33
   0  -3  15    3.43    0.52
   1  -3  15    1.57    0.48
   3   2 -15   -0.06    0.37
   2   2 -15   -0.94    0.36
  -1  -2  15    0.48    0.30
   0  -2  15    1.88    0.41
   1  -2  15   -0.08    0.32
   3   1 -15   -0.43    0.33
   2   1 -15    1.20    0.51
  -2  -1  15    1.25    0.32
  -1  -1  15    0.23    0.26
   0  -1  15    0.24    0.28
   3   0 -15   -0.48    0.35
  -2   0  15    0.30    0.24
  -1   0  15    0.73    0.31
   0   0  15    0.75    0.33
   3  -1 -15   -0.17    0.37
  -3   1  15    0.79    0.25
  -2   1  15    1.42    0.32
  -1   1  15    0.94    0.31
   0   1  15    0.76    0.32
  -2   2  15    0.74    0.27
  -1   2  15    0.19    0.24
   0   0   0    0.00    0.00
;
_shelx_hkl_checksum              20811
loop_
_space_group_symop_operation_xyz
'x, y, z'
'-x, -y, -z'
loop_
_atom_site_label
_atom_site_type_symbol
_atom_site_fract_x
_atom_site_fract_y
_atom_site_fract_z
_atom_site_U_iso_or_equiv
_atom_site_adp_type
_atom_site_occupancy
_atom_site_site_symmetry_order
_atom_site_calc_flag
_atom_site_refinement_flags_posn
_atom_site_refinement_flags_adp
S1 S 0.26266(11) 0.25867(5) 0.50848(5) 0.0395(2) Uani 1 1 d . .
N1 N -0.2349(4) 0.5022(2) 0.1736(2) 0.0703(8) Uani 1 1 d . .
O1 O 0.4485(3) 0.33654(16) 0.56265(16) 0.0557(5) Uani 1 1 d . .
O2 O 0.0982(3) 0.19912(16) 0.57063(15) 0.0531(5) Uani 1 1 d . .
O3 O 0.1060(3) 0.33136(14) 0.42800(15) 0.0426(4) Uani 1 1 d . .
O4 O -0.1608(4) 0.4364(2) 0.2638(2) 0.0786(8) Uani 1 1 d . .
C1 C 0.3808(4) 0.1563(2) 0.42225(19) 0.0337(5) Uani 1 1 d . .
C2 C 0.2689(4) 0.0443(2) 0.3993(2) 0.0390(6) Uani 1 1 d . .
H2 H 0.1317 0.0223 0.4299 0.047 Uiso 1 1 calc R U
C3 C 0.3634(5) -0.0341(2) 0.3306(2) 0.0434(6) Uani 1 1 d . .
H3 H 0.2898 -0.1098 0.3161 0.052 Uiso 1 1 calc R U
C4 C 0.5656(5) -0.0029(2) 0.2824(2) 0.0426(6) Uani 1 1 d . .
C5 C 0.6736(4) 0.1097(2) 0.3063(2) 0.0456(7) Uani 1 1 d . .
H5 H 0.8091 0.1321 0.2745 0.055 Uiso 1 1 calc R U
C6 C 0.5849(4) 0.1893(2) 0.3764(2) 0.0419(6) Uani 1 1 d . .
H6 H 0.6611 0.2642 0.3926 0.050 Uiso 1 1 calc R U
C7 C 0.6649(6) -0.0882(3) 0.2053(3) 0.0648(9) Uani 1 1 d . .
H7A H 0.5953 -0.0801 0.1319 0.097 Uiso 1 1 calc R U
H7B H 0.6310 -0.1677 0.2262 0.097 Uiso 1 1 calc R U
H7C H 0.8316 -0.0713 0.2085 0.097 Uiso 1 1 calc R U
C8 C -0.3166(5) 0.6608(2) 0.0023(2) 0.0498(7) Uani 1 1 d . .
H8 H -0.4381 0.6044 0.0114 0.060 Uiso 1 1 calc R U
C9 C -0.3467(6) 0.7411(3) -0.0779(2) 0.0576(8) Uani 1 1 d . .
H9 H -0.4879 0.7386 -0.1223 0.069 Uiso 1 1 calc R U
C10 C -0.1690(6) 0.8245(3) -0.0924(2) 0.0618(8) Uani 1 1 d . .
H10 H -0.1899 0.8786 -0.1465 0.074 Uiso 1 1 calc R U
C11 C 0.0401(6) 0.8284(3) -0.0270(3) 0.0650(9) Uani 1 1 d . .
H11 H 0.1606 0.8850 -0.0367 0.078 Uiso 1 1 calc R U
C12 C 0.0711(5) 0.7475(3) 0.0536(2) 0.0531(7) Uani 1 1 d . .
H12 H 0.2132 0.7502 0.0973 0.064 Uiso 1 1 calc R U
C13 C -0.1065(4) 0.6630(2) 0.0698(2) 0.0392(6) Uani 1 1 d . .
C14 C -0.0750(4) 0.5812(2) 0.1580(2) 0.0412(6) Uani 1 1 d . .
C15 C 0.1383(5) 0.5821(3) 0.2388(2) 0.0566(8) Uani 1 1 d . .
H15A H 0.1807 0.6603 0.2737 0.068 Uiso 1 1 calc R U
H15B H 0.2710 0.5546 0.2048 0.068 Uiso 1 1 calc R U
C16 C 0.0513(5) 0.4957(3) 0.3188(3) 0.0586(8) Uani 1 1 d . .
H16 H 0.0108 0.5411 0.3831 0.070 Uiso 1 1 calc R U
C17 C 0.2164(5) 0.4123(2) 0.3557(3) 0.0530(7) Uani 1 1 d . .
H17A H 0.3553 0.4544 0.3947 0.064 Uiso 1 1 calc R U
H17B H 0.2636 0.3680 0.2933 0.064 Uiso 1 1 calc R U
loop_
_atom_site_aniso_label
_atom_site_aniso_U_11
_atom_site_aniso_U_22
_atom_site_aniso_U_33
_atom_site_aniso_U_23
_atom_site_aniso_U_13
_atom_site_aniso_U_12
S1 0.0430(4) 0.0366(4) 0.0385(4) 0.0049(3) 0.0001(3) 0.0045(3)
N1 0.0500(15) 0.0698(17) 0.086(2) 0.0401(15) -0.0214(14) -0.0126(13)
O1 0.0578(12) 0.0491(11) 0.0541(12) -0.0077(9) -0.0151(10) -0.0012(9)
O2 0.0634(13) 0.0512(11) 0.0496(12) 0.0141(9) 0.0222(10) 0.0079(10)
O3 0.0369(9) 0.0380(10) 0.0530(11) 0.0134(8) 0.0003(8) 0.0030(8)
O4 0.0502(12) 0.0780(15) 0.1022(18) 0.0556(14) -0.0231(12) -0.0210(11)
C1 0.0314(12) 0.0328(12) 0.0365(14) 0.0095(10) -0.0011(10) 0.0025(10)
C2 0.0359(13) 0.0380(14) 0.0435(15) 0.0110(11) 0.0049(11) -0.0023(11)
C3 0.0469(15) 0.0358(14) 0.0463(16) 0.0027(12) 0.0014(13) -0.0004(12)
C4 0.0426(15) 0.0500(16) 0.0348(14) 0.0048(12) -0.0038(11) 0.0111(12)
C5 0.0321(13) 0.0602(18) 0.0460(16) 0.0123(13) 0.0068(12) 0.0041(12)
C6 0.0318(13) 0.0392(14) 0.0529(16) 0.0098(12) -0.0022(12) -0.0044(11)
C7 0.070(2) 0.074(2) 0.0528(19) -0.0044(16) 0.0100(16) 0.0184(17)
C8 0.0467(16) 0.0533(17) 0.0477(17) 0.0045(13) -0.0046(13) 0.0040(13)
C9 0.0590(19) 0.072(2) 0.0416(17) 0.0077(15) -0.0042(14) 0.0158(16)
C10 0.072(2) 0.073(2) 0.0449(18) 0.0231(15) 0.0081(16) 0.0195(18)
C11 0.062(2) 0.070(2) 0.067(2) 0.0304(17) 0.0126(17) 0.0010(16)
C12 0.0454(16) 0.0619(18) 0.0519(18) 0.0141(14) 0.0008(13) 0.0025(14)
C13 0.0409(14) 0.0416(14) 0.0351(14) 0.0024(11) 0.0011(11) 0.0072(11)
C14 0.0366(14) 0.0387(14) 0.0471(16) 0.0061(12) -0.0022(12) 0.0008(11)
C15 0.0494(16) 0.0546(17) 0.0620(19) 0.0248(15) -0.0147(14) -0.0080(14)
C16 0.0535(18) 0.0522(17) 0.069(2) 0.0206(15) -0.0038(15) 0.0033(14)
C17 0.0463(16) 0.0474(16) 0.0646(19) 0.0194(14) 0.0010(14) -0.0045(13)
loop_
_atom_type_symbol
_atom_type_description
_atom_type_scat_dispersion_real
_atom_type_scat_dispersion_imag
_atom_type_scat_source
C C 0.0033 0.0016 'International Tables Vol C Tables 4.2.6.8 and 6.1.1.4'
H H 0.0000 0.0000 'International Tables Vol C Tables 4.2.6.8 and 6.1.1.4'
N N 0.0061 0.0033 'International Tables Vol C Tables 4.2.6.8 and 6.1.1.4'
O O 0.0106 0.0060 'International Tables Vol C Tables 4.2.6.8 and 6.1.1.4'
S S 0.1246 0.1234 'International Tables Vol C Tables 4.2.6.8 and 6.1.1.4'
loop_
_geom_angle_atom_site_label_1
_geom_angle_atom_site_label_2
_geom_angle_atom_site_label_3
_geom_angle
O2 S1 O1 119.91(13)
O2 S1 O3 103.72(11)
O1 S1 O3 108.73(11)
O2 S1 C1 110.07(11)
O1 S1 C1 108.94(12)
O3 S1 C1 104.27(11)
C14 N1 O4 110.0(2)
C17 O3 S1 119.83(16)
N1 O4 C16 108.3(2)
C2 C1 C6 120.5(2)
C2 C1 S1 120.15(19)
C6 C1 S1 119.36(19)
C3 C2 C1 119.1(2)
C3 C2 H2 120.4
C1 C2 H2 120.4
C2 C3 C4 121.6(2)
C2 C3 H3 119.2
C4 C3 H3 119.2
C5 C4 C3 118.1(2)
C5 C4 C7 120.6(2)
C3 C4 C7 121.3(3)
C6 C5 C4 121.5(2)
C6 C5 H5 119.3
C4 C5 H5 119.3
C5 C6 C1 119.1(2)
C5 C6 H6 120.4
C1 C6 H6 120.4
C4 C7 H7A 109.5
C4 C7 H7B 109.5
H7A C7 H7B 109.5
C4 C7 H7C 109.5
H7A C7 H7C 109.5
H7B C7 H7C 109.5
C9 C8 C13 120.9(3)
C9 C8 H8 119.6
C13 C8 H8 119.6
C10 C9 C8 120.2(3)
C10 C9 H9 119.9
C8 C9 H9 119.9
C9 C10 C11 120.1(3)
C9 C10 H10 120.0
C11 C10 H10 120.0
C10 C11 C12 119.9(3)
C10 C11 H11 120.1
C12 C11 H11 120.1
C13 C12 C11 120.9(3)
C13 C12 H12 119.5
C11 C12 H12 119.5
C12 C13 C8 118.1(2)
C12 C13 C14 120.4(2)
C8 C13 C14 121.5(2)
N1 C14 C13 121.4(2)
N1 C14 C15 113.4(2)
C13 C14 C15 125.2(2)
C14 C15 C16 100.6(2)
C14 C15 H15A 111.7
C16 C15 H15A 111.7
C14 C15 H15B 111.7
C16 C15 H15B 111.7
H15A C15 H15B 109.4
O4 C16 C17 111.5(2)
O4 C16 C15 105.4(2)
C17 C16 C15 115.0(3)
O4 C16 H16 108.2
C17 C16 H16 108.2
C15 C16 H16 108.2
C16 C17 O3 109.1(2)
C16 C17 H17A 109.9
O3 C17 H17A 109.9
C16 C17 H17B 109.9
O3 C17 H17B 109.9
H17A C17 H17B 108.3
loop_
_geom_bond_atom_site_label_1
_geom_bond_atom_site_label_2
_geom_bond_distance
S1 O2 1.4244(19)
S1 O1 1.4249(19)
S1 O3 1.5739(18)
S1 C1 1.754(3)
N1 C14 1.270(3)
N1 O4 1.413(3)
O3 C17 1.461(3)
O4 C16 1.439(4)
C1 C2 1.385(3)
C1 C6 1.386(3)
C2 C3 1.375(3)
C2 H2 0.9300
C3 C4 1.387(4)
C3 H3 0.9300
C4 C5 1.383(4)
C4 C7 1.505(4)
C5 C6 1.378(4)
C5 H5 0.9300
C6 H6 0.9300
C7 H7A 0.9600
C7 H7B 0.9600
C7 H7C 0.9600
C8 C9 1.379(4)
C8 C13 1.394(4)
C8 H8 0.9300
C9 C10 1.370(4)
C9 H9 0.9300
C10 C11 1.375(4)
C10 H10 0.9300
C11 C12 1.387(4)
C11 H11 0.9300
C12 C13 1.384(4)
C12 H12 0.9300
C13 C14 1.465(4)
C14 C15 1.498(4)
C15 C16 1.513(4)
C15 H15A 0.9700
C15 H15B 0.9700
C16 C17 1.445(4)
C16 H16 0.9800
C17 H17A 0.9700
C17 H17B 0.9700
