#------------------------------------------------------------------------------
#$Date: 2020-12-02 07:23:44 +0200 (Wed, 02 Dec 2020) $
#$Revision: 259438 $
#$URL: file:///home/coder/svn-repositories/cod/cif/7/15/77/7157746.cif $
#------------------------------------------------------------------------------
#
# This file is available in the Crystallography Open Database (COD),
# http://www.crystallography.net/
#
# All data on this site have been placed in the public domain by the
# contributors.
#
data_7157746
loop_
_publ_author_name
'Li, Yibiao'
'Huang, Shuo'
'Li, Jiaming'
'Li, Jian'
'Ji, Xiaoliang'
'Liu, Jiasheng'
'Chen, Lu'
'Peng, Shiyong'
'Zhang, Kun'
_publ_section_title
;
 Access to 2-pyridinylamide and imidazopyridine from 2-fluoropyridine and
 amidine hydrochloride
;
_journal_issue                   45
_journal_name_full               'Organic &amp; Biomolecular Chemistry'
_journal_page_first              9292
_journal_page_last               9299
_journal_paper_doi               10.1039/D0OB01904F
_journal_volume                  18
_journal_year                    2020
_chemical_formula_moiety         'C7 H7 Br N2 O'
_chemical_formula_sum            'C7 H7 Br N2 O'
_chemical_formula_weight         215.06
_space_group_crystal_system      triclinic
_space_group_IT_number           2
_space_group_name_Hall           '-P 1'
_space_group_name_H-M_alt        'P -1'
_atom_sites_solution_hydrogens   geom
_audit_creation_date             2018-08-14
_audit_creation_method
;
Olex2 1.2
(compiled 2018.05.29 svn.r3508 for OlexSys, GUI svn.r5506)
;
_audit_update_record
;
2020-08-15 deposited with the CCDC.	2020-10-20 downloaded from the CCDC.
;
_cell_angle_alpha                81.742(8)
_cell_angle_beta                 88.786(9)
_cell_angle_gamma                85.859(10)
_cell_formula_units_Z            4
_cell_length_a                   3.8839(6)
_cell_length_b                   8.7474(9)
_cell_length_c                   22.6670(14)
_cell_measurement_reflns_used    2534
_cell_measurement_temperature    100.00(10)
_cell_measurement_theta_max      73.3760
_cell_measurement_theta_min      5.1030
_cell_volume                     760.07(15)
_computing_cell_refinement       'CrysAlisPro 1.171.38.43f (Rigaku OD, 2015)'
_computing_data_collection       'CrysAlisPro 1.171.38.43f (Rigaku OD, 2015)'
_computing_data_reduction        'CrysAlisPro 1.171.38.43f (Rigaku OD, 2015)'
_computing_molecular_graphics    'Olex2 (Dolomanov et al., 2009)'
_computing_publication_material  'Olex2 (Dolomanov et al., 2009)'
_computing_structure_refinement  'ShelXL (Sheldrick, 2015)'
_computing_structure_solution    'ShelXT (Sheldrick, 2015)'
_diffrn_ambient_environment      N~2~
_diffrn_ambient_temperature      100.00(10)
_diffrn_detector                 'CCD plate'
_diffrn_detector_area_resol_mean 5.2684
_diffrn_detector_type            AtlasS2
_diffrn_measured_fraction_theta_full 0.992
_diffrn_measured_fraction_theta_max 0.938
_diffrn_measurement_details
;
List of Runs (angles in degrees, time in seconds):

  # Type    Start    End  Width  t~exp~   \w     \q     \k     \f   Frames
#--------------------------------------------------------------------------
  1  \w    -65.00  27.00   1.00    1.00    --  -40.73  38.00  90.00   92
  2  \w    -47.00  -2.00   1.00    1.00    --  -40.73 125.00 150.00   45
  3  \w   -112.00 -16.00   1.00    1.00    --  -40.73 -38.00 -90.00   96
  4  \w      1.00  33.00   1.00    1.00    --   40.73 -99.00 150.00   32
  5  \w     30.00 102.00   1.00    1.00    --  106.95 -95.00  30.00   72
  6  \w     74.00 106.00   1.00    1.00    --  106.95-111.00 -30.00   32
  7  \w     82.00 109.00   1.00    1.00    --  106.95-111.00-150.00   27
  8  \w     49.00  96.00   1.00    1.00    --   40.73-125.00 -60.00   47
  9  \w     34.00  75.00   1.00    1.00    --  106.95-111.00-150.00   41
 10  \w     36.00 136.00   1.00    1.00    --  106.95 -61.00-150.00  100
 11  \w     63.00 177.00   1.00    1.00    --  106.95  15.00   0.00  114
 12  \w    123.00 150.00   1.00    1.00    --  106.95 107.00 125.00   27
 13  \w    105.00 141.00   1.00    1.00    --  106.95 111.00   0.00   36
 14  \w    113.00 151.00   1.00    1.00    --  106.95 178.00 -60.00   38
 15  \w     84.00 111.00   1.00    1.00    --  106.95 178.00 -60.00   27
 16  \w     85.00 171.00   1.00    1.00    --  106.95  45.00  60.00   86
 17  \w     37.00 122.00   1.00    1.00    --  106.95 -45.00  30.00   85
;
_diffrn_measurement_device       'four-circle diffractometer'
_diffrn_measurement_device_type  'SuperNova, Dual, Cu at zero, AtlasS2'
_diffrn_measurement_method       '\w scans'
_diffrn_orient_matrix_type
'CrysAlisPro convention (1999,Acta A55,543-557)'
_diffrn_orient_matrix_UB_11      -0.1142516000
_diffrn_orient_matrix_UB_12      0.1609892000
_diffrn_orient_matrix_UB_13      0.0164762000
_diffrn_orient_matrix_UB_21      0.1308188000
_diffrn_orient_matrix_UB_22      -0.0520381000
_diffrn_orient_matrix_UB_23      0.0639263000
_diffrn_orient_matrix_UB_31      0.3577890000
_diffrn_orient_matrix_UB_32      0.0565732000
_diffrn_orient_matrix_UB_33      -0.0189492000
_diffrn_radiation_monochromator  mirror
_diffrn_radiation_probe          x-ray
_diffrn_radiation_type           CuK\a
_diffrn_radiation_wavelength     1.54184
_diffrn_reflns_av_R_equivalents  0.0406
_diffrn_reflns_av_unetI/netI     0.0339
_diffrn_reflns_Laue_measured_fraction_full 0.992
_diffrn_reflns_Laue_measured_fraction_max 0.938
_diffrn_reflns_limit_h_max       4
_diffrn_reflns_limit_h_min       -2
_diffrn_reflns_limit_k_max       10
_diffrn_reflns_limit_k_min       -10
_diffrn_reflns_limit_l_max       24
_diffrn_reflns_limit_l_min       -27
_diffrn_reflns_number            4416
_diffrn_reflns_point_group_measured_fraction_full 0.992
_diffrn_reflns_point_group_measured_fraction_max 0.938
_diffrn_reflns_theta_full        67.684
_diffrn_reflns_theta_max         75.119
_diffrn_reflns_theta_min         1.970
_diffrn_source                   'micro-focus sealed X-ray tube'
_diffrn_source_type              'SuperNova (Cu) X-ray Source'
_exptl_absorpt_coefficient_mu    6.886
_exptl_absorpt_correction_T_max  1.00000
_exptl_absorpt_correction_T_min  0.42419
_exptl_absorpt_correction_type   multi-scan
_exptl_absorpt_process_details
;
CrysAlisPro 1.171.38.43f (Rigaku Oxford Diffraction, 2015)
Empirical absorption correction using spherical harmonics,
 implemented in SCALE3 ABSPACK scaling algorithm.
;
_exptl_crystal_colour            colourless
_exptl_crystal_colour_primary    colourless
_exptl_crystal_density_diffrn    1.879
_exptl_crystal_description       block
_exptl_crystal_F_000             424
_exptl_crystal_size_max          0.13
_exptl_crystal_size_mid          0.12
_exptl_crystal_size_min          0.11
_refine_diff_density_max         1.546
_refine_diff_density_min         -1.059
_refine_diff_density_rms         0.220
_refine_ls_extinction_method     none
_refine_ls_goodness_of_fit_ref   1.071
_refine_ls_hydrogen_treatment    constr
_refine_ls_matrix_type           full
_refine_ls_number_parameters     201
_refine_ls_number_reflns         2924
_refine_ls_number_restraints     0
_refine_ls_restrained_S_all      1.071
_refine_ls_R_factor_all          0.0688
_refine_ls_R_factor_gt           0.0627
_refine_ls_shift/su_max          0.001
_refine_ls_shift/su_mean         0.000
_refine_ls_structure_factor_coef Fsqd
_refine_ls_weighting_details
'w=1/[\s^2^(Fo^2^)+(0.0997P)^2^+8.9635P] where P=(Fo^2^+2Fc^2^)/3'
_refine_ls_weighting_scheme      calc
_refine_ls_wR_factor_gt          0.1877
_refine_ls_wR_factor_ref         0.1915
_reflns_Friedel_coverage         0.000
_reflns_number_gt                2649
_reflns_number_total             2924
_reflns_threshold_expression     'I > 2\s(I)'
_iucr_refine_instructions_details
;
TITL hs-201-1_a.res in P-1
    hs-201-1.res
    created by SHELXL-2018/3 at 11:23:59 on 14-Aug-2018
REM Old TITL HS-201-1 in P-1
REM SHELXT solution in P-1: R1 0.100, Rweak 0.005, Alpha 0.067
REM <I/s> 0.000 for 0 systematic absences, Orientation as input
REM Formula found by SHELXT: C16 N2 O2 Br2
CELL 1.54184 3.8839 8.7474 22.667 81.742 88.786 85.859
ZERR 4 0.0006 0.0009 0.0014 0.008 0.009 0.01
LATT 1
SFAC C H Br N O
UNIT 28 28 4 8 4

L.S. 10
PLAN  20
BOND
list 4
fmap 2 53
acta
REM <olex2.extras>
REM <HklSrc "%.\\HS-201-1.hkl">
REM </olex2.extras>

WGHT    0.099660    8.963489
FVAR       0.35764
BR1   3    0.853763    0.231438   -0.036506    11.00000    0.02054    0.01872 =
         0.01781   -0.00326   -0.00039   -0.00325
BR02  3    0.144081    0.747380    0.536665    11.00000    0.02045    0.02049 =
         0.01765   -0.00226   -0.00002   -0.00276
O003  5    0.928586    0.983716    0.261648    11.00000    0.02256    0.01891 =
         0.02072   -0.00014   -0.00220   -0.00428
O1    5    0.464962    0.483017    0.236623    11.00000    0.02293    0.01777 =
         0.01923   -0.00287   -0.00292   -0.00452
N1    4    0.311763    0.254918    0.212327    11.00000    0.02241    0.00964 =
         0.01921    0.00040   -0.00341   -0.00036
AFIX  43
H1    2    0.204554    0.173933    0.225340    11.00000   -1.20000
AFIX   0

N006  4    0.677163    0.755974    0.286344    11.00000    0.02796    0.01179 =
         0.01979   -0.00163   -0.00786   -0.00351
AFIX  43
H006  2    0.634008    0.672522    0.272792    11.00000   -1.20000
AFIX   0

N5    4    0.429890    0.129688    0.131081    11.00000    0.02035    0.01467 =
         0.01949   -0.00118   -0.00270   -0.00141
N008  4    0.457338    0.633895    0.373108    11.00000    0.01890    0.01701 =
         0.02119   -0.00158   -0.00237   -0.00263
C009  1    0.319730    0.761142    0.457335    11.00000    0.00410    0.02163 =
         0.01448   -0.00123   -0.00123   -0.00147
C00A  1    0.846950    0.860272    0.248139    11.00000    0.01569    0.01525 =
         0.02199   -0.00095   -0.01043    0.00262
C4    1    0.546866    0.124890    0.076108    11.00000    0.01877    0.01324 =
         0.02114   -0.00392   -0.00520   -0.00021
AFIX  43
H4    2    0.534486    0.033931    0.059705    11.00000   -1.20000
AFIX   0
C8    1    0.175312    0.316427    0.311271    11.00000    0.02652    0.01873 =
         0.01913   -0.00128   -0.00584   -0.00264
AFIX 137
H8A   2    0.352373    0.305882    0.340786    11.00000   -1.50000
H8B   2    0.071208    0.219738    0.312531    11.00000   -1.50000
H8C   2    0.002733    0.395227    0.319294    11.00000   -1.50000
AFIX   0
C7    1    0.331612    0.361035    0.250403    11.00000    0.02017    0.01193 =
         0.01934    0.00039   -0.00571    0.00448
C1    1    0.584487    0.394433    0.122536    11.00000    0.02765    0.01377 =
         0.01880   -0.00239   -0.00523   -0.00402
AFIX  43
H1A   2    0.594455    0.484458    0.139650    11.00000   -1.20000
AFIX   0
C2    1    0.704055    0.386814    0.065577    11.00000    0.01921    0.01564 =
         0.02574    0.00054   -0.00206   -0.00636
AFIX  43
H2    2    0.795284    0.472189    0.043056    11.00000   -1.20000
AFIX   0

C00G  1    0.929826    0.809858    0.188207    11.00000    0.02092    0.02063 =
         0.01836    0.00042   -0.00780   -0.00010
AFIX 137
H00A  2    0.719464    0.805818    0.167173    11.00000   -1.50000
H00B  2    1.050064    0.709123    0.193794    11.00000   -1.50000
H00C  2    1.072680    0.882558    0.165521    11.00000   -1.50000
AFIX   0

C6    1    0.447765    0.263522    0.153999    11.00000    0.02069    0.01275 =
         0.01834    0.00038   -0.00808   -0.00008
C00I  1    0.563477    0.766363    0.344701    11.00000    0.01856    0.01100 =
         0.02074   -0.00075   -0.01169    0.00269
C00J  1    0.340501    0.630929    0.428581    11.00000    0.02432    0.01818 =
         0.02011    0.00197    0.00033   -0.00235
AFIX  43
H00J  2    0.269889    0.538279    0.448979    11.00000   -1.20000
AFIX   0

C3    1    0.686548    0.249612    0.042157    11.00000    0.01095    0.01944 =
         0.01371   -0.00217   -0.00219    0.00268
C00L  1    0.432476    0.898244    0.428049    11.00000    0.02763    0.01452 =
         0.01740   -0.00225   -0.00428    0.00051
AFIX  43
H00L  2    0.422737    0.986618    0.446624    11.00000   -1.20000
AFIX   0
C00M  1    0.559759    0.901395    0.370709    11.00000    0.02248    0.01280 =
         0.01905   -0.00029   -0.00149   -0.00292
AFIX  43
H00M  2    0.641111    0.991390    0.349905    11.00000   -1.20000
AFIX   0
HKLF 4




REM  hs-201-1_a.res in P-1
REM wR2 = 0.1915, GooF = S = 1.071, Restrained GooF = 1.071 for all data
REM R1 = 0.0627 for 2649 Fo > 4sig(Fo) and 0.0688 for all 2924 data
REM 201 parameters refined using 0 restraints

END  
     
WGHT      0.1056      5.7469 

REM Highest difference peak  1.546,  deepest hole -1.059,  1-sigma level  0.220
Q1    1   1.0871  0.2210 -0.0262  11.00000  0.05    1.55
Q2    1   0.3876  0.7390  0.5521  11.00000  0.05    1.53
Q3    1   0.6019  0.2395 -0.0484  11.00000  0.05    1.40
Q4    1  -0.1001  0.7568  0.5263  11.00000  0.05    1.35
Q5    1   0.9134  0.3211 -0.0582  11.00000  0.05    1.10
Q6    1   0.0952  0.6593  0.5592  11.00000  0.05    1.04
Q7    1   0.1558  0.7792  0.4822  11.00000  0.05    0.97
Q8    1   0.8425  0.1590 -0.0014  11.00000  0.05    0.91
Q9    1   0.8538  0.1932  0.0144  11.00000  0.05    0.87
Q10   1   0.2038  0.8354  0.5113  11.00000  0.05    0.83
Q11   1   0.9028  0.1414 -0.0537  11.00000  0.05    0.82
Q12   1   0.4610  0.3807  0.0203  11.00000  0.05    0.78
Q13   1   1.0835  0.3559 -0.0989  11.00000  0.05    0.77
Q14   1   0.4934  0.2432  0.0417  11.00000  0.05    0.74
Q15   1   0.3616  0.2618 -0.0042  11.00000  0.05    0.73
Q16   1   1.3258  0.2296 -0.0126  11.00000  0.05    0.73
Q17   1   0.5138  0.7583  0.4587  11.00000  0.05    0.72
Q18   1   0.3421  0.2226  0.4254  11.00000  0.05    0.70
Q19   1   0.6153  0.1697 -0.0020  11.00000  0.05    0.69
Q20   1   0.1153  0.8869  0.4549  11.00000  0.05    0.67

  REM The information below was added by Olex2.
  REM
  REM R1 = 0.0627 for 2649 Fo > 4sig(Fo) and 0.0688 for all 4416 data
  REM n/a parameters refined using n/a restraints
  REM Highest difference peak 1.55, deepest hole -1.06
  REM Mean Shift 0, Max Shift -0.001.

  REM +++ Tabular Listing of Refinement Information +++
  REM R1_all = 0.0688
  REM R1_gt = 0.0627
  REM wR_ref = 0.1915
  REM GOOF = 1.071
  REM Shift_max = -0.001
  REM Shift_mean = 0
  REM Reflections_all = 4416
  REM Reflections_gt = 2649
  REM Parameters = n/a
  REM Hole = -1.06
  REM Peak = 1.55
  REM Flack = n/a

  
;
_cod_data_source_file            d0ob01904f2.cif
_cod_data_source_block           hs-201-1
_cod_database_code               7157746
_shelx_shelxl_version_number     2018/3
_shelx_space_group_comment
;
The symmetry employed for this shelxl refinement is uniquely defined
by the following loop, which should always be used as a source of
symmetry information in preference to the above space-group names.
They are only intended as comments.
;
_reflns_odcompleteness_completeness 99.38
_reflns_odcompleteness_iscentric 1
_reflns_odcompleteness_theta     66.97
_olex2_refinement_description
;
1. Fixed Uiso
 At 1.2 times of:
  All C(H) groups, All N(H) groups
 At 1.5 times of:
  All C(H,H,H) groups
2.a Aromatic/amide H refined with riding coordinates:
 N1(H1), N006(H006), C4(H4), C1(H1A), C2(H2), C00J(H00J), C00L(H00L), C00M(H00M)
2.b Idealised Me refined as rotating group:
 C8(H8A,H8B,H8C), C00G(H00A,H00B,H00C)
;
_olex2_submission_special_instructions 'No special instructions were received'
_oxdiff_exptl_absorpt_empirical_details
;
Empirical correction (ABSPACK) includes:
- Absorption correction using spherical harmonics
- Frame scaling
- Detector area scaling
;
_oxdiff_exptl_absorpt_empirical_full_max 2.348
_oxdiff_exptl_absorpt_empirical_full_min 0.601
loop_
_space_group_symop_operation_xyz
'x, y, z'
'-x, -y, -z'
loop_
_atom_site_label
_atom_site_type_symbol
_atom_site_fract_x
_atom_site_fract_y
_atom_site_fract_z
_atom_site_U_iso_or_equiv
_atom_site_adp_type
_atom_site_occupancy
_atom_site_site_symmetry_order
_atom_site_calc_flag
_atom_site_refinement_flags_posn
_atom_site_refinement_flags_adp
_atom_site_refinement_flags_occupancy
_atom_site_disorder_assembly
_atom_site_disorder_group
Br1 Br 0.85376(18) 0.23144(8) -0.03651(3) 0.0189(3) Uani 1 1 d . . . . .
Br02 Br 0.14408(18) 0.74738(8) 0.53667(3) 0.0195(3) Uani 1 1 d . . . . .
O003 O 0.9286(13) 0.9837(5) 0.2616(2) 0.0208(10) Uani 1 1 d . . . . .
O1 O 0.4650(13) 0.4830(5) 0.2366(2) 0.0198(10) Uani 1 1 d . . . . .
N1 N 0.3118(15) 0.2549(6) 0.2123(2) 0.0173(12) Uani 1 1 d . . . . .
H1 H 0.204554 0.173933 0.225340 0.021 Uiso 1 1 calc R . . . .
N006 N 0.6772(16) 0.7560(6) 0.2863(2) 0.0197(13) Uani 1 1 d . . . . .
H006 H 0.634008 0.672522 0.272792 0.024 Uiso 1 1 calc R . . . .
N5 N 0.4299(15) 0.1297(6) 0.1311(3) 0.0182(12) Uani 1 1 d . . . . .
N008 N 0.4573(16) 0.6339(7) 0.3731(3) 0.0190(12) Uani 1 1 d . . . . .
C009 C 0.3197(16) 0.7611(8) 0.4573(3) 0.0135(12) Uani 1 1 d . . . . .
C00A C 0.8470(18) 0.8603(7) 0.2481(3) 0.0178(13) Uani 1 1 d . . . . .
C4 C 0.5469(18) 0.1249(8) 0.0761(3) 0.0175(13) Uani 1 1 d . . . . .
H4 H 0.534486 0.033931 0.059705 0.021 Uiso 1 1 calc R . . . .
C8 C 0.1753(19) 0.3164(8) 0.3113(3) 0.0215(14) Uani 1 1 d . . . . .
H8A H 0.352373 0.305882 0.340786 0.032 Uiso 1 1 calc GR . . . .
H8B H 0.071208 0.219738 0.312531 0.032 Uiso 1 1 calc GR . . . .
H8C H 0.002733 0.395227 0.319294 0.032 Uiso 1 1 calc GR . . . .
C7 C 0.3316(18) 0.3610(7) 0.2504(3) 0.0176(13) Uani 1 1 d . . . . .
C1 C 0.5845(19) 0.3944(8) 0.1225(3) 0.0199(14) Uani 1 1 d . . . . .
H1A H 0.594455 0.484458 0.139650 0.024 Uiso 1 1 calc R . . . .
C2 C 0.7041(18) 0.3868(8) 0.0656(3) 0.0203(14) Uani 1 1 d . . . . .
H2 H 0.795284 0.472189 0.043056 0.024 Uiso 1 1 calc R . . . .
C00G C 0.9298(19) 0.8099(8) 0.1882(3) 0.0202(14) Uani 1 1 d . . . . .
H00A H 0.719464 0.805818 0.167173 0.030 Uiso 1 1 calc GR . . . .
H00B H 1.050064 0.709123 0.193794 0.030 Uiso 1 1 calc GR . . . .
H00C H 1.072680 0.882558 0.165521 0.030 Uiso 1 1 calc GR . . . .
C6 C 0.4478(18) 0.2635(7) 0.1540(3) 0.0175(14) Uani 1 1 d . . . . .
C00I C 0.5635(18) 0.7664(7) 0.3447(3) 0.0169(13) Uani 1 1 d . . . . .
C00J C 0.3405(19) 0.6309(8) 0.4286(3) 0.0213(14) Uani 1 1 d . . . . .
H00J H 0.269889 0.538279 0.448979 0.026 Uiso 1 1 calc R . . . .
C3 C 0.6865(17) 0.2496(8) 0.0422(3) 0.0149(13) Uani 1 1 d . . . . .
C00L C 0.4325(19) 0.8982(8) 0.4280(3) 0.0199(14) Uani 1 1 d . . . . .
H00L H 0.422737 0.986618 0.446624 0.024 Uiso 1 1 calc R . . . .
C00M C 0.5598(18) 0.9014(8) 0.3707(3) 0.0182(14) Uani 1 1 d . . . . .
H00M H 0.641111 0.991390 0.349905 0.022 Uiso 1 1 calc R . . . .
loop_
_atom_site_aniso_label
_atom_site_aniso_U_11
_atom_site_aniso_U_22
_atom_site_aniso_U_33
_atom_site_aniso_U_23
_atom_site_aniso_U_13
_atom_site_aniso_U_12
Br1 0.0205(5) 0.0187(4) 0.0178(4) -0.0033(3) -0.0004(3) -0.0032(3)
Br02 0.0205(5) 0.0205(4) 0.0177(4) -0.0023(3) 0.0000(3) -0.0028(3)
O003 0.023(3) 0.019(2) 0.021(2) -0.0001(18) -0.0022(19) -0.0043(19)
O1 0.023(3) 0.018(2) 0.019(2) -0.0029(18) -0.0029(19) -0.0045(19)
N1 0.022(3) 0.010(3) 0.019(3) 0.000(2) -0.003(2) 0.000(2)
N006 0.028(3) 0.012(3) 0.020(3) -0.002(2) -0.008(2) -0.004(2)
N5 0.020(3) 0.015(3) 0.019(3) -0.001(2) -0.003(2) -0.001(2)
N008 0.019(3) 0.017(3) 0.021(3) -0.002(2) -0.002(2) -0.003(2)
C009 0.004(3) 0.022(3) 0.014(3) -0.001(2) -0.001(2) -0.001(2)
C00A 0.016(3) 0.015(3) 0.022(3) -0.001(2) -0.010(3) 0.003(2)
C4 0.019(4) 0.013(3) 0.021(3) -0.004(2) -0.005(3) 0.000(2)
C8 0.027(4) 0.019(3) 0.019(3) -0.001(3) -0.006(3) -0.003(3)
C7 0.020(4) 0.012(3) 0.019(3) 0.000(2) -0.006(3) 0.004(3)
C1 0.028(4) 0.014(3) 0.019(3) -0.002(2) -0.005(3) -0.004(3)
C2 0.019(4) 0.016(3) 0.026(3) 0.001(3) -0.002(3) -0.006(3)
C00G 0.021(4) 0.021(3) 0.018(3) 0.000(3) -0.008(3) 0.000(3)
C6 0.021(4) 0.013(3) 0.018(3) 0.000(2) -0.008(3) 0.000(3)
C00I 0.019(3) 0.011(3) 0.021(3) -0.001(2) -0.012(3) 0.003(2)
C00J 0.024(4) 0.018(3) 0.020(3) 0.002(3) 0.000(3) -0.002(3)
C3 0.011(3) 0.019(3) 0.014(3) -0.002(2) -0.002(2) 0.003(2)
C00L 0.028(4) 0.015(3) 0.017(3) -0.002(2) -0.004(3) 0.001(3)
C00M 0.022(4) 0.013(3) 0.019(3) 0.000(2) -0.001(3) -0.003(3)
loop_
_atom_type_symbol
_atom_type_description
_atom_type_scat_dispersion_real
_atom_type_scat_dispersion_imag
_atom_type_scat_source
C C 0.0181 0.0091 'International Tables Vol C Tables 4.2.6.8 and 6.1.1.4'
H H 0.0000 0.0000 'International Tables Vol C Tables 4.2.6.8 and 6.1.1.4'
Br Br -0.6763 1.2805 'International Tables Vol C Tables 4.2.6.8 and 6.1.1.4'
N N 0.0311 0.0180 'International Tables Vol C Tables 4.2.6.8 and 6.1.1.4'
O O 0.0492 0.0322 'International Tables Vol C Tables 4.2.6.8 and 6.1.1.4'
loop_
_geom_angle_atom_site_label_1
_geom_angle_atom_site_label_2
_geom_angle_atom_site_label_3
_geom_angle
_geom_angle_site_symmetry_1
_geom_angle_site_symmetry_3
_geom_angle_publ_flag
C7 N1 C6 127.0(6) . . ?
C00A N006 C00I 128.7(6) . . ?
C4 N5 C6 117.8(6) . . ?
C00J N008 C00I 118.3(6) . . ?
C00J C009 Br02 119.7(5) . . ?
C00L C009 Br02 121.0(5) . . ?
C00L C009 C00J 119.3(6) . . ?
O003 C00A N006 122.8(6) . . ?
O003 C00A C00G 123.1(6) . . ?
N006 C00A C00G 114.1(6) . . ?
N5 C4 C3 122.5(6) . . ?
O1 C7 N1 122.9(6) . . ?
O1 C7 C8 122.1(6) . . ?
N1 C7 C8 115.0(6) . . ?
C2 C1 C6 118.1(6) . . ?
C1 C2 C3 118.9(6) . . ?
N5 C6 N1 112.5(6) . . ?
N5 C6 C1 123.0(6) . . ?
C1 C6 N1 124.4(6) . . ?
N008 C00I N006 113.2(6) . . ?
N008 C00I C00M 123.1(7) . . ?
C00M C00I N006 123.7(6) . . ?
N008 C00J C009 122.4(6) . . ?
C4 C3 Br1 119.7(5) . . ?
C4 C3 C2 119.6(6) . . ?
C2 C3 Br1 120.7(5) . . ?
C00M C00L C009 118.6(6) . . ?
C00L C00M C00I 118.3(6) . . ?
loop_
_geom_bond_atom_site_label_1
_geom_bond_atom_site_label_2
_geom_bond_distance
_geom_bond_site_symmetry_2
_geom_bond_publ_flag
Br1 C3 1.909(6) . ?
Br02 C009 1.900(6) . ?
O003 C00A 1.228(8) . ?
O1 C7 1.217(8) . ?
N1 C7 1.362(8) . ?
N1 C6 1.407(9) . ?
N006 C00A 1.361(9) . ?
N006 C00I 1.399(9) . ?
N5 C4 1.323(9) . ?
N5 C6 1.354(9) . ?
N008 C00I 1.331(9) . ?
N008 C00J 1.325(9) . ?
C009 C00J 1.388(10) . ?
C009 C00L 1.380(10) . ?
C00A C00G 1.509(9) . ?
C4 C3 1.380(10) . ?
C8 C7 1.506(9) . ?
C1 C2 1.372(10) . ?
C1 C6 1.393(10) . ?
C2 C3 1.387(9) . ?
C00I C00M 1.393(9) . ?
C00L C00M 1.378(10) . ?
loop_
_refln_index_h
_refln_index_k
_refln_index_l
_refln_F_squared_meas
_refln_F_squared_sigma
0 0 1 0.15 0.04
0 0 2 493.19 3.14
0 0 3 0.05 0.08
0 0 4 924.86 6.18
0 0 5 0.38 0.19
0 0 6 45.62 1.7
0 0 -7 0.19 0.12
0 0 7 0.4 0.27
0 0 8 68.72 2.43
0 0 -8 68.19 1.81
0 0 -9 1 0.24
0 0 9 1.47 0.66
0 0 -10 1543.72 9.53
0 0 10 1595.89 13.16
0 0 -11 0.31 0.17
0 0 11 0.65 0.55
0 0 12 1073.14 12.34
0 0 13 -0.07 0.25
0 0 14 638.03 10.9
0 0 15 0.43 0.45
0 0 16 190.67 6.84
0 0 16 190.7 6.18
0 0 -17 0.49 0.42
0 0 -17 0.07 0.31
0 0 17 0.24 0.3
0 0 17 0.24 0.31
0 0 -18 241.26 7.14
0 0 18 233.32 7.38
0 0 -18 215.1 6.69
0 0 -18 201.79 6.62
0 0 -19 0.26 0.26
0 0 -19 -0.12 0.48
0 0 -19 0.08 0.29
0 0 -20 13.54 1.76
0 0 -20 14.46 1.79
0 0 -20 15.75 1.9
0 0 -21 0.24 0.33
0 0 -21 -0.4 0.52
0 0 -22 18.75 2
0 0 -23 0.12 0.22
0 0 -24 240.87 6.42
0 0 -25 0.3 0.34
0 0 -26 229.35 5.41
0 0 -27 0.07 0.14
0 1 -26 37.11 2.14
0 1 -25 0.4 0.27
0 1 -24 137.18 4.87
0 1 -23 10.33 1.43
0 1 -22 154.91 5.61
0 1 -21 1.39 0.62
0 1 -20 528.38 10.81
0 1 -20 537.3 11.41
0 1 -19 0.55 0.37
0 1 -19 0.27 0.48
0 1 -18 162.84 6.25
0 -1 18 182.99 7.57
0 -1 18 167.87 6.62
0 1 -18 170.53 6.15
0 1 -17 19.17 2.03
0 -1 17 23.66 2.57
0 1 -17 22.8 2.22
0 -1 16 179.05 6.54
0 1 -16 165.44 5.74
0 -1 15 4 0.96
0 -1 14 4.88 0.95
0 -1 13 46.48 2.83
0 -1 12 666.39 10.25
0 -1 11 33.83 2.25
0 -1 10 333.53 6.5
0 -1 9 34.31 1.96
0 -1 8 1448.71 11.75
0 -1 7 14.83 1.13
0 -1 6 1675.29 11.16
0 -1 5 0.1 0.16
0 -1 4 589.38 5.38
0 -1 3 2.84 0.34
0 -1 2 97.52 1.78
0 1 0 10.95 0.34
0 1 0 10.35 0.49
0 1 1 4.57 0.37
0 1 2 52.72 1.43
0 1 3 1.06 0.21
0 1 4 674.94 5.34
0 1 5 0.05 0.12
0 1 6 1786.09 9.94
0 1 6 1753.7 11.28
0 1 7 13.5 0.99
0 1 7 12.08 1.04
0 1 8 1485.82 11.84
0 1 8 1512.96 10.77
0 1 9 38.71 2.05
0 1 9 41.49 1.9
0 1 10 196.25 4.47
0 1 10 185.01 4.77
0 1 11 30.36 1.85
0 1 11 32.42 2.15
0 1 12 794.67 9.67
0 -1 -12 772.88 9.08
0 -1 -13 39.2 2.04
0 1 13 40.27 2.33
0 1 14 3.04 1.3
0 1 15 7.79 1.15
0 1 16 312.08 7.68
0 1 17 20.6 2.1
0 -1 -17 19.54 2.06
0 -1 -18 325.41 8.31
0 -1 -18 355.8 8.84
0 1 18 333.57 8.82
0 -1 -19 1.61 0.65
0 -1 -19 1.75 0.65
0 -1 -20 525.37 10.73
0 -1 -20 549.78 10.92
0 -1 -21 3.08 0.88
0 -1 -21 1.86 0.67
0 -1 -21 2.21 0.6
0 -1 -22 111.72 4.88
0 -1 -22 105.78 4.63
0 -1 -22 111.28 4.79
0 -1 -23 9.28 1.38
0 -1 -23 8.34 1.3
0 -1 -24 87.06 3.89
0 -1 -24 75.15 3.58
0 -1 -25 0.77 0.38
0 -1 -26 29.5 1.93
0 -1 -27 4.83 0.69
0 2 -26 168.67 4.28
0 2 -25 2.22 0.58
0 2 -24 125.54 4.54
0 2 -23 6.52 1.12
0 2 -22 21.83 2.12
0 2 -21 1.13 0.56
0 2 -20 1.17 0.49
0 2 -20 1.77 0.7
0 2 -19 22.26 2.34
0 2 -19 23.32 2.29
0 2 -18 119.4 5.34
0 2 -18 114.5 4.98
0 -2 17 0.03 0.33
0 2 -17 0.08 0.6
0 2 -17 0.28 0.43
0 2 -16 725.17 12.86
0 -2 16 756.21 14.05
0 2 -16 739.35 12.48
0 -2 15 28.78 2.64
0 2 -15 28.66 2.38
0 2 -15 23.83 2.26
0 -2 14 619.07 11.66
0 -2 13 30.21 2.51
0 -2 12 1084.19 14.03
0 -2 11 1.28 0.6
0 -2 10 253.57 6.12
0 -2 9 40.07 2.31
0 -2 8 379.27 6.78
0 -2 7 32.51 1.86
0 -2 6 687.75 7.74
0 -2 5 121.78 3.04
0 -2 4 718.82 7.1
0 -2 3 60.33 1.92
0 -2 2 1442.88 8.83
0 2 -1 217.07 2.25
0 2 -1 221.25 3.19
0 2 0 3713.79 13.42
0 2 0 3703.17 9.23
0 2 1 295.71 3.99
0 2 2 1631.1 10.26
0 2 3 55.28 2.06
0 2 4 487.91 6.26
0 2 5 171.76 3.86
0 2 6 428.62 6.19
0 2 7 32.45 1.78
0 2 8 741.62 8.42
0 2 9 51.63 2.31
0 2 10 509.83 7.48
0 2 11 9.64 1.12
0 2 12 1449.4 13.82
0 2 13 34.54 2.32
0 2 14 546.53 9.41
0 -2 -14 566.46 9.26
0 -2 -15 52.17 2.81
0 2 15 55.03 3.13
0 -2 -16 574.7 12.7
0 2 16 554.21 10.46
0 -2 -17 0.17 0.3
0 2 17 -0.49 0.67
0 -2 -18 93.85 4.6
0 -2 -19 17.45 2.02
0 -2 -20 1.23 0.63
0 -2 -20 0.9 0.56
0 -2 -21 1.29 0.65
0 -2 -21 0.69 0.43
0 -2 -22 48.4 3.14
0 -2 -22 47.82 3.17
0 -2 -23 5.32 1.08
0 -2 -23 4.61 0.99
0 -2 -24 242.95 6.63
0 -2 -24 243.36 6.48
0 -2 -25 1.34 0.44
0 -2 -25 1.39 0.47
0 -2 -26 197.07 4.84
0 -2 -26 204.99 4.92
0 -2 -27 0.44 0.23
0 3 -24 162.13 4.86
0 3 -23 0.35 0.31
0 3 -22 311.23 7.78
0 3 -21 8.19 1.37
0 3 -20 379.68 9.23
0 3 -20 395.25 9.31
0 3 -19 84.78 4.54
0 3 -19 82.03 4.34
0 3 -18 2.18 0.68
0 3 -18 2.24 0.79
0 3 -17 2.41 1.01
0 3 -17 1.36 0.75
0 3 -16 15.85 1.92
0 -3 16 15.61 2.21
0 3 -16 14.2 1.82
0 3 -15 17.27 2
0 3 -15 16.34 1.87
0 -3 15 19.72 2.41
0 3 -14 8.86 1.36
0 3 -14 7.57 1.27
0 -3 14 8.81 1.55
0 -3 13 12.26 1.74
0 3 -13 9.96 1.39
0 -3 12 144.74 5.41
0 -3 11 47.56 3.07
0 -3 10 487.04 9.29
0 -3 9 8.06 1.24
0 -3 8 731.54 10.32
0 -3 7 10.47 1.16
0 -3 6 424.7 6.96
0 -3 5 55.39 2.44
0 -3 4 1182.55 10.91
0 -3 3 5.59 0.74
0 3 -3 5.17 0.5
0 -3 2 388.19 5.74
0 3 -2 354.12 3.72
0 3 -1 198.68 3.83
0 3 -1 178.84 2.53
0 3 0 31.88 1.59
0 3 1 250.08 4.63
0 3 2 1177.66 10.4
0 -3 -3 15.36 0.59
0 3 3 32.93 1.88
0 3 4 2526.68 16.75
0 3 5 62.85 2.73
0 3 6 901.79 10.72
0 3 7 33.6 2.11
0 3 8 860.26 10.91
0 3 9 0.57 0.32
0 3 10 318 6.98
0 3 11 63.21 3.23
0 3 12 40 2.67
0 3 13 9 1.31
0 3 14 125.17 5.01
0 3 15 37.62 2.83
0 -3 -15 34.21 3.04
0 -3 -16 188.34 6.56
0 -3 -16 196.73 6.27
0 3 16 204.96 6.92
0 -3 -17 0.19 0.73
0 -3 -17 0.1 0.29
0 3 17 0.18 0.56
0 -3 -18 55.86 4.16
0 -3 -18 52.67 3.62
0 -3 -19 61.84 3.77
0 -3 -20 503.39 10.59
0 -3 -21 20.97 2.15
0 -3 -21 19 2.04
0 -3 -22 202.36 6.4
0 -3 -22 206.89 6.49
0 -3 -23 0.59 0.46
0 -3 -23 0.74 0.47
0 -3 -24 104.39 4.24
0 -3 -24 93.84 3.84
0 -3 -25 15.32 1.46
0 -3 -25 17.2 1.64
0 -3 -26 4.37 0.69
0 -3 -26 4.92 0.81
0 -3 -27 3.53 0.54
0 -4 24 28.85 1.86
0 -4 23 5.54 0.97
0 4 -21 9.17 1.36
0 4 -20 1.63 0.8
0 4 -19 59.74 3.74
0 4 -19 52.76 3.31
0 4 -18 44.23 3.19
0 4 -18 43.94 3.27
0 4 -17 16.72 2.04
0 4 -17 15.93 1.98
0 4 -16 812.59 13.82
0 4 -16 823.55 14
0 4 -15 0.99 0.62
0 4 -15 1.73 0.84
0 -4 14 468.89 12.06
0 4 -14 500.59 10.63
0 4 -14 502.95 10.79
0 4 -13 18.94 2.07
0 4 -13 17.6 1.96
0 -4 13 14.99 2.06
0 4 -12 451.18 9.75
0 4 -12 454.03 9.92
0 -4 12 452.18 10.72
0 4 -11 28.67 2.44
0 4 -11 31.07 2.5
0 -4 11 32.77 2.8
0 -4 10 210.91 6.87
0 -4 9 19.59 2.05
0 -4 8 36.6 2.59
0 -4 7 192.42 5.62
0 -4 6 268.81 6.33
0 -4 5 26.11 1.97
0 -4 4 1458.19 14.29
0 -4 3 0 0.25
0 -4 2 541.38 8.23
0 -4 1 2.23 0.66
0 4 0 1283.71 12.16
0 4 1 26.22 1.77
0 4 2 337.9 6.69
0 4 3 10.64 1.21
0 4 4 1105.09 12.58
0 4 5 33.4 2.29
0 4 6 72.84 3.49
0 4 7 303.98 7.17
0 4 8 354.48 7.91
0 4 9 6.99 1.18
0 4 10 648.42 11.13
0 4 11 14.85 1.76
0 4 12 881.56 13.6
0 4 13 10.22 1.54
0 -4 -14 686.48 13.96
0 4 14 733.06 13
0 4 15 18.74 2.15
0 -4 -15 18.48 2.32
0 -4 -16 837.17 13.68
0 -4 -16 937.68 16.28
0 -4 -16 910.47 14.49
0 4 16 850.95 14.89
0 -4 -17 23.21 2.6
0 -4 -17 17.55 2.06
0 -4 -17 20.76 2.24
0 -4 -18 15.32 1.93
0 -4 -18 14.73 2.1
0 -4 -19 63.52 4.34
0 -4 -19 57.83 3.77
0 -4 -20 71.86 4.02
0 -4 -21 6.21 1.15
0 -4 -22 151.26 5.44
0 -4 -22 130.85 4.97
0 -4 -23 3.49 0.79
0 -4 -23 8.5 1.47
0 -4 -24 121.67 4.11
0 -4 -24 140.25 4.72
0 -4 -25 4.46 0.71
0 -4 -25 6.11 0.94
0 -4 -26 271.64 5.61
0 -4 -27 0.42 0.24
0 -5 22 157.09 4.67
0 -5 21 2.11 0.65
0 -5 20 181.92 5.93
0 -5 19 8.03 1.38
0 -5 18 38.69 3.07
0 5 -18 33.67 2.52
0 5 -17 19.54 2.03
0 5 -17 24.78 2.49
0 5 -16 4.39 1.16
0 5 -16 5.1 1.08
0 5 -15 3.93 1.01
0 5 -15 3.95 1.06
0 5 -14 4.39 1.07
0 5 -14 4.68 1.18
0 5 -13 134.1 5.79
0 5 -13 129.35 5.33
0 5 -12 192.23 6.86
0 5 -12 192.9 6.44
0 5 -11 0.36 0.36
0 5 -11 0.71 0.53
0 -5 11 0.6 0.42
0 5 -10 271.86 7.4
0 -5 10 272.68 8.77
0 5 -10 274.95 8.15
0 -5 9 13.83 1.95
0 5 -9 14.23 1.84
0 5 -9 13.48 1.65
0 -5 8 496.25 10.72
0 5 -8 512.47 10.57
0 -5 8 512.42 11.12
0 5 -8 486.21 9.5
0 -5 7 2.15 0.77
0 -5 6 153.3 5.59
0 -5 5 16.83 1.85
0 -5 4 485.98 9.76
0 -5 3 74.96 3.74
0 -5 2 12.59 1.5
0 -5 1 94.76 4.05
0 -5 0 59.49 3.28
0 5 1 120.69 4.53
0 5 2 351.01 7.86
0 5 3 57.06 3.28
0 5 4 1466.09 16.83
0 5 5 -0.03 0.41
0 5 6 323.22 8.05
0 5 7 9.1 1.39
0 5 8 530.26 10.74
0 5 9 80.76 4.3
0 5 10 114.45 5.2
0 5 11 10.44 1.61
0 -5 -11 8.81 1.56
0 -5 -12 14.95 2.01
0 5 12 14.85 1.93
0 -5 -13 177.88 6.98
0 5 13 186.23 6.92
0 5 14 147.74 6.29
0 -5 -14 156.9 6.63
0 -5 -15 1.64 0.79
0 5 15 1.15 0.57
0 -5 -16 102.5 5.42
0 -5 -16 92.8 4.56
0 -5 -17 6.43 1.39
0 -5 -17 5.25 1.07
0 -5 -18 83.8 4.44
0 -5 -18 88.57 4.98
0 -5 -19 1.47 0.73
0 -5 -19 0.56 0.44
0 -5 -20 271.07 8.47
0 -5 -20 253 7.35
0 -5 -21 0.13 0.3
0 -5 -22 275.57 6.92
0 -5 -22 238.99 6.32
0 -5 -23 19.4 1.75
0 -5 -23 16.46 1.53
0 -5 -24 42.44 2.42
0 -5 -25 4.12 0.71
0 -5 -26 3.24 0.59
0 -6 20 40.39 2.39
0 -6 19 13.43 1.53
0 -6 18 57.49 3.36
0 6 -17 5.52 0.99
0 -6 17 7.02 1.33
0 -6 16 339.96 8.89
0 6 -16 319.47 7.88
0 6 -15 3.26 0.9
0 -6 15 2.44 0.85
0 6 -14 106.73 4.75
0 -6 14 107.7 5.25
0 -6 13 1.03 0.65
0 6 -13 1.13 0.65
0 6 -12 356.04 8.75
0 -6 12 357.21 9.81
0 -6 11 50.73 3.68
0 6 -11 50.24 3.27
0 -6 10 61.49 4.07
0 6 -10 62.8 3.63
0 6 -9 54.84 3.36
0 -6 9 54.59 4.34
0 -6 9 56.31 3.92
0 -6 8 9.43 1.75
0 -6 8 10.9 1.77
0 6 -8 10.49 1.47
0 -6 7 96.94 5.09
0 -6 7 93.32 5.26
0 6 -7 91.14 4.29
0 -6 6 155.59 6.56
0 6 -6 162.96 5.67
0 -6 6 161.09 6.56
0 -6 5 22.08 2.39
0 -6 5 22.5 2.43
0 6 -5 21.03 2.07
0 -6 4 150.68 6.27
0 -6 4 141.15 6.06
0 6 -4 143.47 5.33
0 -6 3 21.86 2.39
0 -6 3 18.8 2.21
0 6 -3 20.08 2.01
0 -6 2 640.26 12.78
0 6 -2 682.12 11.48
0 6 -1 17.87 1.92
0 -6 1 19.03 2.17
0 -6 0 622.67 12.16
0 -6 -1 96.59 4.78
0 -6 -2 550.48 11.5
0 6 3 87.03 4.48
0 6 4 29.68 2.78
0 6 5 45.24 3.2
0 6 5 54.9 3.69
0 6 6 3.8 1
0 -6 -6 2.75 0.87
0 6 6 2.67 0.89
0 -6 -7 95.64 5.06
0 6 7 126.96 5.81
0 -6 -8 257.33 8.39
0 6 8 294.74 8.78
0 -6 -9 47.04 3.59
0 6 9 52.64 3.76
0 6 10 325.68 9.38
0 -6 -10 315.86 9.36
0 -6 -11 11.73 1.9
0 6 11 12.08 1.85
0 6 12 678.91 13.8
0 -6 -12 712.86 14.09
0 -6 -13 2.27 0.82
0 6 13 1.55 0.76
0 -6 -14 193.34 7.45
0 -6 -15 5.11 1.35
0 -6 -16 396.52 10.5
0 -6 -17 32.89 2.65
0 -6 -17 36.52 3.13
0 -6 -18 1 0.58
0 -6 -18 0.86 0.49
0 -6 -19 63 3.98
0 -6 -19 55.69 3.36
0 -6 -20 18.6 1.87
0 -6 -20 19.61 2.14
0 -6 -21 56.27 2.96
0 -6 -22 60.6 3.02
0 -6 -23 3.76 0.72
0 -6 -24 195.25 4.6
0 -6 -25 14.78 1.16
0 -7 18 38.61 2.17
0 -7 17 17.16 1.66
0 7 -16 35.47 2.24
0 -7 16 41.63 2.79
0 7 -15 110.03 4.22
0 -7 15 113.76 4.83
0 -7 14 70.13 3.99
0 7 -14 72.78 3.6
0 7 -13 47.61 3.01
0 -7 13 49.21 3.42
0 -7 12 151.73 6.15
0 7 -12 152.7 5.52
0 7 -11 10.7 1.53
0 -7 11 11.2 1.72
0 7 -10 255.61 7.34
0 -7 10 257.81 8.35
0 7 -9 1.13 0.63
0 -7 9 0.56 0.81
0 7 -8 289.89 7.93
0 -7 8 287.85 9.03
0 7 -7 1.42 0.78
0 -7 7 0.38 0.6
0 7 -6 177.3 6.21
0 -7 6 180.03 7.22
0 -7 5 94.23 5.15
0 7 -5 89.3 4.4
0 -7 4 99.5 5.33
0 7 -4 101.4 4.7
0 -7 3 118.75 6.32
0 7 -3 120.52 5.12
0 -7 3 123.09 5.93
0 -7 2 83.72 4.93
0 7 -2 79.37 4.25
0 -7 2 86.63 5.38
0 7 -1 28.82 2.61
0 -7 1 30.5 3.21
0 -7 1 28.32 2.84
0 -7 0 72.08 4.57
0 7 0 67.88 4.05
0 -7 0 76.16 4.89
0 -7 -1 12.76 1.93
0 -7 -1 13.55 2.05
0 7 1 13.56 1.83
0 -7 -2 20.16 2.41
0 -7 -2 16.14 2.25
0 7 2 16.25 2.05
0 -7 -3 53.02 4.1
0 -7 -3 52.45 4.01
0 7 3 50.04 3.65
0 -7 -4 356.43 10.17
0 7 4 336.51 9.2
0 -7 -4 354.51 10.55
0 -7 -5 17.54 2.34
0 7 5 18.73 2.28
0 -7 -6 290.29 9.22
0 7 7 29.8 3.08
0 -7 -7 30.63 2.99
0 -7 -8 197.63 7.56
0 7 8 203.32 7.95
0 -7 -9 35.27 3.22
0 7 9 35.33 3.37
0 -7 -10 78.64 4.73
0 -7 -11 54.96 3.9
0 -7 -12 1.04 0.57
0 -7 -13 75.13 4.51
0 -7 -14 3.94 1.05
0 -7 -15 95.12 5.03
0 -7 -16 260.6 8.06
0 -7 -17 2.21 0.7
0 -7 -17 3.32 0.92
0 -7 -18 190.55 6.46
0 -7 -18 175.67 5.63
0 -7 -19 -0.44 0.34
0 -7 -19 0.02 0.34
0 -7 -20 247.27 6.76
0 -7 -21 26.13 1.85
0 -7 -22 32.13 1.91
0 -7 -23 5.6 0.74
0 8 -14 58.99 2.7
0 -8 14 66.3 3.17
0 8 -13 0.75 0.44
0 -8 13 0.37 0.31
0 -8 12 76 3.81
0 8 -12 82.02 3.66
0 -8 11 53.92 3.39
0 8 -11 58.62 3.21
0 8 -10 106.88 4.48
0 -8 10 98.52 4.73
0 8 -9 53.36 3.22
0 -8 9 50 3.47
0 -8 8 23.74 2.46
0 8 -8 24.35 2.26
0 8 -7 114.2 4.91
0 -8 7 110.27 5.35
0 -8 6 10.73 1.81
0 8 -6 11.38 1.64
0 -8 5 5.17 1.3
0 8 -5 4.89 1.17
0 -8 4 166.69 6.83
0 8 -4 175.34 6.38
0 -8 3 88.19 5.06
0 8 -3 89.11 4.65
0 8 -2 195.71 6.77
0 -8 2 186.71 7.35
0 -8 1 2.82 2.32
0 8 -1 4.34 2.07
0 -8 0 825.62 15.62
0 8 0 817.52 14.29
0 8 1 40.97 3.7
0 -8 -1 35.34 3.52
0 8 2 129.12 5.82
0 -8 -2 127.68 6.26
0 -8 -3 258.36 8.8
0 8 3 260.44 8.16
0 -8 -4 30.71 3.12
0 8 4 34.36 3.02
0 -8 -5 39.37 3.46
0 -8 -6 80.05 4.79
0 -8 -7 131.32 6.13
0 -8 -8 49.9 3.76
0 -8 -9 26.09 2.71
0 -8 -10 426.65 10.64
0 -8 -11 19.49 2.27
0 -8 -12 324.79 9.01
0 -8 -13 46.26 3.32
0 -8 -14 87.25 4.49
0 -8 -15 11.93 1.63
0 -8 -16 52.38 3.24
0 -8 -16 45.95 2.64
0 -8 -17 47.38 2.95
0 -8 -18 4.88 0.91
0 -8 -19 14.95 1.3
0 -8 -19 16.13 1.57
0 -8 -20 2.36 0.49
0 -9 11 3.52 0.69
0 9 -10 86.1 3.37
0 -9 10 78.64 3.42
0 -9 9 0.47 0.47
0 9 -9 0.61 0.46
0 9 -8 163.41 5.19
0 -9 8 148.4 5.23
0 9 -7 18.55 1.84
0 -9 7 17.16 1.86
0 -9 6 28.07 2.47
0 9 -6 32.09 2.48
0 9 -5 22.12 1.95
0 9 -5 28.1 2.38
0 -9 5 24.88 2.4
0 -9 4 60.45 3.79
0 9 -4 59.87 3.38
0 9 -4 64.37 3.65
0 -9 3 132.09 5.67
0 9 -3 126.74 5.17
0 9 -3 137.03 5.35
0 -9 2 39.16 3.15
0 9 -2 38.95 2.93
0 9 -1 51.24 3.39
0 -9 1 50.46 3.61
0 -9 0 52.63 3.75
0 9 0 54.11 3.51
0 -9 -1 14.38 2.1
0 -9 -2 24.79 2.7
0 -9 -3 49.98 3.81
0 -9 -4 263.29 8.16
0 -9 -5 49.85 3.5
0 -9 -6 87.43 4.62
0 -9 -7 11.51 1.7
0 -9 -8 104.13 4.88
0 -9 -9 49.43 3.31
0 9 10 7.17 1.15
0 -9 -10 7.42 1.27
0 -9 -11 37.21 2.75
0 9 11 29.37 2.15
0 -9 -12 2.56 0.69
0 9 12 2.02 0.49
0 -9 -13 73.64 3.71
0 -9 -14 32.24 2.34
0 -9 -15 33.03 2.24
0 -9 -16 95.52 3.62
0 -9 -17 23.35 1.7
0 -9 -18 113.24 3.4
0 -10 5 41.64 2.22
0 -10 4 112.81 3.87
0 10 -4 87.05 2.91
0 10 -3 3.15 0.66
0 -10 3 3.22 0.77
0 10 -2 84.78 3.34
0 -10 2 86.9 3.65
0 -10 1 2.44 1.17
0 10 -1 0.76 0.51
0 10 0 116.85 4.17
0 -10 0 116.18 4.4
0 10 1 53.98 2.88
0 -10 -1 58.99 3.23
0 10 2 22.67 1.89
0 -10 -2 30.07 2.45
0 10 3 16.85 1.64
0 -10 -3 23.94 2.15
0 -10 -4 29.42 2.45
0 10 4 17.47 1.72
0 -10 -5 129.68 4.67
0 10 5 132.76 4.48
0 10 6 8.32 1.11
0 -10 -6 17.53 1.87
0 -10 -7 34.64 2.33
0 10 7 35.84 2.23
0 -10 -8 41.62 2.5
0 10 8 41.61 2.34
0 10 9 63.22 2.77
0 -10 -9 68.98 3.12
0 10 10 105.28 3.37
0 -10 -10 124.11 4.1
0 10 11 0.61 0.28
0 -10 -11 1.78 0.58
0 -10 -12 107.35 3.5
0 -10 -13 0.86 0.32
0 10 13 0.1 0.17
1 -10 -11 37.16 1.93
1 -10 -10 4.87 0.75
-1 10 9 18.83 1.27
1 -10 -9 27.98 1.79
1 -10 -8 0.17 0.29
1 -10 -7 43.24 2.35
1 -10 -6 22.19 1.72
1 -10 -5 28.08 2.01
1 -10 -4 35.64 2.24
1 -10 -3 49.18 2.82
1 -10 -2 156.82 4.7
1 -10 -1 19.94 2.03
1 -10 0 35.1 2.19
1 -10 1 9.02 1.14
-1 10 -1 8.4 0.94
-1 10 -2 28.77 1.64
1 -10 2 37.55 2.17
1 -10 3 35.07 2.06
1 -10 4 21.62 1.54
1 -9 -17 12.63 1.1
1 -9 -16 0.33 0.27
1 -9 -15 54.97 2.59
1 -9 -14 16.51 1.53
1 -9 -13 26.12 2.04
1 -9 -12 37.73 2.52
1 -9 -11 55.32 3.14
1 -9 -10 172.4 5.73
1 -9 -9 3.94 1.13
1 -9 -8 326.24 8.22
1 -9 -7 14.14 1.91
1 -9 -6 44.46 3.16
1 -9 -5 87.98 4.55
1 -9 -4 110.37 5.22
1 -9 -3 42.8 3.6
1 -9 -2 10.26 2.31
1 -9 -1 165.66 6.22
1 -9 0 23.24 2.77
1 -9 1 41.97 3.58
1 -9 2 364.85 8.95
1 -9 3 4.07 1.45
1 -9 4 81.08 4.09
1 -9 5 16.64 1.88
1 -9 6 123.8 4.77
1 -9 7 1.02 0.51
1 -9 8 13.8 1.48
1 -9 9 51.89 2.74
1 -9 10 30.02 1.97
1 -8 -19 49.05 2.44
1 -8 -18 149.79 4.64
1 -8 -17 1.11 0.53
1 -8 -16 178.85 5.61
1 -8 -15 1.18 0.66
1 -8 -14 248.09 7.26
1 -8 -13 75.77 4.09
1 -8 -12 19.06 2.13
1 -8 -11 54.34 3.63
1 -8 -10 5.06 1.21
1 -8 -9 52.6 3.75
1 -8 -8 8.24 1.51
1 -8 -7 49.2 3.75
1 -8 -6 75.75 4.69
1 -8 -5 50.39 4.05
1 -8 -4 151.2 6.67
1 -8 -3 4.22 1.63
1 -8 -2 237.26 8.37
1 -8 -1 16.22 2.41
1 -8 0 25.02 2.73
1 -8 1 1.1 1.1
1 -8 2 120.74 5.8
1 -8 3 24.59 2.74
1 -8 4 140.22 6.13
1 -8 5 115.85 5.52
1 -8 6 20.21 2.32
1 -8 7 85.32 4.56
1 -8 8 54.67 3.56
1 -8 9 4.56 1.08
1 -8 10 138.37 5.36
1 -8 11 2.98 0.79
1 -8 12 135.26 4.81
1 -8 13 1.66 0.55
1 -8 14 106.17 3.78
1 -7 -21 2.39 0.49
1 -7 -20 63.78 3.2
1 -7 -20 53.81 2.52
1 -7 -19 66.55 3.02
1 -7 -19 70.7 3.57
1 -7 -18 23.11 1.86
1 -7 -18 27.82 2.34
1 -7 -17 45.19 3.09
1 -7 -16 9.04 1.46
1 -7 -15 41.22 3.22
1 -7 -14 149.98 6.15
1 -7 -13 13.31 1.89
1 -7 -12 70.26 4.4
1 -7 -11 24.74 2.71
1 -7 -10 571.3 12.85
1 -7 -9 3.27 1.16
1 -7 -8 316.57 9.72
1 -7 -7 12.52 1.98
1 -7 -6 264.6 8.97
1 -7 -5 83.21 5.1
1 -7 -4 17.72 2.33
1 -7 -3 34.83 3.28
1 -7 -2 2.95 1.17
1 -7 -1 114.54 5.93
1 -7 0 235.17 8.27
1 -7 0 239.67 8.48
-1 7 0 245.43 8.47
1 -7 1 93.35 5.35
1 -7 1 87.66 5.15
-1 7 -1 90.08 5.23
1 -7 2 390.63 10.63
1 -7 2 375 10.48
-1 7 -3 2.53 1.34
1 -7 3 3.39 1.35
1 -7 3 3.49 1.35
1 -7 4 399.21 10.75
-1 7 -4 408.83 10.89
-1 7 -5 17.95 2.41
1 -7 5 20.64 2.6
-1 7 -6 77.05 4.77
1 -7 6 82.47 4.82
1 -7 7 3.98 1.1
1 -7 8 132.83 6.06
1 -7 9 69.88 4.39
1 -7 10 1.74 0.57
1 -7 11 38.47 3.12
1 -7 12 12.03 1.69
1 -7 13 53.36 3.49
1 -7 14 135.46 5.34
1 -7 15 0.43 0.39
1 -7 16 21.87 1.89
1 -7 17 7.56 1.03
1 -6 -24 2.88 0.49
1 -6 -23 4.23 0.69
1 -6 -22 6.4 0.93
1 -6 -21 28.96 2.14
1 -6 -20 120.12 4.55
1 -6 -20 121.76 4.98
1 -6 -19 3.7 0.97
1 -6 -19 2.9 0.77
1 -6 -18 202.65 6.88
1 -6 -18 204.68 6.41
1 -6 -17 3.21 0.92
1 -6 -17 3.09 0.9
1 -6 -16 130.74 5.91
1 -6 -16 128.66 5.33
1 -6 -15 0.87 0.51
1 -6 -15 0.57 0.44
1 -6 -14 173.16 6.33
1 -6 -14 177.45 6.97
1 -6 -13 2.58 0.91
1 -6 -12 179.02 7.07
1 -6 -11 173.56 7.24
1 -6 -11 184.95 7.23
1 -6 -10 3.91 1.16
1 -6 -10 3.49 1.06
1 -6 -9 13.93 2.04
1 -6 -9 15.5 2.14
1 -6 -8 15.32 2.15
1 -6 -8 15.45 2.16
1 -6 -7 94.66 5.21
1 -6 -7 87.73 5.08
1 -6 -6 214.32 7.91
1 -6 -6 221.7 7.89
1 -6 -5 25.33 2.7
1 -6 -5 25.94 2.65
1 -6 -4 188.16 7.26
1 -6 -4 202.04 7.27
1 -6 -4 202.47 7.66
1 -6 -3 1.5 0.94
1 -6 -3 -0.26 0.81
-1 6 2 627.96 13.17
1 -6 -2 626.46 13.13
1 -6 -2 601.34 12.58
1 -6 -1 26.81 2.73
-1 6 1 28.47 2.94
1 -6 -1 26.3 2.68
1 -6 -1 22.52 2.57
1 -6 0 174.34 6.86
-1 6 0 172.81 6.93
1 -6 0 165.43 6.53
1 -6 0 159.06 6.78
1 -6 1 31.31 2.84
1 -6 1 28.67 2.86
1 -6 1 33.06 2.96
-1 6 -1 30.67 2.96
1 -6 2 112.71 5.52
-1 6 -2 101.69 5.34
1 -6 2 98.24 5.38
1 -6 2 101.92 5.08
1 -6 3 37.53 3.38
-1 6 -3 38.37 3.25
1 -6 3 46.55 3.61
1 -6 3 40.63 3.2
1 -6 4 26.62 2.6
1 -6 4 26.46 2.93
1 -6 4 33.92 3.09
-1 6 -4 25.07 2.71
1 -6 5 69.37 4.42
1 -6 5 56.95 4.47
1 -6 6 108.46 5.48
1 -6 6 91.35 5.73
1 -6 7 36.31 3.19
1 -6 7 29.1 3.28
1 -6 8 85.03 4.95
1 -6 9 12.94 1.97
1 -6 10 288.85 8.99
1 -6 11 3.01 1.08
1 -6 12 232.35 7.97
1 -6 13 1.57 0.79
1 -6 14 211.05 7.41
1 -6 15 79.7 4.42
1 -6 16 47.05 3.29
1 -6 17 8.93 1.39
1 -6 18 0 0.37
1 -6 19 25.53 2.04
1 -6 20 10.51 1.19
1 -5 -25 1.72 0.37
1 -5 -25 1.97 0.45
1 -5 -24 234.28 5.34
1 -5 -24 216.45 4.64
1 -5 -23 2.75 0.65
1 -5 -22 187.36 5.77
1 -5 -21 2.41 0.73
1 -5 -20 231.52 6.93
1 -5 -20 214.95 7.14
1 -5 -19 17.15 2.11
1 -5 -19 20.15 2.17
1 -5 -18 138.67 6.04
1 -5 -18 142.12 5.77
1 -5 -17 88.97 4.64
1 -5 -17 81.27 4.64
1 -5 -16 0.86 0.38
1 -5 -16 1.22 0.73
1 -5 -15 36.56 3.21
1 -5 -14 533.53 12.37
1 -5 -14 549.77 12.24
1 -5 -13 20.24 2.42
1 -5 -13 20.2 2.39
1 -5 -12 425.09 10.8
1 -5 -12 421.98 10.74
1 -5 -11 0.94 0.75
1 -5 -11 1.11 0.75
1 -5 -10 598.45 12.74
1 -5 -10 642.4 13
1 -5 -9 2.05 0.79
1 -5 -9 4.63 1.21
1 -5 -8 560.17 12.11
1 -5 -7 8.21 1.5
1 -5 -6 336.28 9.13
1 -5 -5 147.85 5.97
1 -5 -4 3.23 0.95
1 -5 -4 5.7 1.13
1 -5 -3 37.98 2.83
1 -5 -3 42.85 3.01
1 -5 -2 186.35 5.9
1 -5 -2 187.36 6.12
1 -5 -1 14.98 1.61
1 -5 -1 12.72 1.57
1 -5 0 82.59 4.13
1 -5 0 84.94 3.68
1 -5 1 58.46 3.06
1 -5 1 59.91 3.55
1 -5 2 488.84 10.04
1 -5 3 0.14 0.27
1 -5 4 322.78 8.6
1 -5 5 0.47 0.41
1 -5 5 0.17 0.43
1 -5 6 652.86 13.09
1 -5 6 674.44 12.77
1 -5 7 15.78 1.99
1 -5 7 16.27 2.19
-1 5 -8 213.3 7.01
1 -5 8 218.26 7.93
1 -5 8 226.96 7.65
1 -5 9 82.59 4.95
-1 5 -9 88.1 4.53
1 -5 9 90.79 4.83
-1 5 -10 1.12 0.59
1 -5 10 0.56 0.33
1 -5 10 0.94 0.6
1 -5 11 25.68 2.62
-1 5 -11 28.5 2.65
-1 5 -12 41.79 3.21
1 -5 12 45.91 3.57
1 -5 13 35.05 3.14
-1 5 -13 31.86 2.79
-1 5 -14 198.85 6.94
1 -5 14 221.18 7.85
-1 5 -15 20.67 2.25
1 -5 15 21.61 2.47
-1 5 -16 224.45 7.18
1 -5 16 245.7 8.11
1 -5 17 0.82 0.78
1 -5 18 490.29 10.75
1 -5 19 5.27 1.14
1 -5 20 45.93 2.97
1 -5 21 29.94 2.22
1 -5 22 8.85 1.1
1 -4 -26 11.44 0.91
1 -4 -26 12.2 1.05
1 -4 -25 5.97 0.83
1 -4 -25 5.16 0.71
1 -4 -24 2.3 0.65
1 -4 -24 1.21 0.4
1 -4 -23 32.45 2.46
1 -4 -22 51.93 3.31
1 -4 -21 4.67 1.08
1 -4 -20 193.34 6.75
1 -4 -19 30.57 2.9
1 -4 -19 33.8 2.92
1 -4 -18 400.43 10.54
1 -4 -18 410.63 10.13
1 -4 -17 48.91 3.65
1 -4 -17 51.35 3.64
1 -4 -16 38.58 3.25
1 -4 -16 45.62 3.44
1 -4 -16 46.85 3.57
1 -4 -15 3.13 0.94
1 -4 -15 3.52 1.02
1 -4 -14 260.34 8.33
1 -4 -14 257.64 8.34
1 -4 -13 27.86 2.69
1 -4 -13 28.37 2.66
1 -4 -12 305.29 8.79
1 -4 -12 319.37 8.77
1 -4 -11 22.86 2.34
1 -4 -10 2.93 0.84
1 -4 -9 79.79 4.24
1 -4 -8 65.69 3.86
1 -4 -7 2.07 0.79
-1 4 7 2.08 0.52
1 -4 -6 317.25 8.05
-1 4 6 345.21 7.1
1 -4 -5 47.14 3.05
1 -4 -4 391.68 8.46
1 -4 -3 7.89 0.98
1 -4 -3 7.74 1.09
1 -4 -2 1312.69 12.26
1 -4 -2 1300.01 13.09
1 -4 -1 3.18 0.79
1 -4 -1 1.83 0.52
1 -4 -1 1.98 0.57
1 -4 0 709.57 9.29
1 -4 0 691.1 8.9
1 -4 0 707.8 9.85
1 -4 1 86.3 2.9
1 -4 1 90.34 3.57
1 -4 2 102.25 3.88
1 -4 3 110.82 4.08
1 -4 4 46.07 2.73
1 -4 5 4.29 0.92
1 -4 6 353.98 8.27
1 -4 7 43.23 3.04
1 -4 8 113.82 5
1 -4 9 0.09 0.33
1 -4 10 317.49 8.69
-1 4 -10 296.9 7.68
1 -4 11 5.76 1.22
-1 4 -11 6.03 1.16
-1 4 -12 306.03 8.08
1 -4 12 282.83 9.02
-1 4 -13 17.89 2.02
1 -4 13 15.84 2.25
-1 4 -14 168.4 6.14
-1 4 -15 12.75 1.73
-1 4 -16 5.99 1.22
-1 4 -17 13.56 1.79
-1 4 -18 6.64 1.28
-1 4 -19 0.25 0.4
-1 4 -20 5.76 1.14
-1 4 -21 79.8 3.79
1 -4 21 76.03 4.08
1 -4 22 185.81 5.87
1 -4 23 1.12 0.52
1 -3 -26 192.68 4.21
1 -3 -26 200.99 4.61
1 -3 -25 0.16 0.25
1 -3 -25 0.08 0.18
1 -3 -24 261.45 6.6
1 -3 -23 0.84 0.55
1 -3 -22 348.96 8.88
1 -3 -21 6.75 1.32
1 -3 -20 167.83 6.43
1 -3 -19 0.46 0.46
1 -3 -18 65.98 4.18
1 -3 -18 61.35 4.12
1 -3 -17 29.34 2.84
1 -3 -17 23.21 2.5
1 -3 -17 30.25 2.81
1 -3 -16 13.68 1.89
1 -3 -16 19.38 2.25
1 -3 -16 18.45 2.28
1 -3 -15 5.95 1.21
1 -3 -15 6.32 1.29
1 -3 -15 6.01 1.29
1 -3 -14 502.04 10.68
1 -3 -14 501.24 11.23
1 -3 -13 68.87 3.93
1 -3 -12 469.89 9.76
1 -3 -11 12.95 1.65
1 -3 -10 1096.33 14.47
1 -3 -9 1.01 0.62
1 -3 -8 440.46 8.7
-1 3 7 23 1.59
1 -3 -7 22.67 2
1 -3 -6 795.06 11.21
-1 3 6 867.37 9.19
1 -3 -5 52.06 2.83
-1 3 5 52.63 2.19
1 -3 -4 83.1 3.4
1 -3 -3 131.05 4.02
1 -3 -3 125.51 3.43
1 -3 -2 135.41 3.44
1 -3 -2 139.22 3.64
1 -3 -1 4.97 0.71
1 -3 -1 7.06 1.04
1 -3 -1 6.6 0.88
1 -3 0 364.44 5.64
1 -3 0 355.83 5.4
1 -3 1 69.25 2.23
1 -3 1 72.74 2.62
1 -3 2 842.47 9.07
1 -3 2 816.6 6.99
1 -3 3 27.56 1.73
1 -3 3 23.63 1.09
1 -3 4 910.01 10.5
1 -3 5 24.51 1.82
1 -3 6 796.08 10.84
1 -3 7 53.23 2.9
1 -3 8 611.11 10.19
1 -3 9 33.28 2.43
1 -3 10 37.2 2.69
1 -3 11 27.14 2.44
-1 3 -12 29.5 2.37
1 -3 12 37.65 2.99
-1 3 -13 2.94 0.78
1 -3 13 3.86 1.07
1 -3 14 352.05 9.66
-1 3 -14 372.94 8.84
-1 3 -15 24.44 2.33
1 -3 15 19.94 2.39
-1 3 -16 382.33 9.2
-1 3 -17 6.29 1.27
-1 3 -18 678.83 12.44
-1 3 -19 1.54 0.73
-1 3 -20 104.4 4.7
-1 3 -21 29.27 2.41
-1 3 -22 0.95 0.51
-1 3 -23 0.19 0.25
-1 3 -24 1.29 0.46
1 -3 24 0.63 0.42
1 -2 -26 34.84 1.9
1 -2 -25 13.36 1.38
1 -2 -25 13.75 1.34
1 -2 -24 2.44 0.67
1 -2 -24 1.08 0.35
1 -2 -23 0.16 0.32
1 -2 -23 -0.43 0.42
1 -2 -22 57.44 3.7
1 -2 -21 24.07 2.52
1 -2 -20 104.86 5.29
1 -2 -19 0.83 0.53
1 -2 -18 630.38 12.79
1 -2 -17 0.49 0.41
1 -2 -17 0.78 0.85
1 -2 -17 -0.09 0.46
1 -2 -16 311.78 8.81
1 -2 -16 319.39 9.13
1 -2 -16 288.22 8.15
1 -2 -15 25.5 2.59
1 -2 -15 27.94 2.48
1 -2 -15 26.53 2.59
1 -2 -14 440.36 9.56
1 -2 -13 3.53 0.88
1 -2 -12 81.97 3.81
1 -2 -11 49.14 2.92
1 -2 -10 187.05 5.46
1 -2 -9 9.03 1.18
1 -2 -8 56.5 2.83
1 -2 -7 48.81 2.53
-1 2 7 52.06 1.94
1 -2 -6 772.11 9.46
-1 2 6 765.27 6.62
1 -2 -5 4.3 0.73
-1 2 5 2.74 0.37
1 -2 -4 1093.01 10.18
1 -2 -3 0.82 0.25
1 -2 -3 0.72 0.29
1 -2 -2 929.65 8.45
1 -2 -2 880.17 6.52
1 -2 -2 943.76 8.31
1 -2 -2 899.61 6.2
1 -2 -1 4.14 0.73
1 -2 -1 1 0.53
1 -2 0 214.49 3.59
1 -2 0 209.36 3.41
1 -2 1 16.54 1.02
1 -2 1 13.94 0.9
1 -2 2 124.35 2.4
1 -2 2 139.14 3.12
1 -2 3 31.68 1.75
1 -2 4 34.61 1.82
1 -2 5 30.52 1.83
1 -2 6 366.84 6.45
1 -2 7 0.81 0.39
1 -2 8 622.78 9.25
1 -2 9 15.79 1.57
1 -2 10 745.01 11.33
1 -2 11 11.24 1.46
1 -2 12 386.35 8.78
1 -2 13 5.83 1.14
-1 2 -14 346.23 8.42
1 -2 14 337.41 8.87
1 -2 15 40.11 3.22
-1 2 -15 41.92 3
-1 2 -16 12.51 1.66
1 -2 16 11.52 1.82
-1 2 -17 0.48 0.46
-1 2 -18 20.24 2.11
-1 2 -19 21.48 2.18
-1 2 -20 18.3 2.02
-1 2 -21 4.07 0.98
-1 2 -22 327.6 8.03
-1 2 -23 1.65 0.58
-1 2 -24 134.36 4.47
-1 2 -25 5.67 0.89
-1 2 -26 126.56 3.48
1 -1 -26 205.16 4.61
1 -1 -25 -0.28 0.34
1 -1 -24 304.56 6.92
1 -1 -24 288.33 6.96
1 -1 -23 -0.27 0.4
1 -1 -23 0.09 0.27
1 -1 -22 364.91 8.92
1 -1 -22 326.45 7.73
1 -1 -21 0.58 0.54
1 -1 -20 87.29 4.81
1 -1 -19 0.53 0.58
1 -1 -18 0.8 0.45
1 -1 -17 1.83 0.7
1 -1 -16 122.91 5.5
1 -1 -15 1.09 0.49
1 -1 -15 0.99 0.65
1 -1 -14 89.48 3.99
1 -1 -13 3 0.75
1 -1 -12 651.46 10.09
1 -1 -11 1 0.45
1 -1 -10 1270.14 13.12
1 -1 -9 0.7 0.49
1 -1 -8 2070.52 15.14
1 -1 -7 10.9 1.13
-1 1 7 11.23 0.79
-1 1 6 175.74 2.19
1 -1 -6 221.38 4.39
1 -1 -5 1.37 0.44
1 -1 -4 189.32 3.68
1 -1 -3 226.08 5.26
1 -1 -2 421.84 5.05
1 -1 -2 407.97 4.56
1 -1 -1 3.54 0.6
1 -1 -1 2.2 0.28
1 -1 0 259.75 3.57
1 -1 0 259.5 4.28
1 -1 0 247.3 2.67
1 -1 1 22.44 0.99
1 -1 1 23.51 1.01
1 -1 2 9999 23.01
1 -1 3 31.98 1.42
1 -1 4 426.14 5.64
1 -1 5 5.59 0.78
1 -1 6 1026.67 10.08
1 -1 7 14.52 1.28
1 -1 8 16.17 1.42
1 -1 9 2.15 0.74
1 -1 10 5.28 0.84
1 -1 11 11.08 1.32
1 -1 12 498.99 9.47
1 -1 13 -0.33 0.46
1 -1 14 442.19 9.73
1 -1 15 0.97 0.57
-1 1 -15 1.44 0.65
-1 1 -16 399.47 9.17
1 -1 16 391.43 10.33
-1 1 -17 1.15 0.6
1 -1 17 2.17 0.95
-1 1 -18 229.42 7.26
-1 1 -19 0.34 0.52
-1 1 -20 306.4 8.36
-1 1 -21 1.18 0.59
-1 1 -22 37.63 2.83
-1 1 -23 0.37 0.35
-1 1 -24 1.6 0.77
-1 1 -25 2.21 0.58
-1 1 -26 94.21 3.2
1 0 -26 20.4 1.41
1 0 -25 4.7 0.79
1 0 -24 9.87 1.23
1 0 -23 2.4 0.73
1 0 -22 63.27 3.58
1 0 -22 70.22 3.67
1 0 -21 8.19 1.38
1 0 -21 7.65 1.24
1 0 -20 112.6 5.16
1 0 -20 105.02 4.65
1 0 -19 1.14 0.45
1 0 -19 1.65 0.64
1 0 -18 629.41 12.88
1 0 -17 0.63 0.56
1 0 -16 430.71 10.39
1 0 -15 17.82 2.08
-1 0 14 452.59 9.49
-1 0 13 13.66 1.58
1 0 -13 12.01 1.29
1 0 -12 26.19 1.8
-1 0 12 29.73 2.08
-1 0 11 19.11 1.54
1 0 -11 17.67 1.4
-1 0 10 496.82 7.3
1 0 -10 478.99 6.98
1 0 -9 36.6 1.86
-1 0 9 37.89 1.85
1 0 -8 57.44 2.23
-1 0 8 50.29 1.98
1 0 -7 20.52 1.29
-1 0 7 18.19 1.09
-1 0 6 919.08 5.18
-1 0 6 947.03 7.01
1 0 -5 7.29 0.73
-1 0 5 6.34 0.5
1 0 -4 1191.7 8.21
-1 0 4 1163.69 5.57
-1 0 3 0.15 0.06
1 0 -3 0.14 0.17
1 0 -2 526.12 5.15
1 0 -2 539.01 5.45
1 0 -1 1.72 0.17
1 0 -1 1.78 0.32
1 0 0 24.26 1.17
1 0 0 23.25 0.79
1 0 1 0.16 0.17
1 0 1 0.09 0.13
1 0 2 99.08 2.21
1 0 2 93.86 2.53
1 0 3 0.06 0.13
1 0 4 530.31 6.03
1 0 5 0.35 0.22
1 0 6 238.72 4.57
1 0 7 1.32 0.5
1 0 8 1063.9 10.88
1 0 9 14.98 1.92
1 0 10 1057.03 12.19
1 0 11 17.45 1.94
1 0 12 311.39 7.43
1 0 13 11.64 1.56
1 0 14 833.83 13.74
1 0 15 13.04 1.63
-1 0 -15 12.26 1.63
1 0 15 11.28 1.69
-1 0 -16 23.35 2.28
1 0 16 25.37 2.42
1 0 16 21.59 2.47
1 0 17 13.06 1.82
-1 0 -17 12.33 1.7
1 0 18 91.3 4.9
-1 0 -18 95.07 4.67
-1 0 -19 7.48 1.34
-1 0 -20 227.1 7.2
-1 0 -21 4.41 1.03
-1 0 -22 382.36 9.05
-1 0 -23 3.41 0.87
-1 0 -24 91.5 3.89
-1 0 -25 2.26 0.6
-1 0 -26 87.04 3.2
-1 0 -27 2.04 0.47
1 1 -26 195.17 4.11
1 1 -25 0.43 0.24
1 1 -24 259.92 6.17
1 1 -23 0.58 0.31
1 1 -22 278.4 7.33
1 1 -21 2.73 0.83
1 1 -21 2.32 0.7
1 1 -20 93.77 4.56
1 1 -20 89.16 4.58
1 1 -19 3.05 0.79
1 1 -19 3.73 1
1 1 -19 3.56 0.93
1 1 -18 5.87 1.18
1 1 -18 7.4 1.4
1 1 -18 7.69 1.3
1 1 -17 10.95 1.64
1 1 -17 11.57 1.65
1 1 -17 9.69 1.41
1 1 -16 72.79 4.08
1 1 -16 68.09 3.61
1 1 -15 0.04 0.25
1 1 -15 0.27 0.39
-1 -1 14 554.42 10.46
-1 -1 13 52.95 3.07
-1 -1 12 531.68 9
-1 -1 11 27.82 2
-1 -1 10 1432.98 13.35
-1 -1 9 10.31 1.07
-1 -1 8 528.96 7
-1 -1 7 38.48 1.78
-1 -1 6 695.66 7.14
-1 -1 5 2.8 0.47
-1 -1 4 146.36 2.68
1 1 -3 112.41 2.87
-1 -1 3 116.77 2.27
1 1 -2 157.28 3.12
-1 -1 2 159.38 2.43
1 1 -1 94.79 2.21
1 1 0 1221.75 7.32
1 1 1 229.37 3.45
1 1 2 5024.24 16.64
1 1 3 227.84 3.7
1 1 3 249.01 3.87
1 1 4 1540.49 9.95
1 1 4 1487.02 9.87
1 1 5 74.61 2.34
1 1 6 397.98 5.83
1 1 7 79.85 2.8
1 1 8 368.48 6.35
1 1 9 0.75 0.4
1 1 10 207.01 5.37
1 1 11 40.69 2.47
1 1 12 297.92 6.86
1 1 13 10.25 1.33
1 1 14 929.52 12.78
-1 -1 -15 18.44 2.06
1 1 15 18.6 1.9
-1 -1 -16 366.48 9.21
1 1 16 336 8.49
-1 -1 -17 26.41 2.54
1 1 17 27.93 2.63
-1 -1 -18 392.96 9.66
1 1 18 346.45 9.56
-1 -1 -19 6.35 1.26
-1 -1 -20 211.09 7.08
-1 -1 -21 9.51 1.51
-1 -1 -22 27.14 2.39
-1 -1 -23 1.17 0.48
-1 -1 -24 1.39 0.5
-1 -1 -25 1.21 0.48
-1 -1 -26 137.25 4.06
-1 -1 -27 0.84 0.31
1 2 -25 0.61 0.23
1 2 -24 8.6 1.06
1 2 -23 14.16 1.48
1 2 -22 150.67 5.62
1 2 -22 141.23 5.01
1 2 -21 0.36 0.4
1 2 -21 -0.11 0.47
1 2 -20 270.26 7.53
1 2 -20 269.41 8.07
1 2 -19 16.36 1.93
1 2 -19 19.39 2.2
1 2 -18 561.87 11.83
1 2 -18 544.48 11.04
1 2 -17 68.44 4.15
1 2 -17 66.78 3.81
1 2 -16 30.37 2.73
1 2 -16 31.71 2.61
-1 -2 15 1.59 0.7
1 2 -15 0.84 0.39
1 2 -15 1.35 0.6
1 2 -14 132.2 5.4
-1 -2 14 148.63 5.79
1 2 -14 148 5.31
-1 -2 13 16.05 1.86
1 2 -13 13.09 1.53
-1 -2 12 110.85 4.78
-1 -2 11 4.62 0.91
-1 -2 10 71.73 3.32
-1 -2 9 36.5 2.24
-1 -2 8 337.48 6.53
-1 -2 7 3.46 0.63
-1 -2 6 693.05 8.1
-1 -2 5 24.48 1.45
1 2 -4 800.65 8.43
-1 -2 4 793.56 7.87
-1 -2 3 49.2 1.85
1 2 -3 48.61 1.95
1 2 -2 1403.37 10.18
1 2 -2 1377.84 8.81
1 2 -1 35.62 1.45
1 2 -1 36.07 1.66
1 2 0 575.78 6.19
1 2 0 573.87 6.61
1 2 1 87.67 2.66
1 2 1 88.08 2.55
1 2 2 22.79 1.64
1 2 2 19.69 1.33
1 2 3 125.04 3.32
1 2 4 244.41 4.78
1 2 5 12.47 0.81
1 2 5 13.91 1.16
1 2 6 974.5 9.66
1 2 6 935.29 7.08
1 2 7 59.24 2.5
1 2 7 59.46 1.9
1 2 8 711.12 8.94
1 2 8 710.64 7.13
1 2 9 16.27 1.15
1 2 9 18.19 1.57
1 2 10 709.05 9.7
1 2 11 8.39 1.17
1 2 12 456.87 8.49
1 2 13 16.72 1.75
1 2 14 172.25 5.72
1 2 15 6.48 1.29
-1 -2 -15 5.5 1.23
-1 -2 -16 -0.07 0.51
1 2 16 -0.24 0.64
1 2 17 20.12 2.42
-1 -2 -17 20.32 2.33
1 2 18 90.25 4.93
-1 -2 -18 109.81 5.25
-1 -2 -19 -0.11 0.53
-1 -2 -20 44.65 3.32
-1 -2 -21 39.61 3.04
-1 -2 -22 477.2 10.2
-1 -2 -23 11.1 1.49
-1 -2 -24 165.42 5.3
-1 -2 -25 0.28 0.25
-1 -2 -26 123.35 3.83
-1 -2 -27 5.09 0.71
1 3 -24 215.52 4.6
1 3 -23 5.9 0.86
1 3 -22 112.45 4.28
1 3 -21 3.15 0.92
1 3 -21 2.71 0.71
1 3 -20 92.74 4.77
1 3 -20 89.15 4.18
1 3 -19 3.85 0.9
1 3 -19 4.05 1.08
1 3 -18 33.08 2.99
1 3 -18 30.76 2.57
1 3 -17 57.47 3.55
1 3 -17 57.66 3.96
1 3 -16 29.49 2.54
1 3 -16 28.1 2.73
-1 -3 15 14.66 2.13
1 3 -15 16.57 2.13
1 3 -15 18.21 2
1 3 -14 938.92 15.37
1 3 -14 931.03 13.74
1 3 -13 7.91 1.28
1 3 -13 6.79 1.32
-1 -3 13 6.94 1.36
1 3 -12 658.97 11.16
1 3 -12 625 11.73
-1 -3 11 10.54 1.54
-1 -3 10 787.35 12.33
-1 -3 9 25.89 2.15
-1 -3 8 463.11 8.5
1 3 -7 0.36 0.31
-1 -3 7 0.38 0.26
1 3 -6 202.5 4.96
-1 -3 6 201.37 5
1 3 -5 220.72 4.96
-1 -3 5 236.98 5.25
-1 -3 4 158.04 4.08
1 3 -4 155.38 4
1 3 -3 20.38 1.41
-1 -3 3 21.76 1.51
1 3 -2 1295.93 10.34
1 3 -2 1314.82 11
1 3 -1 2.94 0.76
1 3 -1 4.09 0.72
1 3 0 419.29 6.11
1 3 0 426.87 6.45
1 3 1 31.85 2.03
1 3 1 18.66 1.65
1 3 2 1333.52 11.78
1 3 3 0.97 0.54
1 3 4 520.54 7.75
1 3 5 3.55 0.78
1 3 6 1366.96 13.35
1 3 7 9.28 1.13
1 3 8 244.32 5.97
1 3 9 184.82 5.37
1 3 10 114.74 4.35
1 3 11 4.55 1.27
1 3 12 303.46 7.56
1 3 13 18.49 2
1 3 14 629.17 11.77
1 3 15 11.21 1.71
-1 -3 -15 11.66 1.69
-1 -3 -15 11.39 2.02
1 3 16 600.09 12.49
-1 -3 -16 632.06 12.27
-1 -3 -17 11.82 1.79
1 3 17 9.97 1.72
-1 -3 -18 1011.64 16.46
-1 -3 -19 3.87 1.04
-1 -3 -20 62.45 3.94
-1 -3 -21 31.13 2.67
-1 -3 -22 12.02 1.65
-1 -3 -23 1.59 0.63
-1 -3 -23 1.02 0.42
-1 -3 -24 40.78 2.41
-1 -3 -24 47.48 2.78
-1 -3 -25 2.49 0.61
-1 -3 -26 67.73 2.76
-1 -3 -27 5.07 0.69
1 4 -23 0.49 0.24
1 4 -22 69.7 2.91
1 4 -21 5.79 0.92
1 4 -20 302.81 7.17
1 4 -19 2.12 0.73
1 4 -18 300.81 7.9
1 4 -17 7.47 1.49
1 4 -17 6.84 1.25
1 4 -16 70.5 4.47
1 4 -16 69.7 3.88
1 4 -15 8.82 1.38
1 4 -15 8.48 1.61
1 4 -14 25.1 2.32
-1 -4 14 17.54 2.4
1 4 -14 25.67 2.67
1 4 -13 0.03 0.39
1 4 -13 0.35 0.5
1 4 -13 0.25 0.29
-1 -4 13 0.66 0.61
1 4 -12 42.28 3.29
-1 -4 12 35.7 3.16
1 4 -12 31.9 2.79
1 4 -12 35.91 2.68
1 4 -11 141.78 5.6
-1 -4 11 150.43 6.22
1 4 -11 146.26 5.3
1 4 -11 148.58 6.04
1 4 -10 96.3 4.73
1 4 -10 105.21 4.59
-1 -4 10 108.8 5.18
1 4 -10 100.8 4.29
-1 -4 9 2.44 0.77
1 4 -9 1.91 0.66
1 4 -8 219.47 6.1
-1 -4 8 218.02 6.54
1 4 -7 21.43 1.84
-1 -4 7 20.37 1.92
1 4 -6 632.95 9.52
-1 -4 6 623.58 10.17
1 4 -5 2.81 0.64
-1 -4 5 2.82 0.69
-1 -4 4 217.23 5.67
1 4 -4 213.74 5.15
-1 -4 3 4.36 0.8
1 4 -3 3.17 0.56
1 4 -2 1128.47 11.6
1 4 -2 1121.86 11.18
1 4 -1 28.78 1.83
1 4 -1 28.12 1.84
1 4 0 263.14 5.62
1 4 0 262.86 5.62
1 4 1 105.36 3.62
1 4 2 0.37 0.45
1 4 3 140.09 4.47
1 4 4 254.06 6.06
1 4 5 24.74 1.96
1 4 6 1292.33 14.34
1 4 7 1.94 0.64
1 4 8 228.47 6.29
1 4 9 0.84 0.55
1 4 10 563.21 10.43
1 4 11 23.15 2.22
1 4 12 213.21 6.82
1 4 13 2.41 0.75
-1 -4 -14 79.77 5.06
1 4 14 87.53 4.69
1 4 15 109.61 5.39
-1 -4 -15 112.92 6.15
-1 -4 -16 66.89 4.01
1 4 16 64.13 4.27
-1 -4 -16 66.45 4.73
-1 -4 -17 -0.08 0.31
-1 -4 -17 0.35 0.54
-1 -4 -18 22.01 2.37
-1 -4 -19 11.37 1.82
-1 -4 -20 35.28 2.98
-1 -4 -21 10.87 1.61
-1 -4 -22 231.71 6.8
-1 -4 -23 2.02 0.78
-1 -4 -24 328.89 6.98
-1 -4 -24 301.21 6.37
-1 -4 -25 8.37 1
-1 -4 -25 7.34 0.93
-1 -4 -26 49.72 2.07
-1 -4 -26 60.63 2.41
1 5 -21 7.13 0.88
1 5 -20 6.93 0.96
1 5 -19 64.1 3.13
1 5 -18 8.73 1.23
1 5 -17 37.62 2.64
1 5 -16 30.63 2.44
1 5 -15 19.9 2.03
1 5 -14 513.12 10.32
1 5 -13 0.75 0.56
1 5 -12 245.44 7.13
1 5 -11 1.56 0.7
-1 -5 11 0.84 0.7
-1 -5 10 584.41 13.26
1 5 -10 619.27 11.05
-1 -5 9 29.49 2.91
1 5 -9 29.33 2.4
-1 -5 8 174.41 6.62
1 5 -8 185.45 5.81
-1 -5 7 52.05 3.45
1 5 -7 55 3.13
-1 -5 6 95.5 4.52
1 5 -6 94.74 4.03
-1 -5 5 102.26 4.66
-1 -5 4 135.48 5.2
-1 -5 3 49.86 3.07
1 5 -2 197.09 5.39
-1 -5 2 202.95 6.08
1 5 -1 6.95 1.07
-1 -5 1 6.84 1.16
1 5 0 856.04 11.7
1 5 1 72.82 3.57
1 5 2 699.61 10.74
1 5 3 59.2 3.25
1 5 4 734.53 11.48
1 5 5 20.47 1.99
1 5 6 200.48 6.28
1 5 7 46.27 3.06
1 5 8 100.32 4.57
1 5 9 96.55 4.56
1 5 10 152.99 5.85
1 5 11 55.72 3.65
-1 -5 -12 197.76 7.81
1 5 12 213.54 7.32
1 5 13 15.99 2.08
-1 -5 -13 16.31 2.26
-1 -5 -14 587.04 13.29
1 5 14 616.45 13.06
1 5 15 3.52 1.15
-1 -5 -15 3.19 1.12
-1 -5 -16 296.94 9.67
-1 -5 -17 1.79 0.77
-1 -5 -17 1.89 0.92
-1 -5 -18 615.9 13.71
-1 -5 -18 633.56 12.33
-1 -5 -19 27.55 2.59
-1 -5 -20 18.92 2.13
-1 -5 -21 47.83 3.2
-1 -5 -22 9.93 1.36
-1 -5 -23 43.77 2.6
-1 -5 -24 29.45 1.88
-1 -5 -24 29.49 1.93
-1 -5 -25 0.73 0.27
-1 -5 -25 1.22 0.4
1 6 -20 39.11 1.84
1 6 -19 8.07 0.96
1 6 -18 194.94 5
1 6 -17 7.54 1.11
1 6 -16 104.93 4.07
1 6 -15 11.39 1.42
1 6 -14 120.16 4.69
1 6 -13 99.5 4.37
1 6 -12 36.04 2.68
1 6 -11 75.05 3.83
1 6 -10 90.03 4.16
1 6 -9 25.55 2.25
-1 -6 8 237.48 8.73
1 6 -8 267.42 7.06
-1 -6 7 5.28 1.3
1 6 -7 5.99 1.11
1 6 -6 381.24 8.31
-1 -6 6 355.31 9.91
1 6 -6 347.21 9.49
-1 -6 5 4.3 1.11
1 6 -5 3.91 1.08
1 6 -5 5.24 1.05
1 6 -4 297.63 9.26
-1 -6 4 292.54 8.79
1 6 -4 301.58 7.34
-1 -6 3 51.61 3.63
1 6 -3 55.57 4.11
1 6 -3 53.23 3.12
-1 -6 2 264.95 8.09
1 6 -2 270.93 6.97
-1 -6 1 105.5 5
1 6 -1 98 4.22
1 6 0 3.61 0.82
-1 -6 0 4.47 1.08
-1 -6 -1 36.44 2.94
1 6 1 32.47 2.61
1 6 1 28.36 2.27
1 6 2 13.79 1.76
1 6 2 10.75 1.4
1 6 3 27.91 2.28
1 6 3 35.6 2.79
1 6 4 4.11 0.91
1 6 4 10.25 1.53
1 6 5 69.01 3.94
1 6 5 54.32 3.33
1 6 6 379.7 9.28
1 6 6 313.91 8.25
1 6 7 35.68 2.89
1 6 7 26.73 2.43
1 6 8 357.35 9.26
1 6 8 320.23 9.15
1 6 9 11.97 1.77
1 6 9 10.68 1.68
1 6 10 246.45 7.74
-1 -6 -10 244.54 8.33
-1 -6 -11 11.21 1.77
1 6 11 15.61 2.1
-1 -6 -12 174.61 7.15
1 6 12 191.17 7.43
-1 -6 -13 33.72 3.15
-1 -6 -14 16.24 2.15
-1 -6 -15 59.66 4.07
-1 -6 -16 1.83 0.69
-1 -6 -17 58.36 3.97
-1 -6 -17 67.44 3.88
-1 -6 -18 172.37 6.11
-1 -6 -18 143.96 6.05
-1 -6 -19 4.47 1
-1 -6 -20 110.78 4.68
-1 -6 -21 4.36 0.91
-1 -6 -22 253.06 6.08
-1 -6 -23 5.59 0.89
-1 -6 -24 62.51 2.44
-1 -6 -24 59.82 2.38
1 7 -17 5.77 0.83
1 7 -16 69.38 2.93
1 7 -15 13.69 1.4
1 7 -14 164.73 5.06
1 7 -13 2.42 0.69
1 7 -12 124.73 4.64
1 7 -11 11.19 1.48
1 7 -10 226.59 6.53
1 7 -9 61.67 3.47
1 7 -8 255.09 7.02
1 7 -7 41.59 2.89
1 7 -6 1.98 0.74
1 7 -6 2.1 0.82
1 7 -5 152.69 6.54
1 7 -5 143.1 5.42
1 7 -4 1.36 0.58
1 7 -4 0.48 0.51
1 7 -3 7.78 1.65
1 7 -3 7.32 1.25
-1 -7 2 140.04 6.66
1 7 -2 151.6 5.57
-1 -7 1 161.96 7.02
1 7 -1 172.42 5.89
-1 -7 0 273.15 9.02
1 7 0 272.34 7.47
-1 -7 -1 8.32 1.97
1 7 1 8.7 2.08
-1 -7 -2 1102.57 18.09
1 7 2 1060.97 15.11
-1 -7 -3 15.55 3.07
1 7 3 12.39 1.99
1 7 4 233.67 7.9
1 7 4 240.34 7.4
1 7 5 254.14 8.29
1 7 5 250.41 7.65
1 7 6 76.96 4.54
1 7 6 81.76 4.84
1 7 6 74.82 4.16
1 7 7 13.73 1.96
1 7 7 13.96 2.01
1 7 8 22.75 2.45
1 7 9 134.65 5.84
-1 -7 -10 20.07 2.31
1 7 10 21.11 2.26
1 7 11 25.53 2.41
-1 -7 -11 24.7 2.56
-1 -7 -12 307.04 9.09
-1 -7 -13 39.29 3.21
-1 -7 -14 301.48 8.6
1 7 15 15.95 1.75
-1 -7 -15 17.22 2.03
-1 -7 -16 108.1 4.99
-1 -7 -17 0.85 0.5
-1 -7 -17 0.32 0.37
-1 -7 -18 123.05 4.73
-1 -7 -18 103.55 4.56
-1 -7 -19 28.15 2.21
-1 -7 -20 26.69 2.06
-1 -7 -21 14.3 1.38
-1 -7 -22 0.87 0.29
-1 -7 -23 41.11 1.84
-1 -7 -23 43.51 1.86
1 8 -15 40.92 1.91
1 8 -14 16.96 1.35
1 8 -13 60.51 2.71
1 8 -12 4.82 0.83
1 8 -11 74.22 3.28
1 8 -10 121.9 4.36
1 8 -9 13.04 1.5
1 8 -8 121.41 4.62
1 8 -7 6.16 1.19
1 8 -6 243.87 7.31
1 8 -6 279.6 7.27
1 8 -5 4.14 1.09
1 8 -5 5.77 1.22
1 8 -4 106.97 5.33
1 8 -4 105.78 4.62
1 8 -3 31.97 3.02
1 8 -3 28.49 2.51
1 8 -2 163.72 7
1 8 -2 154.59 5.75
1 8 -1 172.72 7.26
1 8 -1 147 5.68
1 8 0 32.26 3.22
1 8 0 24.13 2.4
1 8 1 42.34 3.67
1 8 1 33.7 2.86
1 8 2 34.39 3.27
1 8 2 24.92 2.5
1 8 3 19.04 2.51
1 8 3 15.56 2.01
1 8 4 3.1 1.18
1 8 4 1.79 1.06
1 8 5 104.47 5.43
1 8 5 82.98 4.6
1 8 6 288.1 8.82
1 8 7 10.2 1.7
1 8 8 145.5 5.98
1 8 9 2.4 0.86
1 8 10 191.2 6.36
1 8 11 25.25 2.23
1 8 12 31.1 2.37
-1 -8 -12 29.8 2.57
-1 -8 -13 20.9 2.08
1 8 14 31.42 2.32
-1 -8 -14 31.29 2.48
-1 -8 -15 59.15 3.29
1 8 15 57.98 2.98
1 8 16 3.68 0.74
-1 -8 -16 4.02 0.83
-1 -8 -17 65.79 3.15
-1 -8 -17 50.55 2.81
-1 -8 -18 85.69 3.45
-1 -8 -19 37.82 2.19
-1 -8 -20 170.16 4.23
1 9 -11 21.12 1.46
1 9 -10 95.68 3.3
1 9 -9 6.62 0.97
1 9 -8 61.83 2.94
1 9 -7 151.29 4.76
1 9 -6 1.1 0.57
1 9 -5 41.05 2.56
1 9 -5 50.6 2.96
1 9 -4 22.84 2.06
1 9 -4 27.63 2.27
1 9 -3 106.54 4.75
1 9 -3 118.16 4.7
1 9 -2 165.69 6.09
1 9 -2 168.29 5.77
1 9 -1 4.33 1.12
1 9 -1 6.13 1.37
1 9 -1 3.34 0.88
1 9 0 175.26 6.52
1 9 0 160.34 5.75
1 9 1 21.43 2.6
1 9 1 25.92 2.91
1 9 2 391.7 9.78
1 9 2 343.07 8.44
1 9 3 71.33 4.25
1 9 4 108.21 5.07
1 9 5 30.72 2.7
1 9 6 54.96 3.49
1 9 7 155.7 5.67
1 9 8 4.44 0.99
1 9 9 38.55 2.66
1 9 10 29.85 2.26
1 9 11 114.62 4.38
1 9 11 91.94 3.65
1 9 12 164.17 4.98
1 9 12 125.71 3.95
1 9 13 1.76 0.62
1 9 14 139.09 4.14
1 9 15 0.11 0.22
-1 -9 -16 78.81 2.98
-1 -9 -17 13.52 1.18
1 10 -2 59.55 2.67
1 10 -1 59.49 2.8
1 10 0 5.31 0.93
1 10 1 99.64 3.84
1 10 1 79.07 3.18
1 10 2 12.95 1.4
1 10 2 15.29 1.59
1 10 3 71.65 3.2
1 10 3 81.85 3.5
1 10 4 66.42 3.1
1 10 4 70.14 3.27
1 10 5 46.05 2.63
1 10 5 43.28 2.59
1 10 6 167.4 4.81
1 10 6 173.36 4.89
1 10 7 7.63 1.16
1 10 7 6.14 0.95
1 10 8 63.87 2.77
1 10 8 70.32 2.99
1 10 9 8.96 1.05
1 10 9 6.98 0.89
1 10 10 33.71 1.96
1 10 11 9.13 1.01
1 10 12 17.74 1.32
-1 -10 -13 56.91 2.18
2 -9 -10 23.62 1.5
2 -9 -9 19.06 1.44
2 -9 -9 13.17 1.21
2 -9 -8 9.25 1.05
2 -9 -7 18.35 1.53
2 -9 -6 1.11 0.61
2 -9 -5 28.83 2
2 -9 -4 15 1.65
2 -9 -3 38.85 2.46
2 -9 -2 32.73 2.26
2 -9 -1 15.36 1.91
2 -9 0 87.51 3.59
2 -9 1 1.68 0.67
2 -9 2 16.23 1.49
2 -9 3 0.13 0.22
2 -8 -14 20.3 1.43
2 -8 -14 16.44 1.41
2 -8 -13 22.7 1.75
2 -8 -13 27.37 1.81
2 -8 -12 20.13 1.77
2 -8 -12 24.04 1.87
2 -8 -11 17.14 1.72
2 -8 -10 6.84 1.09
2 -8 -9 42.64 2.89
2 -8 -8 253.84 7.12
2 -8 -7 2.2 1.13
2 -8 -6 181.86 6.28
2 -8 -5 4.89 2.15
2 -8 -4 152.76 5.95
2 -8 -3 50.49 3.82
2 -8 -2 37.54 3.06
2 -8 -1 16.01 2.04
2 -8 0 17.79 2.44
2 -8 1 109.17 5.09
2 -8 2 72.96 4.16
2 -8 3 60.32 3.76
2 -8 4 175.13 6.23
2 -8 5 0.73 0.77
2 -8 6 148.82 5.56
2 -8 7 6.2 1.1
2 -8 8 26.09 2.18
2 -8 9 0.4 0.38
2 -7 -19 28.3 1.69
2 -7 -18 24.14 1.7
2 -7 -17 11.58 1.25
2 -7 -17 8.44 1.05
2 -7 -16 110.78 4.04
2 -7 -16 83.94 3.58
2 -7 -15 15.91 1.63
2 -7 -15 14.43 1.41
2 -7 -15 13.15 1.49
2 -7 -14 117.04 4.54
2 -7 -14 110.05 4.17
2 -7 -13 0.65 0.5
2 -7 -13 1.02 0.52
2 -7 -13 0.67 0.57
2 -7 -12 151.94 5.53
2 -7 -12 146.36 5.64
2 -7 -11 3.08 0.87
2 -7 -11 1.3 0.57
2 -7 -10 113.81 4.99
2 -7 -10 115.32 5.29
2 -7 -9 109.8 5.25
2 -7 -8 21.32 2.42
2 -7 -7 10.91 1.74
2 -7 -6 1.19 1.12
2 -7 -5 74.57 4.64
2 -7 -4 49.21 3.85
2 -7 -3 29.01 3.1
2 -7 -3 31.68 3.08
2 -7 -2 87.46 5.11
2 -7 -2 93.5 5.02
2 -7 -1 6.57 1.94
2 -7 -1 0.9 1.66
2 -7 0 266.59 8.92
2 -7 0 269.41 8.39
2 -7 1 7.37 1.78
2 -7 1 10.4 1.97
2 -7 2 82.75 4.91
2 -7 2 81.61 4.52
2 -7 3 7.74 1.51
2 -7 3 6.7 1.46
2 -7 4 129.18 6
2 -7 4 125.13 5.41
2 -7 5 14.69 2.07
2 -7 5 14.23 1.85
2 -7 6 97.6 5.09
2 -7 6 88.65 4.46
2 -7 7 53.65 3.71
2 -7 7 48.46 3.2
2 -7 8 9.56 1.55
2 -7 9 42.62 3.22
2 -7 10 24.72 2.42
2 -7 11 12.63 1.7
2 -7 12 101.87 4.51
2 -7 13 -0.05 0.31
2 -6 -21 0.7 0.41
2 -6 -20 151.15 4.35
2 -6 -19 0.78 0.5
2 -6 -18 189.18 5.51
2 -6 -17 18.49 1.85
2 -6 -17 22.9 2.09
2 -6 -16 109.98 4.71
2 -6 -16 123.81 4.35
2 -6 -15 69.15 3.84
2 -6 -15 74.1 3.66
2 -6 -14 16.73 1.86
2 -6 -14 16.97 1.98
2 -6 -13 27.57 2.56
2 -6 -13 25.62 2.56
2 -6 -12 200.91 7.18
2 -6 -11 15.67 2.08
2 -6 -10 151.5 6.49
2 -6 -9 3.18 1.08
2 -6 -8 337.77 9.96
2 -6 -7 0.18 0.44
2 -6 -6 330.26 10.07
2 -6 -6 314.77 9.53
2 -6 -5 1.55 0.97
2 -6 -5 4.84 1.37
2 -6 -4 227.64 7.86
2 -6 -4 236.15 8.67
2 -6 -3 55.45 3.89
2 -6 -3 60.19 4.45
2 -6 -2 38.13 3.5
2 -6 -2 36.37 3.17
2 -6 -1 24.56 2.84
2 -6 -1 23.69 2.49
2 -6 0 11.41 1.77
2 -6 0 7.66 1.55
2 -6 1 22.8 2.46
2 -6 1 21.87 2.62
2 -6 2 21.76 2.38
2 -6 2 22.49 2.65
2 -6 3 80.47 4.97
2 -6 3 79.32 4.43
2 -6 4 231.24 8.38
2 -6 4 223.66 7.33
2 -6 5 2.21 1.09
2 -6 5 1.68 0.83
2 -6 6 181.35 7.39
2 -6 6 171.73 6.25
2 -6 7 1.5 0.93
2 -6 7 2.74 0.91
2 -6 8 269.65 8.89
2 -6 8 244.91 7.35
2 -6 9 6.61 1.52
2 -6 9 6.26 1.24
2 -6 10 137.29 5.26
2 -6 10 160.43 6.83
2 -6 11 46.22 3.57
2 -6 12 11.24 1.77
2 -6 13 18.5 2.17
2 -6 14 3.07 0.87
2 -6 15 27.82 2.43
2 -6 16 57.22 3.26
2 -5 -23 4.33 0.57
2 -5 -22 17.25 1.45
2 -5 -21 33.36 2.22
2 -5 -20 4.97 0.92
2 -5 -19 6.47 1.11
2 -5 -19 5.41 0.94
2 -5 -18 91.7 4.34
2 -5 -18 79.81 3.83
2 -5 -17 32.75 2.58
2 -5 -17 30.23 2.58
2 -5 -16 167.81 6.33
2 -5 -16 185.19 5.81
2 -5 -15 17.88 2.1
2 -5 -15 19 2.05
2 -5 -14 33.88 2.78
2 -5 -14 33.88 2.96
2 -5 -13 15.44 2.01
2 -5 -13 13.08 1.89
2 -5 -12 198.05 7.39
2 -5 -11 10.55 1.75
2 -5 -10 341.45 9.82
2 -5 -9 30.21 2.96
2 -5 -8 25.37 3.02
2 -5 -8 33.08 3.14
2 -5 -8 32.33 3.1
2 -5 -7 53.33 4.02
2 -5 -7 53.65 3.9
2 -5 -6 1.43 0.91
2 -5 -6 0.85 0.62
2 -5 -6 0.26 0.7
2 -5 -5 8.86 1.66
2 -5 -5 9.46 1.65
2 -5 -5 13.37 1.98
2 -5 -4 94.68 5.54
2 -5 -4 98.65 4.98
2 -5 -3 44.4 3.3
2 -5 -3 43.04 3.66
2 -5 -2 161.52 7.05
2 -5 -2 161.16 6.08
2 -5 -1 -0.39 0.71
2 -5 -1 1.57 0.85
2 -5 0 559.47 12.13
2 -5 0 595.05 11.27
2 -5 0 572 13
2 -5 1 1.3 1
2 -5 1 -0.57 0.77
2 -5 1 0.89 0.84
2 -5 2 356.36 10.05
2 -5 2 381.66 9.06
2 -5 2 363.08 10.35
2 -5 3 39 3.44
2 -5 3 37.26 3.32
2 -5 3 41.17 3.02
2 -5 4 116.03 5.06
2 -5 4 109.01 5.66
2 -5 4 104.68 5.81
2 -5 5 43.65 3.85
2 -5 5 45.32 3.72
2 -5 5 48.59 3.28
2 -5 6 0.14 0.67
2 -5 6 1.81 0.78
2 -5 7 9.61 1.69
2 -5 7 10.2 1.53
2 -5 8 58.22 4.24
2 -5 8 57.37 3.56
2 -5 9 28.88 2.97
2 -5 9 28.68 2.52
2 -5 10 24.81 2.33
2 -5 10 26.83 2.87
2 -5 11 1.72 0.65
2 -5 11 1.69 0.82
2 -5 12 161.76 7
2 -5 12 131.18 5.03
2 -5 13 6.16 1.37
2 -5 14 186.96 7.33
2 -5 15 3.43 1.07
2 -5 16 161.45 6.49
2 -5 17 9.75 1.61
2 -5 18 21.15 2.07
2 -4 -24 121.34 3.06
2 -4 -23 0.26 0.22
2 -4 -23 0.66 0.4
2 -4 -22 228.05 5.8
2 -4 -21 -0.04 0.31
2 -4 -20 284.36 7.41
2 -4 -20 260.89 7.04
2 -4 -19 3.72 0.93
2 -4 -19 4.14 1.03
2 -4 -18 214.69 7.09
2 -4 -18 226.21 7.28
2 -4 -17 0.1 0.29
2 -4 -16 157.68 5.65
2 -4 -16 145.39 6.3
2 -4 -15 38.09 2.93
2 -4 -15 35.31 3.21
2 -4 -14 1.83 0.73
2 -4 -14 2.33 0.94
2 -4 -13 15.83 2.05
2 -4 -13 12.41 1.92
2 -4 -12 340.21 9.54
2 -4 -11 45.28 3.94
2 -4 -10 233.44 8.96
2 -4 -9 0.85 0.74
2 -4 -9 2.13 0.95
2 -4 -8 503.23 12.5
2 -4 -8 531.14 11.47
2 -4 -7 1.49 0.89
2 -4 -7 1.28 0.7
2 -4 -6 283.38 8.82
2 -4 -6 287.87 8.02
2 -4 -5 5.66 1.28
2 -4 -5 5.18 1.12
2 -4 -4 418.27 9.49
2 -4 -4 466.22 9.65
2 -4 -3 29.42 2.42
2 -4 -3 31.74 2.49
2 -4 -2 2.63 0.77
2 -4 -2 1.28 0.57
2 -4 -1 58.19 3.32
2 -4 -1 63.46 3.82
2 -4 0 14.16 1.65
2 -4 0 17.16 2.15
2 -4 1 1.57 0.87
2 -4 1 2.14 0.71
2 -4 2 80.36 4.67
2 -4 2 75.52 3.82
2 -4 3 39.7 2.81
2 -4 3 42.08 3.43
2 -4 4 246.78 8.49
2 -4 4 232.32 6.81
2 -4 5 1.56 0.9
2 -4 5 0.5 0.39
2 -4 5 1.67 0.68
2 -4 6 398.12 9.09
2 -4 6 417.9 12
2 -4 7 23.61 3.05
2 -4 7 18.91 2.46
2 -4 7 20.45 2.23
2 -4 8 467.53 13.28
2 -4 8 433.47 11.11
2 -4 8 461.59 10.03
2 -4 9 17.58 2.3
2 -4 9 17.28 2
2 -4 10 397.5 9.35
2 -4 10 398.14 10.74
2 -4 11 30.69 3.03
2 -4 11 28.72 2.52
2 -4 12 0.44 0.53
2 -4 12 0.7 0.61
2 -4 13 17.85 1.93
2 -4 13 18.82 2.45
2 -4 14 1.68 0.55
2 -4 14 1.75 0.84
2 -4 15 7.65 1.53
2 -4 16 144.51 6.49
2 -4 17 26.32 2.73
2 -4 18 204.45 7.32
2 -4 19 1.23 0.65
2 -4 20 330.55 8.04
2 -3 -24 54.68 2.28
2 -3 -23 13.12 1.28
2 -3 -23 16.06 1.35
2 -3 -22 10.06 1.31
2 -3 -21 2.19 0.71
2 -3 -20 12.95 1.74
2 -3 -20 11.61 1.63
2 -3 -19 32.22 2.75
2 -3 -19 30.42 2.75
2 -3 -18 47.22 3.46
2 -3 -18 44.43 3.47
2 -3 -17 0.67 0.67
2 -3 -17 1.83 0.82
2 -3 -16 407.29 9.15
2 -3 -16 388.44 10.74
2 -3 -15 0.98 0.63
2 -3 -15 0.77 0.73
2 -3 -14 156.08 6.98
2 -3 -14 174.71 6.32
2 -3 -13 17.8 2.35
2 -3 -13 22.69 2.37
2 -3 -13 18.3 2.35
2 -3 -12 323.02 9.83
2 -3 -12 332.2 9.84
2 -3 -11 0.85 0.66
2 -3 -11 1.74 0.85
2 -3 -11 1.91 0.78
2 -3 -10 184.67 7.02
2 -3 -9 26.75 2.63
2 -3 -8 0.42 0.45
2 -3 -7 0.75 0.5
2 -3 -6 7.52 1.28
2 -3 -5 27.91 2.33
2 -3 -4 180.39 5.67
2 -3 -3 5.87 1.22
2 -3 -2 388.41 7.71
2 -3 -1 11.27 2.04
2 -3 -1 8.25 1.18
2 -3 0 738.95 12.5
2 -3 1 1.89 1.32
2 -3 2 434.1 10.1
2 -3 3 11.56 1.75
2 -3 4 182.93 6.96
2 -3 5 28.12 2.91
2 -3 6 20.08 2.56
2 -3 6 17.85 1.95
2 -3 7 26.72 2.92
2 -3 7 27.96 2.4
2 -3 8 81.74 4.19
2 -3 8 77.21 5.15
2 -3 9 3.99 1.3
2 -3 9 3.99 0.98
2 -3 10 161.86 6.15
2 -3 10 153.7 8.14
2 -3 11 12.4 2.4
2 -3 11 9.75 1.54
2 -3 12 271.48 8.01
2 -3 13 0.88 0.51
2 -3 14 274.69 7.99
2 -3 15 1.73 0.67
2 -3 16 232.93 7.07
-2 3 -17 28.48 2.52
2 -3 17 30.2 3.08
-2 3 -18 30.91 2.57
2 -3 18 33.07 3.13
-2 3 -19 -0.04 0.4
2 -3 19 0.08 0.4
-2 3 -20 1.87 0.61
2 -3 20 2.11 0.73
2 -3 21 10.4 1.46
2 -2 -25 0.14 0.15
2 -2 -24 178.87 4.43
2 -2 -23 0.27 0.23
2 -2 -22 264.82 6.24
2 -2 -21 0.17 0.33
2 -2 -21 0.61 0.43
2 -2 -20 392.85 9.49
2 -2 -20 390.61 9.72
2 -2 -19 1.31 0.74
2 -2 -19 1.12 0.71
2 -2 -18 138.13 6.05
2 -2 -18 138.65 6.23
2 -2 -17 1.07 0.63
2 -2 -17 1.24 0.77
2 -2 -16 38.93 3.31
2 -2 -16 34.29 3.22
2 -2 -16 35.82 2.77
2 -2 -15 9.78 1.53
2 -2 -15 12.14 2.15
2 -2 -15 14.01 2.19
2 -2 -14 17.95 2.32
2 -2 -14 17.84 2.35
2 -2 -14 19.43 2.08
2 -2 -13 6.65 1.29
2 -2 -13 6.6 1.68
2 -2 -13 7.26 1.6
2 -2 -12 31.88 3.04
2 -2 -12 39.31 3.03
2 -2 -12 35.84 3.11
2 -2 -11 12.85 1.88
2 -2 -11 15.66 1.99
2 -2 -11 16.71 1.98
2 -2 -10 346.14 8.88
2 -2 -10 332.39 9.27
2 -2 -10 343.4 8.83
2 -2 -9 0.39 0.36
2 -2 -9 0.99 0.7
2 -2 -8 686.02 12.2
2 -2 -8 691.53 11.58
2 -2 -7 0.46 0.42
2 -2 -7 1.88 0.88
2 -2 -6 1092.6 13.75
2 -2 -5 21.37 1.92
2 -2 -4 219.42 5.75
2 -2 -3 1.56 0.62
2 -2 -1 56.1 3.26
2 -2 0 110.01 4.6
2 -2 1 1.34 0.68
2 -2 2 68.46 3.85
2 -2 3 29.56 2.86
2 -2 4 2709.96 25.3
2 -2 5 32.06 3.01
2 -2 6 241.01 8.07
2 -2 7 9.47 1.78
2 -2 8 585.83 13.61
2 -2 9 13.98 1.77
2 -2 9 12.86 2.21
2 -2 10 107.35 5.02
2 -2 10 92.18 5.95
2 -2 11 1.94 0.71
2 -2 12 34.52 2.95
2 -2 13 17.65 2.14
2 -2 14 96.01 5.04
-2 2 -15 0.54 0.53
2 -2 15 1.88 0.9
-2 2 -16 132.13 5.53
2 -2 16 148.92 6.14
-2 2 -17 3.65 0.95
2 -2 17 4.77 1.09
-2 2 -18 237.68 7.33
2 -2 18 230.32 7.15
-2 2 -19 0.78 0.59
-2 2 -20 192.89 6.26
-2 2 -21 -0.08 0.34
-2 2 -22 191.04 5.5
2 -2 22 156.63 5.66
-2 2 -23 1.67 0.47
2 -1 -25 1.76 0.4
2 -1 -24 79.3 2.99
2 -1 -23 0.68 0.36
2 -1 -22 -0.45 0.46
2 -1 -21 5.04 0.97
2 -1 -20 10.59 1.4
2 -1 -19 0.95 0.53
2 -1 -18 54.39 3.85
2 -1 -18 54.12 3.91
2 -1 -17 2.4 1
2 -1 -17 4.12 1.19
2 -1 -16 460.88 9.82
2 -1 -16 468.77 11.66
2 -1 -15 1.39 0.9
2 -1 -15 1.68 0.71
2 -1 -15 2.49 0.97
2 -1 -15 2.46 1.05
2 -1 -14 475.95 10.28
2 -1 -14 462.87 11.23
2 -1 -14 468.28 11.46
2 -1 -13 5.29 1.28
2 -1 -13 5.66 1.15
2 -1 -13 5.35 1.27
2 -1 -13 4.09 1.22
2 -1 -12 433.46 9.56
2 -1 -12 438.2 10.65
2 -1 -12 432.75 10.56
2 -1 -12 418.07 11.59
2 -1 -11 11.05 1.55
2 -1 -11 6.59 1.47
2 -1 -11 11.03 1.64
2 -1 -11 10.29 1.75
2 -1 -10 87.98 4.75
2 -1 -9 3.29 0.93
2 -1 -8 133.42 5.36
2 -1 -7 20.2 2
2 -1 -6 3.01 0.79
2 -1 -5 2.54 0.75
2 -1 -4 439.97 8.37
2 -1 -3 5.52 1.05
2 -1 -2 759.93 10.71
2 -1 -1 4.85 1.25
2 -1 0 541.19 9.66
2 -1 1 5.94 1.53
2 -1 2 46.38 2.93
2 -1 3 0.7 0.81
2 -1 4 213.52 6.71
2 -1 5 4.37 1.1
2 -1 6 425.91 10.39
2 -1 7 15.72 2.96
2 -1 8 63.36 4.26
2 -1 9 4 1.56
2 -1 9 3.56 1.12
2 -1 10 368.82 9.17
2 -1 10 346.72 10.72
2 -1 10 377.27 10.05
2 -1 11 1.58 1.01
2 -1 11 0.33 0.52
2 -1 12 516.01 14
2 -1 12 592.26 12.3
2 -1 13 3.69 1.42
2 -1 13 2.71 0.8
2 -1 13 3.2 1.07
-2 1 -14 210.04 6.96
2 -1 14 209.86 9.17
-2 1 -15 4.2 1.07
2 -1 15 4.64 1.34
-2 1 -16 573.31 11.95
2 -1 16 650.5 13.79
-2 1 -17 1.48 0.74
2 -1 17 1.04 0.73
-2 1 -18 46.55 3.37
2 -1 18 59.38 4.15
-2 1 -19 12.3 1.67
2 -1 19 13.58 1.88
-2 1 -20 11.53 1.59
2 -1 20 11.79 1.64
-2 1 -21 0.26 0.3
-2 1 -22 66.19 3.44
-2 1 -23 4.46 0.83
-2 1 -24 130.56 3.9
2 0 -25 -0.34 0.28
2 0 -24 214.63 4.82
2 0 -23 0.54 0.38
2 0 -22 280 6.7
2 0 -21 0.46 0.34
2 0 -20 363.95 8.47
2 0 -19 0.33 0.34
2 0 -18 137.16 5.38
2 0 -17 5.68 1.08
2 0 -16 20.99 2.45
2 0 -15 3.92 1.08
2 0 -15 3.85 1.39
2 0 -15 3.22 1.07
2 0 -14 16.95 1.89
2 0 -14 10.99 1.9
2 0 -14 18.03 2.22
2 0 -14 18.41 2.69
2 0 -13 2.89 0.96
2 0 -13 2.38 0.78
2 0 -13 2.77 0.9
2 0 -13 3.08 1.12
2 0 -12 201.8 6.61
2 0 -12 209.99 7.16
2 0 -12 196.84 7.97
2 0 -11 39.96 2.91
2 0 -11 41.72 3.09
2 0 -11 38.56 3.33
2 0 -10 283.48 8.45
2 0 -9 15.25 1.9
2 0 -8 1119.73 15.42
2 0 -7 12.87 1.6
2 0 -6 733.19 11.36
2 0 -5 28.34 2.18
2 0 -4 640.82 10.09
2 0 -3 11.07 1.41
2 0 -2 44.86 3.03
2 0 -1 50.52 2.75
2 0 0 2.3 0.56
2 0 2 556.07 9.65
2 0 3 55.35 3.2
2 0 3 50.54 2.3
2 0 4 2628.3 21.55
2 0 4 2588.02 17.33
2 0 5 95.24 4.37
2 0 5 83.28 3.37
2 0 6 854.98 13.51
2 0 6 844.3 11.5
2 0 7 44.71 3.19
2 0 7 49.45 2.93
2 0 8 285.76 8.46
2 0 8 299.29 7.58
2 0 9 24.66 2.66
2 0 9 26.68 2.31
2 0 10 218.64 7.92
2 0 10 228.58 6.86
2 0 11 9.26 1.69
2 0 11 8.53 1.41
2 0 12 3.37 1.03
2 0 12 4.13 0.88
2 0 12 2.85 0.98
-2 0 -13 7.47 1.34
2 0 13 6.47 1.47
2 0 13 8.4 1.42
2 0 13 9.33 1.67
-2 0 -14 74.49 4.34
2 0 14 74.65 4.35
2 0 15 8.57 1.72
2 0 15 6.38 1.32
-2 0 -15 8.16 1.44
-2 0 -16 362.7 9.63
2 0 16 416.33 11.59
-2 0 -17 9.9 1.61
2 0 17 10.2 1.82
-2 0 -18 165.15 6.47
2 0 18 183.01 7.51
-2 0 -19 12.32 1.77
2 0 19 13.37 2.02
-2 0 -20 203.21 6.9
2 0 20 199.11 7.26
-2 0 -21 8.08 1.34
2 0 21 7.82 1.42
-2 0 -22 207.06 6.19
2 0 22 176.05 5.81
-2 0 -23 3.03 0.73
-2 0 -24 58.52 2.8
2 1 -24 13.47 1.16
2 1 -23 0.18 0.32
2 1 -22 2.04 0.61
2 1 -21 8.57 1.22
2 1 -20 69.23 3.68
2 1 -19 0.11 0.54
2 1 -18 141.99 5.59
2 1 -17 18.94 2.07
2 1 -16 446.3 8.71
2 1 -16 496.78 10.36
2 1 -15 42.8 2.78
2 1 -15 44.56 3.15
2 1 -14 96.61 5.93
2 1 -14 94.36 4.43
2 1 -13 0.49 0.35
2 1 -13 0.57 0.68
2 1 -13 1.36 0.81
2 1 -12 347.3 10.3
2 1 -12 307.71 7.63
2 1 -11 3.59 0.82
2 1 -11 5.2 1.07
2 1 -11 6.01 1.35
2 1 -10 145.1 6.03
2 1 -9 1.13 0.64
2 1 -8 7.04 1.23
2 1 -7 10.62 1.47
2 1 -6 113.4 4.49
2 1 -5 2.5 0.68
2 1 -4 409.41 8.02
2 1 -3 16.32 1.79
2 1 -2 713.43 10.41
2 1 -1 23.89 2.24
2 1 0 1066.25 12.62
2 1 1 40.48 2.7
2 1 2 317.55 5.56
2 1 3 11.94 1.19
2 1 4 98.45 3.54
2 1 4 104.34 4.19
2 1 5 18.2 1.77
2 1 5 14.45 1.4
2 1 6 10.66 1.39
2 1 6 9.53 1.16
2 1 7 -0.17 0.48
2 1 7 0.45 0.42
2 1 8 222.73 6.78
2 1 8 213.05 6.14
2 1 9 29.7 2.58
2 1 9 26.03 2.21
2 1 10 494.86 10.91
2 1 10 469.19 9.91
2 1 11 8.85 1.53
2 1 11 8.71 1.39
2 1 12 416.71 9.79
-2 -1 -13 7.8 1.5
2 1 13 7.49 1.41
-2 -1 -14 412.49 10.69
2 1 14 397.34 10.18
-2 -1 -15 1.12 0.73
2 1 15 1.28 0.57
-2 -1 -16 293.33 9.16
-2 -1 -17 2.7 0.99
-2 -1 -18 51.18 3.71
2 1 18 55.27 4.42
-2 -1 -19 10.39 1.68
2 1 19 27.26 3.22
-2 -1 -20 33.01 2.8
2 1 20 33.19 3.15
-2 -1 -21 1.64 0.76
2 1 21 5.27 1.45
-2 -1 -22 20.43 2.02
2 1 22 18.26 2.04
-2 -1 -23 10.61 1.36
2 1 23 9.11 1.32
-2 -1 -24 236.14 5.65
-2 -1 -25 3.71 0.65
2 2 -24 126.45 3.19
2 2 -23 0 0.19
2 2 -22 312.07 6.39
2 2 -21 2.8 0.66
2 2 -20 192.96 5.84
2 2 -19 0.37 0.36
2 2 -18 201.08 6.51
2 2 -17 -0.4 0.54
2 2 -16 80.1 3.91
2 2 -16 86.28 4.44
2 2 -15 27.36 2.24
2 2 -15 28.04 2.52
2 2 -14 4.57 1.02
2 2 -14 5.81 1.26
2 2 -13 14.95 2.3
2 2 -13 11.1 1.41
2 2 -13 11.78 1.58
2 2 -12 735.61 15.24
2 2 -12 742.26 12.38
2 2 -11 17.86 2.31
2 2 -11 16.53 1.83
2 2 -10 588.75 12.45
2 2 -10 512.05 9.91
2 2 -9 2.2 0.82
2 2 -8 694.45 12.19
2 2 -7 8.08 1.32
2 2 -6 494.37 9.6
2 2 -5 2.47 0.67
2 2 -4 332 7.45
2 2 -3 112.19 4.25
2 2 -2 24.62 2.12
2 2 -1 14.83 2.05
2 2 0 418.74 8.15
2 2 1 13.51 1.55
2 2 1 10.61 1.08
2 2 2 197.09 4.73
2 2 3 0.48 0.36
2 2 4 812.76 10.77
2 2 5 0.17 0.3
2 2 6 525.67 9.41
2 2 7 0.28 0.46
2 2 8 850.85 12.75
2 2 9 1.82 0.77
2 2 10 269.77 7.61
2 2 11 56.27 3.6
2 2 12 9.96 1.54
-2 -2 -12 11.34 1.82
-2 -2 -13 -0.14 0.57
2 2 13 -0.04 0.57
2 2 14 82.4 4.85
-2 -2 -14 109.06 5.86
-2 -2 -15 9.29 1.74
2 2 15 6.97 1.45
-2 -2 -16 419.96 11.28
-2 -2 -17 8.1 1.57
-2 -2 -18 404.02 10.63
-2 -2 -19 8.95 1.75
-2 -2 -20 647.82 12.55
2 2 21 2.78 1.13
-2 -2 -21 0.93 0.66
-2 -2 -22 75.83 3.8
2 2 22 72.23 4.19
2 2 23 8.74 1.36
-2 -2 -23 10.1 1.29
-2 -2 -24 7.78 1.13
2 2 24 6.32 1.07
-2 -2 -25 0.53 0.3
2 3 -23 13.9 1.06
2 3 -22 4.43 0.7
2 3 -21 0.59 0.27
2 3 -20 43.48 2.59
2 3 -19 10.32 1.36
2 3 -18 330.66 7.97
2 3 -17 1.15 0.81
2 3 -16 289.22 7.85
2 3 -15 7.47 1.37
2 3 -15 5.48 1.18
2 3 -14 90.76 4.26
2 3 -14 86 4.37
2 3 -13 1.71 0.79
2 3 -13 1.86 0.82
2 3 -12 70.6 3.87
2 3 -12 73.82 4.91
2 3 -12 69.21 3.68
2 3 -11 1.94 0.66
2 3 -11 2.46 0.97
2 3 -11 1.07 0.45
2 3 -10 180.64 5.94
2 3 -10 184.22 5.73
2 3 -9 100.82 5.15
2 3 -9 88.87 3.88
2 3 -9 88.18 4.09
2 3 -8 16.11 1.97
2 3 -8 13.32 1.45
2 3 -8 13.17 1.52
2 3 -7 3.77 0.94
2 3 -7 2.29 0.52
2 3 -6 82.72 4.17
2 3 -5 17.36 1.88
2 3 -4 473.54 9.4
2 3 -3 4.74 0.95
2 3 -2 241.75 6.67
2 3 -1 1.24 0.91
2 3 0 1313.78 15.27
2 3 1 9.72 1.23
2 3 2 433.8 7.73
2 3 3 70.47 3.24
2 3 4 37.17 2.43
2 3 5 61.19 3.23
2 3 6 70.45 3.59
2 3 7 8.25 1.3
2 3 8 593.54 11.18
2 3 9 6.33 1.21
2 3 10 127.76 5.55
2 3 11 4.32 1.67
2 3 12 447.41 11.08
-2 -3 -13 1.77 0.92
2 3 13 2.86 1.7
-2 -3 -14 286.22 9.29
2 3 14 230.78 8.43
-2 -3 -15 0.3 0.44
-2 -3 -16 178.98 7.5
-2 -3 -17 58.49 4.24
-2 -3 -18 5.5 1.28
-2 -3 -19 0.29 0.39
-2 -3 -20 2.12 0.91
-2 -3 -21 7.78 1.3
2 3 22 5.04 1.22
-2 -3 -22 5.63 1.01
-2 -3 -23 12.31 1.35
2 3 23 11.86 1.56
-2 -3 -24 125.03 3.9
2 3 24 105.74 3.94
-2 -3 -25 1.33 0.4
2 4 -21 13.14 1.15
2 4 -20 186.04 4.76
2 4 -19 1.65 0.51
2 4 -18 60.17 3.17
2 4 -17 51.55 3.11
2 4 -16 11.68 1.52
2 4 -15 56.74 3.45
2 4 -14 5.11 1.04
2 4 -13 22.08 2.21
2 4 -12 538.4 10.23
2 4 -12 550.45 10.75
2 4 -11 2.36 0.77
2 4 -11 6.15 1.4
2 4 -10 274.5 9.22
2 4 -10 285.13 7.25
2 4 -10 297.45 7.74
2 4 -9 2.13 0.75
2 4 -9 1.52 0.8
2 4 -9 2.52 1.01
2 4 -8 623.21 10.71
2 4 -8 631.14 11.04
2 4 -7 4.86 0.97
2 4 -7 5.64 1.28
2 4 -7 5.2 1.05
2 4 -6 297.8 8.55
2 4 -6 286.02 6.97
2 4 -5 29.52 2.65
2 4 -5 25.29 2.06
2 4 -4 232.26 7.25
2 4 -4 184.14 5.44
2 4 -3 66.97 3.83
2 4 -2 42.47 3.03
2 4 -1 49.19 3.24
-2 -4 0 166.9 5.42
2 4 0 148.93 4.67
2 4 1 2.61 0.83
2 4 2 467.06 8.59
2 4 3 57.23 3.2
2 4 4 426.35 8.84
2 4 5 11.96 1.59
2 4 6 611.19 11.15
2 4 7 1.2 0.9
2 4 7 0.33 0.47
2 4 8 346.4 10.06
2 4 8 342.57 8.85
2 4 9 28.69 2.68
2 4 9 30.88 3.07
2 4 10 220.48 7.55
2 4 10 213.27 8.04
2 4 11 55.72 3.95
2 4 11 55.34 4.08
2 4 12 33.07 3.12
2 4 12 28.22 2.86
2 4 13 25.71 2.85
-2 -4 -14 108.69 5.62
-2 -4 -15 15.3 2.12
-2 -4 -16 451.57 11.42
-2 -4 -17 15.84 2.18
-2 -4 -18 345.41 9.78
-2 -4 -19 0.9 0.8
-2 -4 -20 708.84 12.34
-2 -4 -21 17.18 1.91
-2 -4 -22 31.92 2.29
-2 -4 -23 18.24 1.57
2 4 23 17.5 1.77
-2 -4 -24 1.54 0.43
2 4 24 3 0.75
-2 -4 -25 11.53 0.95
2 5 -20 46.12 1.96
2 5 -19 0.61 0.3
2 5 -18 66.88 2.91
2 5 -17 10.14 1.23
2 5 -16 308.81 7.1
2 5 -15 1.41 0.59
2 5 -14 148.89 5.28
2 5 -13 2.22 0.74
2 5 -12 190.87 6.17
2 5 -11 44.36 3.02
2 5 -10 1.21 0.61
2 5 -9 71.3 3.81
2 5 -8 11.24 1.5
2 5 -7 21.88 2.05
2 5 -7 19.98 2.43
2 5 -6 152.51 6.57
2 5 -6 161.76 5.49
2 5 -5 12.7 1.88
2 5 -5 12.74 1.54
2 5 -4 287.49 8.66
2 5 -4 267.18 6.85
2 5 -3 17.7 2.17
2 5 -3 16.51 2.14
2 5 -3 12.39 1.45
2 5 -3 13.13 1.89
2 5 -2 271.57 8.54
2 5 -2 258.63 8.16
2 5 -1 11.81 1.83
2 5 -1 11.51 1.89
2 5 0 384.3 10.17
-2 -5 0 381.22 9.19
2 5 0 381.45 10.29
2 5 0 365.46 8.2
2 5 1 43.42 3.52
2 5 1 43.55 2.86
-2 -5 -1 51.2 3.49
2 5 1 44.19 3.62
2 5 1 49.17 3.41
2 5 2 37.97 3.39
2 5 2 38.83 3.35
2 5 2 39.92 3.02
2 5 2 40.83 2.86
2 5 3 27.92 2.95
2 5 3 30.66 3.03
2 5 3 29.76 2.44
2 5 3 24.22 2.24
2 5 4 9.71 1.83
2 5 4 9.34 1.43
2 5 4 12.15 1.92
2 5 4 7.47 1.16
2 5 5 33.37 3.32
2 5 5 37.17 2.87
2 5 5 35.74 3.28
2 5 5 25.4 2.23
2 5 6 0.74 0.47
2 5 6 1.29 0.9
2 5 6 1.57 0.82
2 5 7 41.34 3.75
2 5 7 38.91 3.33
2 5 7 42.02 3.24
2 5 8 247.16 8.87
2 5 8 257.86 8.21
2 5 9 28.56 3.09
2 5 9 31.34 2.95
2 5 10 224.88 8.01
2 5 10 232.63 8.46
2 5 11 1.69 0.97
2 5 11 0.8 0.61
2 5 12 246.76 8.44
2 5 13 1.95 0.94
-2 -5 -15 15.28 2.07
-2 -5 -16 52.67 3.67
-2 -5 -17 47.62 3.44
-2 -5 -18 18.9 2.12
-2 -5 -19 26.45 2.42
-2 -5 -20 54.86 3.24
-2 -5 -21 4.15 0.85
-2 -5 -22 18.16 1.57
-2 -5 -23 9.98 1.08
-2 -5 -24 128.66 3.18
2 5 24 116.93 3.44
2 6 -18 3.77 0.59
2 6 -17 55.5 2.42
2 6 -16 4.9 0.79
2 6 -15 10.26 1.19
2 6 -14 36.06 2.31
2 6 -13 22.1 1.9
2 6 -12 150.32 5.06
2 6 -11 0.34 0.42
2 6 -10 144.66 5.11
2 6 -9 23.41 2.15
2 6 -8 315.29 7.69
2 6 -7 40.6 2.77
2 6 -6 344.77 8.02
2 6 -5 16.1 1.73
2 6 -4 15.63 1.74
2 6 -3 121.62 5.88
2 6 -3 129.68 4.91
2 6 -3 120.26 5.67
2 6 -2 3.64 1.29
2 6 -2 5.62 1.31
2 6 -2 5.42 1.01
2 6 -1 3.61 0.87
2 6 -1 2.91 1.31
2 6 -1 3.43 1.12
2 6 0 78.86 5.03
2 6 0 75.32 4.9
2 6 1 171.19 7.31
-2 -6 -1 148.37 6.46
2 6 1 164.69 7.2
2 6 1 175.78 6.5
2 6 2 247.07 8.76
-2 -6 -2 250.94 8.78
2 6 2 242.58 8.76
2 6 2 229.53 7.35
2 6 2 240.03 7.35
2 6 3 10.59 2.12
2 6 3 14.21 2.97
2 6 3 7.77 1.58
2 6 4 834.75 16.14
2 6 4 874.24 16.38
2 6 4 844.63 14.67
2 6 5 0.38 0.71
2 6 5 3.73 1.57
2 6 5 2.38 1.26
2 6 6 272.03 9.28
2 6 6 284.26 9.15
2 6 6 254.75 8.14
2 6 7 134.63 6.55
2 6 7 121.42 5.71
2 6 7 133.84 6.15
2 6 8 127.18 6.32
2 6 9 2.31 1
2 6 10 1.58 0.85
2 6 11 113.11 5.71
2 6 12 2.67 0.99
2 6 13 19.4 2.25
2 6 14 173 6.29
2 6 15 44.22 3.06
-2 -6 -16 285.9 7.91
-2 -6 -17 4.48 0.98
-2 -6 -18 139.84 5.25
-2 -6 -19 2.17 0.65
-2 -6 -20 184.82 5.33
-2 -6 -21 11.43 1.21
-2 -6 -22 38.38 1.97
-2 -6 -23 6.28 0.71
2 6 23 5.61 0.75
2 7 -15 0.67 0.34
2 7 -14 138.58 4.01
2 7 -13 38.08 2.23
2 7 -12 69.97 3.18
2 7 -11 75.55 3.41
2 7 -10 0.68 0.46
2 7 -9 75.78 3.61
2 7 -8 90.14 4.02
2 7 -7 20.99 1.99
2 7 -6 86.73 4.03
2 7 -5 18.32 1.9
2 7 -4 295.71 7.51
2 7 -3 0.97 0.56
2 7 -3 0.41 0.37
2 7 -2 145.5 6.54
2 7 -2 155.01 5.4
2 7 -2 145.04 6.26
2 7 -1 18.52 2.49
2 7 -1 17.38 2.14
2 7 -1 17.43 1.87
2 7 -1 15.97 2.28
2 7 0 217.91 8.34
2 7 0 192.42 6.54
2 7 0 207.78 6.27
2 7 0 201.18 7.81
2 7 1 86.73 5.22
2 7 1 72.53 3.82
2 7 1 85.29 5.09
2 7 2 5 1.41
2 7 2 5.72 1.5
2 7 3 15.17 2.29
2 7 3 15.35 2.22
2 7 4 1.85 0.98
2 7 4 0.61 0.6
2 7 5 14.46 2.17
2 7 5 12.86 2.01
2 7 6 19.06 2.49
2 7 6 19.04 2.37
2 7 7 101.41 5.56
2 7 7 91.2 4.94
2 7 8 191.05 7.42
2 7 9 33.87 3.13
2 7 10 146.74 6.23
2 7 11 0.89 0.82
2 7 12 267.99 7.89
2 7 13 8.17 1.34
2 7 14 73.14 3.72
2 7 15 9.87 1.33
-2 -7 -16 102.53 4.25
-2 -7 -17 47.46 2.77
-2 -7 -18 1.05 0.43
-2 -7 -19 65.32 2.94
-2 -7 -20 37.14 2.01
-2 -7 -21 23.96 1.42
2 8 -12 137.98 4.03
2 8 -12 148.68 3.77
2 8 -11 8.1 1.08
2 8 -11 8.92 1.01
2 8 -10 109.46 4.17
2 8 -10 115.08 3.76
2 8 -9 3.09 0.68
2 8 -9 3.32 0.83
2 8 -8 157.17 5.35
2 8 -8 164.66 4.86
2 8 -7 2.55 0.72
2 8 -7 2.97 0.93
2 8 -6 158.35 5.54
2 8 -6 168.81 5.15
2 8 -5 128.17 4.98
2 8 -5 145.51 4.91
2 8 -4 6.47 1.16
2 8 -4 6.43 1.11
2 8 -3 34.55 2.51
2 8 -3 38.55 2.63
2 8 -2 1.3 0.56
2 8 -2 0.98 0.56
2 8 -1 121.18 4.8
2 8 -1 113.76 5.2
2 8 0 94.68 4.35
2 8 0 94.31 4.87
2 8 1 23.84 2.23
2 8 1 33.81 3.06
2 8 2 167.98 6.69
2 8 2 161.09 6.63
2 8 3 76.64 4.83
2 8 3 72.32 4.7
2 8 4 577.94 12.1
2 8 4 565.16 12.54
2 8 5 54.53 3.96
2 8 6 185.95 7.04
2 8 7 28.87 2.75
2 8 8 96.5 4.91
2 8 9 108.07 5.01
2 8 10 0.58 0.47
2 8 11 31.1 2.51
2 8 12 7.41 1.18
2 8 13 106.39 4.13
2 8 14 132.64 4.32
2 8 15 3.15 0.64
-2 -8 -15 3.35 0.74
-2 -8 -16 152.85 4.38
-2 -8 -17 0.23 0.28
-2 -8 -18 73.65 2.73
-2 -8 -19 3.11 0.5
2 9 -7 56.97 2.49
2 9 -6 81.99 3.13
2 9 -5 3.11 0.69
2 9 -4 95.19 3.61
2 9 -3 0.91 0.48
2 9 -2 81.44 3.5
2 9 -1 0.98 0.52
2 9 0 114.73 4.39
2 9 1 55.04 3.15
2 9 2 17.05 1.88
2 9 3 74.49 3.83
2 9 4 6.7 1.35
2 9 5 72.19 3.77
2 9 6 30.08 2.45
2 9 7 76.5 3.76
2 9 8 147.9 5
2 9 9 1.15 0.62
2 9 10 87.75 3.6
2 9 11 1.08 0.51
2 9 12 64.67 2.77
2 9 13 3.06 0.56
-2 -9 -14 51.31 2.24
2 9 14 43.55 1.9
-2 -9 -15 31.2 1.65
2 10 4 80.33 2.83
2 10 5 2.6 0.66
2 10 6 45.28 2.14
2 10 7 10.45 1.02
2 10 8 47.27 2.07
3 -7 -12 30.24 1.67
3 -7 -11 12.16 1.15
3 -7 -10 39.66 2.2
3 -7 -9 13.07 1.35
3 -7 -8 26.32 1.99
3 -7 -7 10.05 1.32
3 -7 -6 150.89 5.13
3 -7 -5 8.61 1.35
3 -7 -4 145.75 5.22
3 -7 -3 6.29 1.3
3 -7 -2 118 4.73
3 -7 -1 19.71 1.94
3 -7 0 39 2.62
3 -7 2 4.79 0.96
3 -7 3 21.3 1.88
3 -7 4 6.08 1.04
3 -7 5 65.29 3.15
3 -6 -15 27.15 1.57
3 -6 -14 62.26 2.67
3 -6 -13 1.08 0.47
3 -6 -12 22.41 2.04
3 -6 -12 21.98 1.85
3 -6 -11 26.09 2.11
3 -6 -11 25.93 2.3
3 -6 -10 138.67 5.1
3 -6 -9 6 1.2
3 -6 -8 275.79 7.81
3 -6 -7 31.23 2.76
3 -6 -6 45.21 3.39
3 -6 -5 30.92 2.89
3 -6 -4 12.03 1.91
3 -6 -4 13.9 1.87
3 -6 -3 21.49 2.48
3 -6 -3 22.3 2.3
3 -6 -2 22 2.51
3 -6 -2 20.16 2.19
3 -6 -1 36.28 3.16
3 -6 -1 38.41 2.98
3 -6 0 49.73 3.65
3 -6 0 56.46 3.58
3 -6 1 8.74 1.77
3 -6 1 13.25 1.93
3 -6 2 273.17 7.58
3 -6 3 5.37 1.4
3 -6 4 184.31 6.05
3 -6 5 18.63 1.97
3 -6 6 91.92 4.17
3 -6 7 15.27 1.73
3 -6 8 23.94 2.08
3 -6 9 7.13 1.15
3 -6 10 3.98 0.81
3 -5 -17 1.76 0.64
3 -5 -16 183.71 4.59
3 -5 -16 196.62 5.81
3 -5 -15 1.33 0.73
3 -5 -15 1.3 0.56
3 -5 -14 189.6 5.5
3 -5 -14 211.95 6.92
3 -5 -13 38.64 2.64
3 -5 -13 48.16 3.52
3 -5 -12 17.07 1.88
3 -5 -12 20.94 2.43
3 -5 -11 20.22 2.14
3 -5 -11 21.8 2.58
3 -5 -10 157.7 6.16
3 -5 -10 175.79 7.27
3 -5 -9 42.33 3.63
3 -5 -9 39.33 3.25
3 -5 -8 119.69 6.04
3 -5 -8 115.55 5.65
3 -5 -7 1.76 0.99
3 -5 -7 2.03 1.12
3 -5 -6 227.41 8.27
3 -5 -6 251.25 7.99
3 -5 -5 5.81 1.62
3 -5 -5 5.91 1.41
3 -5 -4 170.12 7.41
3 -5 -4 186.9 6.86
3 -5 -3 14.24 2.6
3 -5 -3 4.04 1.53
3 -5 -2 249.07 8.93
3 -5 -2 297.12 8.47
3 -5 -1 20.74 2.66
3 -5 -1 23.38 2.47
3 -5 0 8.44 1.65
3 -5 0 10.51 1.66
3 -5 1 18.23 2.34
3 -5 1 22.18 2.32
3 -5 2 1.89 0.84
3 -5 3 4.84 1.13
3 -5 4 5.16 1.16
3 -5 5 37.92 2.87
3 -5 6 64.37 3.62
3 -5 7 1.42 0.68
3 -5 8 158.05 5.54
3 -5 9 13.59 1.65
3 -5 10 226.88 6.4
3 -5 11 5.99 1.08
3 -5 12 214.34 5.94
3 -5 13 13.84 1.44
3 -4 -18 1.02 0.51
3 -4 -17 25.27 1.71
3 -4 -17 33.09 2.59
3 -4 -16 11.13 1.32
3 -4 -16 11.63 1.71
3 -4 -15 6.54 1.13
3 -4 -15 8.92 1.61
3 -4 -14 222.63 6.61
3 -4 -14 256.66 8.49
3 -4 -13 1.45 0.98
3 -4 -13 1.16 0.72
3 -4 -12 63.63 3.87
3 -4 -12 62.66 4.49
3 -4 -11 6.96 1.79
3 -4 -11 5.2 1.26
3 -4 -10 293.16 8.95
3 -4 -10 307.92 10.14
3 -4 -9 2.98 1.5
3 -4 -9 2.61 1.24
3 -4 -8 258.59 8.92
3 -4 -8 293.59 9.97
3 -4 -7 19.36 2.64
3 -4 -7 22.19 2.47
3 -4 -7 19.46 2.61
3 -4 -6 37.22 3.61
3 -4 -6 33.5 3.35
3 -4 -6 35.99 3.09
3 -4 -5 5.32 1.44
3 -4 -5 4.38 1.37
3 -4 -5 7.74 1.59
3 -4 -4 5.44 1.56
3 -4 -4 4.69 1.2
3 -4 -3 23.24 2.85
3 -4 -3 26.74 2.63
3 -4 -2 37.84 3.58
3 -4 -2 35.51 2.93
3 -4 -1 14.91 2.33
3 -4 -1 6.13 1.32
3 -4 0 140.71 6.68
3 -4 0 151.58 5.84
3 -4 1 14.85 2.59
3 -4 1 9.22 1.63
3 -4 2 365.95 9.03
3 -4 3 5.24 1.47
3 -4 4 310.66 8.51
3 -4 5 11.16 1.8
3 -4 6 125.86 5.38
3 -4 7 18.7 2.07
3 -4 8 20.33 2.15
3 -4 9 17.48 1.94
3 -4 10 7.69 1.25
3 -4 11 5.01 1
3 -4 12 25.1 2.23
3 -4 13 8.19 1.24
3 -4 14 71.18 3.51
3 -4 15 -0.69 0.51
3 -3 -19 0.24 0.28
3 -3 -18 184.27 4.94
3 -3 -17 0.31 0.29
3 -3 -17 1.47 0.82
3 -3 -16 153.66 5.19
3 -3 -16 173.91 6.88
3 -3 -15 0.75 0.65
3 -3 -15 0.15 0.33
3 -3 -14 112.44 4.95
3 -3 -14 115.41 6.12
3 -3 -13 5.57 1.6
3 -3 -13 6.01 1.21
3 -3 -12 0.69 0.88
3 -3 -12 2.14 0.81
3 -3 -11 10.72 1.72
3 -3 -11 11.26 2.12
3 -3 -10 15.16 2.12
3 -3 -10 16.13 2.5
3 -3 -9 34.32 3.2
3 -3 -9 36.92 3.67
3 -3 -8 187.84 7.6
3 -3 -8 207.1 8.67
3 -3 -7 2.23 1.52
3 -3 -7 1.34 1.03
3 -3 -6 322.23 10.22
3 -3 -6 307.61 8.74
3 -3 -5 2.64 1.46
3 -3 -5 2.09 0.87
3 -3 -4 516.59 12.91
3 -3 -4 542.31 11.27
3 -3 -3 14.53 2.41
3 -3 -3 10.44 1.71
3 -3 -2 196.06 7.75
3 -3 -2 198.21 6.64
3 -3 -1 11.17 2.18
3 -3 -1 3.22 1.07
3 -3 0 113.83 5.74
3 -3 0 119.07 5.19
3 -3 1 35.02 3.13
3 -3 1 40.13 3.05
3 -3 2 8.31 1.61
3 -3 3 1.05 0.74
3 -3 4 3.7 0.99
3 -3 5 22.37 2.34
3 -3 6 691.82 12.68
3 -3 7 8.63 1.67
3 -3 8 115.25 5.31
3 -3 9 13.56 1.93
3 -3 10 402.55 9.86
3 -3 11 7.75 1.44
3 -3 12 147.22 5.84
3 -3 13 1.71 0.67
3 -3 14 37.3 2.79
3 -3 15 17.36 1.91
3 -3 16 6.45 1.07
3 -3 17 1.41 0.52
3 -2 -20 0.48 0.45
3 -2 -20 9.45 1.02
3 -2 -19 4.49 0.74
3 -2 -18 0.47 0.24
3 -2 -17 -0.13 0.38
3 -2 -16 14.6 2.1
3 -2 -16 7.43 1.15
3 -2 -15 9.08 1.49
3 -2 -15 9.42 1.35
3 -2 -14 344.17 8.9
3 -2 -14 346.66 10.87
3 -2 -13 5 1.48
3 -2 -13 17.73 3.08
3 -2 -12 385.24 10.1
3 -2 -12 430.53 12.58
3 -2 -11 1.75 1.53
3 -2 -11 1.86 1.02
3 -2 -10 369.53 10.09
3 -2 -10 380.36 11.86
3 -2 -9 7.64 1.64
3 -2 -9 8.77 2.12
3 -2 -8 162.8 6.92
3 -2 -8 155.25 7.58
3 -2 -7 1.07 1.01
3 -2 -7 0.52 0.55
3 -2 -6 4.92 1.57
3 -2 -6 4.27 1.21
3 -2 -5 10.06 1.77
3 -2 -5 10.88 1.99
3 -2 -4 13.53 2.16
3 -2 -4 14.9 2.7
3 -2 -3 2.46 1.17
3 -2 -3 2.82 0.99
3 -2 -2 114.1 5.69
3 -2 -2 104.04 4.73
3 -2 -1 4.56 1.72
3 -2 -1 5.09 1.23
3 -2 0 245.37 8.09
3 -2 0 249.76 8.69
3 -2 0 264.08 7.56
3 -2 1 8.37 1.83
3 -2 1 1.49 0.87
3 -2 2 276.71 7.85
3 -2 3 -0.08 0.34
3 -2 4 132.5 5.56
3 -2 5 0.59 0.58
3 -2 6 198.11 6.93
3 -2 7 6.79 1.36
3 -2 8 243.2 7.89
3 -2 9 11.1 1.75
3 -2 10 5.88 1.16
3 -2 11 3.93 1
3 -2 12 127.09 5.82
3 -2 13 0.26 0.46
3 -2 14 255.44 8.05
3 -2 15 3.34 1.01
3 -2 16 164.71 6.07
3 -2 17 1.37 0.65
3 -2 18 329.79 7.44
3 -2 19 1.24 0.5
3 -1 -20 1.71 0.72
3 -1 -20 164.87 4.48
3 -1 -19 -0.5 0.43
3 -1 -19 1.18 0.67
3 -1 -18 283.24 5.55
3 -1 -18 276.94 6.93
3 -1 -17 -0.56 0.32
3 -1 -16 131.56 5.18
3 -1 -15 4.79 1.02
3 -1 -14 55.28 3.47
3 -1 -14 53.23 4.33
3 -1 -13 1.14 1.04
3 -1 -13 0.46 0.39
3 -1 -12 0.82 0.77
3 -1 -12 -0.24 0.83
3 -1 -11 10.43 1.68
3 -1 -11 9.78 1.9
3 -1 -10 38.22 3.19
3 -1 -10 30.24 3.33
3 -1 -9 19.63 2.35
3 -1 -9 14.89 2.39
3 -1 -8 139.45 6.19
3 -1 -8 99.82 5.86
3 -1 -7 18.83 2.59
3 -1 -7 20.39 3.34
3 -1 -6 673.91 13.41
3 -1 -6 579.05 13.11
3 -1 -5 14.44 2.26
3 -1 -5 23.97 4.05
3 -1 -4 617.32 12.76
3 -1 -3 13.41 2.31
3 -1 -2 361.16 9.53
3 -1 -2 419 11
3 -1 -1 12.56 1.89
3 -1 -1 10.15 1.92
3 -1 -1 14.57 1.8
3 -1 0 64.81 3.88
3 -1 0 70.55 4.4
3 -1 0 66.38 3.53
3 -1 0 64.66 3.74
3 -1 1 6.61 1.42
3 -1 1 10.69 1.76
3 -1 1 6.93 1.28
3 -1 2 8.99 1.65
3 -1 2 9.77 1.57
3 -1 2 8.36 1.41
3 -1 3 28.46 2.71
3 -1 3 23.38 2.34
3 -1 4 139.54 5.45
3 -1 4 142.16 5.81
3 -1 5 17.53 2.27
3 -1 5 11.7 1.82
3 -1 6 997.12 22.18
3 -1 6 1114.59 16.55
3 -1 7 34.29 3.08
3 -1 8 357.27 9.8
3 -1 9 19.2 2.46
3 -1 10 184.59 7.33
3 -1 11 7.83 1.61
3 -1 12 184.27 7.47
3 -1 13 7.46 1.51
3 -1 14 16.16 2.27
3 -1 15 0.07 0.82
3 -1 16 26.89 2.98
3 -1 17 8.35 1.42
3 -1 18 111.32 4.99
3 -1 19 4.35 0.93
3 -1 20 54.94 2.8
3 0 -20 17.05 1.44
3 0 -19 1.84 0.5
3 0 -18 7.02 0.83
3 0 -18 9.86 1.31
3 0 -17 0.12 0.29
3 0 -17 -0.33 0.49
3 0 -17 -1.04 0.59
3 0 -16 23.79 1.87
3 0 -16 28.48 2.45
3 0 -15 8.64 1.36
3 0 -14 325.67 8.6
3 0 -11 0.38 0.45
3 0 -10 484.93 11.4
3 0 -9 -0.08 0.7
3 0 -8 162.05 6.51
3 0 -8 114.75 6.89
3 0 -7 1.32 0.65
3 0 -7 2.48 1.08
3 0 -6 3.67 1.06
3 0 -6 3.78 1.25
3 0 -6 6.1 1.22
3 0 -5 0.17 0.55
3 0 -5 -0.54 0.89
3 0 -5 0.23 0.57
3 0 -4 20.12 2.54
3 0 -4 14.56 2.56
3 0 -4 15.52 2.93
3 0 -4 11.92 1.53
3 0 -3 0.94 0.6
3 0 -3 1.92 1.05
3 0 -3 3.23 1.42
3 0 -3 4.41 1.84
3 0 -2 186.27 6.73
3 0 -2 196.27 7.69
3 0 -2 155.1 7.28
3 0 -2 138.55 5.25
3 0 -1 10.95 2.5
3 0 -1 6.69 1.56
3 0 0 315.58 8.38
3 0 0 337.33 8.29
3 0 1 11.06 2.67
3 0 1 7.09 2.25
3 0 2 501.88 11.84
3 0 2 458.39 9.9
3 0 3 16.09 2.41
3 0 3 14.68 1.84
3 0 3 12.37 1.74
3 0 4 181.61 7.94
3 0 4 197.91 6.79
3 0 4 178.78 6.57
3 0 5 3.92 1.29
3 0 5 10.51 1.88
3 0 6 187.94 6.84
3 0 6 173.52 6.72
3 0 7 24.06 2.84
3 0 7 37.49 3.6
3 0 8 127.22 5.65
3 0 8 123.59 5.91
3 0 9 8.22 1.8
3 0 9 10.85 2.22
3 0 10 17.37 2.04
3 0 10 17.84 2.41
3 0 11 9.7 2.07
3 0 12 210.93 8.36
3 0 13 6.01 1.55
3 0 14 267.9 9.35
3 0 15 3.67 1.49
3 0 16 311.83 9.86
3 0 17 2.08 1.09
3 0 18 290.99 8.62
3 0 19 1.46 0.69
3 0 20 76.22 3.72
3 0 21 0.31 0.32
3 1 -20 230.6 5.1
3 1 -19 1 0.42
3 1 -18 186.02 4.43
3 1 -18 205.3 5.77
3 1 -17 -0.53 0.47
3 1 -17 -0.4 0.43
3 1 -16 212.04 5.52
3 1 -16 220.6 6.63
3 1 -15 0.5 0.56
3 1 -15 1.06 0.41
3 1 -14 104.96 4.27
3 1 -14 109.6 4.9
3 1 -13 0.03 0.47
3 1 -12 0.26 0.51
3 1 -11 0.86 0.88
3 1 -10 78.54 5.28
3 1 -9 5.36 1.47
3 1 -8 126.24 6.59
3 1 -8 224.08 7.72
3 1 -7 0.82 0.73
3 1 -7 0.9 0.79
3 1 -7 1.9 1.52
3 1 -7 1.15 0.93
3 1 -7 2.37 1.13
3 1 -6 439.68 12.71
3 1 -6 465.61 11.46
3 1 -6 445.56 9.16
3 1 -5 3.86 1.14
3 1 -5 5.58 1.59
3 1 -5 8.51 2.33
3 1 -5 6.99 1.85
3 1 -5 6.02 1.83
3 1 -4 466.27 10.39
3 1 -4 492.17 11.88
3 1 -4 411.57 12.09
3 1 -4 445.47 11.64
3 1 -4 417.77 9.17
3 1 -3 1.32 0.8
3 1 -3 2.88 1.42
3 1 -3 4.55 1.69
3 1 -3 6.06 2.69
3 1 -3 4 1.64
3 1 -2 314.47 8.27
3 1 -2 330.38 10.37
3 1 -2 315.84 7.98
3 1 -1 29.27 2.5
3 1 -1 39.01 3.41
3 1 -1 39.89 3.7
3 1 -1 28.78 2.4
3 1 0 10.09 1.39
3 1 0 15.6 2.28
3 1 0 16.39 2.45
3 1 0 11.19 1.44
3 1 1 0.08 0.58
3 1 1 1.91 1.01
3 1 2 47.93 3.94
3 1 2 29.15 2.53
3 1 3 6.38 1.39
3 1 3 13.61 2.69
3 1 4 81.13 4.43
3 1 4 75.56 4.36
3 1 5 0.47 0.91
3 1 5 3.28 2.49
3 1 5 1.11 0.88
3 1 6 584.99 15.85
3 1 6 551.66 11.82
3 1 7 0.47 0.65
3 1 7 1.86 1.02
3 1 8 428.26 10.76
3 1 8 381.89 10.54
3 1 9 0.53 0.75
3 1 9 1.82 1.17
3 1 10 470.62 11.44
3 1 10 449.15 12.04
3 1 11 2.01 1.14
3 1 12 262.2 9.51
3 1 13 15.41 2.37
3 1 14 4.48 1.35
3 1 15 -0.08 0.48
3 1 16 23.1 2.91
3 1 17 7.94 1.79
3 1 18 167.02 6.83
3 1 19 16.62 2.28
3 1 20 113.66 4.83
3 1 21 8.8 1.26
3 2 -19 -0.25 0.32
3 2 -18 7.31 1.08
3 2 -17 6.29 1
3 2 -17 12.26 1.28
3 2 -16 186.43 5.12
3 2 -16 196.35 6
3 2 -15 0.03 0.46
3 2 -15 0.12 0.33
3 2 -14 181.33 5.47
3 2 -14 182.65 6.16
3 2 -13 3.79 0.95
3 2 -13 3.08 0.72
3 2 -12 90.3 4.02
3 2 -12 84.65 4.82
3 2 -11 -0.88 0.81
3 2 -11 0.12 0.39
3 2 -10 128.03 4.99
3 2 -10 133.15 6.58
3 2 -9 1.83 0.6
3 2 -9 4.21 1.41
3 2 -8 12.92 2.2
3 2 -8 323.78 10.41
3 2 -7 0.82 0.62
3 2 -7 35.79 3.48
3 2 -6 3.07 0.71
3 2 -6 -0.09 0.78
3 2 -5 1.82 0.37
3 2 -5 0.11 0.61
3 2 -5 3.07 1.09
3 2 -5 3.12 1.17
3 2 -4 12.99 2.16
3 2 -4 11.52 2.06
3 2 -4 8.64 1.42
3 2 -3 10.48 1.89
3 2 -3 10.82 1.97
3 2 -3 7.74 1.32
3 2 -2 231.11 8.33
3 2 -2 238.33 7.06
3 2 -1 16.97 3
3 2 -1 23.18 2.9
3 2 0 225.44 8.92
3 2 0 224.4 8.49
3 2 0 222.65 7.19
3 2 1 39.46 4.35
3 2 1 38.98 4.17
3 2 2 966.86 17.95
3 2 2 928.49 15.25
3 2 3 9.61 2.74
3 2 3 9.49 2.32
3 2 3 5.69 2.15
3 2 4 724.21 17.05
3 2 4 463.67 11.2
3 2 5 47.02 4.73
3 2 5 26.38 2.87
3 2 6 107.01 5.68
3 2 6 81.61 4.79
3 2 7 25.37 2.77
3 2 7 20.45 2.46
3 2 8 1.89 1.16
3 2 8 5.81 1.98
3 2 9 1.46 0.82
3 2 9 2.28 0.97
3 2 10 222.07 8.08
3 2 10 208.19 8.61
3 2 11 7.44 1.64
3 2 11 7.39 1.43
3 2 12 63.58 4.81
3 2 13 1.12 1.15
3 2 14 293.98 10.4
3 2 15 1.28 1.19
3 2 16 217.94 8.48
3 2 17 2.71 1.29
3 2 18 163.99 6.72
3 2 19 17.57 2.11
3 2 20 8.14 1.31
3 2 21 3.01 0.79
3 2 22 10.36 1.13
3 3 -18 175.19 4.46
3 3 -17 0.11 0.24
3 3 -16 124.22 4.45
3 3 -15 18.81 1.96
3 3 -15 22.16 1.98
3 3 -14 75.28 3.37
3 3 -14 70.69 4.15
3 3 -14 78.51 3.88
3 3 -13 44.89 2.8
3 3 -13 37.5 3.3
3 3 -13 42.56 2.93
3 3 -12 5.73 1.09
3 3 -12 5.22 1.36
3 3 -11 20.46 2.01
3 3 -11 19.82 2.71
3 3 -10 433.29 8.99
3 3 -10 419.4 12.43
3 3 -9 2.72 0.77
3 3 -9 4.25 1.44
3 3 -8 235.88 6.62
3 3 -8 255.95 9.79
3 3 -7 1.08 0.66
3 3 -7 4.36 1.65
3 3 -6 466.57 9.27
3 3 -6 500.95 13.45
3 3 -5 1.55 1.05
3 3 -5 0.39 0.68
3 3 -5 2.12 1.37
3 3 -4 282.4 9.63
3 3 -4 301.56 8.06
3 3 -3 7.25 1.24
3 3 -3 10.77 2.1
3 3 -3 11.5 1.94
3 3 -2 212.78 5.93
3 3 -2 217.61 7.87
3 3 -1 23 1.95
3 3 -1 27.6 2.91
3 3 -1 31.16 2.78
3 3 0 0.04 1.05
3 3 0 0.75 0.86
3 3 0 3.07 1.66
3 3 0 3.44 1.35
3 3 1 16.34 1.7
3 3 1 22.29 2.58
3 3 1 25.28 2.58
3 3 2 56.84 4.12
3 3 2 53.78 3.68
3 3 3 1.55 1.2
3 3 3 3.8 2.39
3 3 3 2.87 1.75
3 3 4 202.9 7.91
3 3 4 175.26 6.92
3 3 5 36.99 3.31
3 3 6 225.7 8.11
3 3 7 1.64 0.85
3 3 7 1.79 1.33
3 3 8 444.39 11.73
3 3 8 419.11 11.81
3 3 9 7.17 1.79
3 3 9 6.83 1.66
3 3 10 407.25 11.38
3 3 10 384.63 11.76
3 3 11 14.34 2.17
3 3 11 13.1 2.31
3 3 12 266.83 8.63
3 3 12 281.3 10.2
3 3 13 29.06 3.3
3 3 14 0.48 0.73
3 3 15 9.71 1.86
3 3 16 22.8 2.76
3 3 17 7.32 1.56
3 3 18 168.5 6.62
3 3 19 10.59 1.62
3 3 20 141.76 5.21
3 3 21 1.95 0.73
3 3 22 316.97 6
3 4 -17 1.62 0.38
3 4 -16 45.13 2.51
3 4 -16 51.52 2.5
3 4 -15 5.96 1.08
3 4 -15 5.86 0.94
3 4 -14 259.86 7.69
3 4 -14 273.92 6.51
3 4 -13 0.14 0.23
3 4 -13 1.43 0.81
3 4 -12 107.18 5.78
3 4 -11 14.35 1.94
3 4 -11 1.01 0.87
3 4 -10 195.51 5.78
3 4 -10 188.85 8.2
3 4 -9 7.49 1.95
3 4 -9 8.95 1.9
3 4 -8 33.64 2.56
3 4 -8 27.86 3.24
3 4 -7 60.68 3.41
3 4 -7 58.21 4.65
3 4 -6 5.87 1.26
3 4 -6 6.7 1.66
3 4 -5 17.85 1.95
3 4 -5 20.1 2.7
3 4 -5 21.37 2.2
3 4 -4 61.29 3.41
3 4 -4 62.62 4.5
3 4 -3 14.85 1.78
3 4 -3 19.51 2.63
3 4 -3 16.13 2.03
3 4 -2 138.71 5.02
3 4 -2 149.26 6.47
3 4 -2 156.57 6.13
3 4 -1 24.37 2.29
3 4 -1 27.5 3.15
3 4 -1 24.38 2.69
3 4 0 194.33 7.07
3 4 0 210.49 7.33
3 4 1 25.05 2.78
3 4 1 15.8 2.61
3 4 1 21.28 3.36
3 4 2 473.3 11.26
3 4 2 495.5 11.76
3 4 3 24.46 2.83
3 4 3 20.81 2.81
3 4 4 167.43 6.96
3 4 4 158.2 6.95
3 4 5 31.92 3.11
3 4 5 26.71 2.91
3 4 6 70.23 4.74
3 4 7 23.82 2.76
3 4 8 2.6 1.1
3 4 9 17.32 2.33
3 4 9 15.9 2.39
3 4 10 131.94 6.26
3 4 11 19.71 2.45
3 4 12 110.3 5.55
3 4 13 1.44 0.89
3 4 13 0.8 0.75
3 4 14 152.47 7.2
3 4 15 1.08 0.87
3 4 16 222.94 8.14
3 4 17 2.56 0.99
3 4 18 57.83 3.66
3 4 19 14.42 1.71
3 4 20 26.34 2.08
3 4 21 3.04 0.68
3 5 -15 43.96 2.46
3 5 -14 1.18 0.41
3 5 -14 2.21 0.68
3 5 -13 13.12 1.73
3 5 -12 4.21 1.07
3 5 -11 26.22 2.72
3 5 -10 124.04 6.13
3 5 -9 1 0.88
3 5 -8 147.71 6.87
3 5 -7 29.88 3.24
3 5 -6 386.19 10.97
3 5 -5 20.42 2.81
3 5 -4 377.55 10.41
3 5 -4 388.74 9.44
3 5 -3 3.13 1
3 5 -3 5.16 1.46
3 5 -2 71.33 4.38
3 5 -2 73.8 4.29
3 5 -1 88.87 4.66
3 5 -1 100.53 5.15
3 5 0 20.7 2.25
3 5 0 26.78 2.73
3 5 1 4.22 1.52
3 5 1 3.64 1.24
3 5 2 51.39 3.68
3 5 2 47.43 3.92
3 5 3 146.26 6.14
3 5 3 140.49 6.69
3 5 4 182.48 6.84
3 5 4 177.33 7.49
3 5 5 17.69 2.47
3 5 5 13.42 2.61
3 5 6 563.39 13.43
3 5 7 11.04 2.2
3 5 8 270.67 9.15
3 5 9 57.89 4.18
3 5 10 161.83 6.67
3 5 11 0.63 0.75
3 5 12 35.61 2.91
3 5 13 66.68 3.84
3 5 14 3.67 1.14
3 5 14 3.98 0.93
3 5 15 8.59 1.57
3 5 16 66.48 4.09
3 5 17 34.2 2.75
3 5 18 115.91 4.62
3 5 19 0.89 0.44
3 5 20 63.13 2.76
3 6 -14 77.76 2.85
3 6 -13 2.4 0.62
3 6 -12 203.98 5.82
3 6 -11 16.75 1.82
3 6 -10 125.32 5.19
3 6 -9 52.55 3.47
3 6 -8 13.68 1.86
3 6 -7 53.8 3.67
3 6 -6 30.47 2.75
3 6 -5 19.06 2.17
3 6 -4 30.94 2.74
3 6 -3 24.4 2.55
3 6 -3 20.39 2.13
3 6 -2 170.92 6.05
3 6 -2 186.77 6.54
3 6 -1 15.98 2.3
3 6 -1 14.21 2.14
3 6 0 131.85 5.32
3 6 0 149.81 6.27
3 6 1 20.4 2.5
3 6 1 21.2 2.88
3 6 2 223.07 6.99
3 6 2 225.4 8.1
3 6 3 41.66 3.06
3 6 3 40.84 3.57
3 6 4 13.06 1.86
3 6 4 9.7 1.94
3 6 5 5.58 1.52
3 6 6 16.76 2.35
3 6 7 9.39 1.81
3 6 8 59.16 4.09
3 6 9 66.13 4.13
3 6 10 93.18 4.75
3 6 11 35.03 2.76
3 6 12 79 3.95
3 6 13 2.5 0.87
3 6 13 1.19 0.57
3 6 14 186.31 5.42
3 6 14 185.78 6.33
3 6 15 1.96 0.88
3 6 16 82.82 3.78
3 6 17 3.72 0.78
3 6 18 82.09 3.12
3 7 -11 22.15 1.53
3 7 -10 79.34 3.11
3 7 -9 17.21 1.55
3 7 -8 79.71 3.42
3 7 -7 2.65 0.78
3 7 -6 160.3 5.12
3 7 -5 2.25 0.84
3 7 -4 216.56 6.12
3 7 -3 78.48 3.7
3 7 -2 21.4 1.98
3 7 -2 20.69 2
3 7 -1 16.38 1.72
3 7 -1 18.53 1.98
3 7 0 17.71 2.11
3 7 0 15.73 2.05
3 7 1 84.84 4.06
3 7 1 90.06 4.64
3 7 2 43.98 3.37
3 7 2 45.35 3.06
3 7 3 57.51 3.5
3 7 3 50.4 3.75
3 7 4 106.86 5.26
3 7 5 89.35 4.86
3 7 6 541.91 11.4
3 7 7 26.76 2.66
3 7 8 174.45 6.18
3 7 9 16.28 1.86
3 7 10 97.56 4.25
3 7 11 38.36 2.51
3 7 12 2.76 0.69
3 7 13 10.49 1.16
3 7 14 1.44 0.44
3 8 -5 36.81 2.04
3 8 -4 43.24 2.28
3 8 -3 7.93 1.05
3 8 -2 64.6 2.91
3 8 -1 4.99 1.24
3 8 0 86.71 3.61
3 8 1 6.01 1.44
3 8 2 141.91 4.89
3 8 3 31.99 2.38
3 8 4 24.47 2.12
3 8 5 30.03 2.28
3 8 6 4.79 1.01
3 8 7 32.61 2.27
3 8 8 1.11 0.55
3 8 9 70.04 3.04
3 8 10 55.84 2.59
3 8 11 7.05 0.9
3 8 12 53.01 2.21
4 -5 1 9.11 1.21
4 -5 2 41.57 2.52
4 -5 3 8.8 1.19
4 -4 -10 9.14 1.07
4 -4 -10 0.84 0.54
4 -4 -9 11.82 1.3
4 -4 -9 1.52 0.67
4 -4 -8 3.84 0.85
4 -4 -8 2.17 0.83
4 -4 -7 29.67 2.28
4 -4 -6 56.78 3.23
4 -4 -5 2.1 0.77
4 -4 -4 81.91 3.88
4 -4 -3 8.56 1.43
4 -4 -2 211.35 6.22
4 -4 -1 11.62 1.7
4 -4 0 126.94 4.9
4 -4 1 3.79 1.17
4 -4 2 67.81 3.55
4 -4 3 21.42 2.01
4 -4 4 1.57 0.64
4 -4 5 0.91 0.46
4 -4 6 7.4 1.14
4 -4 7 20 1.85
4 -4 8 154.63 4.92
4 -3 -13 1 0.67
4 -3 -12 8.52 1.42
4 -3 -11 1.38 0.87
4 -3 -10 129.18 4.53
4 -3 -10 69.87 4.13
4 -3 -9 1.77 0.74
4 -3 -9 2.96 1.15
4 -3 -8 187.3 6.21
4 -3 -8 196.37 7.31
4 -3 -7 3.57 1.08
4 -3 -7 5.62 1.48
4 -3 -6 135.51 5.54
4 -3 -6 182.77 7.27
4 -3 -5 0.82 0.6
4 -3 -5 1.72 0.97
4 -3 -4 8.27 1.43
4 -3 -4 11.95 2.02
4 -3 -3 6.38 1.28
4 -3 -2 30.44 2.55
4 -3 -1 4.76 1.05
4 -3 0 15.38 1.8
4 -3 1 5.56 1.21
4 -3 2 84.34 4.16
4 -3 3 3.71 1.02
4 -3 4 131.78 5.08
4 -3 5 2.32 0.82
4 -3 6 114.64 4.66
4 -3 7 1.4 0.66
4 -3 8 129.18 4.79
4 -3 9 4.9 0.99
4 -3 10 125.45 4.49
4 -3 11 10.39 1.26
4 -2 -15 0.67 0.52
4 -2 -14 1.58 0.76
4 -2 -14 78.82 2.61
4 -2 -13 1.32 0.75
4 -2 -12 6.71 1.38
4 -2 -11 0.16 0.66
4 -2 -10 12.49 1.91
4 -2 -9 15.31 2.17
4 -2 -8 0.15 0.38
4 -2 -8 0.83 0.74
4 -2 -7 1.87 0.7
4 -2 -7 4 1.3
4 -2 -6 44.52 3.28
4 -2 -6 63.69 4.52
4 -2 -5 19.13 2.31
4 -2 -5 27.17 3.13
4 -2 -4 282.77 8.35
4 -2 -4 369.97 11.04
4 -2 -3 15.78 2.36
4 -2 -3 25.4 3.35
4 -2 -2 318.83 8.57
4 -2 -2 412.34 12.37
4 -2 1 17.11 2.12
4 -2 2 81.98 4.1
4 -2 3 4.1 1.15
4 -2 4 20.36 2.07
4 -2 5 23.82 2.29
4 -2 6 18.43 2.01
4 -2 7 5.79 1.27
4 -2 8 425.96 9.32
4 -2 9 11.3 1.57
4 -2 10 97.84 4.33
4 -2 11 4.26 0.95
4 -2 12 84.48 3.78
4 -2 13 3.15 0.71
4 -1 -15 0.02 0.42
4 -1 -14 0.33 0.55
4 -1 -13 2.25 1.09
4 -1 -13 1 0.31
4 -1 -12 15.52 2.2
4 -1 -11 5.59 1.53
4 -1 -10 68.01 4.55
4 -1 -9 6.64 2.02
4 -1 -8 387.4 11.23
4 -1 -7 5.49 1.94
4 -1 -6 173.03 7.73
4 -1 -5 11.04 2.32
4 -1 -4 29.35 3.35
4 -1 -3 9.39 2.15
4 -1 -2 11.66 2.22
4 -1 -1 3.82 1.28
4 -1 0 14.26 2.2
4 -1 1 37.41 4.25
4 -1 3 6.24 1.31
4 -1 4 182.79 6.3
4 -1 5 8.62 1.47
4 -1 6 99.75 4.7
4 -1 7 1.56 0.91
4 -1 8 164.21 6.03
4 -1 9 1.25 0.85
4 -1 10 166.59 5.96
4 -1 11 2.45 0.81
4 -1 12 1.83 0.7
4 -1 13 0.86 0.47
4 -1 14 53.1 2.92
4 0 -15 14.52 2.03
4 0 -15 -0.16 0.23
4 0 -14 2.51 1.06
4 0 -14 159.02 4.04
4 0 -13 5.59 1.51
4 0 -13 2.51 0.49
4 0 -12 3.39 1.24
4 0 -12 80.07 3.23
4 0 -11 1.76 1.18
4 0 -11 -0.33 0.65
4 0 -10 3.46 1.25
4 0 -10 13.14 1.45
4 0 -9 7 1.85
4 0 -8 72.17 5.05
4 0 -7 23.43 3.14
4 0 -6 105.65 6.17
4 0 -5 35.91 4.52
4 0 -4 482.13 13.63
4 0 -3 73.45 5.8
4 0 -2 472.06 14.04
4 0 -1 85.54 6.15
4 0 0 291.25 10.8
4 0 1 26.09 3.65
4 0 2 45.33 4.76
4 0 5 2.04 0.87
4 0 6 21.76 2.27
4 0 7 19.69 2.38
4 0 8 265.93 7.97
4 0 9 9.03 1.68
4 0 10 194.12 6.76
4 0 11 1.56 0.79
4 0 12 153.31 5.74
4 0 13 1.9 0.75
4 0 14 124.35 4.67
4 0 15 1.7 0.56
4 1 -14 2.22 0.91
4 1 -14 61.13 2.42
4 1 -13 26.91 3
4 1 -13 1.17 0.58
4 1 -12 5.05 1.49
4 1 -12 73.48 3.09
4 1 -11 26.03 3.1
4 1 -11 3.59 0.74
4 1 -10 6.26 1.86
4 1 -10 68.8 3.28
4 1 -9 51.14 4.6
4 1 -9 -1.14 0.76
4 1 -8 22.11 3.1
4 1 -8 130.75 4.76
4 1 -7 130.5 7.43
4 1 -7 2.32 0.7
4 1 -6 186.58 8.76
4 1 -6 271.77 7.03
4 1 -5 29.84 4.15
4 1 -5 4.33 1.07
4 1 -4 35.48 4.11
4 1 -4 25.47 2.19
4 1 -3 24.83 4.52
4 1 -3 3.58 1.11
4 1 -2 29.43 3.6
4 1 -2 10.67 1.46
4 1 -1 27.92 4.02
4 1 -1 1.25 0.6
4 1 0 89.77 6.25
4 1 1 43.1 5.04
4 1 1 30.47 2.93
4 1 2 125 7.43
4 1 2 133.32 5.66
4 1 3 60.86 4.35
4 1 4 579.03 11.87
4 1 5 33.15 3.31
4 1 7 4.03 1.12
4 1 8 103.38 5.03
4 1 9 6.08 1.26
4 1 10 27.28 2.6
4 1 11 0.43 0.43
4 1 12 20.83 2.14
4 1 13 3.58 0.89
4 1 14 10.85 1.45
4 1 15 2.73 0.79
4 1 16 76.82 3.21
4 2 -13 115.27 5.87
4 2 -13 11.82 1.21
4 2 -12 16.71 2.46
4 2 -12 105.16 3.46
4 2 -11 17.04 2.57
4 2 -11 16.41 1.55
4 2 -10 8.15 1.83
4 2 -10 22.48 1.89
4 2 -9 169.49 8.25
4 2 -9 9 1.26
4 2 -8 10.72 2.42
4 2 -8 227.94 6.24
4 2 -7 87.86 6.09
4 2 -7 4.09 0.88
4 2 -6 6.22 1.97
4 2 -6 114.64 4.43
4 2 -5 181.79 9.02
4 2 -5 0.82 0.59
4 2 -4 65.99 5.48
4 2 -4 226.71 6.16
4 2 -3 1.51 0.73
4 2 -3 13.61 1.89
4 2 -2 135.27 7.72
4 2 -2 177.56 5.31
4 2 -1 7.41 1.43
4 2 -1 18.2 2.33
4 2 0 211.22 9.88
4 2 0 251.58 7.55
4 2 1 18.02 2.25
4 2 2 19.7 2.34
4 2 3 12.98 2.01
4 2 4 8.06 1.72
4 2 5 2.83 1.29
4 2 6 44.88 3.51
4 2 7 20.33 2.37
4 2 8 105.39 5.06
4 2 9 11.42 1.92
4 2 9 1.96 0.85
4 2 10 192.66 6.62
4 2 11 4.66 1.08
4 2 12 197.76 6.43
4 2 13 3.13 0.88
4 2 14 140.17 4.92
4 2 15 6.03 0.99
4 3 -10 63.83 2.85
4 3 -9 69.25 5.43
4 3 -9 13.66 1.58
4 3 -8 16.05 3.04
4 3 -8 150.33 4.58
4 3 -7 55.73 5.16
4 3 -7 6.74 1.3
4 3 -6 29.87 3.99
4 3 -6 83.88 3.58
4 3 -5 31.92 4.34
4 3 -5 31.95 2.32
4 3 -4 38.7 2.52
4 3 -4 46.35 2.89
4 3 -3 13.93 1.59
4 3 -3 16.46 1.88
4 3 -2 11 1.41
4 3 -2 13.16 1.83
4 3 -1 17.77 1.72
4 3 -1 25.75 2.48
4 3 0 88.28 4.66
4 3 1 31.11 3.04
4 3 2 140.04 5.99
4 3 3 39.66 4.06
4 3 4 461.28 11.01
4 3 5 6.94 1.88
4 3 6 220.41 7.6
4 3 7 14.46 2.02
4 3 8 109 5.22
4 3 9 12.01 1.77
4 3 10 10.92 1.56
4 3 11 9.55 1.48
4 3 12 23.97 2.06
4 3 13 5.14 0.99
4 3 14 15.74 1.49
4 4 -7 5.35 1.48
4 4 -6 84.12 4.72
4 4 -5 28.55 2.97
4 4 -4 245.05 6.08
4 4 -3 6.08 1.19
4 4 -2 303.56 7.77
4 4 -1 5.72 1.42
4 4 0 122.19 5.23
4 4 1 60.19 3.78
4 4 2 41.78 3.16
4 4 3 1.17 0.72
4 4 4 9.03 1.72
4 4 5 68.14 4.07
4 4 6 74.28 4.26
4 4 7 6.47 1.43
4 4 8 240.3 7.26
4 4 9 16.99 1.9
4 4 10 167.06 5.52
4 4 11 16.44 1.61
4 4 12 107.7 3.45
4 5 -3 12.04 1.29
4 5 -2 4.2 0.84
4 5 -1 16.76 1.76
4 5 0 85.44 4.05
4 5 1 20.4 2.31
4 5 2 90.13 4.36
4 5 3 20 2.49
4 5 4 163.95 5.91
4 5 5 12.69 1.68
4 5 6 24.14 2.21
4 5 7 0.35 0.38
4 5 8 48.08 2.93
4 5 9 3.4 0.77
4 5 10 77 3.29
4 5 11 23.05 1.62
4 6 0 33.76 2.17
4 6 1 10.06 1.39
4 6 2 46.93 2.75
4 6 3 43.52 2.64
4 6 4 10.25 1.39
4 6 5 37.43 2.42
4 6 6 42.42 2.49
4 6 7 45.97 2.53
4 6 8 348.91 6.56
4 6 9 4.34 0.74
