#------------------------------------------------------------------------------
#$Date: 2019-11-08 04:10:09 +0200 (Fri, 08 Nov 2019) $
#$Revision: 225312 $
#$URL: file:///home/coder/svn-repositories/cod/cif/7/15/71/7157157.cif $
#------------------------------------------------------------------------------
#
# This file is available in the Crystallography Open Database (COD),
# http://www.crystallography.net/
#
# All data on this site have been placed in the public domain by the
# contributors.
#
data_7157157
loop_
_publ_author_name
'You, Guirong'
'Xi, Dan'
'Sun, Jian'
'Hao, Liqiang'
'Xia, Chengcai'
_publ_section_title
;
 Transition-metal- and oxidant-free three-component reaction of quinoline
 N-oxides, sodium metabisulfite and aryldiazonium tetrafluoroborates via a
 dual radical coupling process.
;
_journal_issue                   43
_journal_name_full               'Organic &amp; biomolecular chemistry'
_journal_page_first              9479
_journal_paper_doi               10.1039/c9ob02106j
_journal_volume                  17
_journal_year                    2019
_chemical_formula_moiety         'C16 H13 N O2 S'
_chemical_formula_sum            'C16 H13 N O2 S'
_chemical_formula_weight         283.33
_space_group_crystal_system      triclinic
_space_group_IT_number           2
_space_group_name_Hall           '-P 1'
_space_group_name_H-M_alt        'P -1'
_symmetry_space_group_name_Hall  '-P 1'
_symmetry_space_group_name_H-M   'P -1'
_atom_sites_solution_hydrogens   geom
_atom_sites_solution_primary     dual
_audit_creation_date             2018-07-19
_audit_creation_method
;
Olex2 1.2
(compiled 2018.05.29 svn.r3508 for OlexSys, GUI svn.r5506)
;
_audit_update_record
;
2019-09-12 deposited with the CCDC.    2019-10-18 downloaded from the CCDC.
;
_cell_angle_alpha                85.370(3)
_cell_angle_beta                 89.441(2)
_cell_angle_gamma                70.995(2)
_cell_formula_units_Z            2
_cell_length_a                   6.4036(12)
_cell_length_b                   7.8241(19)
_cell_length_c                   14.538(3)
_cell_measurement_reflns_used    2572
_cell_measurement_temperature    296.15
_cell_measurement_theta_max      27.47
_cell_measurement_theta_min      2.76
_cell_volume                     686.3(3)
_computing_cell_refinement       'SAINT v8.34A (Bruker, 2013)'
_computing_data_reduction        'SAINT v8.34A (Bruker, 2013)'
_computing_molecular_graphics    'Olex2 (Dolomanov et al., 2009)'
_computing_publication_material  'Olex2 (Dolomanov et al., 2009)'
_computing_structure_refinement  'ShelXL (Sheldrick, 2015)'
_computing_structure_solution    'ShelXT (Sheldrick, 2015)'
_diffrn_ambient_temperature      296.15
_diffrn_measured_fraction_theta_full 0.994
_diffrn_measured_fraction_theta_max 0.920
_diffrn_measurement_device_type  'CCD area detector'
_diffrn_measurement_method       'phi and omega scans'
_diffrn_radiation_monochromator  graphite
_diffrn_radiation_type           MoK\a
_diffrn_radiation_wavelength     0.71073
_diffrn_reflns_av_R_equivalents  0.0197
_diffrn_reflns_av_unetI/netI     0.0285
_diffrn_reflns_Laue_measured_fraction_full 0.994
_diffrn_reflns_Laue_measured_fraction_max 0.920
_diffrn_reflns_limit_h_max       7
_diffrn_reflns_limit_h_min       -8
_diffrn_reflns_limit_k_max       10
_diffrn_reflns_limit_k_min       -10
_diffrn_reflns_limit_l_max       18
_diffrn_reflns_limit_l_min       -18
_diffrn_reflns_number            5484
_diffrn_reflns_point_group_measured_fraction_full 0.994
_diffrn_reflns_point_group_measured_fraction_max 0.920
_diffrn_reflns_theta_full        25.242
_diffrn_reflns_theta_max         27.582
_diffrn_reflns_theta_min         2.763
_exptl_absorpt_coefficient_mu    0.236
_exptl_absorpt_correction_T_max  0.7456
_exptl_absorpt_correction_T_min  0.6642
_exptl_absorpt_correction_type   multi-scan
_exptl_absorpt_process_details
'SADABS-2014/3 (Bruker,2014/3) was used for absorption correction. wR2(int) was 0.0584 before and 0.0279 after correction. The Ratio of minimum to maximum transmission is 0.8908. The \l/2 correction factor is 0.00150.'
_exptl_crystal_colour            colourless
_exptl_crystal_colour_primary    colourless
_exptl_crystal_density_diffrn    1.371
_exptl_crystal_description       block
_exptl_crystal_F_000             296
_refine_diff_density_max         0.208
_refine_diff_density_min         -0.338
_refine_diff_density_rms         0.054
_refine_ls_extinction_method     none
_refine_ls_goodness_of_fit_ref   1.058
_refine_ls_hydrogen_treatment    constr
_refine_ls_matrix_type           full
_refine_ls_number_parameters     182
_refine_ls_number_reflns         2928
_refine_ls_number_restraints     0
_refine_ls_restrained_S_all      1.058
_refine_ls_R_factor_all          0.0545
_refine_ls_R_factor_gt           0.0424
_refine_ls_shift/su_max          0.000
_refine_ls_shift/su_mean         0.000
_refine_ls_structure_factor_coef Fsqd
_refine_ls_weighting_details
'w=1/[\s^2^(Fo^2^)+(0.1000P)^2^] where P=(Fo^2^+2Fc^2^)/3'
_refine_ls_weighting_scheme      calc
_refine_ls_wR_factor_gt          0.1328
_refine_ls_wR_factor_ref         0.1445
_reflns_Friedel_coverage         0.000
_reflns_number_gt                2399
_reflns_number_total             2928
_reflns_threshold_expression     'I > 2\s(I)'
_cod_data_source_file            c9ob02106j2.cif
_cod_data_source_block           xj
_cod_depositor_comments          'Adding full bibliography for 7157157.cif.'
_cod_database_code               7157157
_shelx_shelxl_version_number     2018/3
_shelx_space_group_comment
;
The symmetry employed for this shelxl refinement is uniquely defined
by the following loop, which should always be used as a source of
symmetry information in preference to the above space-group names.
They are only intended as comments.
;
_olex2_refinement_description
;
1. Fixed Uiso
 At 1.2 times of:
  All C(H) groups
 At 1.5 times of:
  All C(H,H,H) groups
2.a Aromatic/amide H refined with riding coordinates:
 C4(H4), C5(H5), C6(H6), C8(H8), C9(H9), C12(H12), C13(H13), C14(H14),
 C15(H15), C16(H16)
2.b Idealised Me refined as rotating group:
 C10(H10A,H10B,H10C)
;
_shelx_res_file
;
TITL xj_a.res in P-1
    xj.res
    created by SHELXL-2018/3 at 22:20:17 on 19-Jul-2018
CELL 0.71073 6.4036 7.8241 14.538 85.37 89.441 70.995
ZERR 2 0.0012 0.0019 0.003 0.003 0.002 0.002
LATT 1
SFAC  C 2.310 20.844 1.02 10.208 1.589 0.569 0.865 51.651 0.216 0.003 0.002 =
 11.5 0.68 12.01
SFAC H
SFAC  N 12.213 0.006 3.132 9.893 2.013 28.998 1.166 0.583 -11.529 0.006 =
 0.003 19.6 0.68 14.01
SFAC  O 3.049 13.277 2.287 5.701 1.546 0.324 0.867 32.909 0.251 0.011 0.006 =
 32.5 0.68 16
SFAC  S 6.905 1.468 5.203 22.215 1.438 0.254 1.586 56.172 0.867 0.125 0.123 =
 532 1.04 32.06
UNIT 32 26 2 4 2

L.S. 5
PLAN  -20
TEMP 23
CONF
fmap 2
acta
OMIT 0 0 1
OMIT -1 2 6
OMIT 0 2 11
REM <olex2.extras>
REM <HklSrc "%.\\XJ.hkl">
REM </olex2.extras>

WGHT    0.100000
FVAR       1.01003
S1    5    0.289356    0.198513    0.161109    11.00000    0.04706    0.03010 =
         0.04353   -0.00586   -0.00394   -0.00517
O1    4    0.119166    0.117657    0.176151    11.00000    0.06831    0.04044 =
         0.07059    0.00096   -0.01572   -0.02648
O2    4    0.460728    0.125996    0.097004    11.00000    0.06160    0.04948 =
         0.05031   -0.01450    0.00147    0.00614
N1    3    0.290461    0.242296    0.338554    11.00000    0.04155    0.04276 =
         0.04589   -0.00660    0.00055   -0.01057
C1    1    0.423494    0.193916    0.269671    11.00000    0.04100    0.02877 =
         0.04182    0.00054   -0.00061   -0.00805
C2    1    0.385482    0.247153    0.421936    11.00000    0.04647    0.03633 =
         0.04461   -0.00156    0.00035   -0.01441
C3    1    0.616928    0.200096    0.434143    11.00000    0.04876    0.04280 =
         0.04727    0.00507   -0.00687   -0.01642
C4    1    0.748701    0.151432    0.356758    11.00000    0.03772    0.07443 =
         0.05976   -0.00101   -0.00458   -0.01067
AFIX  43
H4    2    0.901186    0.122214    0.362063    11.00000   -1.20000
AFIX   0
C5    1    0.654322    0.146723    0.273679    11.00000    0.04033    0.06005 =
         0.04811   -0.00195    0.00408   -0.01031
AFIX  43
H5    2    0.739557    0.113575    0.221821    11.00000   -1.20000
AFIX   0
C6    1    0.699191    0.211758    0.523074    11.00000    0.06363    0.05967 =
         0.05875    0.00865   -0.01840   -0.02277
AFIX  43
H6    2    0.851190    0.178410    0.532283    11.00000   -1.20000
AFIX   0
C7    1    0.565334    0.269494    0.595114    11.00000    0.09428    0.04424 =
         0.04576    0.00612   -0.01151   -0.03134
C8    1    0.334516    0.316377    0.580956    11.00000    0.08880    0.07242 =
         0.04830   -0.01500    0.01043   -0.02914
AFIX  43
H8    2    0.240301    0.356122    0.629558    11.00000   -1.20000
AFIX   0
C9    1    0.247788    0.304423    0.497606    11.00000    0.06005    0.07950 =
         0.05671   -0.01819    0.00931   -0.02404
AFIX  43
H9    2    0.095600    0.334416    0.490388    11.00000   -1.20000
AFIX   0
C10   1    0.654665    0.289030    0.687977    11.00000    0.13234    0.07074 =
         0.05338   -0.00043   -0.02362   -0.03963
AFIX 137
H10A  2    0.622337    0.205780    0.733552    11.00000   -1.50000
H10B  2    0.586794    0.410842    0.704667    11.00000   -1.50000
H10C  2    0.811675    0.262894    0.684771    11.00000   -1.50000
AFIX   0
C11   1    0.164280    0.432522    0.130201    11.00000    0.04078    0.03016 =
         0.03194   -0.00377   -0.00172   -0.00649
C12   1    0.291428    0.531169    0.092413    11.00000    0.04744    0.04556 =
         0.04486   -0.00062    0.00632   -0.01106
AFIX  43
H12   2    0.440984    0.475296    0.082292    11.00000   -1.20000
AFIX   0
C13   1    0.191763    0.716572    0.069570    11.00000    0.07050    0.04495 =
         0.04999    0.00435    0.00297   -0.02419
AFIX  43
H13   2    0.275781    0.785929    0.045194    11.00000   -1.20000
AFIX   0
C14   1   -0.028413    0.796264    0.082896    11.00000    0.07287    0.03319 =
         0.04844   -0.00018   -0.00702   -0.00406
AFIX  43
H14   2   -0.094168    0.919530    0.066442    11.00000   -1.20000
AFIX   0
C15   1   -0.153504    0.697483    0.120063    11.00000    0.04570    0.04536 =
         0.07664   -0.00339   -0.00147    0.00344
AFIX  43
H15   2   -0.303457    0.753905    0.129075    11.00000   -1.20000
AFIX   0
C16   1   -0.058321    0.513143    0.144537    11.00000    0.04060    0.04090 =
         0.06678   -0.00061    0.00244   -0.00920
AFIX  43
H16   2   -0.142963    0.445330    0.170095    11.00000   -1.20000
AFIX   0
HKLF 4




REM  xj_a.res in P-1
REM wR2 = 0.1445, GooF = S = 1.058, Restrained GooF = 1.058 for all data
REM R1 = 0.0424 for 2399 Fo > 4sig(Fo) and 0.0545 for all 2928 data
REM 182 parameters refined using 0 restraints

END

WGHT      0.0608      0.1415

REM Highest difference peak  0.208,  deepest hole -0.338,  1-sigma level  0.054
Q1    1   0.2130  0.3348  0.1435  11.00000  0.05    0.21
Q2    1  -0.3389  0.7222  0.0774  11.00000  0.05    0.19
Q3    1   0.7763  0.1692  0.7139  11.00000  0.05    0.17
Q4    1   0.5683  0.1793  0.0854  11.00000  0.05    0.17
Q5    1   0.5354  0.2059  0.2597  11.00000  0.05    0.16
Q6    1   0.7577  0.3837  0.6814  11.00000  0.05    0.16
Q7    1   0.0673  0.4483  0.1237  11.00000  0.05    0.14
Q8    1   0.4681  0.2516  0.5927  11.00000  0.05    0.14
Q9    1   0.2441  0.4988  0.1391  11.00000  0.05    0.14
Q10   1   0.0957  0.0549  0.2141  11.00000  0.05    0.14
Q11   1   0.6961 -0.1007  0.3241  11.00000  0.05    0.14
Q12   1   0.7419  0.0115  0.2207  11.00000  0.05    0.14
Q13   1  -0.2987  0.7841  0.1878  11.00000  0.05    0.14
Q14   1   0.3492  0.8040  0.0918  11.00000  0.05    0.13
Q15   1  -0.0919  0.5993  0.1213  11.00000  0.05    0.13
Q16   1  -0.2252  0.4663  0.2661  11.00000  0.05    0.13
Q17   1   0.5000  0.5000  0.5000  10.50000  0.05    0.13
Q18   1  -0.3167  0.3996  0.3234  11.00000  0.05    0.13
Q19   1   0.0208  0.4192  0.4784  11.00000  0.05    0.13
Q20   1   0.2462  0.0916  0.1718  11.00000  0.05    0.12
;
_shelx_res_checksum              89206
_shelx_hkl_file
;
   1   1   0 2404.46   30.80
  -1  -1   0 2388.36   30.40
  -1  -1   0 2307.87   29.50
   2   2   0 1045.20   14.00
  -2  -2   0 1045.50   13.50
  -2  -2   0 1047.70   13.00
   3   3   0 1288.37   17.80
  -3  -3   0 1281.97   16.40
  -3  -3   0 1325.27   17.20
   4   4   0   12.40    1.90
  -4  -4   0    9.10    0.90
  -4  -4   0   12.40    1.30
   5   5   0    0.10    1.30
  -5  -5   0   -1.30    0.90
   6   6   0    2.70    1.80
  -6  -6   0    1.50    1.20
   7   7   0   31.90    3.40
  -7  -7   0   19.90    2.40
  -7  -6   0    4.20    1.70
   7   6   0   11.80    2.20
  -6  -5   0   14.60    1.90
   6   5   0   17.20    2.20
  -5  -4   0   31.60    2.30
  -5  -4   0   36.30    2.40
   5   4   0   33.50    2.60
  -4  -3   0  112.19    3.20
  -4  -3   0  111.99    2.70
   4   3   0  122.39    3.50
  -3  -2   0 1184.18   15.80
  -3  -2   0 1197.38   15.20
   3   2   0 1182.58   15.90
  -2  -1   0    0.40    0.30
  -2  -1   0   -0.10    0.40
   2   1   0    0.30    0.50
  -1   0   0 1135.09   14.30
  -1   0   0 1084.49   13.70
   1   0   0 1134.79   14.20
   0   1   0   41.90    1.20
   1   2   0 2072.79   25.40
  -1  -2   0 1988.50   26.40
  -1  -2   0 2059.09   39.40
   2   3   0  336.97    6.00
  -2  -3   0  337.17    5.30
  -2  -3   0  326.77    4.60
   3   4   0  320.87    6.50
  -3  -4   0  330.17    5.80
  -3  -4   0  329.87    4.90
   4   5   0    6.10    1.70
  -4  -5   0    5.90    1.10
   5   6   0   52.89    3.30
  -5  -6   0   56.69    2.80
   6   7   0   10.30    2.40
  -6  -7   0   12.20    1.90
  -7  -5   0   33.20    2.80
  -6  -4   0   24.40    2.40
   6   4   0   26.10    2.40
  -5  -3   0  191.98    4.80
  -5  -3   0  194.58    4.30
   5   3   0  191.18    4.80
  -4  -2   0    2.50    0.80
  -4  -2   0    2.00    0.90
   4   2   0    2.40    0.90
  -3  -1   0   12.10    1.10
  -3  -1   0    6.50    0.90
   3   1   0    6.40    0.80
  -2   0   0 1963.30   24.30
  -2   0   0 1971.50   24.50
   2   0   0 1979.50   24.50
  -1   1   0  156.98    2.20
  -1   1   0  157.68    2.70
   0   2   0 7859.81   93.29
   0   2   0 7068.39   92.09
   1   3   0  294.17    5.20
   1   3   0  301.57    4.70
  -1  -3   0  295.57    4.20
  -1  -3   0  287.37    4.60
   2   4   0  100.79    3.20
  -2  -4   0   99.29    2.00
  -2  -4   0  102.09    2.50
   3   5   0  341.57    7.20
  -3  -5   0  342.57    6.10
  -3  -5   0  342.37    5.20
   4   6   0    4.60    1.70
  -4  -6   0    4.30    1.20
   5   7   0   -0.80    1.60
  -5  -7   0   -0.10    0.90
   6   8   0    5.60    2.30
  -6  -8   0    2.20    1.50
  -8  -5   0    1.10    1.70
  -7  -4   0   27.00    2.70
  -6  -3   0    1.00    1.30
  -5  -2   0   21.00    2.00
  -5  -2   0   23.80    2.10
   5   2   0   20.70    1.70
  -4  -1   0   53.29    2.30
  -4  -1   0   54.69    2.20
   4   1   0   55.59    1.80
  -3   0   0  387.66    6.50
   3   0   0  392.76    5.30
  -2   1   0   96.59    2.40
  -1   2   0  877.41   11.20
  -1   2   0  886.61   11.70
   0   3   0 2681.43   33.70
   0   3   0 2640.94   32.90
   1   4   0    5.10    1.20
   1   4   0    5.50    0.80
  -1  -4   0    3.80    0.60
  -1  -4   0    6.10    0.80
   2   5   0   42.10    2.50
  -2  -5   0   43.20    1.80
  -2  -5   0   39.80    1.30
   3   6   0  238.68    6.20
  -3  -6   0  245.98    5.20
   4   7   0   25.20    2.80
  -4  -7   0   26.00    1.90
   5   8   0    4.70    2.00
  -5  -8   0    4.00    1.40
  -8  -4   0    0.70    1.60
  -7  -3   0   33.90    3.00
  -6  -2   0   77.39    3.50
  -5  -1   0   64.49    3.00
  -4   0   0    1.20    0.90
  -3   1   0    5.70    0.90
  -2   2   0  458.25    7.20
  -2   2   0  445.56    5.60
  -1   3   0    1.50    0.50
  -1   3   0    1.40    0.60
   0   4   0  321.27    5.40
   0   4   0  302.67    5.60
   0  -4   0  307.77    5.10
   1   5   0   93.79    3.30
   1   5   0   88.39    2.50
  -1  -5   0   92.19    2.20
  -1  -5   0   85.49    2.50
   2   6   0   89.39    3.80
  -2  -6   0   93.49    2.90
   3   7   0   89.09    4.10
  -3  -7   0   93.49    3.20
   4   8   0    2.80    1.90
  -4  -8   0   -0.10    1.00
   5   9   0    0.40    1.80
  -8  -3   0   16.90    2.50
  -7  -2   0   33.50    2.80
  -6  -1   0   54.69    3.10
  -5   0   0  102.59    3.70
  -4   1   0   58.99    2.60
  -3   2   0   90.29    2.90
  -2   3   0  222.38    4.60
  -2   3   0  220.48    3.50
  -1   4   0   59.19    2.10
  -1   4   0   60.49    2.10
   0   5   0    6.10    0.90
   0   5   0    6.00    1.30
   0  -5   0    9.40    1.10
   1   6   0   62.49    3.10
   1   6   0   62.89    2.40
  -1  -6   0   60.39    2.00
  -1  -6   0   63.39    2.40
   2   7   0    3.40    1.70
  -2  -7   0    2.40    0.90
   3   8   0    8.00    2.20
  -3  -8   0    6.50    1.30
   4   9   0    2.90    2.00
  -8  -2   0    4.50    3.00
  -7  -1   0    0.50    1.50
  -6   0   0    5.10    1.50
  -5   1   0    2.60    1.40
  -4   2   0   -0.30    1.00
  -3   3   0    2.90    1.10
  -2   4   0   26.00    1.90
  -1   5   0   14.20    1.50
  -1   5   0   15.10    1.40
   0   6   0   12.80    1.70
   0   6   0   14.00    1.40
   0  -6   0   12.20    1.30
   1   7   0    2.70    1.00
   1   7   0    1.00    1.40
  -1  -7   0    2.00    0.90
   2   8   0   30.90    3.20
  -2  -8   0   31.90    2.20
   3   9   0   13.30    2.50
  -3  -9   0   15.00    2.00
  -7   0   0   47.50    3.30
  -6   1   0  102.79    4.40
  -5   2   0   68.19    3.30
  -4   3   0  226.58    5.60
  -3   4   0  117.79    3.80
  -2   5   0   47.30    2.50
  -1   6   0   58.29    2.60
   1  -6   0   60.99    2.70
   0   7   0    7.10    1.30
   0   7   0    7.00    1.60
   0  -7   0    6.60    1.30
   1   8   0   40.50    3.20
   1   8   0   37.10    2.40
  -1  -8   0   38.00    2.40
   2   9   0    9.30    2.20
  -2  -9   0    9.00    1.70
  -7   1   0    6.40    1.90
  -6   2   0   26.50    2.70
  -5   3   0   22.70    2.40
  -4   4   0    0.50    1.00
  -3   5   0   84.59    3.40
  -2   6   0   84.39    3.40
  -1   7   0    7.10    1.40
   1  -7   0    8.00    1.60
   0   8   0   35.10    2.30
   1   9   0   40.70    2.80
  -1  -9   0   42.10    2.70
   2  10   0    9.60    2.40
  -6   3   0   28.60    2.90
  -5   4   0   21.80    2.50
  -4   5   0   29.40    2.70
  -3   6   0    9.30    1.70
  -2   7   0    5.10    1.50
   2  -7   0    1.50    1.60
  -1   8   0   22.60    2.40
   0   9   0    5.90    1.60
   0  -9   0   10.00    1.70
  -5   5   0   12.20    2.00
  -4   6   0   58.69    3.40
  -3   7   0   92.19    4.00
   3  -7   0   86.59    4.60
  -2   8   0   35.50    2.90
  -1   9   0   32.20    2.80
  -1   9   1   15.80    2.10
   2  -8  -1    6.50    1.90
  -2   8   1    5.30    1.60
   3  -7  -1    6.00    2.20
  -3   7   1    9.10    1.80
  -4   6   1   14.00    2.10
  -5   5   1    4.20    1.50
   0   9   1   20.90    2.20
  -1   8   1   59.79    3.20
   2  -7  -1   48.20    3.00
  -2   7   1   46.40    2.80
  -3   6   1   75.89    3.50
  -4   5   1   64.89    3.40
  -5   4   1   26.90    2.50
  -6   3   1   37.60    3.00
   2  10   1    1.90    1.80
   1   9   1   -0.30    1.60
   1   9   1   -1.30    2.60
   0   8   1    0.20    0.90
   1  -7  -1   -0.60    1.10
  -1   7   1   -0.20    0.90
   2  -6  -1    1.20    1.30
  -2   6   1    2.50    1.10
  -3   5   1    6.40    1.30
  -4   4   1    1.30    1.10
  -5   3   1    0.30    1.10
  -6   2   1    1.70    1.30
  -7   1   1    6.10    1.80
   2   9   1   34.00    3.30
  -1  -8  -1    7.20    1.30
   1   8   1   10.10    2.10
   1   8   1    7.70    1.40
   0  -7  -1    1.20    0.90
   0   7   1   -0.50    1.20
   0   7   1    0.10    0.80
   1  -6  -1   35.50    2.10
  -1   6   1   32.70    2.10
  -2   5   1    8.70    1.30
  -3   4   1    2.10    1.10
  -4   3   1   43.50    2.60
  -5   2   1   24.40    2.30
  -6   1   1   12.90    2.00
  -7   0   1   11.70    2.10
   3   9   1    2.10    2.10
  -2  -8  -1    0.60    0.80
   2   8   1    0.30    1.60
  -1  -7  -1   28.30    1.80
   1   7   1   27.70    1.90
   1   7   1   26.80    2.60
   0  -6  -1   30.40    1.80
   0   6   1   28.20    1.70
   0   6   1   28.80    2.40
   1  -5  -1   19.40    1.70
  -1   5   1   14.60    1.50
  -1   5   1   14.50    1.60
  -2   4   1  693.63   10.80
  -3   3   1  148.39    4.00
  -4   2   1   32.30    2.40
  -5   1   1  103.69    3.90
  -6   0   1   46.00    2.90
  -7  -1   1    5.20    1.80
   4   9   1   10.40    2.60
  -3  -8  -1   34.30    2.20
   3   8   1   42.30    3.40
  -2  -7  -1    9.20    1.20
   2   7   1    7.80    1.90
  -1  -6  -1    3.30    0.80
  -1  -6  -1    3.50    0.90
   1   6   1    4.60    1.70
   1   6   1    4.20    0.90
   0  -5  -1   43.30    1.90
   0   5   1   39.60    2.20
   0   5   1   43.80    1.90
  -1   4   1   12.30    1.30
  -1   4   1   11.30    1.00
  -2   3   1    5.40    0.90
  -3   2   1    1.10    0.70
  -4   1   1    9.50    1.40
  -5   0   1    1.20    1.30
  -6  -1   1    1.30    1.30
  -7  -2   1    2.50    1.50
  -8  -3   1    1.80    1.90
   5   9   1    6.60    2.30
  -4  -8  -1    3.10    1.20
   4   8   1    3.70    2.00
  -3  -7  -1  199.68    4.70
   3   7   1  195.68    6.00
  -2  -6  -1  321.57    5.40
  -2  -6  -1  328.47    6.00
   2   6   1  334.47    7.50
  -1  -5  -1   51.79    1.80
  -1  -5  -1   50.99    1.70
   1   5   1   52.29    2.70
   1   5   1   50.29    1.80
   0  -4  -1  568.44    8.30
   0   4   1  583.84    8.50
   0   4   1  569.54    9.00
  -1   3   1  289.37    4.90
  -1   3   1  277.37    4.80
  -2   2   1  139.49    2.40
  -2   2   1  141.19    3.20
  -3   1   1   35.50    0.80
  -3   1   1   41.40    1.80
  -4   0   1   18.70    1.60
  -5  -1   1   56.39    2.80
  -6  -2   1    1.70    1.30
  -7  -3   1   15.70    2.30
  -8  -4   1    3.90    1.90
   5   8   1    0.90    1.90
  -4  -7  -1   25.30    2.00
   4   7   1   26.90    2.90
  -3  -6  -1   73.59    2.60
   3   6   1   69.69    3.70
  -2  -5  -1    1.30    0.60
  -2  -5  -1    0.90    0.50
   2   5   1    0.70    1.30
  -1  -4  -1   92.69    2.20
  -1  -4  -1   93.59    2.10
   1   4   1   90.69    3.00
   1   4   1   91.99    2.20
   0  -3  -1 1129.09   14.50
   0   3   1 1124.79   15.10
   0   3   1 1132.39   14.50
  -1   2   1   11.20    0.90
  -1   2   1   10.70    0.80
  -2   1   1  872.81   10.90
  -2   1   1  882.31   11.90
   3   0  -1  476.15    6.40
  -3   0   1  482.05    7.60
   4   1  -1   20.70    1.20
  -4  -1   1   17.00    1.60
   5   2  -1  336.77    6.20
  -5  -2   1  342.37    6.90
  -6  -3   1  135.59    4.60
  -7  -4   1   19.40    2.40
   6   8   1    5.30    2.10
  -5  -7  -1   10.50    1.60
   5   7   1    7.90    2.10
  -4  -6  -1   91.59    3.10
   4   6   1   90.19    4.10
  -3  -5  -1  172.28    3.20
  -3  -5  -1  172.48    3.80
   3   5   1  167.28    5.00
  -2  -4  -1   52.09    1.70
  -2  -4  -1   50.49    1.40
   2   4   1   49.99    2.40
  -1  -3  -1    0.00    0.30
  -1  -3  -1   -0.30    0.30
   1   3   1    0.30    0.30
   1   3   1    0.80    0.90
   0  -2  -1  556.74    7.40
   0   2   1  560.14    7.40
   0   2   1  560.44    7.90
  -1   1   1  615.64    7.70
  -1   1   1  608.14    8.10
   2   0  -1   35.20    0.90
  -2   0   1   37.50    1.30
   3   1  -1   78.59    2.00
  -3  -1   1   80.69    2.30
   4   2  -1  434.56    7.10
  -4  -2   1  426.16    6.80
  -4  -2   1  434.46    7.40
   5   3  -1  136.39    4.00
  -5  -3   1  139.59    4.20
   6   4  -1    2.00    1.30
  -6  -4   1   -0.30    1.30
  -7  -5   1    8.60    2.00
  -6  -7  -1    2.00    1.30
   6   7   1    3.50    1.90
  -5  -6  -1    4.50    1.10
   5   6   1    3.00    1.70
  -4  -5  -1    2.70    1.10
  -4  -5  -1    1.90    0.90
   4   5   1    0.70    1.50
  -3  -4  -1  149.69    3.30
  -3  -4  -1  143.79    2.80
   3   4   1  143.69    4.20
  -2  -3  -1  606.24    8.10
  -2  -3  -1  595.14    8.30
   2   3   1  611.24    9.40
  -1  -2  -1  312.57    4.40
  -1  -2  -1  318.97    4.40
   1   2   1  311.97    5.20
   0  -1  -1 1996.00   25.00
   0   1   1 1919.81   24.60
   1   0  -1 6782.82  103.59
  -1   0   1 6389.86   80.59
   2   1  -1   18.20    1.00
  -2  -1   1   19.60    0.80
  -2  -1   1   20.30    1.00
   3   2  -1  577.94    8.70
  -3  -2   1  577.64    8.00
  -3  -2   1  594.94    8.70
   4   3  -1   59.19    2.50
  -4  -3   1   60.79    1.90
  -4  -3   1   61.99    2.40
   5   4  -1   11.50    1.80
  -5  -4   1    8.70    1.40
   6   5  -1   13.60    2.10
  -6  -5   1    8.70    1.70
   7   6  -1   22.20    2.60
  -7  -6   1   12.40    2.00
  -7  -7  -1    0.10    2.30
   7   7   1    3.40    1.80
  -6  -6  -1    3.90    1.40
   6   6   1    5.00    1.90
  -5  -5  -1   36.00    2.10
   5   5   1   39.10    3.00
  -4  -4  -1   33.30    1.80
  -4  -4  -1   34.40    1.50
   4   4   1   30.90    2.60
  -3  -3  -1    4.70    0.60
  -3  -3  -1    3.50    0.80
   3   3   1    4.40    1.30
  -2  -2  -1    2.40    0.40
  -2  -2  -1    2.10    0.50
   2   2   1    2.80    0.80
  -1  -1  -1   31.00    0.80
  -1  -1  -1   32.40    0.80
   1   1   1   33.60    1.10
   0   0  -1    0.00    0.10
   0   0  -1    0.00    0.10
   0   0   1    0.00    0.10
   1   1  -1 2276.77   28.70
  -1  -1   1 2259.27   27.80
  -1  -1   1 2313.47   29.60
   2   2  -1  133.79    3.00
  -2  -2   1  135.09    2.10
  -2  -2   1  136.79    2.70
   3   3  -1  570.14    9.20
  -3  -3   1  579.44    7.80
  -3  -3   1  587.64    8.80
   4   4  -1  308.47    6.50
  -4  -4   1  288.87    5.00
  -4  -4   1  308.67    6.00
   5   5  -1    6.70    1.80
  -5  -5   1    6.20    1.40
   6   6  -1   18.00    2.40
  -6  -6   1   15.30    2.10
   7   7  -1    6.20    1.90
  -7  -7   1    2.10    1.70
  -7  -6  -1    5.80    1.80
   7   6   1    8.70    2.10
  -6  -5  -1    3.10    1.30
   6   5   1    5.00    1.60
  -5  -4  -1    1.40    1.10
  -5  -4  -1    0.90    0.80
   5   4   1    0.10    1.40
  -4  -3  -1   56.99    2.20
  -4  -3  -1   58.29    2.00
   4   3   1   58.09    2.60
  -3  -2  -1   49.10    1.60
  -3  -2  -1   51.79    1.80
   3   2   1   50.59    2.10
  -2  -1  -1  451.75    6.30
  -2  -1  -1  441.46    6.20
   2   1   1  430.36    6.40
  -1   0  -1    0.70    0.30
  -1   0  -1    0.40    0.30
   1   0   1    1.50    0.30
   0   1  -1 1237.68   15.70
   0   1  -1 1162.48   14.70
   1   2  -1 9999.00  113.89
  -1  -2   1 8675.73  110.99
  -1  -2   1 8500.75  120.79
   2   3  -1    2.40    0.90
  -2  -3   1    2.80    0.60
  -2  -3   1    2.70    0.30
   3   4  -1  460.85    8.20
  -3  -4   1  468.95    6.40
  -3  -4   1  480.45    7.60
   4   5  -1  166.68    4.90
  -4  -5   1  164.08    4.20
   5   6  -1    8.00    2.00
  -5  -6   1    6.50    1.40
   6   7  -1    7.30    2.20
  -6  -7   1    6.80    1.60
  -7  -5  -1   10.20    1.90
  -6  -4  -1    6.60    1.50
   6   4   1    5.70    1.60
  -5  -3  -1   21.80    1.80
  -5  -3  -1   25.50    2.20
   5   3   1   22.70    2.20
  -4  -2  -1   10.60    1.10
  -4  -2  -1    8.10    1.20
   4   2   1   10.20    1.30
  -3  -1  -1  990.30   13.10
  -3  -1  -1  982.40   13.40
   3   1   1  971.80   12.90
  -2   0  -1 1007.40   13.10
  -2   0  -1  996.10   13.00
   2   0   1 1001.80   12.40
  -1   1  -1  124.69    2.40
  -1   1  -1  128.19    1.80
  -1   1  -1  127.99    2.30
   0   2  -1 8376.16  107.99
   0   2  -1 9127.19  108.09
   1   3  -1   49.90    1.90
   1   3  -1   49.30    1.60
  -1  -3   1   50.89    1.60
  -1  -3   1   52.59    1.20
   2   4  -1  285.37    5.60
  -2  -4   1  275.57    4.00
  -2  -4   1  282.97    5.00
   3   5  -1    8.00    1.60
  -3  -5   1    9.80    1.20
   4   6  -1   13.90    2.20
  -4  -6   1   11.40    1.50
   5   7  -1    7.30    2.00
  -5  -7   1    7.80    1.60
   6   8  -1    3.30    1.90
  -6  -8   1    0.90    1.50
  -8  -5  -1    7.40    2.00
  -7  -4  -1    9.70    1.90
  -6  -3  -1  217.78    5.20
  -6  -3  -1  204.88    5.50
  -5  -2  -1   88.49    3.20
  -5  -2  -1   81.19    3.00
   5   2   1   84.59    2.80
  -4  -1  -1   38.10    1.80
  -4  -1  -1   37.90    2.00
   4   1   1   37.40    1.50
  -3   0  -1  232.48    4.40
  -3   0  -1  233.48    4.50
   3   0   1  225.98    3.40
  -2   1  -1  257.07    4.50
  -1   2  -1  124.59    2.60
  -1   2  -1  121.09    2.20
   0   3  -1  179.68    3.40
   0   3  -1  168.78    3.40
   1   4  -1 3929.71   48.00
   1   4  -1 3836.62   49.60
  -1  -4   1 3913.61   48.20
  -1  -4   1 3836.22   49.80
   2   5  -1  226.88    5.40
  -2  -5   1  237.78    3.70
  -2  -5   1  246.48    4.80
   3   6  -1  337.07    7.50
  -3  -6   1  345.57    6.60
   4   7  -1   65.39    3.70
  -4  -7   1   68.59    2.90
   5   8  -1    1.50    1.90
  -5  -8   1    0.10    1.20
  -8  -4  -1    6.30    1.90
  -7  -3  -1    4.40    1.70
  -6  -2  -1    2.20    1.30
  -5  -1  -1    3.10    1.20
  -5  -1  -1    3.70    1.30
  -4   0  -1   39.50    2.20
  -3   1  -1   56.99    2.20
  -2   2  -1 1247.68   15.40
  -2   2  -1 1247.08   16.70
  -1   3  -1  700.23   10.00
  -1   3  -1  675.93    9.30
   0   4  -1 1461.45   19.30
   0   4  -1 1476.75   19.40
   1   5  -1  301.67    6.10
   1   5  -1  310.37    5.70
  -1  -5   1  314.47    4.90
  -1  -5   1  320.47    5.70
   2   6  -1    2.70    1.70
  -2  -6   1    5.70    1.20
   3   7  -1    7.20    1.90
  -3  -7   1    8.00    1.40
   4   8  -1    1.70    1.70
  -4  -8   1    1.40    1.10
   5   9  -1    1.70    2.20
  -5  -9   1   -0.90    1.20
  -8  -3  -1   23.20    2.80
  -7  -2  -1    3.10    1.50
  -6  -1  -1  106.69    4.10
  -5   0  -1   64.49    3.00
  -4   1  -1   33.20    2.20
  -3   2  -1   44.20    2.10
  -2   3  -1   74.19    1.60
  -2   3  -1   73.49    2.50
  -1   4  -1   18.80    1.40
  -1   4  -1   18.20    1.30
   0   5  -1   92.19    3.10
   0   5  -1   94.59    2.90
   0  -5   1   94.59    2.60
   1   6  -1  525.65    9.50
   1   6  -1  542.25    8.90
  -1  -6   1  542.55    8.90
   2   7  -1   29.20    2.60
  -2  -7   1   32.10    2.10
   3   8  -1    1.10    1.60
  -3  -8   1    2.50    1.10
   4   9  -1    8.10    2.20
  -4  -9   1    4.80    1.50
  -8  -2  -1    8.90    2.50
  -7  -1  -1   30.40    3.00
  -6   0  -1  211.98    6.00
  -5   1  -1  109.99    3.90
  -4   2  -1   56.09    2.70
  -3   3  -1  294.37    6.10
  -2   4  -1  528.25    8.90
  -1   5  -1  136.39    3.70
  -1   5  -1  137.59    3.50
   0   6  -1  175.08    4.60
   0   6  -1  178.98    4.50
   0  -6   1  177.48    4.00
   1   7  -1  153.88    4.90
   1   7  -1  150.38    4.20
  -1  -7   1  158.48    4.30
   2   8  -1   95.39    4.50
  -2  -8   1   84.89    3.40
   3   9  -1   18.40    2.70
  -3  -9   1   17.80    2.20
  -7   0  -1    8.80    1.90
  -6   1  -1   34.40    3.00
  -5   2  -1   30.40    2.50
  -4   3  -1  235.88    5.80
  -3   4  -1  132.19    4.00
  -2   5  -1    1.00    0.90
  -1   6  -1    4.50    1.10
   0   7  -1    0.20    0.90
   0   7  -1   -0.50    1.10
   1   8  -1    2.50    1.60
   1   8  -1   -0.80    0.80
  -1  -8   1    0.00    0.90
   2   9  -1    9.60    2.10
  -2  -9   1    9.00    1.80
  -7   1  -1   25.30    2.80
  -6   2  -1   77.99    4.00
  -5   3  -1   67.39    3.50
  -4   4  -1   18.40    2.10
  -3   5  -1  100.29    3.80
  -2   6  -1   68.39    3.10
  -1   7  -1   11.40    1.60
   1  -7   1   11.10    1.70
   0   8  -1   52.69    2.90
   1   9  -1   74.79    3.50
  -1  -9   1   77.09    3.50
   2  10  -1   35.50    3.60
  -2 -10   1   28.10    3.40
  -6   3  -1    4.00    1.60
  -5   4  -1    0.90    1.20
  -4   5  -1    1.30    1.20
  -3   6  -1   19.70    2.20
  -2   7  -1   48.40    2.90
   2  -7   1   42.10    3.20
  -1   8  -1   10.80    1.80
   0   9  -1    3.80    1.30
   0  -9   1    5.50    1.30
  -5   5  -1    5.70    1.70
  -4   6  -1   44.00    3.10
  -3   7  -1   58.29    3.50
  -2   8  -1    9.50    1.90
  -1   9  -1   27.40    2.60
   2  -8  -2    9.00    1.90
  -2   8   2   10.80    1.80
   3  -7  -2    1.90    1.70
  -3   7   2    4.20    1.40
  -4   6   2    1.80    1.30
  -5   5   2    0.90    1.30
   1  -8  -2   40.90    2.80
  -1   8   2   41.30    2.70
   2  -7  -2  159.28    5.10
  -2   7   2  161.98    4.90
   3  -6  -2   50.19    3.30
  -3   6   2   54.79    3.10
  -4   5   2   -0.40    1.20
  -5   4   2    3.80    1.50
  -6   3   2   -0.10    1.20
   2  10   2   38.20    4.00
   1   9   2   65.89    4.40
   0   8   2    3.80    1.10
   1  -7  -2    7.50    1.50
  -1   7   2    5.40    1.30
   2  -6  -2  111.19    3.90
  -2   6   2  110.69    3.80
  -3   5   2    2.50    1.20
  -4   4   2   -0.80    1.10
  -5   3   2   22.30    2.40
  -6   2   2    4.30    1.50
  -7   1   2   21.10    2.80
   2   9   2   13.30    2.50
  -1  -8  -2    0.80    0.90
   1   8   2    3.20    1.90
   1   8   2   -1.10    0.70
   0  -7  -2    1.40    0.90
   0   7   2    1.10    0.80
   0   7   2   -0.80    1.40
   1  -6  -2    0.40    1.00
  -1   6   2   -0.50    0.70
   2  -5  -2   35.20    2.40
  -2   5   2   34.00    2.10
  -3   4   2  201.18    5.10
  -4   3   2   31.40    2.40
  -5   2   2    2.60    1.30
  -6   1   2   10.10    1.90
  -7   0   2    6.00    1.80
   3   9   2   20.70    3.00
   2   8   2   49.10    3.90
  -1  -7  -2   25.60    1.70
  -1  -7  -2   31.10    1.70
   1   7   2   26.70    1.80
   1   7   2   27.30    3.00
   0  -6  -2   18.70    1.60
   0   6   2   19.80    2.20
   0   6   2   17.60    1.50
   1  -5  -2   63.09    2.60
  -1   5   2   61.99    2.40
  -1   5   2   58.69    2.80
  -2   4   2  507.65    8.50
  -3   3   2  233.38    5.20
  -4   2   2   74.19    3.10
  -5   1   2  180.18    5.10
  -6   0   2   43.80    2.90
  -7  -1   2    2.30    1.50
   4   9   2    7.80    2.30
   3   8   2   14.30    2.60
  -2  -7  -2   41.90    2.00
   2   7   2   39.40    3.20
  -1  -6  -2    4.10    0.80
  -1  -6  -2    3.90    0.90
   1   6   2    5.20    0.90
   1   6   2    4.10    1.60
   0  -5  -2    3.30    0.90
   0   5   2    5.10    0.80
   0   5   2    4.30    1.40
   1  -4  -2   80.39    2.50
  -1   4   2   79.29    2.40
  -1   4   2   79.39    2.80
  -2   3   2  204.48    3.80
  -2   3   2  207.18    4.30
  -3   2   2  198.18    4.50
  -4   1   2    1.00    1.00
  -5   0   2   32.30    2.40
  -6  -1   2   19.40    2.20
  -7  -2   2   21.10    2.50
   5   9   2   16.70    3.00
   4   8   2    4.80    2.10
  -3  -7  -2  148.09    3.90
   3   7   2  155.28    5.70
  -2  -6  -2  236.68    4.50
  -2  -6  -2  240.78    4.80
   2   6   2  243.08    6.30
  -1  -5  -2    0.70    0.60
  -1  -5  -2    1.20    0.50
   1   5   2    2.90    1.40
   1   5   2    1.30    0.50
   0  -4  -2  190.58    3.70
   0   4   2  200.18    3.70
   0   4   2  192.08    4.40
  -1   3   2  519.55    7.60
  -1   3   2  511.15    7.80
  -2   2   2   26.20    1.40
  -2   2   2   24.70    1.00
  -3   1   2   63.79    1.40
  -3   1   2   63.29    2.30
   4   0  -2   18.90    1.10
  -4   0   2   19.30    1.70
  -5  -1   2    1.50    1.20
  -6  -2   2   15.70    2.00
  -7  -3   2   -0.50    1.30
   5   8   2   -1.30    1.80
  -4  -7  -2   17.30    1.70
   4   7   2   19.70    2.90
  -3  -6  -2   29.70    1.70
  -3  -6  -2   31.70    1.50
   3   6   2   32.40    3.00
  -2  -5  -2   46.10    1.70
  -2  -5  -2   44.40    1.60
   2   5   2   44.80    2.80
  -1  -4  -2   18.90    1.00
  -1  -4  -2   19.70    1.00
   1   4   2   21.30    1.00
   1   4   2   21.00    2.00
   0  -3  -2    0.70    0.50
   0   3   2    0.50    0.30
   0   3   2    0.10    0.70
  -1   2   2  217.68    3.60
  -1   2   2  210.28    3.60
  -2   1   2  169.48    2.70
  -2   1   2  170.98    3.40
   3   0  -2  479.05    6.70
  -3   0   2  485.15    7.70
   4   1  -2   53.89    1.80
  -4  -1   2   53.59    2.30
   5   2  -2  259.57    5.20
  -5  -2   2  263.37    6.00
  -6  -3   2  127.69    4.50
  -7  -4   2    6.90    1.80
   6   8   2    1.80    1.90
   5   7   2    9.70    2.30
  -4  -6  -2   54.59    2.40
   4   6   2   63.19    3.60
  -3  -5  -2   59.49    1.80
  -3  -5  -2   59.59    2.10
   3   5   2   57.19    3.20
  -2  -4  -2   25.70    1.10
  -2  -4  -2   26.10    1.10
   2   4   2   30.30    2.30
  -1  -3  -2  113.09    2.30
  -1  -3  -2  112.09    2.10
   1   3   2  111.99    2.20
   1   3   2  116.99    3.20
   0  -2  -2  363.76    5.20
   0   2   2  370.06    5.00
   0   2   2  358.76    5.60
  -1   1   2  410.06    5.70
  -1   1   2  407.16    5.50
   2   0  -2    6.60    0.50
   3   1  -2   19.50    1.10
  -3  -1   2   19.20    1.30
   4   2  -2    0.90    0.80
  -4  -2   2    0.70    0.80
   5   3  -2    5.70    1.40
  -5  -3   2    7.30    1.50
   6   4  -2   10.90    1.80
  -6  -4   2    0.70    1.30
  -7  -5   2   -0.60    1.30
   6   7   2   33.30    3.30
  -5  -6  -2   13.80    1.70
   5   6   2   12.50    2.50
  -4  -5  -2   71.79    2.60
  -4  -5  -2   70.29    2.20
   4   5   2   70.69    3.80
  -3  -4  -2   63.39    2.00
  -3  -4  -2   65.09    1.90
   3   4   2   63.49    3.00
  -2  -3  -2  242.98    3.90
  -2  -3  -2  243.38    3.90
   2   3   2  246.48    5.10
  -1  -2  -2    0.10    0.30
  -1  -2  -2    0.30    0.20
   1   2   2    0.60    0.70
   0  -1  -2  559.24    7.10
   0   1   2  548.95    6.80
   0   1   2  553.54    7.30
   1   0  -2 1427.46   19.00
  -1   0   2 1452.05   18.80
   2   1  -2  299.27    4.70
  -2  -1   2  302.07    4.80
   3   2  -2   17.80    1.30
  -3  -2   2   19.20    1.20
   4   3  -2   76.29    2.80
  -4  -3   2   83.29    2.80
   5   4  -2    0.10    1.20
  -5  -4   2   -0.20    1.10
   6   5  -2    2.00    1.40
  -6  -5   2   -0.90    1.00
   7   6  -2    1.50    1.50
  -7  -6   2    1.00    1.40
   7   7   2    2.40    2.00
  -6  -6  -2    1.50    1.20
   6   6   2    3.50    1.80
  -5  -5  -2    9.10    1.30
   5   5   2   12.00    2.10
  -4  -4  -2   62.19    2.30
  -4  -4  -2   62.59    2.10
   4   4   2   61.79    3.30
  -3  -3  -2  154.48    3.10
  -3  -3  -2  155.18    3.20
   3   3   2  149.49    4.00
  -2  -2  -2    1.10    0.30
  -2  -2  -2    1.10    0.40
   2   2   2    1.70    0.80
  -1  -1  -2  752.72    9.40
  -1  -1  -2  740.93    9.50
   1   1   2  753.92    9.90
   0   0  -2   12.90    0.40
   0   0  -2   13.10    0.50
   0   0   2   14.50    0.50
   1   1  -2   -0.70    0.40
  -1  -1   2    0.20    0.30
   2   2  -2   56.89    1.90
  -2  -2   2   57.49    1.70
   3   3  -2    8.00    1.30
  -3  -3   2    8.80    1.00
  -3  -3   2    7.40    0.70
   4   4  -2  142.49    4.20
  -4  -4   2  146.79    3.90
   5   5  -2   26.60    2.60
  -5  -5   2   27.90    2.10
   6   6  -2   12.60    2.10
  -6  -6   2   11.40    1.90
   7   7  -2   14.10    2.50
  -7  -7   2    6.60    2.00
  -7  -6  -2    0.70    1.20
   7   6   2    1.80    2.10
  -6  -5  -2    6.20    1.50
   6   5   2    5.50    1.70
  -5  -4  -2   13.90    1.40
  -5  -4  -2   11.90    1.50
   5   4   2   11.10    1.90
  -4  -3  -2   89.29    2.50
  -4  -3  -2   90.99    2.80
   4   3   2   87.79    3.30
  -3  -2  -2   19.30    1.20
  -3  -2  -2   18.50    1.00
   3   2   2   18.80    1.60
  -2  -1  -2  107.79    2.20
  -2  -1  -2  108.89    2.20
   2   1   2  104.99    2.40
  -1   0  -2 1373.66   17.30
  -1   0  -2 1400.46   17.20
   1   0   2 1403.56   17.50
   0   1  -2  153.08    2.20
   0   1  -2  152.78    2.50
   0   1  -2  153.88    2.50
   1   2  -2  230.08    4.10
  -1  -2   2  243.28    3.80
   2   3  -2  252.47    4.90
  -2  -3   2  253.27    4.40
  -2  -3   2  243.88    3.20
   3   4  -2    0.00    1.00
  -3  -4   2    0.90    0.40
  -3  -4   2    1.60    0.70
   4   5  -2    3.70    1.50
  -4  -5   2    0.80    0.90
   5   6  -2   19.00    2.50
  -5  -6   2   16.10    1.80
   6   7  -2    6.70    2.00
  -6  -7   2    1.80    1.30
  -7  -5  -2    0.20    1.40
  -6  -4  -2   48.20    2.50
  -6  -4  -2   45.20    2.60
   6   4   2   46.60    2.90
  -5  -3  -2  116.99    3.70
  -5  -3  -2  114.19    3.40
   5   3   2  111.19    3.80
  -4  -2  -2  107.39    3.10
  -4  -2  -2  110.69    2.90
   4   2   2  110.39    3.20
  -3  -1  -2  166.38    3.40
  -3  -1  -2  167.28    3.50
   3   1   2  160.98    3.40
  -2   0  -2   45.50    1.50
  -2   0  -2   47.30    1.50
   2   0   2   47.40    1.20
  -1   1  -2 1283.27   16.40
  -1   1  -2 1282.37   16.10
  -1   1  -2 1291.67   16.20
   0   2  -2    3.80    0.50
   0   2  -2    3.80    0.70
   1   3  -2  861.31   11.80
   1   3  -2  891.31   12.20
  -1  -3   2  867.01   10.70
   2   4  -2  688.63   10.80
  -2  -4   2  704.53    8.60
  -2  -4   2  694.93   10.10
   3   5  -2  150.88    4.50
  -3  -5   2  149.09    3.80
   4   6  -2  245.18    6.40
  -4  -6   2  253.37    5.70
   5   7  -2   -0.40    1.40
  -5  -7   2   -0.20    1.10
   6   8  -2    4.90    2.00
  -6  -8   2    0.30    1.50
  -8  -5  -2    6.00    1.80
  -7  -4  -2   10.50    2.00
  -6  -3  -2   99.39    3.50
  -6  -3  -2  104.09    4.00
  -5  -2  -2   68.79    2.90
  -5  -2  -2   72.29    2.90
  -4  -1  -2   34.80    1.80
  -4  -1  -2   35.40    1.90
   4   1   2   37.20    1.70
  -3   0  -2  224.38    4.30
  -3   0  -2  225.78    4.40
   3   0   2  224.08    3.60
  -2   1  -2   83.19    2.20
  -2   1  -2   85.39    2.20
   2  -1   2   80.39    1.30
  -1   2  -2  749.73   10.30
  -1   2  -2  743.23    9.70
   0   3  -2 1267.37   16.50
   0   3  -2 1258.07   16.50
   1   4  -2 1353.86   18.30
   1   4  -2 1421.76   18.90
  -1  -4   2 1407.76   17.20
  -1  -4   2 1393.26   18.30
   2   5  -2    3.10    1.30
  -2  -5   2    6.20    1.00
   3   6  -2   13.60    2.10
  -3  -6   2    8.10    1.40
   4   7  -2    5.70    1.90
  -4  -7   2    4.10    1.30
   5   8  -2    2.00    1.70
  -5  -8   2    1.70    1.30
  -8  -4  -2    8.90    2.10
  -7  -3  -2    2.90    1.40
  -7  -3  -2    3.10    1.60
  -6  -2  -2    6.60    1.60
  -6  -2  -2    6.10    1.50
  -5  -1  -2   99.69    3.60
  -5  -1  -2  103.99    3.40
  -4   0  -2    0.90    0.90
  -4   0  -2    2.10    0.90
  -3   1  -2   77.69    2.50
  -3   1  -2   78.69    2.60
  -2   2  -2    0.10    0.20
  -2   2  -2    0.30    0.60
  -1   3  -2 1425.26   18.90
  -1   3  -2 1459.45   18.30
   0   4  -2   41.70    1.90
   0   4  -2   46.20    1.90
   1   5  -2  498.65    8.60
   1   5  -2  491.95    8.10
  -1  -5   2  484.65    8.00
  -1  -5   2  496.45    7.00
   2   6  -2 1672.73   24.00
  -2  -6   2 1751.02   23.20
   3   7  -2   50.89    3.30
  -3  -7   2   49.50    2.70
   4   8  -2   63.39    3.90
  -4  -8   2   53.69    3.00
  -5  -9   2   13.70    2.10
  -8  -3  -2    0.70    1.60
  -7  -2  -2    4.30    1.70
  -6  -1  -2   24.90    2.40
  -5   0  -2   23.60    2.30
  -4   1  -2   -0.20    0.80
  -3   2  -2   71.59    2.60
  -2   3  -2  270.37    4.40
  -2   3  -2  276.77    5.40
  -1   4  -2  443.46    6.90
  -1   4  -2  442.46    7.50
   0   5  -2  172.88    4.20
   0   5  -2  171.28    4.20
   1   6  -2  420.46    8.10
   1   6  -2  422.26    7.70
  -1  -6   2  432.26    7.80
   2   7  -2   33.50    2.70
  -2  -7   2   33.60    2.30
   3   8  -2   43.50    3.30
  -3  -8   2   37.00    2.80
   4   9  -2    6.60    2.20
  -4  -9   2   -0.90    1.30
  -8  -2  -2    1.30    1.90
  -7  -1  -2    9.50    2.00
  -6   0  -2   64.89    3.40
  -5   1  -2  176.68    5.00
  -4   2  -2   96.09    3.40
  -3   3  -2  315.07    6.40
  -2   4  -2   -0.40    0.80
  -1   5  -2   27.80    1.80
  -1   5  -2   24.60    1.80
   0   6  -2    5.10    1.30
   0   6  -2    3.10    1.00
   0  -6   2    3.30    1.00
   1   7  -2   22.10    2.40
   1   7  -2   20.90    2.00
  -1  -7   2   17.40    1.70
   2   8  -2  195.98    6.00
  -2  -8   2  187.48    5.30
   3   9  -2    4.90    1.80
  -3  -9   2   -0.30    1.10
  -7   0  -2    4.50    1.60
  -6   1  -2   44.30    3.10
  -5   2  -2   63.69    3.30
  -4   3  -2   19.30    2.10
  -3   4  -2  111.09    3.70
  -2   5  -2   72.19    2.90
  -1   6  -2   78.59    3.10
   0   7  -2    3.30    1.00
   0   7  -2    4.40    1.50
   1   8  -2  234.98    6.40
   1   8  -2  230.68    6.00
  -1  -8   2  232.48    6.00
   2   9  -2  139.69    5.50
  -2  -9   2  126.59    4.70
  -7   1  -2    9.80    2.10
  -6   2  -2    5.70    1.70
  -5   3  -2   18.90    2.30
  -4   4  -2    5.30    1.40
  -3   5  -2   12.70    1.70
  -2   6  -2   19.20    2.00
  -1   7  -2   12.40    1.70
   0   8  -2    1.70    1.20
   1   9  -2    0.60    1.30
  -1  -9   2    1.40    1.30
  -6   3  -2   48.90    3.30
  -5   4  -2   70.09    3.60
  -4   5  -2   73.69    3.70
  -3   6  -2   53.39    3.20
  -2   7  -2   54.19    3.10
  -1   8  -2   29.30    2.50
   0   9  -2   22.20    2.40
   0  -9   2   27.30    2.30
  -5   5  -2   13.20    2.50
  -4   6  -2    1.20    1.30
  -3   7  -2    1.60    1.50
  -2   8  -2    1.90    1.30
   2  -8  -3  129.59    4.80
   3  -7  -3  184.68    5.80
  -3   7   3  170.18    5.30
   4  -6  -3    1.60    1.90
  -4   6   3    7.70    1.70
  -5   5   3    0.80    1.30
   1  -8  -3    1.90    1.30
   2  -7  -3    3.80    1.60
  -2   7   3    3.50    1.30
   3  -6  -3    3.30    1.70
  -3   6   3    5.70    1.40
  -4   5   3   40.50    2.90
  -5   4   3    2.70    1.30
  -6   3   3    2.30    1.40
   2  10   3   19.80    3.10
   1   9   3   36.10    3.70
   0  -8  -3   47.00    2.60
   1  -7  -3   68.99    3.00
  -1   7   3   70.19    2.90
   2  -6  -3  211.38    5.60
  -2   6   3  209.68    5.20
   3  -5  -3  240.38    6.10
  -3   5   3  250.67    5.90
  -4   4   3    4.70    1.40
  -5   3   3    4.90    1.50
  -6   2   3   10.50    2.00
  -7   1   3    2.30    1.80
   2   9   3    3.40    2.10
   1   8   3   52.39    3.70
   0  -7  -3  161.58    4.20
   0   7   3  152.68    4.10
   0   7   3  149.29    5.00
   1  -6  -3   15.50    1.70
  -1   6   3   10.90    1.30
   2  -5  -3  230.58    5.50
  -2   5   3  215.18    5.10
  -3   4   3  402.96    7.70
  -4   3   3    2.60    1.30
  -5   2   3   25.70    2.50
  -6   1   3   33.80    2.80
  -7   0   3   -0.70    1.50
   3   9   3   67.59    4.50
   2   8   3   22.10    3.00
  -1  -7  -3    3.80    0.90
  -1  -7  -3    1.90    0.80
   1   7   3    1.80    1.60
   1   7   3    1.40    0.80
   0  -6  -3   69.09    2.50
   0   6   3   66.99    2.40
   0   6   3   69.79    3.50
   1  -5  -3  135.19    3.70
  -1   5   3  132.29    3.40
  -1   5   3  131.69    4.00
   2  -4  -3   37.00    2.20
  -2   4   3   30.60    1.90
  -3   3   3  205.78    4.90
  -4   2   3   38.00    2.40
  -5   1   3    0.10    1.20
  -6   0   3   12.00    2.10
  -7  -1   3    5.50    1.70
   4   9   3    9.70    2.60
   3   8   3    6.80    2.40
  -2  -7  -3   52.79    2.20
   2   7   3   52.29    3.60
  -1  -6  -3   16.30    1.20
  -1  -6  -3   15.80    1.30
   1   6   3   18.60    2.30
   1   6   3   18.40    1.30
   0  -5  -3   28.70    1.60
   0   5   3   27.40    1.40
   0   5   3   29.70    2.50
   1  -4  -3   88.39    2.80
  -1   4   3   91.69    3.00
  -1   4   3   88.19    2.50
  -2   3   3   93.79    2.60
  -2   3   3   89.19    2.60
  -3   2   3  180.88    4.30
  -4   1   3    9.60    1.50
  -5   0   3   59.59    3.00
  -6  -1   3   32.30    2.80
  -7  -2   3    2.80    1.60
   5   9   3    5.80    2.60
   4   8   3    5.20    2.50
   3   7   3    0.40    1.90
  -2  -6  -3    4.80    0.80
  -2  -6  -3    6.20    0.90
   2   6   3    3.90    1.90
  -1  -5  -3    7.50    0.90
  -1  -5  -3    8.60    0.80
   1   5   3    7.90    0.80
   1   5   3   11.00    1.80
   0  -4  -3   52.29    1.80
   0   4   3   51.99    2.50
   0   4   3   52.99    1.70
   1  -3  -3   92.99    2.50
  -1   3   3   90.19    2.60
  -1   3   3   91.69    2.30
  -2   2   3   96.49    2.60
  -2   2   3   97.69    2.20
   3  -1  -3  112.59    2.20
  -3   1   3  108.59    3.10
   4   0  -3   16.20    1.00
  -4   0   3   14.90    1.60
  -5  -1   3   30.40    2.30
  -6  -2   3   51.69    3.30
  -7  -3   3    1.00    1.50
   5   8   3    6.00    2.40
   4   7   3  169.88    6.00
  -3  -6  -3  126.69    3.20
  -3  -6  -3  133.89    3.20
   3   6   3  129.49    4.90
  -2  -5  -3  115.29    2.70
  -2  -5  -3  115.29    2.80
   2   5   3  113.89    4.10
  -1  -4  -3  150.58    2.80
  -1  -4  -3  150.88    3.10
   1   4   3  152.78    2.90
   1   4   3  158.88    4.20
   0  -3  -3   84.09    2.10
   0   3   3   84.79    1.80
   0   3   3   81.99    2.60
   1  -2  -3   12.10    1.00
  -1   2   3   11.80    0.90
  -1   2   3    9.00    0.70
   2  -1  -3  192.28    3.20
  -2   1   3  196.68    3.70
   3   0  -3   26.60    1.10
  -3   0   3   25.40    1.50
   4   1  -3   37.00    1.60
  -4  -1   3   37.30    2.00
   5   2  -3   21.00    1.80
  -5  -2   3   25.80    2.40
  -6  -3   3   39.50    2.80
  -7  -4   3    0.00    1.30
   6   8   3    4.20    2.30
   5   7   3    5.50    2.20
  -4  -6  -3    1.40    0.90
   4   6   3    1.20    2.00
  -3  -5  -3   33.90    1.60
  -3  -5  -3   32.60    1.50
   3   5   3   32.90    2.80
  -2  -4  -3    3.00    0.50
  -2  -4  -3    2.80    0.60
   2   4   3    4.00    1.40
  -1  -3  -3  138.59    2.70
  -1  -3  -3  133.29    2.30
   1   3   3  136.19    3.50
   1   3   3  135.89    2.30
   0  -2  -3  153.48    2.80
   0   2   3  159.18    2.40
   0   2   3  150.98    3.10
   1  -1  -3  429.96    6.20
  -1   1   3  445.16    6.20
  -1   1   3  448.66    6.10
   2   0  -3    1.90    0.40
  -2   0   3    3.80    0.60
   3   1  -3   31.00    1.30
  -3  -1   3   30.90    1.50
   4   2  -3  315.47    5.80
  -4  -2   3  315.27    6.10
   5   3  -3    8.10    1.50
  -5  -3   3    8.80    1.50
   6   4  -3    5.30    1.40
  -6  -4   3   -0.10    1.30
  -7  -5   3    4.30    1.70
   6   7   3   20.80    3.10
  -5  -6  -3   57.69    2.90
   5   6   3   55.19    3.70
  -4  -5  -3   67.89    2.40
  -4  -5  -3   68.09    2.20
   4   5   3   63.99    3.60
  -3  -4  -3   10.80    0.90
  -3  -4  -3   10.60    1.00
   3   4   3   11.50    1.80
  -2  -3  -3  100.79    2.30
  -2  -3  -3  105.09    2.10
   2   3   3  102.09    3.20
  -1  -2  -3  140.29    2.60
  -1  -2  -3  143.69    2.10
   1   2   3  140.69    3.10
   0  -1  -3  917.41   11.60
   0   1   3  924.41   11.70
   0   1   3  907.11   11.80
   1   0  -3   87.79    1.90
   1   0  -3   88.49    1.70
  -1   0   3   89.99    1.80
   2   1  -3   20.10    1.10
  -2  -1   3   19.80    1.00
   3   2  -3    8.60    1.00
  -3  -2   3    8.50    1.00
   4   3  -3    8.30    1.30
  -4  -3   3    9.70    1.30
   5   4  -3   21.10    2.20
  -5  -4   3   17.30    1.90
   6   5  -3    3.80    1.40
  -6  -5   3    0.70    1.20
   7   6  -3    3.30    1.40
  -7  -6   3   -1.30    1.30
   7   7   3    3.00    1.90
   6   6   3    1.50    1.70
  -5  -5  -3   31.90    1.80
  -5  -5  -3   31.70    2.10
   5   5   3   25.50    2.80
  -4  -4  -3  291.37    5.20
  -4  -4  -3  279.37    5.30
   4   4   3  275.47    6.50
  -3  -3  -3  558.24    8.10
  -3  -3  -3  556.94    8.20
   3   3   3  572.04    9.50
  -2  -2  -3   93.09    1.90
  -2  -2  -3   92.09    2.10
   2   2   3   94.69    2.70
  -1  -1  -3 5367.56   83.09
  -1  -1  -3 5265.67   66.29
   1   1   3 5376.26   68.59
   0   0  -3 2410.16   30.60
   0   0  -3 2350.96   31.60
   0   0  -3 2466.35   30.20
   0   0   3 2362.86   30.10
   1   1  -3  945.61   12.30
   1   1  -3  943.61   11.80
  -1  -1   3  931.21   12.00
   2   2  -3  314.37    5.40
  -2  -2   3  307.97    5.10
   3   3  -3   91.89    2.90
  -3  -3   3   97.19    2.70
   4   4  -3   69.39    3.00
  -4  -4   3   74.49    2.90
   5   5  -3    2.70    1.30
  -5  -5   3    0.90    1.00
   6   6  -3    7.60    2.00
  -6  -6   3    5.00    1.70
   7   7  -3    7.40    2.00
  -7  -7   3    1.50    1.70
  -6  -5  -3   -0.70    1.00
   6   5   3    0.80    1.80
  -5  -4  -3    1.50    1.00
  -5  -4  -3    0.20    0.80
   5   4   3    0.30    1.60
  -4  -3  -3    2.30    0.70
  -4  -3  -3    1.40    0.80
   4   3   3    3.60    1.40
  -3  -2  -3   44.80    1.60
  -3  -2  -3   44.00    1.60
   3   2   3   44.70    2.20
  -2  -1  -3  109.39    2.40
  -2  -1  -3  111.79    2.20
   2   1   3  108.59    2.50
  -1   0  -3 1303.27   16.20
  -1   0  -3 1294.37   16.00
   1   0   3 1302.97   16.70
   0   1  -3  378.76    5.40
   0   1  -3  373.66    5.20
   0   1  -3  372.96    5.00
   1   2  -3   14.70    1.00
  -1  -2   3   17.90    0.90
   2   3  -3  448.36    7.40
  -2  -3   3  443.06    7.00
   3   4  -3   20.70    1.80
  -3  -4   3   20.60    1.50
   4   5  -3   80.19    3.50
  -4  -5   3   82.09    3.10
   5   6  -3   22.80    2.50
  -5  -6   3   26.50    2.40
   6   7  -3    4.50    1.70
  -6  -7   3   -0.60    1.20
  -7  -5  -3    1.20    1.40
  -6  -4  -3   57.19    3.00
  -6  -4  -3   62.09    2.90
   6   4   3   71.29    4.20
  -5  -3  -3  347.47    6.80
  -5  -3  -3  349.87    6.60
   5   3   3  362.76    7.30
  -4  -2  -3   52.19    2.10
  -4  -2  -3   48.40    2.00
   4   2   3   50.49    2.50
  -3  -1  -3  125.99    2.90
  -3  -1  -3  128.29    2.90
   3   1   3  130.29    3.00
  -2   0  -3  465.45    6.80
  -2   0  -3  479.45    6.90
   2   0   3  470.75    6.50
  -1   1  -3 1352.26   17.70
  -1   1  -3 1340.87   16.90
  -1   1  -3 1365.56   17.10
   0   2  -3   71.19    1.50
   0   2  -3   71.19    1.80
   0   2  -3   72.59    1.90
   1   3  -3   26.70    1.30
   1   3  -3   28.00    1.50
   2   4  -3   88.59    3.10
  -2  -4   3   89.59    2.60
   3   5  -3   58.09    3.00
  -3  -5   3   59.69    2.40
   4   6  -3    1.60    1.50
  -4  -6   3    2.40    1.00
   5   7  -3   -0.20    1.50
  -5  -7   3   -2.50    1.10
   6   8  -3   11.50    2.30
  -6  -8   3    8.40    2.00
  -7  -4  -3    2.20    1.40
  -6  -3  -3   26.90    2.40
  -6  -3  -3   25.50    2.10
  -5  -2  -3   -1.30    1.00
  -5  -2  -3   -1.30    0.90
  -4  -1  -3   14.00    1.40
  -4  -1  -3   14.60    1.40
   4   1   3   18.80    1.60
  -3   0  -3   96.69    2.60
  -3   0  -3   99.69    2.70
   3   0   3   97.79    2.20
  -2   1  -3   16.00    1.00
  -2   1  -3   15.10    1.10
   2  -1   3   15.10    0.60
  -1   2  -3  981.40   13.00
  -1   2  -3  947.71   12.40
  -1   2  -3  967.00   12.70
   0   3  -3 1154.18   15.50
   0   3  -3 1180.68   15.50
   1   4  -3   11.40    1.10
   1   4  -3    9.60    1.30
  -1  -4   3    7.90    0.70
  -1  -4   3   12.10    1.00
   2   5  -3  361.96    7.20
  -2  -5   3  364.46    6.60
   3   6  -3  278.17    6.80
  -3  -6   3  292.97    6.10
   4   7  -3   22.50    2.60
  -4  -7   3   21.10    2.10
   5   8  -3   35.40    3.20
  -5  -8   3   31.50    2.70
  -7  -3  -3   13.00    2.00
  -6  -2  -3    9.40    1.80
  -6  -2  -3    8.80    1.70
  -5  -1  -3   30.70    2.30
  -5  -1  -3   27.30    2.10
  -4   0  -3   18.90    1.60
  -4   0  -3   20.10    1.80
  -3   1  -3    1.80    0.80
  -3   1  -3    0.90    0.70
   3  -1   3    0.00    0.40
  -2   2  -3  119.19    2.90
  -2   2  -3  115.79    2.10
  -2   2  -3  116.29    3.00
  -1   3  -3   69.19    2.20
  -1   3  -3   70.69    1.90
   0   4  -3   28.50    1.50
   0   4  -3   26.60    1.70
   1   5  -3    0.90    1.10
   1   5  -3    2.50    0.90
  -1  -5   3    3.00    0.80
   2   6  -3   55.89    3.20
  -2  -6   3   62.89    2.80
   3   7  -3   15.40    2.20
  -3  -7   3   14.00    1.80
   4   8  -3    4.10    1.80
  -4  -8   3    0.30    1.20
  -5  -9   3    4.20    1.70
  -8  -3  -3    3.50    1.60
  -7  -2  -3   -0.90    1.50
  -7  -2  -3    1.00    1.30
  -6  -1  -3    4.50    1.60
  -6  -1  -3    4.80    1.60
  -5   0  -3   93.09    3.40
  -5   0  -3   92.19    3.50
  -4   1  -3   14.80    1.60
  -4   1  -3   15.10    1.60
  -3   2  -3   12.60    1.40
  -2   3  -3   61.99    2.30
  -1   4  -3    1.90    0.70
  -1   4  -3    2.40    0.80
   0   5  -3   62.39    2.50
   0   5  -3   61.99    2.40
   1   6  -3   58.09    2.60
   1   6  -3   55.09    3.00
  -1  -6   3   53.09    2.50
   2   7  -3   89.39    4.00
  -2  -7   3   81.19    3.20
   3   8  -3  122.39    4.90
  -3  -8   3  109.09    4.20
   4   9  -3    2.30    1.70
  -4  -9   3   -2.00    1.20
  -8  -2  -3    0.60    1.40
  -7  -1  -3    7.20    1.70
  -6   0  -3    8.20    1.70
  -5   1  -3    5.50    1.30
  -4   2  -3   -0.10    0.90
  -3   3  -3  137.29    3.90
  -2   4  -3   42.80    2.20
  -1   5  -3  192.18    4.70
  -1   5  -3  191.18    4.40
   0   6  -3    4.60    1.10
   0   6  -3    7.20    1.40
   1   7  -3   47.30    3.00
   1   7  -3   50.99    2.60
  -1  -7   3   57.19    2.70
   2   8  -3  219.28    6.40
  -2  -8   3  209.88    5.70
   3   9  -3   25.10    2.90
  -3  -9   3   18.40    2.30
  -7   0  -3   32.00    2.90
  -6   1  -3    1.20    1.40
  -5   2  -3   51.69    2.90
  -4   3  -3   74.39    3.20
  -3   4  -3    3.90    1.30
  -2   5  -3    3.00    1.10
  -1   6  -3   23.70    2.00
   0   7  -3    2.00    1.00
   1   8  -3    6.50    1.70
   1   8  -3    3.10    1.40
  -1  -8   3    1.90    1.30
   2   9  -3   49.20    3.70
  -2  -9   3   40.50    3.10
  -7   1  -3    7.40    1.90
  -6   2  -3   15.40    2.20
  -5   3  -3   55.29    3.30
  -4   4  -3   41.10    2.80
  -3   5  -3   20.50    2.00
  -2   6  -3    0.30    0.90
  -1   7  -3   75.69    3.40
   0   8  -3   31.60    2.40
   0  -8   3   32.60    2.40
   1   9  -3   21.70    2.40
  -1  -9   3   27.90    2.50
  -6   3  -3    8.50    2.00
  -5   4  -3    4.00    1.50
  -4   5  -3   53.89    3.20
  -3   6  -3   39.60    2.70
  -2   7  -3    5.70    1.50
  -1   8  -3    4.20    1.50
   0   9  -3    4.20    1.40
   0  -9   3    5.70    1.40
  -4   6  -3  103.39    4.50
  -3   7  -3   34.90    3.10
  -2   8  -3    6.00    2.50
   2  -8  -4   15.10    2.30
   3  -7  -4   39.10    3.40
  -3   7   4   44.90    3.40
   4  -6  -4   42.10    3.70
  -4   6   4   47.20    3.10
  -5   5   4    2.30    1.30
   1  -8  -4   66.39    3.30
   2  -7  -4   68.29    3.40
  -2   7   4   66.69    3.50
   3  -6  -4  235.88    6.30
  -3   6   4  235.38    6.00
   4  -5  -4   81.89    4.10
  -4   5   4   86.49    3.70
  -5   4   4   20.70    2.30
  -6   3   4   42.00    3.30
   2  10   4   24.40    4.00
   1   9   4   -0.20    2.20
   0  -8  -4   10.80    1.60
   1  -7  -4    3.60    1.30
   2  -6  -4   11.10    1.80
  -2   6   4   10.40    1.40
   3  -5  -4    9.50    1.80
  -3   5   4   12.50    1.60
  -4   4   4   39.60    2.70
  -5   3   4   51.79    3.00
  -6   2   4    1.10    1.40
  -7   1   4    8.50    2.10
   2   9   4   37.60    4.00
  -1  -8  -4    2.50    1.00
   1   8   4    2.40    2.20
   0  -7  -4   20.50    1.90
   0   7   4   22.30    2.70
   1  -6  -4  170.98    4.50
  -1   6   4  179.38    4.30
   2  -5  -4   75.59    3.30
  -2   5   4   76.29    2.80
   3  -4  -4  474.05    8.90
  -3   4   4  483.35    8.70
  -4   3   4  498.45    9.30
  -5   2   4   14.70    1.90
  -6   1   4   48.50    3.30
  -7   0   4    9.10    2.10
   3   9   4    2.90    2.30
  -1  -7  -4   29.40    1.80
   1   7   4   25.00    2.90
   0  -6  -4   74.99    2.70
   0   6   4   76.59    2.50
   0   6   4   76.29    3.80
   1  -5  -4  384.26    7.00
  -1   5   4  373.76    6.60
  -1   5   4  379.26    7.60
   2  -4  -4  173.08    4.40
  -2   4   4  176.18    4.10
  -3   3   4  289.27    6.00
  -4   2   4    2.10    1.30
  -5   1   4   36.70    2.80
  -6   0   4    0.40    1.40
  -7  -1   4    3.90    1.70
   4   9   4   14.60    3.20
   3   8   4   44.90    4.00
  -2  -7  -4   14.70    1.40
   2   7   4   18.60    2.80
  -1  -6  -4    1.80    0.60
  -1  -6  -4    3.50    0.90
   1   6   4    2.80    0.70
   1   6   4    4.80    1.80
   0  -5  -4   56.69    2.20
   0   5   4   60.39    3.00
   0   5   4   59.59    1.90
   1  -4  -4  331.67    6.10
  -1   4   4  329.27    5.70
  -1   4   4  342.87    6.50
   2  -3  -4   84.39    2.80
  -2   3   4   84.29    2.60
  -2   3   4   80.39    2.50
  -3   2   4   87.79    2.90
  -4   1   4  634.54   10.50
  -5   0   4   44.40    2.90
  -6  -1   4   -1.00    1.20
  -7  -2   4    2.80    1.60
   5   9   4   10.60    4.50
   4   8   4   53.09    4.20
   3   7   4  301.27    8.00
  -2  -6  -4    7.60    1.10
   2   6   4    5.70    2.00
  -1  -5  -4   53.39    1.90
  -1  -5  -4   52.49    1.60
   1   5   4   52.19    1.70
   1   5   4   55.19    3.30
   0  -4  -4  346.47    6.00
   0   4   4  361.66    5.50
   0   4   4  364.06    6.90
   1  -3  -4 1099.19   14.90
  -1   3   4 1100.39   15.10
  -1   3   4 1112.99   14.50
   2  -2  -4    0.90    0.70
  -2   2   4    0.00    0.50
  -2   2   4    0.10    0.60
   3  -1  -4  120.19    2.60
  -3   1   4  123.19    3.30
   4   0  -4  137.79    3.00
  -4   0   4  139.19    3.90
  -5  -1   4   26.80    2.30
  -6  -2   4   13.80    2.00
  -7  -3   4   -0.50    1.30
   5   8   4   40.50    3.90
   4   7   4   70.29    4.60
  -3  -6  -4  217.08    4.50
   3   6   4  216.78    6.40
  -2  -5  -4   61.99    2.00
  -2  -5  -4   62.09    1.80
   2   5   4   64.79    3.40
  -1  -4  -4  371.06    6.00
  -1  -4  -4  370.86    5.40
   1   4   4  379.06    7.30
   1   4   4  372.76    5.40
   0  -3  -4   39.20    1.50
   0   3   4   43.40    1.90
   0   3   4   39.90    1.10
   1  -2  -4    7.00    0.80
  -1   2   4    6.50    0.70
  -1   2   4    8.30    0.90
   2  -1  -4  122.89    2.60
  -2   1   4  123.79    2.80
   3   0  -4   28.40    1.20
  -3   0   4   27.50    1.50
   4   1  -4    2.70    0.80
  -4  -1   4    1.40    1.10
   5   2  -4   67.59    2.70
  -5  -2   4   74.69    3.20
  -6  -3   4   11.00    1.90
  -7  -4   4   -0.40    1.40
   6   8   4   79.09    5.10
   5   7   4   62.19    4.20
  -4  -6  -4  158.88    3.80
   4   6   4  162.88    5.60
  -3  -5  -4  347.67    5.90
  -3  -5  -4  333.97    5.60
   3   5   4  337.97    7.70
  -2  -4  -4   10.40    1.00
  -2  -4  -4    9.90    0.70
   2   4   4   10.40    1.70
  -1  -3  -4  131.89    2.10
  -1  -3  -4  135.29    2.80
   1   3   4  135.29    3.50
   0  -2  -4   99.19    2.20
   0   2   4  102.69    2.50
   0   2   4   99.59    1.70
   1  -1  -4  658.13    9.10
  -1   1   4  679.03    9.20
  -1   1   4  682.03    8.90
   2   0  -4   38.90    1.30
   2   0  -4   39.20    1.30
  -2   0   4   38.10    1.40
   3   1  -4    7.60    0.90
  -3  -1   4    8.00    1.00
   4   2  -4  385.96    6.80
  -4  -2   4  378.26    7.00
   5   3  -4   11.70    1.60
  -5  -3   4   14.00    1.90
   6   4  -4    2.00    1.20
  -6  -4   4    0.00    1.40
  -7  -5   4   10.50    2.00
   6   7   4    1.00    1.90
   5   6   4   62.69    4.00
  -4  -5  -4    6.50    1.00
  -4  -5  -4    6.70    1.10
   4   5   4    7.20    2.10
  -3  -4  -4  131.29    2.90
  -3  -4  -4  138.39    3.20
   3   4   4  134.89    4.40
  -2  -3  -4    0.50    0.30
  -2  -3  -4    0.90    0.50
   2   3   4   -0.10    1.00
  -1  -2  -4  157.98    3.00
  -1  -2  -4  163.88    2.20
   1   2   4  165.08    3.50
   0  -1  -4 1676.53   20.90
   0   1   4 1702.33   21.10
   0   1   4 1709.43   21.90
   1   0  -4   75.39    1.60
   1   0  -4   78.19    1.90
  -1   0   4   75.09    1.60
   2   1  -4    8.30    0.90
   2   1  -4    7.20    0.60
  -2  -1   4    7.80    0.80
   3   2  -4   51.59    2.00
  -3  -2   4   48.70    1.90
   4   3  -4   86.79    3.00
  -4  -3   4   87.79    3.00
   5   4  -4   39.10    2.50
  -5  -4   4   36.50    2.40
   6   5  -4    3.60    1.50
  -6  -5   4    1.80    1.40
   7   6  -4    4.40    1.60
  -7  -6   4   -0.90    1.60
   7   7   4    2.30    1.90
   6   6   4   33.40    3.30
  -5  -5  -4   96.29    3.10
  -5  -5  -4   91.09    3.10
   5   5   4   98.19    4.50
  -4  -4  -4  187.38    4.10
  -4  -4  -4  183.28    4.00
   4   4   4  185.48    5.40
  -3  -3  -4  365.46    5.70
  -3  -3  -4  353.26    5.90
   3   3   4  363.56    7.00
  -2  -2  -4  270.57    4.10
  -2  -2  -4  275.27    4.60
   2   2   4  276.07    5.10
  -1  -1  -4 5607.34   70.79
  -1  -1  -4 5527.95   84.89
   1   1   4 5602.44   70.99
   0   0  -4 3597.24   46.30
   0   0  -4 3686.53   45.40
   0   0  -4 3631.64   47.80
   0   0   4 3708.63   45.20
   1   1  -4   28.70    1.20
   1   1  -4   28.40    0.70
  -1  -1   4   28.80    1.00
   2   2  -4  331.67    4.30
   2   2  -4  337.17    5.80
  -2  -2   4  330.67    5.50
   3   3  -4  116.29    3.30
  -3  -3   4  112.59    3.10
   4   4  -4    5.60    1.40
  -4  -4   4    4.00    1.10
   5   5  -4    7.70    1.60
  -5  -5   4    8.00    1.60
   6   6  -4    1.50    1.50
  -6  -6   4    0.80    1.30
  -6  -5  -4    0.50    1.10
   6   5   4   -0.30    1.60
  -5  -4  -4   42.40    2.20
  -5  -4  -4   40.80    2.30
   5   4   4   40.40    3.30
  -4  -3  -4  175.98    4.00
  -4  -3  -4  170.88    3.90
   4   3   4  175.78    4.90
  -3  -2  -4   73.69    2.20
  -3  -2  -4   73.89    2.10
   3   2   4   74.19    2.60
  -2  -1  -4  147.89    2.90
  -2  -1  -4  147.99    2.70
   2   1   4  147.79    3.10
  -1   0  -4   58.89    1.40
  -1   0  -4   56.19    1.50
   1   0   4   58.49    1.60
   0   1  -4  281.97    4.00
   0   1  -4  289.37    4.60
   0   1  -4  283.87    4.30
   1   2  -4   40.90    0.80
   1   2  -4   43.20    1.60
  -1  -2   4   44.00    1.40
   2   3  -4    5.60    1.00
  -2  -3   4    6.20    0.80
   3   4  -4   50.59    2.70
  -3  -4   4   50.09    2.20
   4   5  -4  148.49    4.80
  -4  -5   4  140.09    4.10
   5   6  -4   40.60    3.00
  -5  -6   4   39.20    2.60
   6   7  -4    6.80    1.80
  -6  -7   4    5.20    1.60
  -6  -4  -4    4.70    1.40
  -6  -4  -4    5.10    1.40
  -5  -3  -4   71.09    2.90
  -5  -3  -4   67.19    2.80
   5   3   4   66.99    3.40
  -4  -2  -4    2.50    0.90
  -4  -2  -4    3.30    0.90
   4   2   4    2.50    1.40
  -3  -1  -4    1.50    0.60
  -3  -1  -4    1.00    0.60
   3   1   4    2.30    0.80
  -2   0  -4  370.06    5.80
  -2   0  -4  366.76    5.70
   2   0   4  375.96    5.60
  -1   1  -4  141.69    2.70
  -1   1  -4  144.99    2.70
  -1   1  -4  142.09    2.80
   0   2  -4    7.10    0.80
   0   2  -4    6.10    0.60
   0   2  -4    8.30    0.70
   1   3  -4  137.49    3.10
   1   3  -4  143.29    3.40
  -1  -3   4  137.49    3.10
   2   4  -4   55.59    2.50
  -2  -4   4   60.79    2.20
   3   5  -4    0.60    1.20
  -3  -5   4    0.50    0.90
   4   6  -4    8.50    1.80
  -4  -6   4    9.10    1.50
   5   7  -4    1.80    1.40
  -5  -7   4   -2.60    1.10
   6   8  -4    1.00    2.30
  -6  -8   4   -0.60    1.30
  -7  -4  -4   14.40    2.10
  -7  -4  -4   16.10    2.00
  -6  -3  -4    3.40    1.30
  -6  -3  -4    5.10    1.40
  -5  -2  -4   91.69    3.20
  -5  -2  -4   91.09    3.30
  -4  -1  -4  133.49    3.50
  -4  -1  -4  135.19    3.50
   4   1   4  130.39    3.50
  -3   0  -4    2.30    0.70
  -3   0  -4    2.00    0.70
   3   0   4    2.50    0.70
  -2   1  -4  244.98    4.40
  -2   1  -4  245.38    4.40
   2  -1   4  248.48    3.90
  -1   2  -4  753.02   10.30
  -1   2  -4  720.33    9.90
  -1   2  -4  720.83    9.90
   0   3  -4  538.05    8.10
   0   3  -4  521.15    8.00
   1   4  -4   48.00    2.00
   1   4  -4   49.10    2.30
  -1  -4   4   49.10    1.90
   2   5  -4  360.16    7.40
  -2  -5   4  380.96    6.90
   3   6  -4  153.88    4.90
  -3  -6   4  153.98    4.30
   4   7  -4    3.50    1.60
  -4  -7   4    2.70    1.20
   5   8  -4    8.00    2.10
  -5  -8   4    4.20    1.50
  -7  -3  -4    6.50    1.70
  -7  -3  -4    4.90    1.60
  -6  -2  -4    0.60    1.00
  -6  -2  -4   -0.70    1.20
  -5  -1  -4   13.10    1.70
  -5  -1  -4   17.70    1.80
  -4   0  -4   10.20    1.30
  -4   0  -4   11.30    1.40
  -3   1  -4   12.90    1.30
  -3   1  -4   13.50    1.30
   3  -1   4   14.30    0.90
  -2   2  -4   94.09    2.00
  -2   2  -4   97.49    2.70
  -2   2  -4   99.49    2.80
  -1   3  -4   89.59    2.60
  -1   3  -4   86.49    2.30
   0   4  -4    7.60    1.10
   0   4  -4    6.60    1.00
   1   5  -4   47.00    2.50
   1   5  -4   51.19    2.20
  -1  -5   4   51.29    2.20
   2   6  -4   42.50    2.90
  -2  -6   4   43.50    2.30
   3   7  -4    8.30    1.80
  -3  -7   4    7.10    1.40
   4   8  -4   14.70    2.50
  -4  -8   4   11.00    1.90
  -8  -3  -4    3.40    2.00
  -8  -3  -4    6.70    2.00
  -7  -2  -4   28.40    2.80
  -7  -2  -4   30.60    2.70
  -6  -1  -4   21.80    2.20
  -6  -1  -4   24.30    2.40
  -5   0  -4   36.90    2.40
  -5   0  -4   38.80    2.50
  -4   1  -4   14.30    1.60
  -4   1  -4   14.70    1.60
  -3   2  -4    6.10    1.10
  -3   2  -4    5.00    1.10
  -2   3  -4   85.99    2.80
  -1   4  -4    0.70    0.80
  -1   4  -4    1.90    0.70
   0   5  -4    0.70    1.00
   0   5  -4    1.70    0.80
   1   6  -4   31.10    2.00
   1   6  -4   28.00    2.20
  -1  -6   4   31.70    2.00
   2   7  -4   13.50    2.10
  -2  -7   4   12.00    1.70
   3   8  -4    5.00    1.80
  -3  -8   4    2.40    1.30
   4   9  -4    3.90    1.70
  -4  -9   4   -1.50    1.40
  -8  -2  -4    2.20    1.80
  -7  -1  -4   20.80    2.40
  -6   0  -4   25.60    2.40
  -5   1  -4   36.00    2.50
  -4   2  -4  105.29    3.70
  -3   3  -4   51.09    2.60
  -2   4  -4   80.09    3.00
  -1   5  -4   82.19    3.00
   0   6  -4   18.60    1.70
   0   6  -4   18.30    1.80
   1   7  -4   70.99    3.20
   1   7  -4   74.99    3.40
  -1  -7   4   68.39    3.00
   2   8  -4   15.20    2.40
  -2  -8   4   14.60    2.00
   3   9  -4   42.00    3.40
  -3  -9   4   40.20    3.00
  -7   0  -4   28.80    2.80
  -6   1  -4   27.20    2.60
  -5   2  -4   19.20    2.10
  -4   3  -4  100.79    3.70
  -3   4  -4    3.20    1.10
  -2   5  -4    0.40    0.90
  -1   6  -4    1.80    1.00
   0   7  -4   16.20    1.80
   1   8  -4    2.00    1.30
   1   8  -4    3.00    1.40
  -1  -8   4    0.90    1.00
   2   9  -4   21.70    2.70
  -2  -9   4   18.80    2.30
  -7   1  -4   17.30    2.50
  -6   2  -4   42.80    3.10
  -5   3  -4    1.20    1.20
  -4   4  -4   53.39    3.10
  -3   5  -4   95.49    3.70
  -2   6  -4   21.00    2.20
  -1   7  -4    2.60    1.20
   0   8  -4   18.20    2.10
   0  -8   4   24.70    2.30
   1   9  -4   28.70    2.70
  -1  -9   4   30.40    2.70
  -6   3  -4    2.30    1.50
  -5   4  -4    0.70    1.30
  -4   5  -4   12.30    1.90
  -3   6  -4   17.10    2.20
  -2   7  -4    2.60    1.20
  -1   8  -4    0.10    1.10
   2  -8  -5    5.90    1.80
   3  -7  -5    8.80    1.90
   4  -6  -5    2.10    1.80
  -4   6   5    1.70    1.20
  -5   5   5    3.30    1.50
   1  -8  -5   35.70    2.70
   2  -7  -5   32.40    2.90
   3  -6  -5   22.10    2.40
  -3   6   5   27.50    2.30
   4  -5  -5   20.10    2.50
  -4   5   5   18.20    2.10
   5  -4  -5   11.10    2.50
  -5   4   5   19.00    2.20
  -6   3   5    4.10    1.70
   1   9   5   10.20    2.70
   0  -8  -5    2.30    1.10
   1  -7  -5   38.80    2.50
   2  -6  -5   10.70    1.80
  -2   6   5    8.70    1.30
   3  -5  -5   14.30    2.00
  -3   5   5   15.10    1.70
   4  -4  -5  103.59    4.20
  -4   4   5  113.39    4.00
  -5   3   5    6.30    1.50
  -6   2   5   23.10    2.50
  -7   1   5   19.30    2.60
   2   9   5   17.50    3.10
  -1  -8  -5    0.70    0.90
   1   8   5    0.40    2.20
   0  -7  -5    6.30    1.30
   0   7   5    3.40    2.00
   1  -6  -5    7.00    1.30
  -1   6   5    8.10    1.20
   2  -5  -5  105.19    3.60
  -2   5   5  101.39    3.20
   3  -4  -5   72.79    3.30
  -3   4   5   77.89    3.00
  -4   3   5    4.20    1.30
  -5   2   5   16.50    2.00
  -6   1   5   -0.60    1.30
  -7   0   5    4.50    1.70
   3   9   5   25.00    3.70
   2   8   5   66.19    4.90
  -1  -7  -5   35.70    2.10
   1   7   5   38.80    3.60
   0  -6  -5   11.40    1.40
   0   6   5   11.30    2.10
   1  -5  -5  272.57    5.70
  -1   5   5  274.77    5.20
  -1   5   5  283.47    6.50
   2  -4  -5  664.23   10.50
  -2   4   5  633.54   10.00
  -2   4   5  625.14   10.90
   3  -3  -5  111.49    3.60
  -3   3   5  106.69    3.30
  -4   2   5  590.54   10.20
  -5   1   5  334.87    7.40
  -6   0   5   13.30    2.10
  -7  -1   5   11.40    2.00
   4   9   5    5.30    2.80
   3   8   5   32.70    3.70
  -2  -7  -5   64.49    2.60
   2   7   5   69.69    4.50
  -1  -6  -5    0.20    0.80
   1   6   5    1.50    1.80
   0  -5  -5   63.39    2.50
   0   5   5   61.39    1.90
   0   5   5   67.59    3.20
   1  -4  -5  479.45    7.90
  -1   4   5  456.45    7.20
  -1   4   5  483.35    8.40
   2  -3  -5  429.26    7.40
  -2   3   5  425.36    7.20
  -2   3   5  438.76    7.20
  -3   2   5  108.99    3.20
  -3   2   5  104.09    2.70
  -4   1   5  195.58    4.90
  -5   0   5   16.30    2.10
  -6  -1   5   -0.30    1.20
  -7  -2   5    5.40    1.70
   4   8   5   47.80    4.10
  -3  -7  -5  246.78    5.20
   3   7   5  243.78    7.30
  -2  -6  -5  286.27    5.60
   2   6   5  284.97    7.40
  -1  -5  -5   42.80    1.60
  -1  -5  -5   42.90    1.90
   1   5   5   42.20    1.40
   1   5   5   42.10    2.90
   0  -4  -5  176.68    3.80
   0   4   5  178.18    3.20
   0   4   5  184.68    4.70
   1  -3  -5    2.10    0.80
  -1   3   5    4.30    0.60
  -1   3   5    3.00    0.80
   2  -2  -5   76.79    2.40
  -2   2   5   70.99    2.20
  -2   2   5   75.29    2.20
   3  -1  -5    8.50    0.90
  -3   1   5    7.10    1.00
   4   0  -5  339.37    5.90
  -4   0   5  352.86    6.90
  -5  -1   5  222.48    5.80
  -6  -2   5   -0.30    1.20
  -7  -3   5    5.90    1.80
   5   8   5   63.29    4.90
   4   7   5    0.20    2.00
  -3  -6  -5  201.68    4.50
   3   6   5  205.68    6.40
  -2  -5  -5   69.79    2.40
   2   5   5   73.49    3.90
  -1  -4  -5  259.87    4.80
  -1  -4  -5  258.77    3.90
   1   4   5  255.67    3.90
   1   4   5  261.87    5.90
   0  -3  -5   -0.40    0.50
   0   3   5    0.30    0.70
   0   3   5    1.40    0.30
   1  -2  -5 1580.44   20.20
  -1   2   5 1583.14   19.70
  -1   2   5 1561.34   20.40
   2  -1  -5 2259.07   28.40
   2  -1  -5 2225.98   28.40
  -2   1   5 2325.97   28.50
   3   0  -5  160.28    3.40
  -3   0   5  158.98    3.70
   4   1  -5 1013.20   14.20
  -4  -1   5 1019.60   14.90
   5   2  -5  280.37    5.80
  -5  -2   5  286.37    6.40
  -6  -3   5   -0.10    1.20
  -7  -4   5   11.90    2.30
   6   8   5   31.20    3.80
   5   7   5   40.90    3.80
  -4  -6  -5  164.18    4.10
   4   6   5  159.28    5.70
  -3  -5  -5   26.50    1.50
   3   5   5   26.10    2.80
  -2  -4  -5  432.76    6.10
  -2  -4  -5  439.16    7.00
   2   4   5  433.36    8.40
  -1  -3  -5  351.96    5.60
  -1  -3  -5  342.97    4.50
   1   3   5  340.47    6.40
   0  -2  -5  195.98    3.60
   0   2   5  199.68    4.00
   0   2   5  197.18    2.80
   1  -1  -5  612.54    8.60
  -1   1   5  620.64    8.90
  -1   1   5  630.74    8.30
   2   0  -5  241.88    4.30
   2   0  -5  238.58    4.00
  -2   0   5  238.98    4.20
   3   1  -5   25.90    1.40
  -3  -1   5   25.50    1.60
   4   2  -5   91.19    3.00
  -4  -2   5   91.79    3.10
   5   3  -5  190.08    4.90
  -5  -3   5  192.18    5.10
   6   4  -5    1.10    1.20
  -6  -4   5   -0.70    1.30
  -7  -5   5    4.30    1.80
   6   7   5   14.20    2.70
  -5  -6  -5  228.28    5.20
   5   6   5  229.08    6.90
  -4  -5  -5  106.19    3.10
   4   5   5  108.69    4.60
  -3  -4  -5  769.52   11.20
  -3  -4  -5  778.12   10.60
   3   4   5  787.42   13.00
  -2  -3  -5  341.87    4.80
  -2  -3  -5  338.17    5.60
   2   3   5  343.67    6.60
  -1  -2  -5   86.59    2.10
   1   2   5   81.69    2.50
   0  -1  -5 1817.32   22.80
   0   1   5 1882.51   23.20
   0   1   5 1828.02   23.30
   1   0  -5  304.47    5.00
   1   0  -5  298.07    4.50
  -1   0   5  298.97    4.50
   2   1  -5  398.86    5.60
   2   1  -5  402.76    6.50
  -2  -1   5  402.96    6.30
   3   2  -5   82.09    1.80
   3   2  -5   82.99    2.60
  -3  -2   5   81.49    2.60
   4   3  -5  178.08    4.50
  -4  -3   5  175.68    4.50
   5   4  -5   30.80    2.30
  -5  -4   5   31.20    2.40
   6   5  -5    8.60    1.80
  -6  -5   5    6.90    1.70
   7   6  -5    5.40    1.80
  -7  -6   5    1.20    1.60
   7   7   5    1.40    1.90
   6   6   5   40.80    3.90
  -5  -5  -5    0.50    0.90
   5   5   5    3.40    1.90
  -4  -4  -5   10.60    1.30
  -4  -4  -5   11.00    1.20
   4   4   5    9.20    2.10
  -3  -3  -5   25.70    1.30
  -3  -3  -5   23.60    1.40
   3   3   5   23.80    2.10
  -2  -2  -5  319.57    4.60
  -2  -2  -5  331.47    5.40
   2   2   5  321.47    5.90
  -1  -1  -5  637.84    7.90
  -1  -1  -5  633.84    8.80
   1   1   5  641.14    9.20
   0   0  -5 1326.07   16.50
   0   0  -5 1343.37   16.90
   0   0  -5 1260.37   16.30
   0   0   5 1298.07   16.40
   1   1  -5  339.27    4.70
   1   1  -5  344.27    5.60
  -1  -1   5  337.97    5.10
   2   2  -5  294.07    5.40
   2   2  -5  291.47    4.00
  -2  -2   5  303.77    5.20
   3   3  -5   83.29    2.90
  -3  -3   5   86.29    2.70
   4   4  -5   76.29    3.20
  -4  -4   5   76.79    3.10
   5   5  -5   15.10    2.10
  -5  -5   5   10.50    1.70
   6   6  -5    7.20    1.70
  -6  -6   5    1.60    1.50
  -6  -5  -5   -0.40    0.90
   6   5   5   -2.00    1.50
  -5  -4  -5  377.46    7.10
  -5  -4  -5  382.76    7.10
   5   4   5  403.06    8.60
  -4  -3  -5  202.88    4.20
  -4  -3  -5  207.38    4.50
   4   3   5  202.78    5.50
  -3  -2  -5  117.19    2.90
  -3  -2  -5  116.69    2.70
   3   2   5  121.99    3.50
  -2  -1  -5 1073.19   14.00
  -2  -1  -5 1132.99   14.70
   2   1   5 1109.29   14.90
  -1   0  -5  293.17    4.30
  -1   0  -5  295.37    4.60
   1   0   5  296.17    4.80
   0   1  -5  387.86    6.00
   0   1  -5  399.46    5.50
   0   1  -5  388.76    5.70
   0  -1   5  379.96    5.60
   1   2  -5   21.10    0.60
   1   2  -5   20.80    1.20
  -1  -2   5   21.00    1.00
   2   3  -5   17.30    1.50
  -2  -3   5   18.40    1.20
   3   4  -5   19.70    1.90
  -3  -4   5   21.10    1.60
   4   5  -5    5.80    1.50
  -4  -5   5    4.00    1.20
   5   6  -5   24.10    2.60
  -5  -6   5   19.40    2.20
   6   7  -5    5.70    1.80
  -6  -7   5    0.90    1.40
  -6  -4  -5   82.69    3.30
  -5  -3  -5  113.99    3.50
  -5  -3  -5  114.69    3.60
   5   3   5  116.99    4.30
  -4  -2  -5  132.79    3.50
  -4  -2  -5  129.39    3.30
   4   2   5  126.29    3.90
  -3  -1  -5  279.07    4.90
  -3  -1  -5  273.57    5.10
   3   1   5  272.87    5.10
  -2   0  -5   41.50    1.40
  -2   0  -5   40.50    1.60
   2   0   5   43.00    1.50
  -1   1  -5  265.37    4.40
  -1   1  -5  259.37    4.30
  -1   1  -5  265.67    4.30
   0   2  -5  107.69    2.60
   0   2  -5  106.69    2.10
   0   2  -5  109.29    2.50
   1   3  -5   -0.70    0.60
   1   3  -5    0.50    0.60
  -1  -3   5    0.20    0.40
   2   4  -5    2.30    1.00
  -2  -4   5    5.90    0.90
   3   5  -5   80.09    3.50
  -3  -5   5   77.29    2.90
   4   6  -5   10.10    1.90
  -4  -6   5   11.20    1.70
   5   7  -5    5.30    1.70
  -5  -7   5    1.10    1.20
  -7  -4  -5   45.80    3.00
  -6  -3  -5   33.30    2.40
  -6  -3  -5   29.20    2.40
  -5  -2  -5   52.89    2.50
  -5  -2  -5   58.99    2.70
  -4  -1  -5   87.99    2.90
  -4  -1  -5   86.69    2.90
   4   1   5   88.59    2.90
  -3   0  -5   34.30    1.60
  -3   0  -5   32.60    1.70
   3   0   5   33.90    1.50
  -2   1  -5   62.59    2.00
  -2   1  -5   60.59    2.00
   2  -1   5   64.49    1.70
  -1   2  -5    3.40    0.60
  -1   2  -5    3.70    0.70
  -1   2  -5    4.40    0.70
   0   3  -5   80.69    2.40
   0   3  -5   78.39    1.90
   0   3  -5   76.69    2.30
   1   4  -5    9.70    1.10
   1   4  -5   16.00    1.50
   2   5  -5   -0.60    1.20
  -2  -5   5    0.70    0.80
   3   6  -5   22.60    2.40
  -3  -6   5   23.00    1.90
   4   7  -5   10.70    2.10
  -4  -7   5   12.40    1.80
   5   8  -5    3.00    1.60
  -5  -8   5    0.50    1.40
  -7  -3  -5    2.30    1.40
  -7  -3  -5    2.30    1.40
  -6  -2  -5   13.20    1.80
  -6  -2  -5   12.10    1.70
  -5  -1  -5   55.29    2.70
  -5  -1  -5   56.29    2.90
  -4   0  -5   40.30    2.20
  -4   0  -5   39.90    2.20
  -3   1  -5  114.09    3.10
  -3   1  -5  118.99    3.20
   3  -1   5  109.39    2.40
  -2   2  -5  713.13   10.40
  -2   2  -5  712.23   10.60
  -2   2  -5  702.73    9.70
  -1   3  -5  492.65    7.90
  -1   3  -5  491.35    7.50
  -1   3  -5  487.15    7.50
   0   4  -5   91.39    2.80
   0   4  -5   91.79    2.90
   1   5  -5  214.18    4.90
   1   5  -5  195.98    5.00
  -1  -5   5  215.38    4.90
   2   6  -5   68.99    3.30
  -2  -6   5   83.99    3.10
   3   7  -5   19.10    2.40
  -3  -7   5   13.50    1.90
   4   8  -5   10.50    2.30
  -4  -8   5    6.90    1.80
  -8  -3  -5   -0.20    1.70
  -7  -2  -5    4.90    1.80
  -7  -2  -5    4.80    1.60
  -6  -1  -5   -0.90    1.30
  -6  -1  -5    1.00    1.20
  -5   0  -5   23.70    2.20
  -5   0  -5   26.40    2.10
  -4   1  -5    4.10    1.20
  -4   1  -5    7.80    1.30
  -3   2  -5    8.80    1.30
  -3   2  -5   12.80    1.40
  -2   3  -5   25.30    1.70
  -1   4  -5  129.99    3.60
  -1   4  -5  129.09    3.20
   0   5  -5    0.60    0.90
   0   5  -5    0.80    0.90
   1   6  -5    6.80    1.30
   1   6  -5    6.20    1.40
  -1  -6   5    7.60    1.30
   2   7  -5  101.69    4.20
  -2  -7   5  103.09    3.80
   3   8  -5    5.10    1.90
  -3  -8   5    2.20    1.40
  -4  -9   5    1.30    1.70
  -7  -1  -5   52.99    3.30
  -7  -1  -5   51.89    3.70
  -6   0  -5   83.69    3.70
  -6   0  -5   84.69    3.90
  -5   1  -5   25.70    2.40
  -5   1  -5   22.70    2.30
  -4   2  -5  257.57    5.80
  -4   2  -5  248.18    5.80
  -3   3  -5  298.57    6.40
  -2   4  -5   70.79    2.80
  -1   5  -5   61.89    2.70
   0   6  -5   46.30    2.50
   0   6  -5   48.90    2.50
   1   7  -5   39.10    2.80
   1   7  -5   39.00    2.60
  -1  -7   5   39.40    2.60
   2   8  -5   15.70    2.30
  -2  -8   5   18.80    2.20
   3   9  -5    3.10    1.70
  -3  -9   5    0.20    1.40
  -7   0  -5    4.10    1.70
  -6   1  -5    2.20    1.30
  -5   2  -5   -1.10    1.00
  -4   3  -5   37.40    2.40
  -3   4  -5    3.10    1.20
  -2   5  -5   40.10    2.40
  -1   6  -5    7.00    1.30
   0   7  -5   12.00    1.70
   0  -7   5   14.40    1.90
   1   8  -5   62.79    3.60
   1   8  -5   61.29    3.40
  -1  -8   5   59.49    3.30
   2   9  -5   55.69    3.70
  -2  -9   5   51.89    3.50
  -7   1  -5    8.60    2.20
  -6   2  -5   23.10    2.60
  -5   3  -5    3.90    1.50
  -4   4  -5   12.80    1.80
  -3   5  -5   23.10    2.20
  -2   6  -5    3.40    1.30
  -1   7  -5    0.10    1.10
   0   8  -5   16.30    2.00
   0  -8   5   17.40    2.00
   1   9  -5    4.70    1.60
  -1  -9   5    4.00    1.70
  -6   3  -5    8.60    2.20
  -5   4  -5    5.80    1.70
  -4   5  -5   30.30    2.80
  -3   6  -5   72.99    3.60
  -2   7  -5   27.10    2.50
  -1   8  -5   14.10    2.00
   2  -8  -6   24.90    2.60
   3  -7  -6   13.90    2.30
  -5   5   6    1.90    1.40
   0  -9  -6    3.60    1.30
   1  -8  -6   10.90    1.80
   2  -7  -6    0.30    1.30
   3  -6  -6    1.60    1.40
   4  -5  -6    8.30    2.00
  -4   5   6   11.30    1.70
   5  -4  -6   -1.10    1.60
  -5   4   6    3.30    1.40
   6  -3  -6    7.30    2.50
  -6   3   6   12.90    2.20
   1   9   6   25.90    3.80
   0  -8  -6    8.70    1.50
   1  -7  -6   51.79    2.80
   2  -6  -6   25.40    2.30
   3  -5  -6    6.30    1.60
  -3   5   6    7.10    1.30
   4  -4  -6    3.20    1.70
  -4   4   6    5.60    1.30
   5  -3  -6    3.00    1.90
  -5   3   6    5.60    1.60
  -6   2   6    1.40    1.40
  -7   1   6    7.80    3.00
   2   9   6    8.90    2.80
  -1  -8  -6   36.80    2.30
   1   8   6   41.50    4.10
   0  -7  -6   30.70    2.10
   0   7   6   29.60    3.10
   1  -6  -6   28.60    2.20
  -1   6   6   30.10    3.30
   2  -5  -6  270.07    6.10
  -2   5   6  278.67    5.60
   3  -4  -6  112.29    3.90
  -3   4   6  121.89    3.70
   4  -3  -6   50.49    3.20
  -4   3   6   56.09    2.70
  -5   2   6   84.69    3.70
  -6   1   6   26.60    2.60
  -7   0   6   13.50    2.40
   3   9   6   27.60    3.80
  -2  -8  -6   24.50    2.00
   2   8   6   16.90    3.10
   0  -6  -6   24.00    1.80
   0   6   6   19.90    2.60
   1  -5  -6   52.49    2.60
  -1   5   6   49.20    3.10
  -1   5   6   53.09    2.20
   2  -4  -6   96.69    3.30
  -2   4   6   95.79    3.40
  -2   4   6   95.99    2.90
   3  -3  -6    0.40    1.10
  -3   3   6    1.90    1.00
   4  -2  -6   -2.40    1.10
  -4   2   6    0.50    1.00
  -5   1   6   29.60    2.60
  -6   0   6    1.00    1.40
  -7  -1   6   12.90    2.30
   4   9   6    1.20    2.50
   3   8   6   29.40    3.70
  -2  -7  -6  115.19    3.50
   2   7   6  117.79    5.30
  -1  -6  -6   16.10    1.60
   1   6   6   16.70    2.50
   0  -5  -6   71.09    2.60
   0   5   6   76.59    3.50
   1  -4  -6  165.38    4.00
  -1   4   6  168.18    3.40
  -1   4   6  168.98    4.50
   2  -3  -6  272.27    5.50
  -2   3   6  276.87    5.20
  -2   3   6  275.27    5.40
   3  -2  -6   34.70    2.30
  -3   2   6   36.80    2.00
  -3   2   6   35.40    1.70
  -4   1   6   64.29    2.90
  -5   0   6  256.77    6.30
  -6  -1   6   30.40    2.90
  -7  -2   6   28.40    2.90
   4   8   6    2.70    2.40
  -3  -7  -6   12.60    1.50
   3   7   6   10.80    2.80
  -2  -6  -6   40.60    2.10
   2   6   6   36.50    3.40
  -1  -5  -6    4.90    1.00
   1   5   6    4.80    1.70
   0  -4  -6   67.29    2.30
   0   4   6   72.99    1.70
   0   4   6   71.89    3.10
   1  -3  -6   39.40    1.80
  -1   3   6   42.70    2.00
  -1   3   6   39.50    1.40
   2  -2  -6  571.94    8.80
  -2   2   6  579.54    8.60
  -2   2   6  562.54    8.80
   3  -1  -6  187.58    4.10
   3  -1  -6  186.38    3.90
  -3   1   6  182.68    4.20
   4   0  -6  140.99    3.50
  -4   0   6  139.29    4.00
  -5  -1   6  212.78    5.70
  -6  -2   6    5.40    1.60
  -7  -3   6    0.80    1.60
   5   8   6    1.80    2.30
  -4  -7  -6   63.39    2.70
   4   7   6   69.69    4.80
  -3  -6  -6   35.40    2.00
   3   6   6   36.00    3.40
  -2  -5  -6   73.79    2.50
   2   5   6   77.29    3.80
  -1  -4  -6   67.59    2.30
   1   4   6   71.59    3.10
   0  -3  -6   16.70    1.20
   0   3   6   18.00    0.70
   0   3   6   20.90    1.60
   1  -2  -6   27.60    1.40
  -1   2   6   27.40    1.10
  -1   2   6   29.10    1.50
   2  -1  -6   32.60    1.50
   2  -1  -6   34.40    1.60
  -2   1   6   32.90    1.50
   3   0  -6  151.18    3.40
   3   0  -6  145.39    3.40
  -3   0   6  144.09    3.50
   4   1  -6   35.80    1.90
   4   1  -6   33.30    1.80
  -4  -1   6   32.20    2.10
   5   2  -6  591.74   10.00
  -5  -2   6  598.34   10.60
  -6  -3   6  126.29    4.70
  -7  -4   6    6.20    1.90
   6   8   6    0.20    2.20
   5   7   6    8.50    2.80
  -4  -6  -6   28.50    2.00
   4   6   6   27.60    3.30
  -3  -5  -6   15.10    1.40
   3   5   6   16.50    2.60
  -2  -4  -6  375.36    6.40
   2   4   6  373.16    7.70
  -1  -3  -6   68.19    2.10
   1   3   6   68.99    2.70
   0  -2  -6    3.40    0.60
   0   2   6    3.70    0.30
   0   2   6    4.70    0.90
   1  -1  -6  205.48    3.70
  -1   1   6  205.18    3.40
  -1   1   6  204.68    4.00
   2   0  -6  688.13   10.10
   2   0  -6  692.33    9.50
  -2   0   6  685.73    9.80
   3   1  -6  345.57    5.40
   3   1  -6  335.17    6.10
  -3  -1   6  344.77    6.20
   4   2  -6  206.48    4.70
  -4  -2   6  200.78    4.80
   5   3  -6  212.18    5.30
  -5  -3   6  220.08    5.60
   6   4  -6    1.70    1.30
  -6  -4   6   -0.70    1.40
  -7  -5   6   -0.80    1.60
   6   7   6    2.40    2.20
  -5  -6  -6   12.40    1.50
   5   6   6   16.00    2.70
  -4  -5  -6   50.29    2.30
   4   5   6   52.19    3.70
  -3  -4  -6    0.70    0.70
   3   4   6   -1.60    1.40
  -2  -3  -6   22.30    1.30
  -2  -3  -6   20.60    0.70
   2   3   6   22.60    1.80
  -1  -2  -6  400.26    6.30
   1   2   6  389.66    6.90
   0  -1  -6   57.69    1.70
   0   1   6   59.29    1.20
   0   1   6   55.79    1.90
   1   0  -6  272.97    4.80
   1   0  -6  269.97    4.30
  -1   0   6  267.57    4.20
   2   1  -6  658.83    8.80
   2   1  -6  655.63    9.90
  -2  -1   6  660.53    9.50
   3   2  -6  179.38    4.20
   3   2  -6  180.68    3.10
  -3  -2   6  179.78    4.10
   4   3  -6   35.00    2.30
  -4  -3   6   33.30    2.20
   5   4  -6   13.70    1.90
  -5  -4   6   11.40    1.90
   6   5  -6   50.29    3.30
  -6  -5   6   45.80    3.40
   7   6  -6    3.70    1.70
   7   7   6    2.20    2.10
   6   6   6   10.70    2.50
  -5  -5  -6  105.69    3.50
   5   5   6  108.59    4.80
  -4  -4  -6  866.11   12.80
   4   4   6  856.01   14.40
  -3  -3  -6   96.09    2.80
  -3  -3  -6   92.99    2.20
   3   3   6   93.69    3.50
  -2  -2  -6 2446.56   30.20
  -2  -2  -6 2338.67   29.70
   2   2   6 2429.56   31.00
  -1  -1  -6 1271.07   16.40
  -1  -1  -6 1251.57   15.30
   1   1   6 1268.57   16.90
   0   0  -6    1.20    0.60
   0   0  -6    0.20    0.40
   0   0   6    1.10    0.30
   1   1  -6   41.60    1.20
   1   1  -6   43.20    1.70
  -1  -1   6   41.50    1.40
   2   2  -6  432.86    7.30
   2   2  -6  418.86    5.70
  -2  -2   6  429.86    6.90
   3   3  -6  240.28    5.30
  -3  -3   6  240.98    5.10
   4   4  -6   74.69    3.20
  -4  -4   6   77.69    3.20
   5   5  -6  192.08    5.70
  -5  -5   6  186.18    5.40
   6   6  -6   16.70    2.40
  -6  -6   6   10.40    2.00
  -6  -5  -6    6.20    1.30
   6   5   6    4.60    2.00
  -5  -4  -6  248.98    5.50
   5   4   6  237.38    6.50
  -4  -3  -6    0.40    0.80
  -4  -3  -6    0.30    0.80
   4   3   6   -0.60    1.40
  -3  -2  -6   10.40    1.10
  -3  -2  -6   10.10    1.00
   3   2   6   13.30    1.60
  -2  -1  -6  103.39    2.10
  -2  -1  -6  100.79    2.60
   2   1   6   99.39    2.80
  -1   0  -6 1256.37   15.90
  -1   0  -6 1283.57   16.40
   1   0   6 1268.97   16.70
   0   1  -6    0.30    0.30
   0   1  -6    0.00    0.40
   0   1  -6    0.30    0.40
   0  -1   6    1.10    0.40
   1   2  -6   22.20    1.40
   1   2  -6   23.10    0.80
  -1  -2   6   22.30    1.20
   2   3  -6  158.08    4.00
  -2  -3   6  153.48    3.60
   3   4  -6    2.00    1.10
  -3  -4   6    1.20    0.90
   4   5  -6   52.59    3.00
  -4  -5   6   52.89    2.90
   5   6  -6    3.10    1.70
  -5  -6   6    0.20    1.30
   6   7  -6    8.50    2.00
  -6  -7   6    4.80    1.80
  -7  -5  -6   17.70    2.20
  -6  -4  -6   31.30    2.30
  -5  -3  -6  136.29    4.00
  -5  -3  -6  133.39    3.80
   5   3   6  144.89    4.90
  -4  -2  -6 1015.60   14.30
  -4  -2  -6 1031.50   14.80
   4   2   6 1030.80   15.30
  -3  -1  -6  300.97    5.10
  -3  -1  -6  293.97    5.50
   3   1   6  297.07    5.60
  -2   0  -6 1648.94   21.20
  -2   0  -6 1613.14   20.70
   2   0   6 1657.03   21.20
  -1   1  -6 1084.79   14.30
  -1   1  -6 1102.99   14.60
  -1   1  -6 1072.39   14.20
   0   2  -6   29.50    1.40
   0   2  -6   29.30    1.30
   0   2  -6   29.90    1.10
   1   3  -6   13.50    1.20
   1   3  -6   13.60    1.30
   1   3  -6   13.40    0.60
  -1  -3   6   12.10    1.00
   2   4  -6  123.29    3.80
  -2  -4   6  126.59    3.40
   3   5  -6  140.09    4.50
  -3  -5   6  146.29    4.20
   4   6  -6    4.20    1.60
  -4  -6   6    1.30    1.20
   5   7  -6   12.50    2.20
  -5  -7   6   10.70    2.00
  -7  -4  -6   -0.70    1.40
  -6  -3  -6   15.80    1.90
  -5  -2  -6  320.47    6.60
  -5  -2  -6  318.37    6.40
  -4  -1  -6   47.60    2.20
  -4  -1  -6   44.70    2.30
   4   1   6   42.50    2.30
  -3   0  -6    2.90    0.80
  -3   0  -6    2.60    0.70
   3   0   6    2.40    0.80
  -2   1  -6  421.76    6.70
  -2   1  -6  412.26    6.70
   2  -1   6  408.26    6.40
  -1   2  -6  494.65    7.70
  -1   2  -6  500.15    7.50
  -1   2  -6  510.85    7.80
   0   3  -6   56.49    2.10
   0   3  -6   57.79    2.10
   0   3  -6   57.69    1.60
   1   4  -6   29.10    1.70
   1   4  -6   31.00    1.90
  -1  -4   6   27.70    1.60
   2   5  -6  249.97    6.00
  -2  -5   6  253.37    5.60
   3   6  -6   22.90    2.40
  -3  -6   6   21.50    1.90
   4   7  -6   25.40    2.90
  -4  -7   6   24.60    2.30
   5   8  -6   10.10    2.30
  -5  -8   6    5.40    1.90
  -7  -3  -6    1.20    1.30
  -6  -2  -6   18.70    2.10
  -6  -2  -6   15.10    1.90
  -5  -1  -6    7.60    1.40
  -5  -1  -6    9.20    1.50
  -4   0  -6   66.89    2.80
  -4   0  -6   69.49    2.70
  -3   1  -6  101.89    3.00
  -3   1  -6  100.79    3.10
   3  -1   6  102.49    2.50
  -2   2  -6  455.65    7.40
  -2   2  -6  455.35    7.50
  -2   2  -6  451.25    7.00
  -1   3  -6  414.06    6.60
  -1   3  -6  397.86    6.70
  -1   3  -6  406.46    7.00
   0   4  -6   43.00    2.00
   0   4  -6   45.40    2.10
   1   5  -6  420.86    7.70
   1   5  -6  389.46    7.80
  -1  -5   6  419.86    7.70
   2   6  -6  146.79    4.70
  -2  -6   6  134.49    4.10
   3   7  -6    0.20    1.30
  -3  -7   6    1.60    1.10
   4   8  -6    8.30    2.20
  -4  -8   6    6.80    1.80
  -7  -2  -6   19.70    2.40
  -7  -2  -6   19.20    2.30
  -6  -1  -6   34.40    2.60
  -6  -1  -6   30.00    2.60
  -5   0  -6  118.09    3.90
  -5   0  -6  114.09    3.90
  -4   1  -6  110.59    3.60
  -4   1  -6  116.99    3.80
  -3   2  -6  179.38    4.40
  -3   2  -6  180.78    4.40
  -2   3  -6  305.67    5.80
  -2   3  -6  293.57    5.90
  -1   4  -6  231.08    5.10
  -1   4  -6  219.98    4.60
   0   5  -6   35.00    2.20
   0   5  -6   36.70    2.10
   1   6  -6    4.60    1.10
   1   6  -6    5.30    1.50
  -1  -6   6    5.00    1.10
   2   7  -6   75.29    3.70
  -2  -7   6   80.89    3.40
   3   8  -6   10.50    2.10
  -3  -8   6    9.20    1.80
  -7  -1  -6    5.60    1.80
  -6   0  -6   36.20    2.80
  -6   0  -6   31.30    2.90
  -5   1  -6    5.40    1.60
  -5   1  -6    8.30    1.60
  -4   2  -6   29.40    2.30
  -4   2  -6   26.90    2.50
  -3   3  -6  126.29    3.90
  -2   4  -6    4.80    1.20
  -1   5  -6    0.90    0.80
   0   6  -6    2.90    1.00
   0   6  -6    1.50    1.00
   0  -6   6    1.30    0.90
   1   7  -6    2.30    1.40
   1   7  -6    1.70    1.10
  -1  -7   6    2.30    1.10
   2   8  -6   10.40    2.20
  -2  -8   6   10.10    1.90
   3   9  -6   18.00    2.70
  -7   0  -6   22.30    2.50
  -6   1  -6   34.80    2.80
  -5   2  -6    4.30    1.40
  -4   3  -6   -1.00    0.90
  -3   4  -6   40.70    2.50
  -2   5  -6   45.10    2.60
  -1   6  -6    4.20    1.30
   0   7  -6   26.50    2.40
   0  -7   6   23.80    2.20
   1   8  -6   67.69    3.50
   1   8  -6   68.99    3.80
  -1  -8   6   70.29    3.50
   2   9  -6   33.40    3.40
  -6   2  -6    4.70    1.70
  -5   3  -6    2.40    1.30
  -4   4  -6   25.80    2.50
  -3   5  -6   15.50    1.90
  -2   6  -6   51.99    3.00
  -1   7  -6   24.40    2.40
   0   8  -6    7.60    1.70
   0  -8   6    7.70    1.70
  -5   4  -6   10.60    1.90
  -4   5  -6   15.10    2.20
  -3   6  -6   39.00    2.90
  -2   7  -6    8.70    1.80
   0  -9  -7   13.10    1.90
   1  -8  -7    5.80    1.50
   2  -7  -7   19.50    2.20
   3  -6  -7    4.70    1.60
   4  -5  -7    9.50    2.00
   5  -4  -7   15.10    2.40
  -5   4   7   17.10    2.20
   6  -3  -7    9.00    2.60
  -6   3   7   11.40    2.00
  -1  -9  -7    8.00    1.70
   1   9   7    2.70    2.90
   0  -8  -7    3.30    1.20
   1  -7  -7   29.30    2.50
   2  -6  -7   19.40    2.10
   3  -5  -7   12.10    1.90
   4  -4  -7    5.90    1.70
  -4   4   7    5.90    1.40
   5  -3  -7   -0.20    1.60
  -5   3   7    2.10    1.30
   6  -2  -7    1.30    2.00
  -6   2   7    8.40    1.80
   7  -1  -7   -4.30    1.70
   2   9   7   38.30    4.40
  -1  -8  -7   65.79    3.10
   1   8   7   61.99    4.90
   0  -7  -7   53.59    2.80
   0   7   7   45.00    3.70
   1  -6  -7   51.89    2.70
  -1   6   7   42.80    3.10
   2  -5  -7  183.28    4.90
   3  -4  -7   84.19    3.60
  -3   4   7   84.99    3.10
   4  -3  -7    2.80    1.40
  -4   3   7    3.90    1.20
   5  -2  -7   54.89    3.40
  -5   2   7   56.59    3.20
   6  -1  -7   10.30    2.10
  -7   0   7    0.40    1.40
   3   9   7    3.20    2.80
  -2  -8  -7   32.70    2.30
   2   8   7   27.70    3.70
   0  -6  -7    3.70    1.20
   0   6   7    3.00    1.80
   1  -5  -7   19.20    1.80
  -1   5   7   25.40    2.50
   2  -4  -7    3.40    1.20
  -2   4   7    6.30    1.40
  -2   4   7    6.30    1.00
   3  -3  -7    2.80    1.20
  -3   3   7    2.60    1.00
   4  -2  -7    0.60    1.10
  -4   2   7    2.20    1.10
   5  -1  -7    9.30    1.70
  -5   1   7    8.30    1.70
   6   0  -7   -1.90    1.50
  -6   0   7    2.40    1.30
  -7  -1   7   14.60    2.30
   4   9   7    0.80    4.10
  -3  -8  -7    1.80    1.10
   3   8   7   -0.10    2.30
  -2  -7  -7   49.10    2.40
   2   7   7   49.90    4.50
   0  -5  -7   31.80    2.00
   0   5   7   36.40    2.80
   1  -4  -7  120.19    3.50
  -1   4   7  125.29    4.00
  -1   4   7  124.49    3.40
   2  -3  -7   68.69    2.70
  -2   3   7   63.89    2.60
  -2   3   7   65.19    2.30
   3  -2  -7   43.60    2.30
  -3   2   7   43.20    2.00
  -3   2   7   44.80    2.20
   4  -1  -7    5.00    1.40
  -4   1   7    4.90    1.30
   5   0  -7    2.10    1.30
  -5   0   7    4.20    1.50
  -6  -1   7    0.40    1.30
  -7  -2   7   -0.20    1.50
   4   8   7   26.20    3.60
  -3  -7  -7   36.80    2.20
   3   7   7   33.40    3.70
  -2  -6  -7   99.29    3.10
   2   6   7   89.69    4.80
  -1  -5  -7   56.59    2.30
   1   5   7   56.99    3.30
   0  -4  -7   58.29    2.30
   0   4   7   64.99    3.00
   1  -3  -7   85.49    2.70
  -1   3   7   84.99    2.10
  -1   3   7   85.19    2.90
   2  -2  -7   69.59    2.50
  -2   2   7   73.59    2.50
  -2   2   7   73.69    2.30
   3  -1  -7   87.99    2.80
   3  -1  -7   85.89    2.70
  -3   1   7   86.79    2.80
   4   0  -7   -0.80    0.60
   4   0  -7    0.00    1.00
  -4   0   7    1.20    1.00
  -5  -1   7   62.39    3.10
  -6  -2   7   54.89    3.40
  -7  -3   7    1.70    1.70
   5   8   7    3.50    2.60
  -4  -7  -7   52.99    2.70
   4   7   7   58.79    4.80
  -3  -6  -7    4.60    1.00
   3   6   7    5.00    2.10
  -2  -5  -7   19.10    1.50
   2   5   7   14.90    2.30
  -1  -4  -7   11.60    1.20
   1   4   7   13.90    1.80
   0  -3  -7    0.40    0.60
   0   3   7    1.00    0.30
   0   3   7    0.70    0.90
   1  -2  -7  132.59    3.20
  -1   2   7  133.49    3.50
  -1   2   7  130.39    2.60
   2  -1  -7   82.19    2.50
   2  -1  -7   84.49    2.40
  -2   1   7   83.39    2.30
   3   0  -7   10.90    1.10
   3   0  -7   12.40    1.20
  -3   0   7   13.30    1.40
   4   1  -7   73.39    2.70
   4   1  -7   75.69    2.50
  -4  -1   7   76.19    3.00
   5   2  -7   52.09    2.50
  -5  -2   7   53.89    2.90
  -6  -3   7    2.50    1.60
  -7  -4   7    0.90    1.50
   5   7   7    5.00    2.50
  -4  -6  -7   35.10    2.20
   4   6   7   29.60    3.40
  -3  -5  -7    5.80    1.10
   3   5   7    5.10    2.00
  -2  -4  -7    4.50    0.90
   2   4   7    4.90    1.50
  -1  -3  -7    0.60    0.50
   1   3   7    0.20    0.90
   0  -2  -7   43.80    1.70
   0   2   7   46.70    2.00
   0   2   7   45.40    0.90
   1  -1  -7   38.10    1.50
  -1   1   7   41.90    1.80
  -1   1   7   41.10    1.30
   2   0  -7   75.49    2.40
   2   0  -7   74.19    2.00
  -2   0   7   73.89    2.20
   3   1  -7  119.29    2.70
   3   1  -7  119.69    3.30
  -3  -1   7  117.49    3.20
   4   2  -7   45.90    2.40
  -4  -2   7   45.90    2.40
   5   3  -7    3.30    1.30
  -5  -3   7    0.70    1.20
   6   4  -7   71.49    3.50
  -6  -4   7   74.49    3.90
   6   7   7   17.20    3.10
  -5  -6  -7   19.70    1.90
   5   6   7   18.90    3.20
  -4  -5  -7   40.70    2.20
   4   5   7   42.80    3.80
  -3  -4  -7   68.99    2.50
   3   4   7   71.19    3.60
  -2  -3  -7    0.90    0.60
   2   3   7    0.00    0.90
  -1  -2  -7 1059.19   14.30
   1   2   7 1054.59   15.10
   0  -1  -7  335.37    5.40
   0   1   7  331.97    4.50
   0   1   7  331.07    5.90
   1   0  -7   84.99    2.10
   1   0  -7   86.89    2.50
  -1   0   7   85.79    2.00
   2   1  -7  171.48    3.10
   2   1  -7  173.48    4.00
  -2  -1   7  170.38    3.60
   3   2  -7  231.48    5.10
  -3  -2   7  239.38    5.00
   4   3  -7  100.69    3.60
  -4  -3   7   95.09    3.40
   5   4  -7  164.88    5.10
  -5  -4   7  158.58    4.90
   6   5  -7   59.79    3.60
  -6  -5   7   51.99    3.40
   7   6  -7    3.60    1.50
  -6  -6  -7    9.90    1.60
   6   6   7    7.40    2.40
  -5  -5  -7    5.30    1.20
   5   5   7    3.30    2.30
  -4  -4  -7   32.80    2.00
   4   4   7   33.60    3.10
  -3  -3  -7   60.19    2.30
   3   3   7   61.29    3.10
  -2  -2  -7   49.80    1.90
  -2  -2  -7   48.40    1.20
   2   2   7   52.19    2.30
  -1  -1  -7 1984.60   25.30
  -1  -1  -7 2046.10   25.50
   1   1   7 2013.90   26.10
   0   0  -7  284.57    4.60
   0   0  -7  285.87    5.20
   0   0   7  283.37    4.30
   1   1  -7   15.90    0.80
   1   1  -7   15.20    1.20
  -1  -1   7   17.00    0.90
   2   2  -7    8.30    0.60
   2   2  -7    8.40    1.10
  -2  -2   7    9.90    1.10
   3   3  -7   10.60    1.50
  -3  -3   7   10.30    1.30
   4   4  -7    3.20    1.30
  -4  -4   7    2.90    1.20
   5   5  -7   43.00    3.00
  -5  -5   7   42.60    2.90
   6   6  -7   34.80    3.30
  -6  -6   7   30.80    3.00
  -6  -5  -7   -0.60    1.10
   6   5   7   -0.90    2.00
  -5  -4  -7   -0.80    0.90
   5   4   7   -2.50    1.80
  -4  -3  -7  263.67    5.60
   4   3   7  259.07    6.50
  -3  -2  -7  207.18    3.70
  -3  -2  -7  204.88    4.40
   3   2   7  213.48    5.00
  -2  -1  -7   13.00    1.20
  -2  -1  -7   11.60    0.80
   2   1   7   12.20    1.30
  -1   0  -7 1551.04   19.90
  -1   0  -7 1551.74   19.30
   1   0   7 1551.44   20.40
   0   1  -7   68.69    1.80
   0   1  -7   65.99    1.80
   0   1  -7   67.49    2.20
   0  -1   7   66.69    1.80
   1   2  -7   81.49    1.70
   1   2  -7   81.59    2.60
  -1  -2   7   84.69    2.30
   2   3  -7    5.30    1.10
  -2  -3   7    4.40    0.90
   3   4  -7  416.46    8.20
  -3  -4   7  426.76    7.80
   4   5  -7  121.39    4.40
  -4  -5   7  124.79    4.20
   5   6  -7   47.70    3.40
  -5  -6   7   42.10    3.00
   6   7  -7   94.29    4.90
  -7  -5  -7    0.40    1.20
  -6  -4  -7   77.99    3.50
  -5  -3  -7   -0.60    1.00
   5   3   7    0.20    1.70
  -4  -2  -7  321.47    5.80
  -4  -2  -7  321.27    6.30
   4   2   7  320.17    6.80
  -3  -1  -7  153.38    3.30
  -3  -1  -7  159.48    3.80
   3   1   7  157.38    3.90
  -2   0  -7   -0.40    0.50
  -2   0  -7    0.20    0.50
   2   0   7    0.00    0.50
  -1   1  -7   18.80    1.30
  -1   1  -7   15.60    1.10
  -1   1  -7   16.00    1.00
   0   2  -7   36.10    1.70
   0   2  -7   35.20    1.60
   0   2  -7   37.40    1.30
   0  -2   7   36.90    1.50
   1   3  -7   20.30    1.50
   1   3  -7   20.10    1.50
  -1  -3   7   21.70    1.40
   2   4  -7   38.50    2.30
  -2  -4   7   38.70    2.00
   3   5  -7   82.69    3.50
  -3  -5   7   86.39    3.20
   4   6  -7    0.90    1.30
  -4  -6   7   -0.30    1.20
   5   7  -7   32.40    3.00
  -5  -7   7   22.80    2.60
  -7  -4  -7    1.50    1.30
  -6  -3  -7    1.80    1.30
  -5  -2  -7   10.10    1.40
  -5  -2  -7   11.40    1.60
  -4  -1  -7   88.49    2.90
  -4  -1  -7   90.89    3.10
   4   1   7   91.39    3.20
  -3   0  -7  339.37    6.30
  -3   0  -7  344.37    6.00
   3   0   7  345.47    6.10
  -2   1  -7  286.07    5.30
  -2   1  -7  295.97    5.20
   2  -1   7  288.57    5.20
  -1   2  -7 2681.93   33.70
  -1   2  -7 2664.43   33.80
  -1   2  -7 2726.53   33.40
   0   3  -7  259.67    4.30
   0   3  -7  259.87    5.20
   0   3  -7  262.27    5.10
   0  -3   7  248.48    5.00
   1   4  -7   39.50    2.20
   1   4  -7   37.70    2.00
  -1  -4   7   39.90    2.00
   2   5  -7  187.78    5.20
  -2  -5   7  189.68    4.90
   3   6  -7  111.19    4.30
  -3  -6   7  112.19    3.90
   4   7  -7   19.10    2.50
  -4  -7   7   18.10    2.20
  -7  -3  -7    2.80    1.60
  -6  -2  -7   -1.20    1.20
  -5  -1  -7   37.20    2.50
  -5  -1  -7   38.10    2.30
  -4   0  -7  796.92   12.20
  -4   0  -7  802.22   12.40
  -3   1  -7   12.10    1.30
  -3   1  -7   12.80    1.40
   3  -1   7   12.80    1.20
  -2   2  -7   64.69    2.10
  -2   2  -7   66.19    2.40
  -2   2  -7   66.29    2.40
  -1   3  -7   54.89    2.10
  -1   3  -7   57.69    2.10
  -1   3  -7   58.79    2.40
   0   4  -7    3.70    1.00
   0   4  -7    2.10    0.90
   0  -4   7    2.10    0.80
   1   5  -7  110.89    3.70
   1   5  -7  108.59    3.70
  -1  -5   7  112.99    3.70
   2   6  -7    6.90    1.60
  -2  -6   7    4.80    1.20
   3   7  -7   64.39    3.60
  -3  -7   7   66.09    3.40
   4   8  -7    3.60    1.80
  -4  -8   7   -0.90    1.20
  -7  -2  -7    2.10    1.50
  -6  -1  -7   44.10    2.70
  -6  -1  -7   49.90    3.20
  -5   0  -7   13.30    1.70
  -5   0  -7   11.20    1.70
  -4   1  -7    3.70    1.10
  -4   1  -7    2.90    1.30
  -3   2  -7  428.96    7.70
  -3   2  -7  418.36    7.70
  -2   3  -7   66.29    2.60
  -2   3  -7   70.19    2.70
  -1   4  -7  132.99    3.80
  -1   4  -7  138.19    3.60
   0   5  -7   94.99    3.30
   0   5  -7   95.39    3.40
   0  -5   7   96.69    3.40
   1   6  -7    2.20    1.20
   1   6  -7    2.30    1.00
  -1  -6   7    1.10    0.90
   2   7  -7    4.10    1.70
  -2  -7   7    5.80    1.50
   3   8  -7    2.10    1.60
  -3  -8   7    0.20    1.40
  -7  -1  -7    9.90    1.80
  -7  -1  -7    6.30    2.10
  -6   0  -7   31.90    2.70
  -6   0  -7   35.70    3.00
  -5   1  -7   18.60    2.10
  -5   1  -7   20.60    2.10
  -4   2  -7  234.38    5.60
  -4   2  -7  236.58    5.80
  -3   3  -7   48.90    2.50
  -3   3  -7   48.50    2.60
  -2   4  -7  170.08    4.60
  -1   5  -7  146.39    4.30
   0   6  -7   24.50    1.90
   0   6  -7   23.10    2.00
   0  -6   7   22.00    1.90
   1   7  -7   32.20    2.50
   1   7  -7   31.90    2.80
  -1  -7   7   33.40    2.50
   2   8  -7   45.70    3.30
  -2  -8   7   47.00    3.30
  -7   0  -7    2.00    1.50
  -6   1  -7    4.50    1.80
  -5   2  -7    2.50    1.50
  -5   2  -7    7.90    1.60
  -4   3  -7   23.90    2.20
  -3   4  -7    1.90    1.00
  -2   5  -7   -0.80    0.80
  -1   6  -7    5.60    1.30
   0   7  -7    1.60    1.20
   0  -7   7    2.30    1.20
   1   8  -7    5.20    1.60
   1   8  -7    4.40    1.60
  -1  -8   7    4.00    1.40
   2   9  -7    5.30    1.90
  -6   2  -7   43.10    3.00
  -5   3  -7    8.20    1.70
  -4   4  -7   50.99    3.00
  -3   5  -7   70.09    3.40
  -2   6  -7   56.39    3.20
  -1   7  -7   50.59    3.00
   0   8  -7   45.20    3.20
   0  -8   7   41.10    2.90
  -5   4  -7   -1.20    1.10
  -4   5  -7    8.30    1.70
  -3   6  -7   12.60    2.10
  -2   7  -7    5.40    1.60
   0  -9  -8   47.70    3.60
   1  -8  -8   29.80    2.60
   2  -7  -8   25.20    2.50
   3  -6  -8   11.30    1.90
   4  -5  -8   -0.20    1.60
   5  -4  -8    9.00    2.20
  -6   3   8    2.00    1.50
  -1  -9  -8    3.00    1.40
   1   9   8    0.10    2.80
   0  -8  -8   11.30    1.70
   1  -7  -8    2.10    1.20
   2  -6  -8    3.60    1.40
   3  -5  -8    8.70    1.70
   4  -4  -8    0.60    1.30
   5  -3  -8    3.30    1.80
  -5   3   8    3.80    1.40
   6  -2  -8    4.80    2.00
  -6   2   8    5.40    1.60
   2   9   8   29.40    4.40
  -1  -8  -8    1.30    1.10
   1   8   8   -1.00    2.50
   0  -7  -8   22.80    2.10
   0   7   8   22.50    3.20
   1  -6  -8    6.10    1.30
  -1   6   8    1.70    2.00
   2  -5  -8    5.80    1.40
   3  -4  -8   26.10    2.40
   4  -3  -8    2.70    1.30
  -4   3   8    0.90    1.00
   5  -2  -8    1.30    1.30
  -5   2   8    0.70    1.30
   6  -1  -8   -2.70    1.30
  -6   1   8    2.30    1.50
  -7   0   8    3.90    2.00
   3   9   8    8.80    3.30
  -2  -8  -8   29.40    2.30
   2   8   8   23.70    3.60
  -1  -7  -8   39.10    2.40
   1   7   8   35.60    3.80
   0  -6  -8   98.99    3.40
   0   6   8   94.39    4.70
   1  -5  -8  199.48    5.00
  -1   5   8  210.18    5.80
   2  -4  -8   96.29    3.40
  -2   4   8   93.39    3.50
   3  -3  -8   41.30    2.60
  -3   3   8   35.90    2.10
   4  -2  -8    7.90    1.50
  -4   2   8   10.30    1.60
   5  -1  -8   10.60    1.70
  -5   1   8   14.00    2.00
  -6   0   8    1.00    1.30
  -7  -1   8   -0.20    1.40
  -3  -8  -8   19.40    2.00
   3   8   8   16.00    3.20
   2   7   8    8.00    2.80
  -1  -6  -8   73.59    2.90
   1   6   8   70.99    4.10
   0  -5  -8   10.40    1.30
   0   5   8    7.60    2.00
   1  -4  -8    2.40    1.00
  -1   4   8    4.40    1.40
   2  -3  -8    1.30    1.00
  -2   3   8    3.00    1.10
  -2   3   8    1.30    0.80
   3  -2  -8   11.20    1.60
  -3   2   8   10.30    1.30
  -3   2   8   13.30    1.50
   4  -1  -8    1.70    1.10
  -4   1   8    1.50    1.00
   5   0  -8    5.20    1.40
  -5   0   8    8.50    1.60
  -6  -1   8    8.80    1.70
  -7  -2   8   -0.40    1.60
   4   8   8   52.09    5.10
  -3  -7  -8   88.49    3.30
   3   7   8   84.89    5.00
  -2  -6  -8    8.90    1.30
   2   6   8    8.30    2.50
  -1  -5  -8  205.38    4.70
   1   5   8  194.18    5.80
   0  -4  -8  242.88    5.10
   0   4   8  249.78    6.10
   1  -3  -8   68.29    2.50
  -1   3   8   68.89    2.80
   2  -2  -8   -0.60    0.80
  -2   2   8    0.50    0.70
  -2   2   8    0.30    0.80
   3  -1  -8   61.19    2.50
   3  -1  -8   62.49    2.40
  -3   1   8   62.69    2.50
   4   0  -8    1.10    0.90
   4   0  -8   -1.40    0.90
  -4   0   8    0.00    1.00
   5   1  -8    6.60    1.50
  -5  -1   8    4.60    1.40
  -6  -2   8    6.90    1.80
  -7  -3   8    1.30    1.80
   5   8   8   -2.60    2.30
  -4  -7  -8   -0.30    1.00
   4   7   8    0.60    2.30
  -3  -6  -8   13.80    1.60
   3   6   8   14.20    2.70
  -2  -5  -8    5.00    1.10
   2   5   8    5.80    2.00
  -1  -4  -8   19.30    1.50
   1   4   8   16.90    2.00
   0  -3  -8   71.19    2.50
   0   3   8   72.59    2.90
   1  -2  -8  600.74    9.20
  -1   2   8  606.74    8.30
  -1   2   8  601.14    9.80
   2  -1  -8  196.28    4.40
   2  -1  -8  196.18    4.10
  -2   1   8  189.88    3.90
   3   0  -8   88.99    2.90
   3   0  -8   87.49    2.60
  -3   0   8   83.49    2.70
   4   1  -8  198.78    4.80
  -4  -1   8  192.48    4.80
   5   2  -8   46.00    2.60
  -5  -2   8   43.30    2.70
   6   3  -8   13.30    2.20
  -6  -3   8   12.90    2.10
  -7  -4   8    3.60    2.80
  -5  -7  -8   26.90    2.20
   5   7   8   30.80    3.90
  -4  -6  -8   39.90    2.30
   4   6   8   38.70    3.80
  -3  -5  -8    7.10    1.20
   3   5   8    4.50    2.10
  -2  -4  -8   11.20    1.30
   2   4   8   10.40    1.90
  -1  -3  -8  138.19    3.40
   1   3   8  139.09    4.10
   0  -2  -8    1.30    0.60
   0   2   8    2.50    0.90
   0   2   8    2.60    0.30
   1  -1  -8    0.30    0.50
  -1   1   8    0.60    0.60
  -1   1   8    1.10    0.50
   2   0  -8    5.10    0.90
   2   0  -8    3.30    0.70
  -2   0   8    5.20    0.80
   3   1  -8   47.70    2.20
   3   1  -8   52.39    1.80
  -3  -1   8   51.39    2.20
   4   2  -8   52.09    2.50
  -4  -2   8   52.59    2.60
   5   3  -8   14.00    1.90
  -5  -3   8   12.60    1.90
   6   4  -8    1.50    1.30
  -6  -4   8    1.60    1.40
   6   7   8   -4.80    2.20
  -5  -6  -8    1.40    1.00
   5   6   8    0.80    2.20
  -4  -5  -8  118.79    3.70
   4   5   8  112.59    5.20
  -3  -4  -8   87.99    2.90
   3   4   8   88.99    4.00
  -2  -3  -8    4.50    0.90
   2   3   8    4.70    1.30
  -1  -2  -8  481.45    7.60
   1   2   8  480.55    8.40
   0  -1  -8  507.35    7.60
   0   1   8  488.25    8.20
   0   1   8  499.35    6.60
   1   0  -8   64.29    1.90
   1   0  -8   65.29    2.30
  -1   0   8   65.79    1.80
   2   1  -8   82.49    2.80
   2   1  -8   87.79    2.10
  -2  -1   8   88.79    2.50
   3   2  -8   63.39    2.60
  -3  -2   8   63.79    2.50
   4   3  -8   29.70    2.20
  -4  -3   8   30.90    2.30
   5   4  -8    1.20    1.20
  -5  -4   8    2.20    1.30
   6   5  -8    3.30    1.50
  -6  -5   8    1.60    1.60
  -6  -6  -8    6.70    1.40
   6   6   8    5.90    2.70
  -5  -5  -8   16.80    1.90
   5   5   8   17.90    3.00
  -4  -4  -8   11.70    1.40
   4   4   8   15.20    2.60
  -3  -3  -8   13.30    1.40
   3   3   8   14.20    1.90
  -2  -2  -8   92.49    2.70
   2   2   8   94.79    3.20
  -1  -1  -8  820.32   11.50
  -1  -1  -8  822.22   10.30
   1   1   8  830.22   12.20
   1   1   8  788.92   10.30
   0   0  -8   46.00    1.60
   0   0  -8   47.50    2.00
   0   0   8   47.80    1.40
   1   1  -8    2.00    0.50
   1   1  -8    2.50    0.70
  -1  -1   8    2.90    0.60
   2   2  -8  101.49    3.20
   2   2  -8  104.79    2.70
  -2  -2   8   99.39    2.80
   3   3  -8   14.20    1.70
  -3  -3   8   14.30    1.50
   4   4  -8   80.09    3.50
  -4  -4   8   78.79    3.20
   5   5  -8   32.40    2.70
  -5  -5   8   33.90    2.90
   6   6  -8   36.10    3.40
  -6  -6   8   31.20    3.00
  -6  -5  -8   15.40    1.90
   6   5   8   15.30    3.00
  -5  -4  -8  110.99    3.80
   5   4   8  106.59    4.80
  -4  -3  -8   24.30    1.90
   4   3   8   21.10    2.50
  -3  -2  -8   25.30    1.60
   3   2   8   23.30    2.20
  -2  -1  -8   21.50    1.00
  -2  -1  -8   22.30    1.50
   2   1   8   21.90    1.60
  -1   0  -8   -0.30    0.30
  -1   0  -8   -0.80    0.40
   1   0   8    0.30    0.60
   0   1  -8   53.19    2.10
   0   1  -8   52.29    1.60
   0   1  -8   52.99    1.70
   0  -1   8   51.89    1.60
   1   2  -8   19.60    0.90
   1   2  -8   19.10    1.40
  -1  -2   8   17.80    1.30
   2   3  -8    1.70    0.90
  -2  -3   8    1.80    0.70
   3   4  -8    0.60    1.00
  -3  -4   8    1.20    0.90
   4   5  -8   11.40    1.90
  -4  -5   8   12.10    1.80
   5   6  -8    5.00    1.80
  -5  -6   8    1.10    1.30
  -7  -5  -8    0.30    1.20
  -6  -4  -8   -0.90    1.20
  -5  -3  -8    1.00    1.10
   5   3   8   -1.20    1.70
  -4  -2  -8   14.50    1.70
   4   2   8   15.10    2.00
  -3  -1  -8   11.60    1.10
  -3  -1  -8   12.50    1.30
   3   1   8   10.90    1.50
  -2   0  -8    7.20    1.00
  -2   0  -8    7.40    0.80
   2   0   8    6.80    1.00
  -1   1  -8  104.79    2.90
  -1   1  -8  105.29    2.60
  -1   1  -8  106.89    2.70
   0   2  -8  533.95    8.20
   0   2  -8  532.75    8.70
   0   2  -8  530.35    7.70
   0  -2   8  533.95    8.20
   1   3  -8   -0.30    0.70
  -1  -3   8   -0.30    0.50
   2   4  -8    2.40    1.20
  -2  -4   8    0.80    0.80
   3   5  -8   36.90    2.60
  -3  -5   8   37.00    2.40
   4   6  -8   23.50    2.50
  -4  -6   8   21.80    2.30
   5   7  -8    6.10    1.90
  -5  -7   8    3.10    1.60
  -7  -4  -8   16.20    2.20
  -6  -3  -8   13.30    2.00
  -5  -2  -8   99.49    3.60
  -4  -1  -8   36.90    2.00
  -4  -1  -8   40.30    2.30
   4   1   8   35.90    2.40
  -3   0  -8   58.59    2.20
  -3   0  -8   62.79    2.50
   3   0   8   60.09    2.50
  -2   1  -8   73.19    2.30
  -2   1  -8   73.29    2.40
   2  -1   8   76.09    2.50
  -1   2  -8   27.10    1.60
  -1   2  -8   28.20    1.60
  -1   2  -8   29.30    1.60
   0   3  -8   37.40    1.50
   0   3  -8   34.30    1.80
   0   3  -8   35.20    1.90
   0  -3   8   37.70    1.80
   1   4  -8   25.60    2.00
   1   4  -8   23.00    1.90
  -1  -4   8   26.20    1.90
   2   5  -8  117.99    4.20
  -2  -5   8  111.39    3.70
   3   6  -8   21.50    2.30
  -3  -6   8   19.50    2.00
   4   7  -8   12.70    2.20
  -4  -7   8   13.40    2.20
  -7  -3  -8    2.40    1.50
  -6  -2  -8    7.20    1.60
  -5  -1  -8    4.70    1.10
  -5  -1  -8    3.20    1.20
  -4   0  -8   37.20    2.30
  -4   0  -8   37.00    2.10
  -3   1  -8  288.27    5.70
  -3   1  -8  302.97    6.00
   3  -1   8  293.07    6.10
  -2   2  -8  290.77    5.50
  -2   2  -8  299.57    5.70
  -2   2  -8  307.87    5.80
  -1   3  -8   81.09    2.70
  -1   3  -8   82.29    2.80
  -1   3  -8   83.89    2.50
   0   4  -8  459.95    8.10
   0   4  -8  462.25    8.20
   0  -4   8  455.15    8.10
   1   5  -8   29.80    2.20
   1   5  -8   31.10    2.30
  -1  -5   8   28.70    2.20
   2   6  -8    8.20    1.70
  -2  -6   8    8.30    1.60
   3   7  -8    4.30    1.60
  -3  -7   8    4.20    1.50
   4   8  -8    5.80    1.90
  -4  -8   8    3.80    2.10
  -7  -2  -8    5.50    1.80
  -6  -1  -8    6.10    1.60
  -5   0  -8    7.30    1.40
  -5   0  -8    5.10    1.40
  -4   1  -8  133.79    4.10
  -4   1  -8  130.49    3.90
  -3   2  -8  303.07    6.30
  -3   2  -8  310.57    6.30
  -2   3  -8    4.50    1.20
  -2   3  -8    6.10    1.20
  -1   4  -8  232.68    5.40
  -1   4  -8  216.78    4.90
  -1   4  -8  227.38    5.20
   0   5  -8    1.80    1.00
   0   5  -8    0.30    0.90
   0  -5   8    0.20    0.80
   1   6  -8    0.40    1.00
   1   6  -8   -0.40    0.90
  -1  -6   8   -0.80    0.80
   2   7  -8    2.60    1.50
  -2  -7   8   -0.70    1.20
   3   8  -8   20.60    2.70
  -3  -8   8   18.00    2.50
  -7  -1  -8    5.50    2.30
  -6   0  -8    7.30    1.70
  -6   0  -8    4.20    1.90
  -5   1  -8   46.20    2.90
  -5   1  -8   47.10    2.70
  -4   2  -8    4.80    1.40
  -4   2  -8    4.00    1.20
  -3   3  -8   85.59    3.30
  -3   3  -8   77.59    3.20
  -2   4  -8  188.48    4.90
  -1   5  -8   34.00    2.30
   0   6  -8  120.89    4.00
   0   6  -8  131.89    4.30
   0  -6   8  131.59    4.30
   1   7  -8   64.29    3.30
   1   7  -8   71.29    3.60
  -1  -7   8   66.99    3.50
   2   8  -8    6.10    1.90
  -2  -8   8    4.00    1.50
  -7   0  -8   10.00    2.10
  -6   1  -8   11.70    1.90
  -6   1  -8    8.00    2.00
  -5   2  -8   15.20    2.20
  -5   2  -8   17.10    2.10
  -4   3  -8    2.50    1.20
  -3   4  -8  293.67    6.80
  -2   5  -8   32.20    2.40
  -1   6  -8   67.29    3.20
   0   7  -8   67.49    3.50
   0  -7   8   66.69    3.40
   1   8  -8   29.70    2.80
  -1  -8   8   29.40    2.70
  -6   2  -8    4.70    1.50
  -5   3  -8    4.20    1.60
  -4   4  -8    4.10    1.50
  -3   5  -8    7.20    1.70
  -2   6  -8    2.60    1.30
  -1   7  -8    2.90    1.30
  -4   5  -8   14.00    2.30
  -3   6  -8   80.39    5.70
   1  -8  -9   13.30    2.30
   2  -7  -9   32.40    2.70
   3  -6  -9    3.20    1.50
   4  -5  -9    5.90    1.80
  -1  -9  -9   67.89    3.60
   1   9   9   59.49    5.50
   0  -8  -9   27.50    2.50
   1  -7  -9   61.69    3.40
   2  -6  -9    0.90    1.10
   3  -5  -9    0.10    1.30
   4  -4  -9    1.00    1.30
   5  -3  -9    2.50    1.60
   6  -2  -9   14.00    2.30
  -6   2   9   14.90    2.20
  -2  -9  -9   48.80    3.00
   2   9   9   51.49    5.80
  -1  -8  -9   10.60    1.80
   1   8   9    3.50    2.70
   0  -7  -9    2.20    1.20
   0   7   9    0.00    2.10
   1  -6  -9   54.89    2.90
  -1   6   9   46.50    3.80
   2  -5  -9   29.20    2.50
   3  -4  -9    0.50    1.10
   4  -3  -9   13.30    2.00
   5  -2  -9   28.90    2.70
  -5   2   9   24.30    2.40
   6  -1  -9    1.20    1.70
  -6   1   9    2.20    1.50
  -2  -8  -9   24.90    2.30
   2   8   9   21.90    3.60
  -1  -7  -9  142.59    4.50
   1   7   9  135.09    6.20
   0  -6  -9   37.60    2.40
   0   6   9   42.30    3.60
   1  -5  -9  253.77    5.80
  -1   5   9  250.37    6.60
   2  -4  -9   84.39    3.20
  -2   4   9   77.69    3.40
   3  -3  -9   27.60    2.10
   4  -2  -9   36.90    2.40
  -4   2   9   36.30    2.40
   5  -1  -9    0.70    1.20
  -5   1   9    0.60    1.20
  -6   0   9   -0.30    1.20
  -3  -8  -9   68.29    3.30
   3   8   9   61.19    5.00
  -2  -7  -9  149.29    4.40
   2   7   9  142.69    6.20
  -1  -6  -9   38.50    2.40
   1   6   9   32.80    3.40
   0  -5  -9   91.19    3.20
   0   5   9   85.49    4.00
   1  -4  -9  215.98    5.00
  -1   4   9  222.28    5.80
   2  -3  -9   34.10    2.10
  -2   3   9   35.40    2.30
   3  -2  -9    3.10    1.00
  -3   2   9    2.80    1.00
  -3   2   9    3.10    1.00
   4  -1  -9    3.70    1.10
  -4   1   9    3.00    1.20
  -5   0   9   -1.90    1.10
  -6  -1   9    7.40    1.70
  -7  -2   9   -0.10    1.60
  -4  -8  -9   35.30    2.50
   4   8   9   34.00    4.40
  -3  -7  -9   17.40    1.90
   3   7   9   13.80    3.00
  -2  -6  -9    3.80    1.10
   2   6   9    3.60    2.10
  -1  -5  -9   79.89    3.00
   1   5   9   76.99    4.20
   0  -4  -9   11.20    1.40
   0   4   9   11.00    1.80
   1  -3  -9    0.20    0.90
  -1   3   9    1.20    1.10
   2  -2  -9   40.00    2.10
  -2   2   9   37.60    2.10
  -2   2   9   38.40    1.80
   3  -1  -9    4.50    1.10
   3  -1  -9    3.90    1.10
  -3   1   9    5.10    1.10
   4   0  -9   -1.10    0.80
   4   0  -9   -0.50    0.80
  -4   0   9   -2.40    0.90
   5   1  -9   56.89    2.80
  -5  -1   9   60.19    3.10
  -6  -2   9    6.80    1.90
  -4  -7  -9   46.50    2.80
   4   7   9   45.90    4.40
  -3  -6  -9   37.50    2.40
   3   6   9   33.50    3.60
  -2  -5  -9   10.00    1.40
   2   5   9   11.00    2.30
  -1  -4  -9    1.50    0.80
   1   4   9    0.90    1.40
   0  -3  -9  173.08    4.10
   0   3   9  172.58    4.70
   1  -2  -9  380.96    6.60
  -1   2   9  385.36    7.30
   2  -1  -9  164.68    4.20
   2  -1  -9  170.18    3.80
  -2   1   9  166.58    3.70
   3   0  -9   79.29    2.90
   3   0  -9   80.79    2.50
  -3   0   9   82.79    2.80
   4   1  -9  229.58    5.40
  -4  -1   9  239.88    5.60
   5   2  -9   27.20    2.10
  -5  -2   9   28.70    2.60
   6   3  -9    2.60    1.20
  -6  -3   9    1.40    1.40
  -5  -7  -9    8.00    1.60
   5   7   9    7.20    2.80
  -4  -6  -9    7.90    1.40
   4   6   9    7.10    2.50
  -3  -5  -9    8.10    1.30
   3   5   9    7.70    2.20
  -2  -4  -9    2.30    0.80
   2   4   9   -0.90    1.50
  -1  -3  -9    0.50    0.70
   1   3   9    0.00    1.00
   0  -2  -9  321.47    5.90
   0   2   9  328.77    6.70
   1  -1  -9   97.49    2.70
  -1   1   9   97.29    3.10
  -1   1   9  101.09    2.30
   2   0  -9   40.00    1.70
   2   0  -9   38.50    2.00
  -2   0   9   38.10    1.70
   3   1  -9   13.40    1.20
   3   1  -9   12.80    1.50
  -3  -1   9   12.70    1.40
   4   2  -9    2.50    1.20
  -4  -2   9    2.20    1.20
   5   3  -9    2.80    1.30
  -5  -3   9   -0.20    1.20
   6   4  -9    2.90    1.30
  -6  -4   9    1.90    1.60
   6   7   9    8.40    3.20
  -5  -6  -9   24.90    2.30
   5   6   9   26.30    3.80
  -4  -5  -9   34.10    2.20
   4   5   9   31.50    3.40
  -3  -4  -9   30.80    1.90
   3   4   9   27.90    3.00
  -2  -3  -9   16.90    1.50
   2   3   9   10.80    1.80
  -1  -2  -9   13.40    1.20
   1   2   9   11.60    1.50
   0  -1  -9  369.26    6.20
   0   1   9  361.96    6.90
   0   1   9  370.16    5.20
   1   0  -9   16.10    1.20
   1   0  -9   15.60    1.40
  -1   0   9   15.60    1.00
   2   1  -9   36.70    2.10
   2   1  -9   38.10    1.50
  -2  -1   9   40.70    1.80
   3   2  -9   38.50    2.20
  -3  -2   9   35.40    2.00
   4   3  -9    6.40    1.40
  -4  -3   9    5.80    1.40
   5   4  -9    2.40    1.30
  -5  -4   9    1.30    1.30
   6   5  -9    0.90    1.40
  -6  -5   9    0.60    1.40
  -6  -6  -9    1.20    1.30
   6   6   9   -0.50    2.20
  -5  -5  -9   13.40    1.80
   5   5   9   14.00    2.70
  -4  -4  -9   37.10    2.30
   4   4   9   29.50    3.00
  -3  -3  -9   62.49    2.50
   3   3   9   63.09    3.40
  -2  -2  -9   21.50    1.50
   2   2   9   21.50    1.90
  -1  -1  -9    9.80    1.10
   1   1   9    7.90    0.60
   1   1   9    8.20    1.20
   0   0  -9  166.68    4.10
   0   0  -9  165.18    3.50
   0   0   9  167.58    3.10
   1   1  -9   49.90    2.20
   1   1  -9   48.70    1.60
  -1  -1   9   48.30    1.70
   2   2  -9    1.10    0.80
  -2  -2   9    1.40    0.80
   3   3  -9   43.20    2.40
  -3  -3   9   41.10    2.20
   4   4  -9   41.80    2.70
  -4  -4   9   43.70    2.60
   5   5  -9   12.50    2.00
  -5  -5   9   11.60    2.00
   6   6  -9    1.30    1.60
  -6  -5  -9    1.60    1.30
   6   5   9   -1.00    2.10
  -5  -4  -9   33.60    2.40
   5   4   9   37.60    3.70
  -4  -3  -9    1.40    0.90
   4   3   9    0.30    1.60
  -3  -2  -9   32.60    1.90
   3   2   9   28.50    2.20
  -2  -1  -9  150.58    3.70
   2   1   9  150.98    4.10
  -1   0  -9    0.50    0.40
  -1   0  -9    0.30    0.60
   1   0   9    0.30    0.60
   1   0   9    0.20    0.40
   0   1  -9   19.40    1.20
   0   1  -9   18.50    1.20
   0   1  -9   17.80    1.40
   0  -1   9   18.80    1.10
   1   2  -9   24.30    1.10
   1   2  -9   25.40    1.70
  -1  -2   9   25.70    1.50
   2   3  -9    1.60    1.00
  -2  -3   9    3.30    0.90
   3   4  -9    7.60    1.50
  -3  -4   9    4.50    1.20
   4   5  -9    1.30    1.30
  -4  -5   9    1.00    1.10
   5   6  -9    0.70    1.50
  -5  -6   9   -0.70    1.30
  -7  -5  -9   28.60    2.70
  -6  -4  -9   54.09    3.00
  -5  -3  -9   98.19    3.60
   5   3   9   97.19    4.50
  -4  -2  -9  135.89    4.00
   4   2   9  140.29    4.50
  -3  -1  -9  112.49    3.40
   3   1   9  108.89    3.60
  -2   0  -9   55.79    1.80
  -2   0  -9   57.69    2.20
   2   0   9   55.89    2.40
  -1   1  -9   55.09    2.00
  -1   1  -9   55.99    1.90
  -1   1  -9   57.09    2.30
   0   2  -9   10.40    1.30
   0   2  -9   11.10    1.20
   0   2  -9   11.50    1.00
   0  -2   9   11.70    1.10
   1   3  -9    3.50    1.10
  -1  -3   9    3.70    0.80
   2   4  -9   30.10    2.20
  -2  -4   9   28.40    2.10
   3   5  -9   33.90    2.50
  -3  -5   9   34.70    2.50
   4   6  -9    4.20    1.60
  -4  -6   9    1.70    1.40
   5   7  -9    2.00    1.60
  -5  -7   9   -0.50    1.70
  -7  -4  -9    7.10    1.80
  -6  -3  -9    1.40    1.30
  -5  -2  -9   -1.10    1.10
  -4  -1  -9    3.50    1.10
   4   1   9    2.60    1.20
  -3   0  -9   -0.70    0.70
  -3   0  -9    1.90    1.00
   3   0   9   -0.40    0.90
  -2   1  -9   49.60    2.00
  -2   1  -9   51.09    2.10
   2  -1   9   45.50    2.00
  -1   2  -9   21.70    1.60
  -1   2  -9   20.30    1.40
  -1   2  -9   19.60    1.50
   0   3  -9   21.40    1.70
   0   3  -9   26.00    1.70
   0  -3   9   24.50    1.60
   1   4  -9  126.09    4.00
   1   4  -9  124.59    3.70
  -1  -4   9  130.19    3.80
   2   5  -9    5.10    1.40
  -2  -5   9    4.20    1.20
   3   6  -9    1.50    1.30
  -3  -6   9    1.70    1.20
   4   7  -9    9.10    2.10
  -4  -7   9    5.50    1.70
  -7  -3  -9   12.10    2.20
  -6  -2  -9   16.70    2.20
  -5  -1  -9   24.90    2.30
  -4   0  -9   46.30    2.50
  -4   0  -9   46.10    2.20
  -3   1  -9   28.00    2.00
  -3   1  -9   29.10    1.90
  -2   2  -9  139.09    3.70
  -2   2  -9  140.69    3.70
  -2   2  -9  139.29    3.70
  -1   3  -9   11.90    1.20
  -1   3  -9   11.70    1.30
  -1   3  -9   14.20    1.50
   0   4  -9    4.40    1.10
   0   4  -9    4.10    1.10
   0  -4   9    4.00    1.00
   1   5  -9  130.19    4.00
   1   5  -9  128.29    4.20
  -1  -5   9  123.19    4.00
   2   6  -9    4.30    1.50
  -2  -6   9    1.30    1.10
   3   7  -9    2.70    1.50
  -3  -7   9    2.10    1.40
  -6  -1  -9   12.50    2.10
  -5   0  -9   42.10    2.80
  -5   0  -9   41.00    2.40
  -4   1  -9    6.10    1.40
  -4   1  -9    6.60    1.30
  -3   2  -9    8.40    1.40
  -3   2  -9    7.80    1.40
  -2   3  -9  193.28    4.80
  -2   3  -9  199.78    4.60
  -1   4  -9   34.30    2.00
  -1   4  -9   33.50    2.30
   0   5  -9    9.50    1.40
   0   5  -9    9.50    1.40
   0  -5   9    7.80    1.30
   1   6  -9  108.79    4.00
   1   6  -9  112.49    4.20
  -1  -6   9  107.79    4.00
   2   7  -9   36.80    3.00
  -2  -7   9   31.20    2.60
   3   8  -9    3.30    1.60
  -6   0  -9   12.90    2.30
  -5   1  -9    7.40    1.50
  -5   1  -9    8.30    1.70
  -4   2  -9  208.08    5.30
  -4   2  -9  216.28    5.60
  -3   3  -9    9.60    1.70
  -3   3  -9    9.30    1.40
  -2   4  -9   30.40    2.20
  -2   4  -9   31.70    2.20
  -1   5  -9    2.00    1.10
   0   6  -9   21.40    2.10
   0   6  -9   22.10    2.10
   0  -6   9   20.50    2.00
   1   7  -9   -0.30    1.30
   1   7  -9    1.30    1.40
  -1  -7   9    2.80    1.40
   2   8  -9    0.80    1.50
  -6   1  -9   -1.40    1.10
  -6   1  -9    1.10    1.70
  -5   2  -9    0.40    1.10
  -5   2  -9    0.60    1.40
  -4   3  -9    6.50    1.40
  -4   3  -9    5.40    1.80
  -3   4  -9    8.80    1.70
  -2   5  -9   33.00    2.60
  -1   6  -9    6.10    1.50
   0   7  -9   39.60    2.90
   0  -7   9   41.50    2.80
  -6   2  -9    3.10    1.50
  -5   3  -9    9.20    1.80
  -4   4  -9    9.10    1.70
  -3   5  -9   52.09    3.10
  -2   6  -9  134.49    4.80
  -1   7  -9    4.10    1.60
   1  -7   9    5.80    1.60
   3  -6 -10    3.90    2.40
   0  -8 -10    9.40    1.80
   1  -7 -10   13.10    1.90
   2  -6 -10    0.30    1.10
   3  -5 -10    0.10    1.20
   4  -4 -10    3.40    1.60
   5  -3 -10   18.10    2.30
   6  -2 -10    2.80    1.70
  -2  -9 -10   14.80    2.00
  -1  -8 -10  127.89    4.50
   1   8  10  118.29    6.20
   0  -7 -10  108.59    4.10
   0   7  10  112.09    5.80
   1  -6 -10  123.79    4.20
  -1   6  10  106.29    4.90
   2  -5 -10  278.37    6.50
   3  -4 -10   19.00    2.00
   4  -3 -10   10.10    1.80
   5  -2 -10   35.40    2.80
  -6   1  10   21.40    2.50
  -3  -9 -10    2.70    2.00
  -2  -8 -10   56.19    3.10
   2   8  10   52.99    4.90
  -1  -7 -10   91.99    3.70
   1   7  10   82.69    5.10
   0  -6 -10    8.90    1.50
   0   6  10    5.10    2.30
   1  -5 -10    4.80    1.30
  -1   5  10    4.80    1.80
   2  -4 -10    1.30    1.10
  -2   4  10    1.60    1.20
   3  -3 -10   15.30    1.70
   4  -2 -10    4.40    1.30
   5  -1 -10    5.20    1.50
  -5   1  10    7.70    1.60
  -6   0  10   18.00    2.40
  -3  -8 -10   50.59    3.00
   3   8  10   46.00    4.90
  -2  -7 -10    2.50    1.20
   2   7  10    2.50    2.40
  -1  -6 -10  137.99    4.40
   1   6  10  130.99    5.50
   0  -5 -10  506.65    9.10
   0   5  10  502.25   10.40
   1  -4 -10  170.08    4.50
  -1   4  10  153.28    4.90
   2  -3 -10  182.68    4.70
  -2   3  10  178.88    5.00
   3  -2 -10   25.90    2.00
  -3   2  10   21.10    1.90
   4  -1 -10   16.70    1.70
  -4   1  10   14.60    1.70
  -5   0  10   -2.30    1.10
  -6  -1  10    1.80    1.60
  -4  -8 -10   25.30    2.50
   4   8  10   22.20    3.90
  -3  -7 -10   42.40    2.80
   3   7  10   44.70    4.80
  -2  -6 -10  112.99    3.80
   2   6  10  109.79    5.20
  -1  -5 -10  288.37    6.30
   1   5  10  297.37    7.70
   0  -4 -10    3.40    1.10
   0   4  10    3.40    1.60
   1  -3 -10   59.59    2.60
  -1   3  10   62.19    3.00
   2  -2 -10  145.79    3.90
  -2   2  10  137.19    4.20
   3  -1 -10   -1.50    0.70
   3  -1 -10    1.90    0.80
  -3   1  10   -0.50    0.80
   4   0 -10    7.40    1.40
   4   0 -10    9.20    1.30
  -4   0  10    5.10    1.40
   5   1 -10   44.80    2.60
  -5  -1  10   37.00    2.90
  -6  -2  10    5.90    1.80
  -4  -7 -10    3.80    1.30
   4   7  10    3.80    2.60
  -3  -6 -10   42.00    2.50
   3   6  10   47.00    4.00
  -2  -5 -10    0.80    0.90
   2   5  10    1.80    1.70
  -1  -4 -10   24.80    1.80
   1   4  10   21.90    2.60
   0  -3 -10  182.48    4.30
   0   3  10  177.58    5.00
   1  -2 -10    1.20    0.80
  -1   2  10    2.40    1.10
   2  -1 -10   64.09    2.40
  -2   1  10   68.19    2.80
  -2   1  10   62.79    2.30
   3   0 -10    6.50    1.00
   3   0 -10    5.60    1.30
  -3   0  10    7.40    1.20
   4   1 -10   37.40    2.30
  -4  -1  10   34.30    2.30
   5   2 -10   17.60    2.00
  -5  -2  10   12.10    1.80
   6   3 -10    3.40    1.40
  -6  -3  10    0.40    1.30
  -5  -7 -10    3.40    1.30
   5   7  10    1.00    2.60
  -4  -6 -10   36.70    2.60
   4   6  10   32.50    3.70
  -3  -5 -10   61.39    2.80
   3   5  10   68.29    4.10
  -2  -4 -10    1.50    0.90
   2   4  10    0.60    1.40
  -1  -3 -10   76.69    2.80
   1   3  10   76.89    3.40
   0  -2 -10  141.19    3.60
   0   2  10  141.79    4.20
   1  -1 -10   87.29    2.60
  -1   1  10   80.99    3.00
  -1   1  10   88.79    2.50
   2   0 -10  113.69    3.60
   2   0 -10  108.69    2.90
  -2   0  10  109.89    3.00
   3   1 -10  106.49    3.60
  -3  -1  10  101.49    3.30
   4   2 -10   12.10    1.70
  -4  -2  10   13.40    1.80
   5   3 -10    1.00    1.10
  -5  -3  10    0.40    1.20
   6   4 -10    0.60    1.30
  -6  -4  10   -0.80    1.50
  -6  -7 -10    2.40    1.30
  -5  -6 -10    3.00    1.20
   5   6  10    4.00    2.80
  -4  -5 -10   17.70    1.90
   4   5  10   18.90    2.90
  -3  -4 -10    4.60    1.10
   3   4  10    1.00    1.70
  -2  -3 -10   35.90    2.00
   2   3  10   32.80    2.80
  -1  -2 -10  107.79    3.10
   1   2  10  105.99    3.70
   0  -1 -10   13.50    1.30
   0   1  10   13.20    1.50
   1   0 -10  255.17    4.80
   1   0 -10  256.97    5.60
  -1   0  10  254.97    4.50
   2   1 -10   11.10    1.50
   2   1 -10   12.20    1.10
  -2  -1  10   15.10    1.40
   3   2 -10    0.70    0.90
  -3  -2  10    1.10    1.00
   4   3 -10   10.50    1.80
  -4  -3  10   11.10    1.80
   5   4 -10    1.40    1.30
  -5  -4  10   -0.90    1.10
   6   5 -10    2.50    1.40
  -6  -5  10    0.90    1.50
  -6  -6 -10    9.10    1.90
   6   6  10    6.30    2.80
  -5  -5 -10   72.09    3.30
   5   5  10   71.99    4.90
  -4  -4 -10   92.99    3.50
   4   4  10   94.29    4.70
  -3  -3 -10   72.09    2.80
   3   3  10   73.59    3.50
  -2  -2 -10  244.68    5.20
   2   2  10  247.18    5.90
  -1  -1 -10   64.59    2.30
   1   1  10   66.69    2.80
   0   0 -10    8.30    1.00
   0   0 -10    7.30    1.20
   0   0  10    7.40    0.80
   1   1 -10   96.19    3.20
   1   1 -10   93.09    2.40
  -1  -1  10   97.89    2.60
   2   2 -10   21.10    1.80
  -2  -2  10   22.00    1.50
   3   3 -10   13.10    1.80
  -3  -3  10   15.60    1.80
   4   4 -10    6.30    1.60
  -4  -4  10    1.40    1.20
   5   5 -10    6.50    1.80
  -5  -5  10    5.60    1.60
  -6  -5 -10   15.00    2.00
   6   5  10   17.40    4.10
  -5  -4 -10   10.90    1.80
   5   4  10   11.00    2.50
  -4  -3 -10   23.40    2.00
   4   3  10   25.50    2.80
  -3  -2 -10   -0.10    0.80
   3   2  10    0.50    1.30
  -2  -1 -10    3.00    0.90
   2   1  10    4.40    1.20
  -1   0 -10   23.50    1.50
  -1   0 -10   23.80    1.20
   1   0  10   26.10    1.20
   1   0  10   24.10    1.70
   0   1 -10   80.09    3.00
   0   1 -10   82.19    2.40
   0  -1  10   83.19    2.30
   1   2 -10   26.50    1.90
  -1  -2  10   29.90    1.60
   2   3 -10   56.09    2.80
  -2  -3  10   60.39    2.50
   3   4 -10   89.59    3.70
  -3  -4  10   87.59    3.40
   4   5 -10   19.10    2.30
  -4  -5  10   15.90    2.10
   5   6 -10    2.70    1.50
  -5  -6  10   -0.10    1.40
  -6  -4 -10   58.69    3.40
  -5  -3 -10   44.20    2.70
   5   3  10   38.10    3.50
  -4  -2 -10   66.09    2.90
   4   2  10   66.89    3.40
  -3  -1 -10   48.50    2.40
   3   1  10   54.29    2.80
  -2   0 -10  104.59    2.70
  -2   0 -10  111.19    3.30
   2   0  10  110.79    3.50
  -1   1 -10   13.40    1.30
  -1   1 -10   14.90    1.20
  -1   1 -10   13.70    1.40
   1  -1  10   15.70    1.10
   0   2 -10   17.60    1.20
   0   2 -10   18.80    1.50
   0   2 -10   16.00    1.50
   0  -2  10   20.60    1.40
   1   3 -10    4.30    1.20
  -1  -3  10    4.10    1.00
   2   4 -10    4.00    1.30
  -2  -4  10    2.60    1.10
   3   5 -10    1.00    1.30
  -3  -5  10   -0.10    1.10
   4   6 -10    3.20    1.60
  -4  -6  10    2.70    1.40
  -6  -3 -10   18.80    2.30
  -5  -2 -10   42.80    2.70
  -4  -1 -10    3.80    1.20
   4   1  10    3.20    1.50
  -3   0 -10   53.39    2.50
   3   0  10   49.70    2.50
  -2   1 -10  362.66    6.70
  -2   1 -10  360.26    6.30
   2  -1  10  354.86    6.90
  -1   2 -10  132.39    3.30
  -1   2 -10  134.89    3.50
  -1   2 -10  124.49    3.70
   0   3 -10   59.89    2.40
   0   3 -10   57.29    2.60
   0  -3  10   53.39    2.30
   1   4 -10  163.58    4.70
  -1  -4  10  158.98    4.40
   2   5 -10   90.49    3.90
  -2  -5  10   88.99    3.40
   3   6 -10   18.70    2.40
  -3  -6  10   15.20    2.00
   4   7 -10   10.60    2.20
  -4  -7  10   14.40    2.20
  -6  -2 -10   -0.40    1.30
  -5  -1 -10   11.70    1.80
  -4   0 -10    1.20    1.10
  -3   1 -10    0.80    0.80
  -3   1 -10    1.30    1.10
  -2   2 -10   41.10    2.20
  -2   2 -10   39.10    2.10
  -2   2 -10   37.90    2.10
  -1   3 -10    3.30    1.00
  -1   3 -10    3.90    1.00
  -1   3 -10    4.80    1.10
   0   4 -10   12.90    1.60
   0   4 -10   11.80    1.50
   0  -4  10   11.20    1.40
   1   5 -10   64.29    3.10
   1   5 -10   67.39    3.00
  -1  -5  10   61.99    2.90
   2   6 -10   16.50    2.20
  -2  -6  10   13.40    1.80
   3   7 -10    1.40    1.40
  -3  -7  10   -1.10    1.10
  -6  -1 -10   47.80    3.20
  -5   0 -10   19.40    2.20
  -4   1 -10   65.29    2.90
  -4   1 -10   69.49    3.20
  -3   2 -10  155.88    4.30
  -3   2 -10  169.58    4.50
  -2   3 -10   56.69    2.70
  -2   3 -10   55.99    2.50
  -1   4 -10   26.20    1.80
  -1   4 -10   21.00    1.90
   0   5 -10   -0.30    0.90
   0   5 -10   -0.40    0.90
   0  -5  10   -0.20    0.80
   1   6 -10    1.60    1.20
   1   6 -10    2.40    1.30
  -1  -6  10    2.50    1.20
   2   7 -10   11.20    2.10
  -2  -7  10   12.00    2.00
  -6   0 -10    7.50    1.90
  -5   1 -10   14.60    2.00
  -5   1 -10   19.10    2.40
  -4   2 -10    4.00    1.30
  -4   2 -10    2.00    1.30
  -3   3 -10   -0.40    1.20
  -3   3 -10   -0.80    1.00
  -2   4 -10   14.90    1.70
  -1   5 -10   11.80    1.70
   0   6 -10    1.40    1.10
   0   6 -10    2.40    1.20
   0  -6  10    1.00    1.10
   1   7 -10   27.10    2.80
   1   7 -10   31.40    2.80
  -1  -7  10   29.10    2.80
   2   8 -10   47.10    3.50
  -5   2 -10   -0.10    1.20
  -5   2 -10   -0.90    1.40
  -4   3 -10   -0.90    1.30
  -4   3 -10    0.90    1.20
  -3   4 -10   33.20    2.60
  -2   5 -10   20.20    2.10
  -1   6 -10    8.00    1.80
   1  -6  10    8.50    1.60
   0   7 -10    2.90    1.40
   0  -7  10    5.60    1.50
  -4   4 -10   19.60    2.20
  -3   5 -10    6.20    1.70
  -2   6 -10    2.50    1.30
   1  -7 -11    0.30    1.10
   2  -6 -11   37.40    2.70
   3  -5 -11   40.50    2.80
   4  -4 -11    5.40    1.50
   5  -3 -11   14.20    2.00
  -1  -8 -11    1.50    1.40
   1   8  11   -1.30    2.50
   0  -7 -11    0.70    1.10
   0   7  11   -0.70    2.20
   1  -6 -11    4.50    1.40
  -1   6  11   -0.30    2.00
   2  -5 -11   14.20    1.90
   3  -4 -11    5.90    1.40
   4  -3 -11    2.60    1.30
   5  -2 -11    1.70    1.20
  -2  -8 -11   12.40    2.00
   2   8  11    9.30    3.40
  -1  -7 -11    8.80    1.60
   1   7  11    8.30    3.00
   0  -6 -11  162.28    4.90
   0   6  11  151.18    5.90
   1  -5 -11   93.39    3.60
  -1   5  11   95.79    4.30
   2  -4 -11   82.69    3.30
  -2   4  11   83.59    3.80
   3  -3 -11   86.69    3.50
   4  -2 -11    4.60    1.30
  -5   1  11    0.30    1.70
  -6   0  11   11.00    2.00
  -3  -8 -11    0.60    1.20
   3   8  11   -0.50    2.60
  -2  -7 -11    6.70    1.50
   2   7  11    5.90    2.90
  -1  -6 -11  119.19    4.10
   1   6  11  115.69    5.60
   0  -5 -11   44.20    2.60
   0   5  11   46.30    3.40
   1  -4 -11   16.80    1.80
  -1   4  11   15.10    2.10
   2  -3 -11    3.80    1.20
  -2   3  11    3.20    1.30
   3  -2 -11    6.80    1.30
  -3   2  11    6.40    1.50
   4  -1 -11   18.20    1.70
  -4   1  11   17.40    2.70
  -5   0  11    4.20    1.50
  -6  -1  11   14.80    2.30
  -4  -8 -11   15.50    2.10
  -3  -7 -11   12.90    1.90
   3   7  11   10.40    3.10
  -2  -6 -11   39.40    2.60
   2   6  11   40.00    4.20
  -1  -5 -11    0.50    1.10
   1   5  11    3.20    1.70
   0  -4 -11  400.16    7.70
   0   4  11  413.46    8.90
   1  -3 -11  198.38    4.80
  -1   3  11  187.78    5.40
   2  -2 -11   90.19    3.00
  -2   2  11   87.19    3.50
   3  -1 -11  111.39    3.30
  -3   1  11  119.79    4.00
   4   0 -11    0.70    1.00
  -4   0  11   -0.50    1.10
   5   1 -11    5.40    1.40
  -5  -1  11    4.40    1.60
  -6  -2  11   -1.50    1.30
  -4  -7 -11   -0.60    1.20
   4   7  11   -4.00    2.20
  -3  -6 -11   38.80    2.60
   3   6  11   44.30    4.10
  -2  -5 -11   10.40    1.50
   2   5  11    9.90    2.20
  -1  -4 -11  177.18    4.60
   1   4  11  184.88    5.70
   0  -3 -11  803.22   12.50
   0   3  11  818.22   13.70
   1  -2 -11   74.79    2.80
  -1   2  11   76.29    3.30
   2  -1 -11   66.19    2.60
  -2   1  11   58.89    2.80
   3   0 -11   71.99    3.10
   3   0 -11   77.89    2.60
  -3   0  11   77.99    2.90
   4   1 -11    8.50    1.50
  -4  -1  11    7.60    1.50
   5   2 -11    0.30    1.00
  -5  -2  11   -2.40    1.00
   6   3 -11   12.50    2.00
  -6  -3  11   13.10    2.10
  -5  -7 -11   16.40    2.10
   5   7  11   15.40    3.50
  -4  -6 -11   -0.30    1.00
   4   6  11   -3.00    2.10
  -3  -5 -11   18.50    1.90
   3   5  11   22.00    3.10
  -2  -4 -11   12.10    1.50
   2   4  11   11.70    2.10
  -1  -3 -11  106.39    3.40
   1   3  11  113.49    4.40
   0   2  11  323.17    7.10
   1  -1 -11  187.38    4.30
  -1   1  11  187.98    5.00
   2   0 -11   12.60    1.30
   2   0 -11   14.30    1.70
  -2   0  11   13.00    1.40
   3   1 -11  191.58    5.20
  -3  -1  11  197.68    4.80
   4   2 -11   10.10    1.60
  -4  -2  11    9.20    1.70
   5   3 -11    0.00    1.00
  -5  -3  11   -2.50    1.10
   6   4 -11   -0.10    1.30
  -6  -4  11   -3.00    1.40
  -5  -6 -11    7.20    1.50
   5   6  11    9.00    3.10
  -4  -5 -11   34.80    2.60
   4   5  11   37.90    3.70
  -3  -4 -11   96.09    3.50
   3   4  11  102.59    4.50
  -2  -3 -11  147.59    4.20
   2   3  11  149.19    4.90
  -1  -2 -11  478.65    8.30
   1   2  11  493.75    9.40
   0  -1 -11  869.61   12.60
   0   1  11  852.31   13.70
   1   0 -11  114.49    3.10
   1   0 -11  120.29    3.80
  -1   0  11  114.99    2.80
   2   1 -11  137.99    4.20
  -2  -1  11  142.09    3.60
   3   2 -11   76.89    3.40
  -3  -2  11   77.59    3.00
   4   3 -11   14.80    2.00
  -4  -3  11   12.10    1.80
   5   4 -11    1.60    1.30
  -5  -4  11    0.00    1.40
   6   5 -11    1.20    1.70
  -6  -6 -11    5.80    1.60
   6   6  11    3.70    3.00
  -5  -5 -11    9.50    1.80
   5   5  11    9.30    2.70
  -4  -4 -11    2.00    1.20
   4   4  11    0.60    1.70
  -3  -3 -11   15.40    1.70
   3   3  11   16.90    2.30
  -2  -2 -11  282.77    5.90
   2   2  11  292.47    6.80
  -1  -1 -11   -1.20    0.80
   1   1  11   -0.50    0.90
   0   0 -11   16.00    1.70
   0   0 -11   13.30    1.30
   1   1 -11   64.99    2.20
   1   1 -11   66.79    2.90
  -1  -1  11   67.59    2.30
   2   2 -11    0.80    0.90
  -2  -2  11    1.50    0.90
   3   3 -11    4.40    1.30
  -3  -3  11    3.70    1.20
   4   4 -11   17.10    2.30
  -4  -4  11   12.70    2.00
   5   5 -11    0.50    1.30
  -5  -5  11   -2.60    1.30
  -6  -5 -11   41.10    3.20
  -5  -4 -11   75.69    3.50
   5   4  11   69.09    4.40
  -4  -3 -11   42.20    2.50
   4   3  11   33.80    2.90
  -3  -2 -11   70.49    2.90
   3   2  11   66.99    3.30
  -2  -1 -11   70.49    2.70
   2   1  11   71.69    3.20
  -1   0 -11   47.30    2.10
   1   0  11   46.20    2.40
   0   1 -11   20.20    1.40
   0   1 -11   22.20    1.90
   0  -1  11   20.60    1.30
   1   2 -11    0.10    0.90
  -1  -2  11    0.30    0.70
   2   3 -11   52.79    2.80
  -2  -3  11   48.00    2.40
   3   4 -11   84.59    3.90
  -3  -4  11   82.39    3.50
   4   5 -11   17.10    2.30
  -4  -5  11   13.20    2.10
   5   6 -11    6.40    2.90
  -5  -6  11    2.40    2.60
  -6  -4 -11    2.70    1.60
  -5  -3 -11   16.20    2.00
  -4  -2 -11   -0.20    0.90
   4   2  11   -0.50    1.30
  -3  -1 -11   -0.30    0.80
   3   1  11    0.30    1.10
  -2   0 -11    3.70    1.00
   2   0  11    4.10    1.10
  -1   1 -11   77.89    2.40
  -1   1 -11   80.99    3.10
  -1   1 -11   75.49    2.60
   1  -1  11   74.79    2.40
   0   2 -11   49.00    2.50
   0   2 -11   49.90    2.20
   0   2 -11   48.70    2.00
   0  -2  11   52.29    2.20
   1   3 -11   24.00    2.10
  -1  -3  11   23.10    1.80
   2   4 -11   76.79    3.50
  -2  -4  11   83.89    3.30
   3   5 -11   17.50    2.30
  -3  -5  11   13.70    1.90
   4   6 -11    9.60    2.00
  -4  -6  11    7.40    1.70
  -6  -3 -11   25.40    2.60
  -5  -2 -11   37.30    2.70
  -4  -1 -11    8.30    1.50
  -3   0 -11   43.80    2.50
   3   0  11   39.10    2.40
  -2   1 -11  131.39    3.70
  -2   1 -11  129.69    3.40
   2  -1  11  138.69    4.00
  -1   2 -11   79.49    2.70
  -1   2 -11   82.49    3.10
  -1   2 -11   85.49    2.80
   1  -2  11   86.89    2.80
   0   3 -11    9.70    1.30
   0   3 -11   10.70    1.50
   0  -3  11   10.20    1.30
   1   4 -11   63.79    3.00
  -1  -4  11   61.39    2.80
   2   5 -11   61.19    3.40
  -2  -5  11   59.49    3.00
   3   6 -11    2.90    1.50
  -3  -6  11   -0.40    1.20
  -6  -2 -11   19.50    2.40
  -5  -1 -11   61.09    3.20
  -4   0 -11   33.50    2.40
  -3   1 -11   36.70    2.40
  -2   2 -11   46.80    2.40
  -2   2 -11   46.20    2.30
  -2   2 -11   47.20    2.40
  -1   3 -11   31.70    2.10
  -1   3 -11   31.80    2.10
   1  -3  11   30.00    2.00
   0   4 -11    2.40    1.10
   0   4 -11    4.50    1.20
   0  -4  11    4.30    1.20
   1   5 -11    0.50    1.10
  -1  -5  11   -0.60    1.00
   2   6 -11   19.00    2.30
  -2  -6  11   18.20    2.10
   3   7 -11    8.00    1.90
  -3  -7  11    6.30    1.70
  -6  -1 -11   -0.90    1.60
  -5   0 -11    2.50    1.40
  -4   1 -11    1.40    1.20
  -3   2 -11   19.90    1.90
  -3   2 -11   24.90    2.30
  -2   3 -11    3.20    1.00
  -2   3 -11    1.70    1.00
  -1   4 -11    4.70    1.20
  -1   4 -11    6.70    1.40
   1  -4  11    5.80    1.40
   0   5 -11    5.80    1.30
   0   5 -11    6.40    1.40
   0  -5  11    5.80    1.30
   1   6 -11    4.40    1.50
  -1  -6  11    3.30    1.40
   2   7 -11    1.10    1.30
  -2  -7  11    0.20    1.40
  -5   1 -11   71.09    3.60
  -4   2 -11   33.20    2.40
  -4   2 -11   29.20    2.70
  -3   3 -11   33.00    2.30
  -3   3 -11   34.40    2.50
  -2   4 -11   91.49    3.60
  -1   5 -11    9.60    1.70
   1  -5  11   10.00    1.60
   0   6 -11    6.70    1.70
   0  -6  11    7.60    1.60
   1   7 -11   21.90    2.70
  -1  -7  11   18.00    2.40
  -5   2 -11    1.30    1.60
  -4   3 -11   10.80    2.00
  -4   3 -11   15.80    2.00
  -3   4 -11    6.80    1.50
  -2   5 -11   13.50    1.90
  -1   6 -11    8.70    1.80
   1  -6  11    6.90    1.60
  -4   4 -11    8.60    1.70
  -3   5 -11   11.80    1.90
   2  -6 -12    3.40    1.40
   3  -5 -12   16.40    2.20
   4  -4 -12    2.70    1.40
   1   8  12   -2.30    2.80
   0  -7 -12    3.90    1.50
   0   7  12    0.30    2.60
   1  -6 -12   16.50    2.10
  -1   6  12   17.20    2.80
   2  -5 -12   11.70    1.80
   3  -4 -12   18.60    2.10
   4  -3 -12   17.30    2.10
   5  -2 -12    4.20    1.50
  -2  -8 -12   15.60    2.10
  -1  -7 -12    5.10    1.60
   1   7  12    2.10    2.50
   0  -6 -12   23.90    2.30
   0   6  12   23.80    3.20
   1  -5 -12   27.10    2.30
  -1   5  12   20.70    2.70
   2  -4 -12    0.60    1.00
  -2   4  12   -0.20    1.30
   3  -3 -12    4.30    1.40
   4  -2 -12    7.40    1.40
  -3  -8 -12   23.30    2.50
  -2  -7 -12   11.60    1.80
   2   7  12   13.30    3.10
  -1  -6 -12    9.60    1.70
   1   6  12   13.30    2.90
   0  -5 -12   19.70    2.10
   0   5  12   20.90    2.80
   1  -4 -12   42.20    2.50
  -1   4  12   41.50    3.00
   2  -3 -12    3.10    1.10
  -2   3  12    4.50    1.50
   3  -2 -12   31.60    2.10
  -3   2  12   31.20    2.30
   4  -1 -12   11.70    1.50
  -4   1  12   17.50    2.30
  -5   0  12    4.30    2.10
  -6  -1  12    1.30    1.60
  -3  -7 -12    2.40    1.40
   3   7  12    0.10    2.90
  -2  -6 -12    7.80    1.60
   2   6  12    5.80    2.70
  -1  -5 -12   18.90    1.90
   1   5  12   19.50    2.90
   0  -4 -12   33.10    2.20
   0   4  12   34.60    2.90
   1  -3 -12   63.49    2.80
  -1   3  12   69.79    3.60
   2  -2 -12   11.60    1.40
  -2   2  12   12.10    1.80
   3  -1 -12   19.70    1.70
  -3   1  12   17.20    1.80
   4   0 -12   16.90    2.10
  -4   0  12   15.00    2.70
   5   1 -12    2.30    1.20
  -5  -1  12    0.40    1.40
  -6  -2  12    4.20    1.80
  -4  -7 -12   14.20    2.10
   4   7  12   14.60    3.50
  -3  -6 -12    4.70    1.50
   3   6  12    2.20    2.60
  -2  -5 -12   -0.40    0.90
   2   5  12    1.80    1.80
  -1  -4 -12   -1.70    0.80
   1   4  12    1.40    1.40
   0  -3 -12   20.80    1.90
   0   3  12   23.30    2.50
   1  -2 -12  480.95    8.40
  -1   2  12  469.45    9.50
   2  -1 -12   55.79    2.30
  -2   1  12   54.79    2.90
   3   0 -12  197.78    5.40
   4   1 -12  198.28    5.60
  -4  -1  12  192.78    5.20
   5   2 -12    3.70    1.50
  -5  -2  12    2.50    1.50
   6   3 -12    1.40    1.20
  -6  -3  12    1.10    1.50
  -5  -7 -12    2.50    1.60
  -4  -6 -12    2.20    1.20
   4   6  12   -2.90    2.20
  -3  -5 -12   13.40    1.80
   3   5  12   12.70    2.80
  -2  -4 -12   12.60    1.60
   2   4  12   10.50    2.10
  -1  -3 -12   20.50    1.90
   1   3  12   22.50    2.40
   0  -2 -12  631.34   10.30
   0   2  12  627.64   11.40
   1  -1 -12  359.06    6.60
  -1   1  12  357.06    7.80
   2   0 -12   11.60    1.70
   2   0 -12   13.20    1.40
   3   1 -12   16.90    2.00
  -3  -1  12   11.70    1.60
   4   2 -12    1.30    1.10
  -4  -2  12    0.70    1.20
   5   3 -12    0.70    1.20
  -5  -3  12   -1.90    1.40
   6   4 -12    1.70    1.40
  -5  -6 -12   22.10    2.30
   5   6  12   20.70    3.80
  -4  -5 -12   35.70    2.50
   4   5  12   31.50    3.70
  -3  -4 -12    9.60    1.50
   3   4  12    9.50    2.20
  -2  -3 -12   -0.20    0.90
   2   3  12    0.30    1.40
  -1  -2 -12  124.49    3.70
   1   2  12  129.49    4.50
   0  -1 -12   64.29    2.70
   0   1  12   69.29    3.20
   1   0 -12  243.88    6.00
   1   0 -12  251.67    5.10
   2   1 -12  146.49    4.60
  -2  -1  12  148.29    3.80
   3   2 -12   32.30    2.60
  -3  -2  12   32.50    2.30
   4   3 -12   33.90    2.90
  -4  -3  12   31.90    2.60
   5   4 -12    1.70    1.30
  -5  -4  12   -0.80    1.30
  -5  -5 -12   12.30    2.00
   5   5  12    6.40    2.90
  -4  -4 -12    9.00    1.70
   4   4  12    2.50    1.90
  -3  -3 -12    4.80    1.30
   3   3  12    1.90    1.50
  -2  -2 -12   27.20    2.00
   2   2  12   27.60    2.40
  -1  -1 -12    0.10    1.00
   1   1  12    2.10    1.20
   0   0 -12  435.86    8.40
   0   0 -12  425.36    7.40
   0   0  12  416.16    8.30
   1   1 -12  333.87    6.00
   1   1 -12  333.27    7.20
  -1  -1  12  332.67    6.00
   2   2 -12    5.80    1.40
  -2  -2  12    5.50    1.20
   3   3 -12  110.89    4.30
  -3  -3  12  106.29    3.90
   4   4 -12   55.19    3.30
  -4  -4  12   53.79    3.30
   5   5 -12   -0.70    1.40
  -5  -5  12    0.00    1.40
  -5  -4 -12   21.30    2.30
   5   4  12   20.50    3.30
  -4  -3 -12    4.70    1.40
   4   3  12    4.30    1.80
  -3  -2 -12    1.80    1.00
   3   2  12   -0.40    1.30
  -2  -1 -12    9.60    1.40
   2   1  12    8.60    1.60
  -1   0 -12   10.60    1.30
   1   0  12   13.80    1.70
   0   1 -12  276.87    5.40
   0   1 -12  289.07    6.40
   0  -1  12  278.07    5.80
   1   2 -12    1.60    1.10
  -1  -2  12    1.90    0.90
   2   3 -12   14.50    2.00
  -2  -3  12   12.30    1.60
   3   4 -12    2.50    1.40
  -3  -4  12    1.10    1.20
   4   5 -12   12.10    2.20
  -4  -5  12    9.20    1.90
  -6  -4 -12   45.10    3.20
  -5  -3 -12   58.19    3.20
  -4  -2 -12   40.90    2.70
   4   2  12   39.00    2.90
  -3  -1 -12    0.50    0.90
   3   1  12    0.60    1.20
  -2   0 -12  105.49    3.40
   2   0  12  103.79    3.80
  -1   1 -12   66.49    3.00
  -1   1 -12   64.99    2.60
   0   2 -12   40.70    2.50
   0  -2  12   40.20    2.00
   1   3 -12  115.79    4.10
  -1  -3  12  116.89    3.60
   2   4 -12   64.59    3.40
  -2  -4  12   64.89    3.10
   3   5 -12   21.60    2.60
  -3  -5  12   22.20    2.40
   4   6 -12   10.60    2.40
  -4  -6  12    7.60    2.00
  -6  -3 -12    1.00    1.40
  -5  -2 -12   -0.60    1.30
  -4  -1 -12    2.20    1.20
  -3   0 -12    8.80    1.40
   3   0  12    6.80    1.50
  -2   1 -12   34.50    2.10
   2  -1  12   36.00    2.20
  -1   2 -12    1.20    0.90
  -1   2 -12    1.80    0.90
  -1   2 -12    1.90    0.90
   1  -2  12   -0.10    0.70
   0   3 -12   99.99    3.70
   0   3 -12  104.09    3.40
   0  -3  12  106.09    3.50
   1   4 -12    5.10    1.50
  -1  -4  12    3.60    1.20
   2   5 -12    0.80    1.30
  -2  -5  12    2.20    1.30
   3   6 -12   21.60    2.60
  -3  -6  12   21.40    2.40
  -5  -1 -12   20.90    2.30
  -4   0 -12   45.80    3.00
  -3   1 -12   59.39    3.00
  -2   2 -12   77.79    3.10
  -2   2 -12   74.39    2.90
   2  -2  12   80.19    3.10
  -1   3 -12   28.20    2.00
  -1   3 -12   22.30    1.90
   1  -3  12   19.40    1.90
   0   4 -12   25.60    2.00
   0   4 -12   27.30    2.30
   0  -4  12   24.30    2.00
   1   5 -12    0.10    1.00
  -1  -5  12    0.00    1.00
   2   6 -12    2.00    1.50
  -2  -6  12    3.00    1.40
  -5   0 -12   44.80    3.10
  -4   1 -12   61.09    3.20
  -3   2 -12   20.10    2.10
  -2   3 -12   56.69    2.80
  -1   4 -12   11.30    1.60
  -1   4 -12    8.30    1.50
   1  -4  12   11.40    1.70
   0   5 -12    4.60    1.30
   0   5 -12    7.60    1.60
   0  -5  12    4.50    1.30
   1   6 -12   28.80    2.70
  -1  -6  12   26.10    2.40
   2   7 -12   15.80    2.40
  -5   1 -12   22.80    2.50
  -4   2 -12   26.20    2.60
  -3   3 -12   14.60    1.80
  -3   3 -12   14.60    2.00
  -2   4 -12    9.60    1.70
  -1   5 -12    0.30    1.00
   1  -5  12   -1.00    0.90
   0   6 -12    1.00    1.30
   0  -6  12    0.90    1.10
   1   7 -12    0.70    1.30
  -4   3 -12   38.60    2.80
  -4   3 -12   35.90    2.90
  -3   4 -12   27.60    2.50
  -2   5 -12    9.70    1.70
  -1   6 -12   29.20    2.80
   1  -6  12   30.10    2.70
   0   7  13    4.50    3.00
   1  -6 -13   55.69    3.20
  -1   6  13   52.99    4.20
   2  -5 -13   18.60    2.20
   3  -4 -13   26.50    2.40
   4  -3 -13   42.10    3.00
  -1  -7 -13    2.60    1.40
   1   7  13   -1.00    2.70
   0  -6 -13   -0.30    1.00
   0   6  13   -1.20    1.80
   1  -5 -13    3.90    1.30
  -1   5  13    1.80    1.90
   2  -4 -13    1.50    1.20
  -2   4  13   -0.70    1.30
   3  -3 -13    3.40    1.20
   4  -2 -13    2.30    1.10
  -2  -7 -13   20.40    2.30
   2   7  13   21.40    4.00
  -1  -6 -13   45.50    2.80
   1   6  13   40.40    4.00
   0  -5 -13   61.19    3.10
   0   5  13   58.99    4.20
   1  -4 -13   46.80    2.70
  -1   4  13   40.30    3.10
   2  -3 -13    0.40    1.00
  -2   3  13    0.70    1.40
   3  -2 -13    0.20    0.90
  -3   2  13    0.30    1.10
  -4   1  13    2.30    1.10
  -3  -7 -13    8.40    1.70
   3   7  13    8.00    3.20
  -2  -6 -13    9.00    1.70
   2   6  13    9.60    2.80
  -1  -5 -13    2.60    1.30
   1   5  13    1.20    1.80
   0  -4 -13    2.00    1.10
   0   4  13    0.80    1.50
   1  -3 -13   30.70    2.30
  -1   3  13   27.20    2.80
   2  -2 -13    7.00    1.20
  -2   2  13    7.00    1.70
   3  -1 -13    3.30    1.00
  -3   1  13    3.70    1.20
   4   0 -13   67.69    3.40
   5   1 -13   23.00    2.40
  -5  -1  13   16.60    3.40
  -6  -2  13    0.90    1.60
  -4  -7 -13   17.40    2.60
  -3  -6 -13   13.40    1.90
   3   6  13   10.00    3.00
  -2  -5 -13    4.70    1.30
   2   5  13    3.70    2.00
  -1  -4 -13   44.70    2.70
   1   4  13   38.30    3.20
   0  -3 -13   12.90    1.60
   0   3  13   12.90    2.10
   1  -2 -13    3.10    1.00
  -1   2  13    4.60    1.40
   2  -1 -13   -0.40    0.70
  -2   1  13    0.80    1.00
   3   0 -13    0.30    1.10
   4   1 -13   14.20    2.00
   5   2 -13    1.90    1.20
  -5  -2  13   -2.10    1.20
  -4  -6 -13   19.60    2.40
   4   6  13   20.20    3.60
  -3  -5 -13   24.90    2.30
   3   5  13   22.00    3.20
  -2  -4 -13    2.00    1.10
   2   4  13   -0.30    1.50
  -1  -3 -13   23.40    1.90
   1   3  13   26.70    2.60
   0  -2 -13   15.80    1.60
   0   2  13   15.10    2.10
   1  -1 -13    4.90    1.10
  -1   1  13    4.90    1.30
   2   0 -13   65.49    2.60
   2   0 -13   63.29    3.20
   3   1 -13    1.10    1.10
   4   2 -13   25.80    2.60
  -4  -2  13   22.50    2.30
   5   3 -13   13.70    2.10
  -5  -3  13    8.90    2.00
   5   6  13   -3.90    2.80
  -4  -5 -13    0.30    1.10
   4   5  13   -0.70    2.10
  -3  -4 -13    1.70    1.10
   3   4  13   -0.30    1.70
  -2  -3 -13   12.60    1.60
   2   3  13   16.10    2.30
  -1  -2 -13   12.20    1.50
   1   2  13   14.90    2.00
   0  -1 -13    3.30    1.00
   0   1  13    2.40    1.20
   1   0 -13  252.37    6.30
   1   0 -13  254.07    5.20
   2   1 -13   12.20    1.80
   3   2 -13   10.10    1.80
  -3  -2  13    9.40    1.60
   4   3 -13   37.60    3.00
  -4  -3  13   28.30    2.80
   5   4 -13    2.10    1.40
  -5  -4  13   -1.10    1.30
  -5  -5 -13   36.40    3.10
   5   5  13   27.60    4.00
  -4  -4 -13   36.00    2.60
   4   4  13   33.30    3.50
  -3  -3 -13   38.90    2.60
   3   3  13   35.40    3.00
   2   2  13    7.60    1.70
  -1  -1 -13    6.80    1.20
   1   1  13    7.70    1.60
   0   0 -13    4.40    1.00
   0   0  13    5.20    1.20
   1   1 -13   42.70    2.70
   2   2 -13   67.39    3.30
  -2  -2  13   65.49    2.80
   3   3 -13    6.30    1.60
  -3  -3  13    6.10    1.50
   4   4 -13   29.40    2.80
  -4  -4  13   24.60    2.60
  -5  -4 -13   16.00    2.20
   5   4  13   13.20    3.20
  -4  -3 -13    9.40    1.80
   4   3  13    9.30    2.30
  -3  -2 -13    8.40    1.50
   3   2  13    7.80    1.80
  -2  -1 -13   -0.50    0.90
   2   1  13   -1.30    0.90
  -1   0 -13   44.80    2.20
   1   0  13   47.10    2.70
   0   1 -13   -0.50    1.00
   0   1 -13   -0.30    0.70
   1   2 -13  303.27    7.10
  -1  -2  13  301.47    6.10
   2   3 -13  173.88    5.40
  -2  -3  13  177.58    4.90
   3   4 -13   31.20    3.00
  -3  -4  13   29.80    2.70
   4   5 -13   21.00    2.60
  -4  -5  13   16.30    2.30
  -5  -3 -13   28.30    2.60
  -4  -2 -13   27.70    2.50
   4   2  13   29.40    3.10
  -3  -1 -13   15.20    1.90
   3   1  13   16.20    2.10
  -2   0 -13   24.60    2.10
   2   0  13   25.80    2.30
  -1   1 -13    6.00    1.20
   1  -1  13    8.70    1.40
   0   2 -13   23.70    2.10
   0  -2  13   21.30    2.00
   1   3 -13  167.98    5.20
  -1  -3  13  177.98    4.70
   2   4 -13   41.10    3.00
  -2  -4  13   40.40    2.80
   3   5 -13    0.80    1.40
  -3  -5  13   -1.00    1.30
  -5  -2 -13   30.30    2.70
  -4  -1 -13   13.90    2.00
  -3   0 -13   20.10    2.00
   3   0  13   23.00    2.30
  -2   1 -13   23.50    1.90
   2  -1  13   30.20    2.30
  -1   2 -13   80.39    3.40
   0   3 -13    9.50    1.60
   0  -3  13    8.20    1.30
   1   4 -13  153.58    5.10
  -1  -4  13  160.48    4.70
   2   5 -13   81.09    4.10
  -2  -5  13   75.69    3.70
   3   6 -13   20.20    4.00
  -3  -6  13   16.80    2.30
  -5  -1 -13    4.00    1.70
  -4   0 -13    1.30    1.20
  -3   1 -13   24.40    2.20
  -2   2 -13    9.90    1.50
   2  -2  13   11.40    1.60
  -1   3 -13   10.20    1.70
  -1   3 -13    7.80    1.30
   1  -3  13    8.80    1.40
   0   4 -13   16.30    1.90
   0   4 -13   18.60    2.20
   0  -4  13   17.90    2.00
   1   5 -13   54.19    3.40
  -1  -5  13   46.60    2.90
   2   6 -13    5.40    1.70
  -2  -6  13    5.10    1.60
  -5   0 -13   46.70    3.20
  -4   1 -13   77.49    3.60
  -3   2 -13   50.99    3.00
  -2   3 -13   12.00    1.80
  -1   4 -13   21.70    2.20
   1  -4  13   18.00    2.00
   0   5 -13   -0.10    1.10
   0   5 -13    0.10    1.10
   0  -5  13    0.40    1.10
   1   6 -13   12.50    2.10
  -1  -6  13   12.50    2.10
  -4   2 -13   -2.90    1.40
  -2   4 -13    7.20    1.50
  -1   5 -13    5.50    1.50
   1  -5  13    5.10    1.50
   0   6 -13    3.70    1.50
   0  -6  13    4.30    1.50
  -4   3 -13    2.80    1.80
  -3   4 -13    6.20    1.60
  -2   5 -13    1.60    1.30
   2  -5  13    2.60    1.20
  -1   6  14   12.30    3.00
   2  -5 -14    0.70    1.30
   3  -4 -14    2.70    1.20
   4  -3 -14    7.60    1.70
   0  -6 -14    4.50    1.60
   0   6  14    3.70    2.40
   1  -5 -14    4.10    1.50
  -1   5  14    3.40    2.10
   2  -4 -14    5.10    1.40
  -2   4  14    5.70    2.10
   3  -3 -14    7.50    1.50
   4  -2 -14   13.80    1.90
  -1  -6 -14   15.80    2.10
   1   6  14   12.30    3.20
   0  -5 -14   18.40    2.10
   0   5  14   18.70    3.00
   1  -4 -14    1.80    1.10
  -1   4  14    0.40    1.60
   2  -3 -14    1.30    1.10
  -2   3  14    0.50    1.30
   3  -2 -14    2.80    1.10
  -3   2  14    3.90    1.60
  -4   1  14    5.30    1.50
  -2  -6 -14   49.00    3.00
   2   6  14   43.70    4.30
  -1  -5 -14   18.40    2.10
   1   5  14   25.60    3.30
   0  -4 -14    9.70    1.70
   0   4  14    8.20    2.10
   1  -3 -14   33.00    2.50
  -1   3  14   29.80    3.10
   2  -2 -14   20.30    1.90
  -2   2  14   21.50    2.60
  -3   1  14    2.30    1.20
   4   0 -14   22.00    2.50
   5   1 -14   12.50    2.10
  -3  -6 -14    6.00    1.70
   3   6  14   -0.50    2.70
  -2  -5 -14    4.80    1.40
   2   5  14    2.50    2.00
  -1  -4 -14    1.80    1.10
   1   4  14    1.20    1.80
   0  -3 -14   10.40    1.60
   0   3  14   11.90    2.10
   1  -2 -14   14.70    1.70
  -1   2  14   15.20    2.20
   2  -1 -14    4.70    1.20
  -2   1  14    2.90    1.40
   3   0 -14    9.90    1.90
   4   1 -14    0.90    1.30
   5   2 -14    3.90    1.60
  -4  -6 -14    2.60    1.70
   4   6  14    1.80    4.70
  -3  -5 -14   13.70    2.00
   3   5  14   12.40    3.00
  -2  -4 -14    4.30    1.30
   2   4  14    2.00    1.90
  -1  -3 -14   31.50    2.30
   1   3  14   28.40    2.90
   0  -2 -14   65.59    2.90
   0   2  14   60.29    3.50
   1  -1 -14    8.10    1.30
  -1   1  14   11.10    1.90
   2   0 -14   37.60    2.90
   3   1 -14    1.20    1.20
   4   2 -14    0.80    1.20
   5   3 -14   -0.10    1.30
  -5  -3  14   -2.50    1.20
  -4  -5 -14   24.40    2.50
   4   5  14   25.10    3.80
  -3  -4 -14   49.40    3.10
   3   4  14   34.70    3.50
  -2  -3 -14  119.69    4.20
   2   3  14  111.99    4.80
  -1  -2 -14   86.89    3.40
   1   2  14   87.89    4.20
   0  -1 -14   44.10    2.40
   0   1  14   42.60    2.90
   1   0 -14   31.20    2.60
   1   0 -14   34.90    2.00
  -1   0  14   33.20    2.40
   2   1 -14    1.90    1.20
   3   2 -14    0.90    1.20
   4   3 -14    3.00    1.50
  -4  -3  14    0.90    1.40
  -5  -4  14    5.80    1.80
   5   5  14    3.90    2.70
  -4  -4 -14    0.50    1.20
   4   4  14   -1.10    1.80
  -3  -3 -14   18.10    2.10
   3   3  14   16.80    2.60
  -2  -2 -14   38.10    2.50
   2   2  14   46.20    3.10
  -1  -1 -14    0.80    1.00
   1   1  14    0.90    1.30
   0   0 -14   26.90    1.80
   0   0  14   30.30    2.40
   1   1 -14    3.50    1.40
   2   2 -14   22.90    2.40
   3   3 -14   16.60    2.40
  -3  -3  14   12.10    1.70
   4   4 -14    9.50    2.00
  -4  -4  14    8.50    1.80
   5   4  14   10.90    3.00
  -4  -3 -14   26.60    2.50
   4   3  14   24.90    3.10
  -3  -2 -14   15.40    2.00
   3   2  14   18.00    2.60
  -2  -1 -14   25.00    2.20
   2   1  14   24.00    2.60
  -1   0 -14   12.40    1.60
   1   0  14   10.90    1.80
   0   1 -14    3.50    1.50
   1   2 -14   13.20    2.00
   2   3 -14    1.40    1.40
  -2  -3  14    3.80    1.20
   3   4 -14   33.10    3.10
  -3  -4  14   27.00    2.70
  -4  -5  14   -2.60    1.40
  -5  -3 -14    0.50    1.40
  -4  -2 -14   -1.70    1.00
   4   2  14    1.20    1.80
  -3  -1 -14    0.70    1.10
   3   1  14    0.20    1.30
  -2   0 -14    0.70    1.10
   2   0  14    0.00    1.20
  -1   1 -14   30.60    2.10
   1  -1  14   32.90    2.30
   0   2 -14    2.20    1.20
   1   3 -14    2.00    1.50
  -1  -3  14    6.10    1.30
   2   4 -14  104.69    4.60
  -2  -4  14  102.89    3.90
   3   5 -14   24.10    2.90
  -3  -5  14   16.90    2.30
  -5  -2 -14    1.40    1.40
  -4  -1 -14   11.00    1.90
  -3   0 -14   45.40    2.80
   3   0  14   46.30    3.00
  -2   1 -14   70.79    3.00
   2  -1  14   70.79    3.40
  -1   2 -14    4.60    1.40
   0   3 -14   23.50    2.50
   1   4 -14    2.80    1.40
  -1  -4  14    2.10    1.20
   2   5 -14   17.70    2.50
  -2  -5  14   14.50    2.10
  -5  -1 -14   24.30    3.10
  -4   0 -14   25.80    2.50
  -3   1 -14   11.10    1.70
   2  -2  14    1.90    1.00
  -1   3 -14    3.80    1.40
   0   4 -14    3.10    1.40
   0  -4  14    3.50    1.30
   1   5 -14   13.30    2.30
  -1  -5  14    8.70    1.70
  -2  -6  14   66.29    5.70
  -4   1 -14   16.30    2.20
  -3   2 -14   14.10    2.00
  -1   4 -14   11.30    1.70
   1  -4  14    9.90    1.50
   0   5 -14    0.60    1.20
   0   5 -14    0.60    1.20
   0  -5  14   -0.50    1.10
   1   6 -14    6.30    1.80
  -4   2 -14   10.30    2.00
  -1   5 -14   -1.10    1.00
   1  -5  14   -0.10    1.00
   0   6  15   19.00    3.40
   1  -5 -15   22.70    2.40
  -1   5  15   23.50    3.30
   2  -4 -15   11.10    1.80
  -2   4  15   13.40    2.60
   3  -3 -15    1.80    1.30
  -1  -6 -15   11.00    2.30
   1   6  15    5.20    2.90
   0  -5 -15    1.90    1.30
   0   5  15   -0.40    1.80
   1  -4 -15    1.50    1.10
  -1   4  15    0.50    1.80
   2  -3 -15    1.50    1.00
  -2   3  15    3.20    1.60
   3  -2 -15    1.60    1.00
  -3   2  15    0.00    1.30
  -4   1  15    7.70    1.70
  -2  -6 -15   13.60    2.30
   2   6  15   11.40    3.50
  -1  -5 -15   26.00    2.40
   1   5  15   26.80    3.40
   0  -4 -15    9.70    1.70
   0   4  15    8.40    2.20
   1  -3 -15    0.90    1.10
  -1   3  15    7.00    2.00
   2  -2 -15    1.80    1.00
  -2   2  15    1.20    1.50
  -3   1  15   19.40    2.40
   4   0 -15    7.20    1.90
   5   1 -15    0.90    1.30
  -2  -5 -15   30.10    2.80
   2   5  15   25.30    3.50
  -1  -4 -15   45.60    2.80
   1   4  15   47.60    3.80
   0  -3 -15   48.80    2.90
   0   3  15   46.70    3.50
   1  -2 -15    6.70    1.30
  -1   2  15   10.10    2.00
   2  -1 -15   21.00    2.00
  -2   1  15   20.30    2.50
   3   0 -15   29.70    2.70
   4   1 -15    6.20    1.70
   5   2 -15    7.50    2.80
  -3  -5 -15    5.10    1.50
   3   5  15    1.90    2.60
  -2  -4 -15    9.70    1.70
   2   4  15    6.60    2.50
  -1  -3 -15    7.80    1.60
   1   3  15    9.70    2.20
   0  -2 -15    1.30    1.10
   0   2  15    0.90    1.40
   1  -1 -15    6.80    1.20
  -1   1  15    7.80    1.70
   2   0 -15   -0.30    1.20
  -2   0  15    1.80    1.00
   3   1 -15    1.80    1.30
   4   2 -15    7.30    1.80
   4   5  15   18.30    3.70
  -3  -4 -15    5.80    1.50
   3   4  15    7.60    2.40
  -2  -3 -15  119.99    4.30
   2   3  15  106.99    5.00
  -1  -2 -15  115.39    4.00
   1   2  15  116.89    4.90
   0  -1 -15   50.59    2.70
   0   1  15   56.09    3.50
  -1   0  15   31.40    2.50
   2   1 -15   23.40    2.50
   3   2 -15    1.80    1.40
   4   3 -15    1.50    1.40
  -4  -4 -15   17.70    2.20
   4   4  15    8.30    2.60
  -3  -3 -15    6.50    1.50
   3   3  15    6.50    2.30
  -2  -2 -15    2.50    1.30
   2   2  15    3.10    1.70
  -1  -1 -15   52.09    2.80
   1   1  15   57.29    3.50
   0   0 -15   14.60    1.70
   0   0  15   15.30    2.10
   1   1 -15   -0.20    1.20
   2   2 -15   13.80    2.30
   3   3 -15   14.90    2.30
  -4  -4  15    4.70    1.80
   5   4  15   -1.30    2.30
  -4  -3 -15    5.00    1.70
   4   3  15    4.80    2.30
  -3  -2 -15    1.10    1.30
   3   2  15   -1.10    1.60
  -2  -1 -15   10.70    1.70
   2   1  15    9.70    1.90
  -1   0 -15   -0.50    0.80
   1   0  15    0.60    1.20
   0   1 -15   -1.30    1.10
   1   2 -15    4.80    1.60
   2   3 -15    5.00    1.70
   3   4 -15    3.00    1.70
  -3  -4  15    0.40    1.30
  -4  -2 -15    2.00    1.40
   4   2  15   -1.70    1.50
  -3  -1 -15    5.70    1.60
   3   1  15    7.70    2.00
  -2   0 -15   44.50    2.70
   2   0  15   49.10    3.20
   1  -1  15   75.19    3.60
   0   2 -15   13.50    2.10
   1   3 -15   32.30    2.80
   2   4 -15    3.90    1.80
  -2  -4  15    6.20    1.60
  -3  -5  15   -1.10    1.30
  -4  -1 -15    3.30    1.40
  -3   0 -15    1.00    1.40
   3   0  15    1.50    1.50
  -2   1 -15    0.00    1.10
   2  -1  15    2.60    1.30
  -1   2 -15    1.20    1.30
   0   3 -15   -0.30    1.10
   1   4 -15   37.30    3.00
  -1  -4  15   37.30    4.30
  -2  -5  15    0.90    1.40
  -4   0 -15    3.90    1.50
  -3   1 -15   25.80    2.40
  -1   3 -15   18.60    2.40
   0   4 -15    0.30    1.20
   1   5 -15    1.90    1.60
  -1  -5  15    0.50    1.30
  -4   1 -15    2.00    1.60
   0   5 -15    5.50    1.70
   0  -5  15    5.70    1.60
  -1   5  16    2.30    2.70
  -2   4  16   -3.20    1.70
   3  -3 -16    2.50    1.30
   0  -5 -16    6.80    1.90
   0   5  16   11.30    3.00
   1  -4 -16    3.80    1.50
  -1   4  16    1.70    2.00
   2  -3 -16   13.20    1.90
  -2   3  16   12.10    2.50
  -3   2  16    0.70    1.40
  -4   1  16    4.40    1.70
  -1  -5 -16   -0.70    1.10
   1   5  16   -2.30    1.80
   0  -4 -16    6.00    1.50
   0   4  16    5.10    2.20
   1  -3 -16   33.70    2.60
  -1   3  16   29.80    3.40
   2  -2 -16    6.40    1.50
  -2   2  16    5.70    1.80
  -3   1  16    8.10    1.80
  -4   0  16   42.20    3.00
  -2  -5 -16   23.30    2.90
   2   5  16   20.00    3.80
  -1  -4 -16   10.90    1.80
   1   4  16    7.80    2.40
   0  -3 -16   34.50    2.50
   0   3  16   29.60    3.30
   1  -2 -16    9.10    1.60
  -1   2  16    9.30    2.10
  -2   1  16   16.20    2.40
  -3   0  16   38.50    3.00
   4   1 -16   -0.50    1.30
  -2  -4 -16   17.80    2.20
   2   4  16   19.60    3.10
  -1  -3 -16   87.09    3.70
   1   3  16   89.09    4.70
   0  -2 -16   48.80    2.70
   0   2  16   44.70    3.50
   1  -1 -16   16.60    1.80
  -1   1  16   14.50    2.30
  -2   0  16    7.70    1.70
   3   1 -16   -0.20    1.30
  -3  -4 -16   11.30    2.00
   3   4  16   10.00    2.90
  -2  -3 -16    5.40    1.60
   2   3  16    6.50    2.20
  -1  -2 -16    6.40    1.60
   1   2  16    3.50    1.80
   0  -1 -16    0.10    1.10
   0   1  16    0.10    1.30
  -1   0  16   16.00    2.30
   2   1 -16    1.20    1.40
   3   2 -16   -1.30    1.30
   4   4  16    6.80    3.00
  -3  -3 -16   23.30    2.50
   3   3  16   28.90    3.60
  -2  -2 -16   11.60    1.80
   2   2  16    9.80    2.40
  -1  -1 -16   64.79    3.20
   1   1  16   65.89    3.80
   0   0  16   40.10    3.00
   1   1 -16    6.50    1.90
   2   2 -16    1.50    1.40
   4   3  16    4.20    2.20
  -3  -2 -16    2.40    1.40
   3   2  16    1.40    1.90
  -2  -1 -16    6.70    1.50
   2   1  16    6.40    1.90
  -1   0 -16   22.40    2.10
   1   0  16   28.40    2.70
   0  -1  16   34.20    2.80
   1   2 -16   -0.30    1.40
   2   3 -16   10.80    2.20
  -3  -1 -16   -1.50    1.20
   3   1  16    0.70    1.50
  -2   0 -16    1.20    1.20
   2   0  16    1.10    1.30
   1  -1  16   13.30    2.10
   0   2 -16    2.40    1.50
   1   3 -16   13.00    2.30
  -3   0 -16   16.80    2.10
   2  -1  16   27.50    2.70
   1  -2  16   39.10    2.60
   0   3 -16   51.49    3.50
   1   4 -16   -1.90    1.40
  -3   1 -16    1.10    1.50
  -1   3 -16    1.50    1.50
   0   4 -16   -1.30    1.30
   2  -3 -17   16.50    2.10
   0  -4 -17    3.10    1.50
   1  -3 -17    2.40    1.30
  -1   3  17    1.50    2.00
  -2   2  17   -0.10    1.40
  -1  -4 -17    0.10    1.40
   0  -3 -17    1.60    1.20
   0   3  17    1.60    2.00
   1  -2 -17    3.10    1.30
  -1   2  17    5.10    2.00
  -2   1  17   38.90    3.30
  -1  -3 -17   73.89    3.80
   1   3  17   62.79    4.40
   0  -2 -17   15.20    1.90
   0   2  17   16.60    2.60
  -1   1  17    4.60    1.70
  -2   0  17    9.10    2.00
  -2  -3 -17   64.89    3.70
   2   3  17   67.89    4.80
  -1  -2 -17   12.00    1.80
   1   2  17   10.10    2.40
   0  -1 -17   45.30    2.80
   0   1  17   43.00    3.40
  -1   0  17    4.90    1.70
   2   1 -17    3.20    1.60
   3   3  17    0.30    2.20
  -2  -2 -17   -0.80    1.10
   2   2  17   -1.10    1.60
  -1  -1 -17    9.30    1.70
   1   1  17    8.60    2.10
   0   0  17    3.70    1.50
   1   1 -17   -0.10    1.40
  -1  -1  17    3.50    1.30
   2   2 -17    0.60    1.60
  -3  -2 -17    1.90    1.40
   3   2  17    3.70    2.00
  -2  -1 -17   33.90    2.90
   2   1  17   28.40    3.00
   1   0  17   18.00    2.50
   0  -1  17   36.60    2.90
   1   2 -17   20.00    2.70
  -3  -1 -17    8.60    1.90
   3   1  17   10.50    2.50
  -2   0 -17   20.50    2.40
   2   0  17   24.80    3.00
   1  -1  17   14.40    2.30
   0   2 -17   21.70    2.80
  -3   0 -17   11.80    2.00
   2  -1  17   14.40    2.30
   1  -2  17   22.70    2.30
   0   3 -17   39.00    3.40
   0  -3 -18   21.90    2.40
   1  -2 -18    0.70    1.10
  -1  -3 -18   12.60    2.30
   0  -2 -18    0.50    1.20
  -1  -2 -18   41.40    3.10
   0   1  18   43.30    4.50
  -2  -2 -18    6.50    1.70
  -1  -1 -18   48.40    3.00
   1   1  18   42.90    3.70
   0   0  18    0.70    1.50
  -2  -1 -18    1.30    1.40
   2   1  18    0.20    2.10
   1   0  18    0.10    1.40
   2   0  18   23.00    3.00
   1  -1  18   37.80    3.60
   0   0   0    0.00    0.00

_computing_structure_solution     'SHELXT 2014/5 (Sheldrick, 2014)'
;
_shelx_hkl_checksum              38461
_olex2_submission_special_instructions 'No special instructions were received'
loop_
_space_group_symop_operation_xyz
'x, y, z'
'-x, -y, -z'
loop_
_atom_site_label
_atom_site_type_symbol
_atom_site_fract_x
_atom_site_fract_y
_atom_site_fract_z
_atom_site_U_iso_or_equiv
_atom_site_adp_type
_atom_site_occupancy
_atom_site_site_symmetry_order
_atom_site_calc_flag
_atom_site_refinement_flags_posn
S1 S 0.28936(7) 0.19851(5) 0.16111(3) 0.04184(19) Uani 1 1 d .
O1 O 0.1192(2) 0.11766(17) 0.17615(10) 0.0578(4) Uani 1 1 d .
O2 O 0.4607(2) 0.12600(18) 0.09700(9) 0.0591(4) Uani 1 1 d .
N1 N 0.2905(3) 0.2423(2) 0.33855(10) 0.0440(4) Uani 1 1 d .
C1 C 0.4235(3) 0.1939(2) 0.26967(12) 0.0382(4) Uani 1 1 d .
C2 C 0.3855(3) 0.2472(2) 0.42194(12) 0.0423(4) Uani 1 1 d .
C3 C 0.6169(3) 0.2001(3) 0.43414(13) 0.0464(5) Uani 1 1 d .
C4 C 0.7487(3) 0.1514(3) 0.35676(15) 0.0594(5) Uani 1 1 d .
H4 H 0.901186 0.122214 0.362063 0.071 Uiso 1 1 calc R
C5 C 0.6543(3) 0.1467(3) 0.27368(13) 0.0511(5) Uani 1 1 d .
H5 H 0.739557 0.113575 0.221821 0.061 Uiso 1 1 calc R
C6 C 0.6992(4) 0.2118(3) 0.52307(15) 0.0607(6) Uani 1 1 d .
H6 H 0.851190 0.178410 0.532283 0.073 Uiso 1 1 calc R
C7 C 0.5653(4) 0.2695(3) 0.59511(14) 0.0598(6) Uani 1 1 d .
C8 C 0.3345(5) 0.3164(3) 0.58096(15) 0.0686(6) Uani 1 1 d .
H8 H 0.240301 0.356122 0.629558 0.082 Uiso 1 1 calc R
C9 C 0.2478(4) 0.3044(3) 0.49761(15) 0.0644(6) Uani 1 1 d .
H9 H 0.095600 0.334416 0.490388 0.077 Uiso 1 1 calc R
C10 C 0.6547(6) 0.2890(3) 0.68798(16) 0.0840(8) Uani 1 1 d .
H10A H 0.622337 0.205780 0.733552 0.126 Uiso 1 1 calc GR
H10B H 0.586794 0.410842 0.704667 0.126 Uiso 1 1 calc GR
H10C H 0.811675 0.262894 0.684771 0.126 Uiso 1 1 calc GR
C11 C 0.1643(3) 0.4325(2) 0.13020(10) 0.0354(4) Uani 1 1 d .
C12 C 0.2914(3) 0.5312(2) 0.09241(12) 0.0472(4) Uani 1 1 d .
H12 H 0.440984 0.475296 0.082292 0.057 Uiso 1 1 calc R
C13 C 0.1918(4) 0.7166(3) 0.06957(14) 0.0543(5) Uani 1 1 d .
H13 H 0.275781 0.785929 0.045194 0.065 Uiso 1 1 calc R
C14 C -0.0284(4) 0.7963(3) 0.08290(13) 0.0548(5) Uani 1 1 d .
H14 H -0.094168 0.919530 0.066442 0.066 Uiso 1 1 calc R
C15 C -0.1535(4) 0.6975(3) 0.12006(16) 0.0604(6) Uani 1 1 d .
H15 H -0.303457 0.753905 0.129075 0.073 Uiso 1 1 calc R
C16 C -0.0583(3) 0.5131(2) 0.14454(14) 0.0507(5) Uani 1 1 d .
H16 H -0.142963 0.445330 0.170095 0.061 Uiso 1 1 calc R
loop_
_atom_site_aniso_label
_atom_site_aniso_U_11
_atom_site_aniso_U_22
_atom_site_aniso_U_33
_atom_site_aniso_U_23
_atom_site_aniso_U_13
_atom_site_aniso_U_12
S1 0.0471(3) 0.0301(3) 0.0435(3) -0.00586(17) -0.0039(2) -0.0052(2)
O1 0.0683(10) 0.0404(7) 0.0706(9) 0.0010(6) -0.0157(7) -0.0265(7)
O2 0.0616(9) 0.0495(8) 0.0503(8) -0.0145(6) 0.0015(7) 0.0061(7)
N1 0.0416(9) 0.0428(8) 0.0459(8) -0.0066(6) 0.0005(7) -0.0106(7)
C1 0.0410(10) 0.0288(8) 0.0418(9) 0.0005(6) -0.0006(7) -0.0080(7)
C2 0.0465(10) 0.0363(9) 0.0446(10) -0.0016(7) 0.0003(8) -0.0144(8)
C3 0.0488(11) 0.0428(10) 0.0473(10) 0.0051(8) -0.0069(8) -0.0164(8)
C4 0.0377(11) 0.0744(14) 0.0598(12) -0.0010(10) -0.0046(9) -0.0107(10)
C5 0.0403(10) 0.0600(12) 0.0481(10) -0.0020(9) 0.0041(8) -0.0103(9)
C6 0.0636(14) 0.0597(13) 0.0587(13) 0.0087(10) -0.0184(11) -0.0228(11)
C7 0.0943(18) 0.0442(11) 0.0458(11) 0.0061(8) -0.0115(11) -0.0313(12)
C8 0.0888(18) 0.0724(15) 0.0483(11) -0.0150(10) 0.0104(11) -0.0291(14)
C9 0.0600(14) 0.0795(15) 0.0567(12) -0.0182(11) 0.0093(10) -0.0240(12)
C10 0.132(2) 0.0707(16) 0.0534(13) -0.0004(11) -0.0236(15) -0.0396(17)
C11 0.0408(9) 0.0302(8) 0.0319(8) -0.0038(6) -0.0017(6) -0.0065(7)
C12 0.0474(11) 0.0456(10) 0.0449(10) -0.0006(8) 0.0063(8) -0.0111(9)
C13 0.0705(14) 0.0449(10) 0.0500(11) 0.0044(8) 0.0030(9) -0.0242(10)
C14 0.0729(14) 0.0332(9) 0.0484(10) -0.0002(8) -0.0070(10) -0.0041(9)
C15 0.0457(12) 0.0454(11) 0.0766(15) -0.0034(10) -0.0015(10) 0.0034(9)
C16 0.0406(10) 0.0409(10) 0.0668(12) -0.0006(8) 0.0024(9) -0.0092(8)
loop_
_atom_type_symbol
_atom_type_description
_atom_type_scat_dispersion_real
_atom_type_scat_dispersion_imag
_atom_type_scat_source
C C 0.0030 0.0020 'International Tables Vol C Tables 4.2.6.8 and 6.1.1.4'
H H 0.0000 0.0000 'International Tables Vol C Tables 4.2.6.8 and 6.1.1.4'
N N 0.0060 0.0030 'International Tables Vol C Tables 4.2.6.8 and 6.1.1.4'
O O 0.0110 0.0060 'International Tables Vol C Tables 4.2.6.8 and 6.1.1.4'
S S 0.1250 0.1230 'International Tables Vol C Tables 4.2.6.8 and 6.1.1.4'
loop_
_geom_angle_atom_site_label_1
_geom_angle_atom_site_label_2
_geom_angle_atom_site_label_3
_geom_angle
O1 S1 C1 108.76(8)
O1 S1 C11 108.66(8)
O2 S1 O1 119.60(9)
O2 S1 C1 106.70(9)
O2 S1 C11 108.71(8)
C11 S1 C1 103.18(7)
C1 N1 C2 116.92(16)
N1 C1 S1 115.00(13)
N1 C1 C5 125.74(17)
C5 C1 S1 119.23(14)
N1 C2 C3 122.13(17)
N1 C2 C9 118.92(18)
C9 C2 C3 118.94(18)
C2 C3 C6 117.85(19)
C4 C3 C2 117.62(17)
C4 C3 C6 124.49(19)
C5 C4 C3 120.31(18)
C4 C5 C1 117.28(18)
C7 C6 C3 122.8(2)
C6 C7 C8 118.19(19)
C6 C7 C10 122.2(2)
C8 C7 C10 119.6(2)
C9 C8 C7 121.3(2)
C8 C9 C2 120.9(2)
C12 C11 S1 119.17(13)
C12 C11 C16 121.27(16)
C16 C11 S1 119.56(13)
C11 C12 C13 118.73(18)
C14 C13 C12 120.13(18)
C13 C14 C15 120.79(18)
C14 C15 C16 120.37(19)
C11 C16 C15 118.70(18)
loop_
_geom_bond_atom_site_label_1
_geom_bond_atom_site_label_2
_geom_bond_distance
S1 O1 1.4345(14)
S1 O2 1.4334(14)
S1 C1 1.7964(18)
S1 C11 1.7649(16)
N1 C1 1.306(2)
N1 C2 1.370(2)
C1 C5 1.403(3)
C2 C3 1.415(3)
C2 C9 1.411(3)
C3 C4 1.401(3)
C3 C6 1.422(3)
C4 C5 1.364(3)
C6 C7 1.357(3)
C7 C8 1.415(4)
C7 C10 1.509(3)
C8 C9 1.360(3)
C11 C12 1.376(2)
C11 C16 1.380(2)
C12 C13 1.395(3)
C13 C14 1.362(3)
C14 C15 1.363(3)
C15 C16 1.388(3)
loop_
_geom_torsion_atom_site_label_1
_geom_torsion_atom_site_label_2
_geom_torsion_atom_site_label_3
_geom_torsion_atom_site_label_4
_geom_torsion
S1 C1 C5 C4 177.65(15)
S1 C11 C12 C13 -179.00(14)
S1 C11 C16 C15 179.78(15)
O1 S1 C1 N1 -44.51(15)
O1 S1 C1 C5 137.67(15)
O1 S1 C11 C12 -165.48(13)
O1 S1 C11 C16 14.70(17)
O2 S1 C1 N1 -174.79(12)
O2 S1 C1 C5 7.39(18)
O2 S1 C11 C12 -33.81(16)
O2 S1 C11 C16 146.37(15)
N1 C1 C5 C4 0.1(3)
N1 C2 C3 C4 1.5(3)
N1 C2 C3 C6 179.21(15)
N1 C2 C9 C8 -178.09(19)
C1 S1 C11 C12 79.20(15)
C1 S1 C11 C16 -100.62(16)
C1 N1 C2 C3 -0.8(3)
C1 N1 C2 C9 177.93(16)
C2 N1 C1 S1 -177.67(12)
C2 N1 C1 C5 0.0(3)
C2 C3 C4 C5 -1.4(3)
C2 C3 C6 C7 -1.5(3)
C3 C2 C9 C8 0.7(3)
C3 C4 C5 C1 0.6(3)
C3 C6 C7 C8 1.3(3)
C3 C6 C7 C10 -177.23(18)
C4 C3 C6 C7 176.08(19)
C6 C3 C4 C5 -178.95(18)
C6 C7 C8 C9 0.0(3)
C7 C8 C9 C2 -0.9(4)
C9 C2 C3 C4 -177.25(18)
C9 C2 C3 C6 0.5(3)
C10 C7 C8 C9 178.5(2)
C11 S1 C1 N1 70.74(14)
C11 S1 C1 C5 -107.08(15)
C11 C12 C13 C14 -1.4(3)
C12 C11 C16 C15 0.0(3)
C12 C13 C14 C15 1.2(3)
C13 C14 C15 C16 -0.4(3)
C14 C15 C16 C11 -0.2(3)
C16 C11 C12 C13 0.8(3)
