#------------------------------------------------------------------------------
#$Date: 2021-09-06 15:31:39 +0300 (Mon, 06 Sep 2021) $
#$Revision: 268947 $
#$URL: file:///home/coder/svn-repositories/cod/cif/7/15/81/7158183.cif $
#------------------------------------------------------------------------------
#
# This file is available in the Crystallography Open Database (COD),
# http://www.crystallography.net/
#
# All data on this site have been placed in the public domain by the
# contributors.
#
data_7158183
loop_
_publ_author_name
'Abeysekera, Amila M.'
'Averkiev, Boris B.'
'Le Magueres, Pierre'
'Aaker\"oy, Christer B'
_publ_section_title
;
 Intermolecular binding preferences of haloethynyl halogen-bond donors as
 a function of molecular electrostatic potentials in a family of
 <i>N</i>-(pyridin-2-yl)amides.
;
_journal_issue                   30
_journal_name_full               'Organic &amp; biomolecular chemistry'
_journal_page_first              6671
_journal_page_last               6681
_journal_paper_doi               10.1039/d1ob01133b
_journal_volume                  19
_journal_year                    2021
_chemical_formula_moiety         'C13 H8 Br N3 O'
_chemical_formula_sum            'C13 H8 Br N3 O'
_chemical_formula_weight         302.13
_space_group_crystal_system      triclinic
_space_group_IT_number           2
_space_group_name_Hall           '-P 1'
_space_group_name_H-M_alt        'P -1'
_atom_sites_solution_hydrogens   geom
_atom_sites_solution_primary     dual
_audit_creation_date             2021-04-26
_audit_creation_method
;
Olex2 1.3-ac4
(compiled 2020.11.27 svn.r5f609507 for Rigaku Oxford Diffraction, GUI svn.r6214)
;
_audit_update_record
;
2021-06-10 deposited with the CCDC.	2021-07-12 downloaded from the CCDC.
;
_cell_angle_alpha                112.512(2)
_cell_angle_beta                 93.859(2)
_cell_angle_gamma                97.720(2)
_cell_formula_units_Z            2
_cell_length_a                   6.75090(10)
_cell_length_b                   9.2249(2)
_cell_length_c                   10.2422(2)
_cell_measurement_reflns_used    7400
_cell_measurement_temperature    99.99(10)
_cell_measurement_theta_max      74.3840
_cell_measurement_theta_min      4.7130
_cell_volume                     578.97(2)
_computing_cell_refinement       'CrysAlisPro 1.171.41.76a (Rigaku OD, 2020)'
_computing_data_collection       'CrysAlisPro 1.171.41.76a (Rigaku OD, 2020)'
_computing_data_reduction        'CrysAlisPro 1.171.41.76a (Rigaku OD, 2020)'
_computing_molecular_graphics    'Olex2 1.3-ac4 (Dolomanov et al., 2009)'
_computing_publication_material  'Olex2 1.3-ac4 (Dolomanov et al., 2009)'
_computing_structure_refinement  'SHELXL 2018/3 (Sheldrick, 2015)'
_computing_structure_solution    'SHELXT 2018/2 (Sheldrick, 2018)'
_diffrn_ambient_environment      N~2~
_diffrn_ambient_temperature      99.99(10)
_diffrn_detector                 'Hybrid Pixel Array Detector'
_diffrn_detector_area_resol_mean 10.0000
_diffrn_detector_type            HyPix
_diffrn_measured_fraction_theta_full 0.999
_diffrn_measured_fraction_theta_max 0.951
_diffrn_measurement_details
;
List of Runs (angles in degrees, time in seconds):

  # Type    Start    End  Width  t~exp~   \w     \q     \k     \f   Frames
#--------------------------------------------------------------------------
  1  \w    -61.00  15.00   0.50    0.05    --  -45.89  57.00-120.00  152
  2  \w     33.00 118.00   0.50    0.05    --   45.89  46.00 -39.00  170
  3  \w     33.00  64.00   0.50    0.05    --   45.89  31.00  99.80   62
  4  \w    -28.00  30.00   0.50    0.05    --  -45.89  19.00  30.00  116
  5  \w    -28.00  30.00   0.50    0.05    --  -45.89  19.00   0.00  116
  6  \w    -28.00  30.00   0.50    0.05    --  -45.89  19.00 -90.00  116
  7  \w     33.00 121.00   0.50    0.05    --   45.89  19.00  90.00  176
  8  \w    -28.00  30.00   0.50    0.05    --  -45.89  19.00 150.00  116
  9  \w    -64.00 -33.00   0.50    0.05    --  -45.89 -31.00  49.50   62
 10  \w   -118.00 -33.00   0.50    0.05    --  -45.89 -46.00 171.00  170
 11  \w   -108.00 -19.00   0.50    0.20    --  -91.75  77.00   0.00  178
 12  \w    -54.00 -19.00   0.50    0.20    --  -91.75  46.00 -39.00   70
 13  \w    -64.00 -33.00   0.50    0.05    --  -45.89 -31.00-172.18   62
 14  \w     29.00  69.00   0.50    0.20    --  101.80 -61.00-180.00   80
 15  \w     29.00  69.00   0.50    0.20    --  101.80 -61.00  30.00   80
 16  \w     29.00  69.00   0.50    0.20    --  101.80 -61.00  60.00   80
 17  \w     29.00 104.00   0.50    0.20    --  101.80 -77.00 150.00  150
 18  \w     29.00  69.00   0.50    0.20    --  101.80 -61.00 -30.00   80
 19  \w     29.00 104.00   0.50    0.20    --  101.80 -94.00 -60.00  150
 20  \w     36.00 108.00   0.50    0.20    --  101.80-125.00-180.00  144
 21  \w     36.00 108.00   0.50    0.20    --  101.80-125.00 -90.00  144
 22  \w     29.00 104.00   0.50    0.20    --  101.80 -94.00-180.00  150
 23  \w     36.00 108.00   0.50    0.20    --  101.80-125.00 -60.00  144
 24  \w     29.00 104.00   0.50    0.20    --  101.80 -94.00   0.00  150
 25  \w     29.00 104.00   0.50    0.20    --  101.80 -94.00  60.00  150
 26  \w     36.00 108.00   0.50    0.20    --  101.80-125.00 150.00  144
 27  \w   -166.00 -79.00   0.50    0.20    --  -91.75 -29.00-133.85  174
 28  \w   -163.00-126.00   0.50    0.20    --  -91.75 -77.00-120.00   74
 29  \w   -163.00-126.00   0.50    0.20    --  -91.75 -77.00 -90.00   74
 30  \w   -163.00-126.00   0.50    0.20    --  -91.75 -77.00 -30.00   74
 31  \w   -163.00-127.00   0.50    0.20    --  -91.75 -61.00  30.00   72
 32  \w   -166.00 -88.00   0.50    0.20    --  -91.75 -30.00 150.00  156
 33  \w   -163.00-122.00   0.50    0.20    --  -91.75 -45.00   0.00   82
 34  \w   -163.00-122.00   0.50    0.20    --  -91.75 -45.00 -60.00   82
 35  \w   -163.00-122.00   0.50    0.20    --  -91.75 -45.00 -90.00   82
 36  \w   -163.00-121.00   0.50    0.20    --  -91.75 -94.00-180.00   84
;
_diffrn_measurement_device       'four-circle diffractometer'
_diffrn_measurement_device_type  'XtaLAB Synergy, Dualflex, HyPix'
_diffrn_measurement_method       '\w scans'
_diffrn_orient_matrix_type
'CrysAlisPro convention (1999,Acta A55,543-557)'
_diffrn_orient_matrix_UB_11      -0.0694677000
_diffrn_orient_matrix_UB_12      -0.1431762000
_diffrn_orient_matrix_UB_13      0.0382985000
_diffrn_orient_matrix_UB_21      0.2082596000
_diffrn_orient_matrix_UB_22      0.0283165000
_diffrn_orient_matrix_UB_23      0.0855826000
_diffrn_orient_matrix_UB_31      -0.0757834000
_diffrn_orient_matrix_UB_32      0.1113365000
_diffrn_orient_matrix_UB_33      0.1348078000
_diffrn_radiation_monochromator  mirror
_diffrn_radiation_probe          x-ray
_diffrn_radiation_type           'Cu K\a'
_diffrn_radiation_wavelength     1.54184
_diffrn_reflns_av_R_equivalents  0.0294
_diffrn_reflns_av_unetI/netI     0.0214
_diffrn_reflns_Laue_measured_fraction_full 0.999
_diffrn_reflns_Laue_measured_fraction_max 0.951
_diffrn_reflns_limit_h_max       8
_diffrn_reflns_limit_h_min       -8
_diffrn_reflns_limit_k_max       11
_diffrn_reflns_limit_k_min       -11
_diffrn_reflns_limit_l_max       12
_diffrn_reflns_limit_l_min       -9
_diffrn_reflns_number            8710
_diffrn_reflns_point_group_measured_fraction_full 0.999
_diffrn_reflns_point_group_measured_fraction_max 0.951
_diffrn_reflns_theta_full        67.684
_diffrn_reflns_theta_max         74.953
_diffrn_reflns_theta_min         4.713
_diffrn_source                   'micro-focus sealed X-ray tube'
_diffrn_source_type              'PhotonJet (Cu) X-ray Source'
_exptl_absorpt_coefficient_mu    4.766
_exptl_absorpt_correction_T_max  1.00000
_exptl_absorpt_correction_T_min  0.82297
_exptl_absorpt_correction_type   multi-scan
_exptl_absorpt_process_details
;
CrysAlisPro 1.171.41.76a (Rigaku Oxford Diffraction, 2020)
Empirical absorption correction using spherical harmonics,
implemented in SCALE3 ABSPACK scaling algorithm.
;
_exptl_crystal_colour            yellow
_exptl_crystal_colour_primary    yellow
_exptl_crystal_density_diffrn    1.733
_exptl_crystal_description       irregular
_exptl_crystal_F_000             300
_exptl_crystal_size_max          0.77
_exptl_crystal_size_mid          0.166
_exptl_crystal_size_min          0.06
_refine_diff_density_max         0.850
_refine_diff_density_min         -0.482
_refine_diff_density_rms         0.074
_refine_ls_extinction_method     none
_refine_ls_goodness_of_fit_ref   1.069
_refine_ls_hydrogen_treatment    constr
_refine_ls_matrix_type           full
_refine_ls_number_parameters     163
_refine_ls_number_reflns         2274
_refine_ls_number_restraints     0
_refine_ls_restrained_S_all      1.069
_refine_ls_R_factor_all          0.0246
_refine_ls_R_factor_gt           0.0244
_refine_ls_shift/su_max          0.002
_refine_ls_shift/su_mean         0.000
_refine_ls_structure_factor_coef Fsqd
_refine_ls_weighting_details
'w=1/[\s^2^(Fo^2^)+(0.0345P)^2^+0.5745P] where P=(Fo^2^+2Fc^2^)/3'
_refine_ls_weighting_scheme      calc
_refine_ls_wR_factor_gt          0.0646
_refine_ls_wR_factor_ref         0.0648
_reflns_Friedel_coverage         0.000
_reflns_number_gt                2241
_reflns_number_total             2274
_reflns_threshold_expression     'I > 2\s(I)'
_iucr_refine_instructions_details
;
TITL sample5_a.res in P-1
    sample5.res
    created by SHELXL-2018/3 at 11:18:33 on 03-Mar-2021
REM Old TITL Sample5 in P1
REM SHELXT solution in P-1: R1 0.075, Rweak 0.010, Alpha 0.076
REM <I/s> 0.000 for 0 systematic absences, Orientation as input
REM Formula found by SHELXT: C3 C8 O Br
CELL 1.54184 6.7509 9.2249 10.2422 112.512 93.859 97.72
ZERR 2 0.0001 0.0002 0.0002 0.002 0.002 0.002
LATT 1
SFAC C H Br N O
UNIT 26 16 2 6 2

L.S. 4
PLAN  5
CONF
MORE -1
BOND $H
fmap 2
acta
REM <olex2.extras>
REM <HklSrc "%.\\Sample5.hkl">
REM </olex2.extras>

WGHT    0.034500    0.574500
FVAR       0.61075
BR9   3    1.104512    0.221002    0.993772    11.00000    0.01448    0.02597 =
         0.02039    0.01176   -0.00297    0.00170
O12   5   -0.095158    0.472736    0.629149    11.00000    0.01931    0.01683 =
         0.01894    0.00340   -0.00342    0.00386
N2    4    0.250910    0.116127    0.609091    11.00000    0.01560    0.01540 =
         0.01996    0.00743   -0.00370    0.00038
N10   4   -0.004683    0.224933    0.546861    11.00000    0.01571    0.01271 =
         0.01694    0.00416   -0.00654   -0.00012
AFIX  43
H10   2   -0.049974    0.128093    0.488995    11.00000   -1.20000
AFIX   0
N16   4   -0.556817    0.185235    0.171336    11.00000    0.01576    0.02055 =
         0.01986    0.00830   -0.00393    0.00187
C13   1   -0.270521    0.275454    0.410810    11.00000    0.01439    0.01320 =
         0.01709    0.00771   -0.00246    0.00022
C5    1    0.454484    0.408999    0.808361    11.00000    0.01710    0.01799 =
         0.01377    0.00656   -0.00338   -0.00307
AFIX  43
H5    2    0.522056    0.506772    0.875208    11.00000   -1.20000
AFIX   0
C4    1    0.540992    0.272059    0.780561    11.00000    0.01375    0.02131 =
         0.01710    0.01069   -0.00237   -0.00088
C11   1   -0.116271    0.336176    0.540998    11.00000    0.01255    0.01721 =
         0.01457    0.00704   -0.00137    0.00040
C7    1    0.729763    0.269824    0.852021    11.00000    0.01711    0.02201 =
         0.01837    0.00981   -0.00155   -0.00070
C18   1   -0.462564    0.313123    0.424771    11.00000    0.01741    0.01727 =
         0.01713    0.00686    0.00126    0.00358
AFIX  43
H18   2   -0.498475    0.369481    0.514052    11.00000   -1.20000
AFIX   0
C6    1    0.269064    0.399131    0.736713    11.00000    0.01855    0.01569 =
         0.01423    0.00692   -0.00059    0.00124
AFIX  43
H6    2    0.209169    0.488851    0.755043    11.00000   -1.20000
AFIX   0
C1    1    0.174081    0.249873    0.635639    11.00000    0.01376    0.01692 =
         0.01489    0.00788   -0.00250    0.00061
C17   1   -0.599690    0.264887    0.302691    11.00000    0.01433    0.02008 =
         0.02472    0.00887   -0.00046    0.00386
AFIX  43
H17   2   -0.728512    0.289334    0.312842    11.00000   -1.20000
AFIX   0
C14   1   -0.224615    0.190168    0.275251    11.00000    0.01252    0.01663 =
         0.01929    0.00796   -0.00125    0.00173
AFIX  43
H14   2   -0.098265    0.161322    0.262446    11.00000   -1.20000
AFIX   0
C15   1   -0.371046    0.148824    0.159240    11.00000    0.01769    0.01770 =
         0.01620    0.00589   -0.00042    0.00163
AFIX  43
H15   2   -0.338843    0.093117    0.068609    11.00000   -1.20000
AFIX   0
C3    1    0.430245    0.128588    0.679585    11.00000    0.01586    0.01768 =
         0.02207    0.00984   -0.00223    0.00184
AFIX  43
H3    2    0.485002    0.036404    0.660499    11.00000   -1.20000
AFIX   0
C8    1    0.881902    0.253713    0.907735    11.00000    0.01748    0.02496 =
         0.01923    0.01093   -0.00195    0.00009
HKLF 4




REM  sample5_a.res in P-1
REM wR2 = 0.0648, GooF = S = 1.069, Restrained GooF = 1.069 for all data
REM R1 = 0.0244 for 2241 Fo > 4sig(Fo) and 0.0246 for all 2274 data
REM 163 parameters refined using 0 restraints

END  
     
WGHT      0.0345      0.5745 

REM Highest difference peak  0.850,  deepest hole -0.482,  1-sigma level  0.074
Q1    1   1.0654  0.2989  1.0612  11.00000  0.05    0.85
Q2    1   1.1553  0.1437  0.9053  11.00000  0.05    0.51
Q3    1  -0.3454  0.2945  0.4145  11.00000  0.05    0.35
Q4    1  -0.2028  0.3016  0.4670  11.00000  0.05    0.32
Q5    1   0.2506  0.3363  0.6811  11.00000  0.05    0.31

  REM The information below was added by Olex2.
  REM
  REM R1 = 0.0244 for 2241 Fo > 4sig(Fo) and 0.0246 for all 8710 data
  REM 163 parameters refined using n/a restraints
  REM Highest difference peak 0.85, deepest hole -0.48
  REM Mean Shift 0, Max Shift 0.002.

  REM +++ Tabular Listing of Refinement Information +++
  REM R1_all = 0.0246
  REM R1_gt = 0.0244
  REM wR_ref = 0.0648
  REM GOOF = 1.069
  REM Shift_max = 0.002
  REM Shift_mean = 0
  REM Reflections_all = 8710
  REM Reflections_gt = 2241
  REM Parameters = 163
  REM Hole = -0.48
  REM Peak = 0.85
  REM Flack = n/a
;
_cod_data_source_file            d1ob01133b2.cif
_cod_data_source_block           4act-Br
_cod_depositor_comments
'Adding full bibliography for 7158173--7158183.cif.'
_cod_database_code               7158183
_shelx_shelxl_version_number     2018/3
_chemical_oxdiff_formula         'C13 H8 Br N3 O'
_shelx_space_group_comment
;
The symmetry employed for this shelxl refinement is uniquely defined
by the following loop, which should always be used as a source of
symmetry information in preference to the above space-group names.
They are only intended as comments.
;
_reflns_odcompleteness_completeness 99.95
_reflns_odcompleteness_iscentric 1
_reflns_odcompleteness_theta     66.97
_olex2_refinement_description
;
1. Fixed Uiso
 At 1.2 times of:
  All C(H) groups, All N(H) groups
2.a Aromatic/amide H refined with riding coordinates:
 N10(H10), C5(H5), C18(H18), C6(H6), C17(H17), C14(H14), C15(H15), C3(H3)
;
_olex2_submission_special_instructions 'No special instructions were received'
_oxdiff_exptl_absorpt_empirical_details
;
Empirical correction (ABSPACK) includes:
- Absorption correction using spherical harmonics
- Frame scaling
;
_oxdiff_exptl_absorpt_empirical_full_max 1.358
_oxdiff_exptl_absorpt_empirical_full_min 0.735
loop_
_space_group_symop_operation_xyz
'x, y, z'
'-x, -y, -z'
loop_
_atom_site_label
_atom_site_type_symbol
_atom_site_fract_x
_atom_site_fract_y
_atom_site_fract_z
_atom_site_U_iso_or_equiv
_atom_site_adp_type
_atom_site_occupancy
_atom_site_site_symmetry_order
_atom_site_calc_flag
_atom_site_refinement_flags_posn
_atom_site_refinement_flags_adp
_atom_site_refinement_flags_occupancy
_atom_site_disorder_assembly
_atom_site_disorder_group
Br9 Br 1.10451(3) 0.22100(2) 0.99377(2) 0.01994(9) Uani 1 1 d . . . . .
O12 O -0.0952(2) 0.47274(17) 0.62915(15) 0.0197(3) Uani 1 1 d . . . . .
N2 N 0.2509(3) 0.1161(2) 0.60909(18) 0.0174(3) Uani 1 1 d . . . . .
N10 N -0.0047(2) 0.22493(19) 0.54686(17) 0.0163(3) Uani 1 1 d . . . . .
H10 H -0.049974 0.128093 0.488995 0.020 Uiso 1 1 calc R U . . .
N16 N -0.5568(3) 0.1852(2) 0.17134(18) 0.0191(4) Uani 1 1 d . . . . .
C13 C -0.2705(3) 0.2755(2) 0.4108(2) 0.0148(4) Uani 1 1 d . . . . .
C5 C 0.4545(3) 0.4090(2) 0.8084(2) 0.0171(4) Uani 1 1 d . . . . .
H5 H 0.522056 0.506772 0.875208 0.021 Uiso 1 1 calc R U . . .
C4 C 0.5410(3) 0.2721(2) 0.7806(2) 0.0171(4) Uani 1 1 d . . . . .
C11 C -0.1163(3) 0.3362(2) 0.5410(2) 0.0149(4) Uani 1 1 d . . . . .
C7 C 0.7298(3) 0.2698(2) 0.8520(2) 0.0192(4) Uani 1 1 d . . . . .
C18 C -0.4626(3) 0.3131(2) 0.4248(2) 0.0172(4) Uani 1 1 d . . . . .
H18 H -0.498475 0.369481 0.514052 0.021 Uiso 1 1 calc R U . . .
C6 C 0.2691(3) 0.3991(2) 0.7367(2) 0.0162(4) Uani 1 1 d . . . . .
H6 H 0.209169 0.488851 0.755043 0.019 Uiso 1 1 calc R U . . .
C1 C 0.1741(3) 0.2499(2) 0.6356(2) 0.0151(4) Uani 1 1 d . . . . .
C17 C -0.5997(3) 0.2649(2) 0.3027(2) 0.0198(4) Uani 1 1 d . . . . .
H17 H -0.728512 0.289334 0.312842 0.024 Uiso 1 1 calc R U . . .
C14 C -0.2246(3) 0.1902(2) 0.2753(2) 0.0161(4) Uani 1 1 d . . . . .
H14 H -0.098265 0.161322 0.262446 0.019 Uiso 1 1 calc R U . . .
C15 C -0.3710(3) 0.1488(2) 0.1592(2) 0.0177(4) Uani 1 1 d . . . . .
H15 H -0.338843 0.093117 0.068609 0.021 Uiso 1 1 calc R U . . .
C3 C 0.4302(3) 0.1286(2) 0.6796(2) 0.0183(4) Uani 1 1 d . . . . .
H3 H 0.485002 0.036404 0.660499 0.022 Uiso 1 1 calc R U . . .
C8 C 0.8819(3) 0.2537(3) 0.9077(2) 0.0205(4) Uani 1 1 d . . . . .
loop_
_atom_site_aniso_label
_atom_site_aniso_U_11
_atom_site_aniso_U_22
_atom_site_aniso_U_33
_atom_site_aniso_U_23
_atom_site_aniso_U_13
_atom_site_aniso_U_12
Br9 0.01448(13) 0.02597(14) 0.02039(13) 0.01176(9) -0.00297(8) 0.00170(9)
O12 0.0193(7) 0.0168(7) 0.0189(7) 0.0034(6) -0.0034(5) 0.0039(6)
N2 0.0156(8) 0.0154(8) 0.0200(8) 0.0074(6) -0.0037(6) 0.0004(6)
N10 0.0157(8) 0.0127(8) 0.0169(8) 0.0042(6) -0.0065(6) -0.0001(6)
N16 0.0158(8) 0.0205(8) 0.0199(8) 0.0083(7) -0.0039(6) 0.0019(7)
C13 0.0144(9) 0.0132(8) 0.0171(9) 0.0077(7) -0.0025(7) 0.0002(7)
C5 0.0171(10) 0.0180(9) 0.0138(8) 0.0066(7) -0.0034(7) -0.0031(8)
C4 0.0137(9) 0.0213(10) 0.0171(9) 0.0107(8) -0.0024(7) -0.0009(8)
C11 0.0126(9) 0.0172(9) 0.0146(9) 0.0070(7) -0.0014(7) 0.0004(7)
C7 0.0171(10) 0.0220(10) 0.0184(9) 0.0098(8) -0.0016(8) -0.0007(8)
C18 0.0174(10) 0.0173(9) 0.0171(9) 0.0069(7) 0.0013(7) 0.0036(8)
C6 0.0186(10) 0.0157(9) 0.0142(9) 0.0069(7) -0.0006(7) 0.0012(7)
C1 0.0138(9) 0.0169(9) 0.0149(9) 0.0079(7) -0.0025(7) 0.0006(7)
C17 0.0143(10) 0.0201(10) 0.0247(10) 0.0089(8) -0.0005(8) 0.0039(8)
C14 0.0125(9) 0.0166(9) 0.0193(9) 0.0080(7) -0.0012(7) 0.0017(7)
C15 0.0177(10) 0.0177(9) 0.0162(9) 0.0059(7) -0.0004(7) 0.0016(8)
C3 0.0159(10) 0.0177(9) 0.0221(10) 0.0098(8) -0.0022(7) 0.0018(8)
C8 0.0175(10) 0.0250(10) 0.0192(10) 0.0109(8) -0.0019(8) 0.0001(8)
loop_
_atom_type_symbol
_atom_type_description
_atom_type_scat_dispersion_real
_atom_type_scat_dispersion_imag
_atom_type_scat_source
C C 0.0181 0.0091 'International Tables Vol C Tables 4.2.6.8 and 6.1.1.4'
H H 0.0000 0.0000 'International Tables Vol C Tables 4.2.6.8 and 6.1.1.4'
Br Br -0.6763 1.2805 'International Tables Vol C Tables 4.2.6.8 and 6.1.1.4'
N N 0.0311 0.0180 'International Tables Vol C Tables 4.2.6.8 and 6.1.1.4'
O O 0.0492 0.0322 'International Tables Vol C Tables 4.2.6.8 and 6.1.1.4'
loop_
_diffrn_refln_index_h
_diffrn_refln_index_k
_diffrn_refln_index_l
_diffrn_refln_intensity_net
_diffrn_refln_intensity_u
-8 0 0 98.98 3.04
-8 0 1 20.38 1.21
-8 0 1 20.23 1.33
-8 0 2 147.45 4.17
-8 0 3 13.37 0.95
-8 0 4 37.68 1.55
-8 1 -2 134.37 3.72
-8 1 -1 141.18 4.07
-8 1 0 24.71 1.43
-8 1 0 25.02 1.5
-8 1 1 88 3.11
-8 1 1 94.61 3.28
-8 1 2 116.17 3.67
-8 1 3 4.39 0.6
-8 1 4 46.86 1.84
-8 2 -3 63.34 2.13
-8 2 -2 205.6 5.38
-8 2 -1 25.67 1.47
-8 2 0 153.71 4.51
-8 2 0 149.12 4.55
-8 2 1 99.05 3.35
-8 2 2 113.61 3.7
-8 2 2 123.47 3.77
-8 2 3 41.03 1.8
-8 2 4 150.55 4.02
-8 3 2 0.95 0.39
-8 3 3 14.18 0.93
-8 4 -2 150.03 4.03
-8 4 -1 145.2 4.02
-8 4 0 109.75 3.03
-8 4 0 117.78 3.38
-8 4 1 102.85 3.05
-7 -4 1 91.58 3.21
-7 -4 2 76.12 2.9
-7 -4 2 76.15 2.88
-7 -4 2 76.17 2.86
-7 -4 3 195.13 5.46
-7 -4 3 197.76 5.66
-7 -4 4 152.6 4.72
-7 -4 5 7.29 0.83
-7 -4 5 7.39 0.67
-7 -4 6 47.25 1.79
-7 -3 0 44.77 2.09
-7 -3 0 45.35 2.29
-7 -3 1 187.91 5.53
-7 -3 1 195.83 5.71
-7 -3 2 75.95 3.16
-7 -3 2 76.12 3.18
-7 -3 3 90.21 3.59
-7 -3 3 88.6 3.38
-7 -3 4 139.82 4.56
-7 -3 4 137.94 4.74
-7 -3 5 124.17 3.98
-7 -3 5 119.07 4.2
-7 -3 6 117.98 3.92
-7 -2 -1 55.13 2.41
-7 -2 0 3.13 0.74
-7 -2 0 2.96 0.67
-7 -2 1 20.94 1.61
-7 -2 1 24.04 1.77
-7 -2 2 59.18 2.9
-7 -2 2 55.62 2.79
-7 -2 2 55.58 2.81
-7 -2 3 59.65 3.01
-7 -2 3 62.68 2.53
-7 -2 4 39.37 2.23
-7 -2 4 42.4 2.45
-7 -2 4 39.62 1.92
-7 -2 5 19.34 1.57
-7 -2 5 16.2 1.14
-7 -2 5 17.22 1.32
-7 -2 6 0.7 0.3
-7 -2 6 0.2 0.27
-7 -1 -1 128.37 4.42
-7 -1 0 117.25 4.16
-7 -1 0 123.23 4.51
-7 -1 1 111.94 4.27
-7 -1 1 116.16 4.45
-7 -1 1 113.7 4.13
-7 -1 2 118.24 4.62
-7 -1 2 129.56 4.77
-7 -1 2 125.13 4.41
-7 -1 3 423.61 11.31
-7 -1 3 425.74 10.76
-7 -1 3 427.82 11.15
-7 -1 4 139.12 4.8
-7 -1 4 138.84 5.08
-7 -1 4 137.41 4.59
-7 -1 4 139.77 4.39
-7 -1 5 88.36 3.36
-7 -1 5 94.4 3.38
-7 -1 5 100.26 3.5
-7 -1 5 89.27 3.77
-7 -1 6 211.63 5.77
-7 -1 6 212.78 5.82
-7 -1 7 78.62 2.58
-7 0 -2 20.1 1.52
-7 0 -1 9.38 1.18
-7 0 0 18.99 1.54
-7 0 0 25.01 1.89
-7 0 1 13.88 1.5
-7 0 1 16.34 1.54
-7 0 1 15.25 1.5
-7 0 2 2.98 0.79
-7 0 2 2.66 0.8
-7 0 3 39.85 2.32
-7 0 3 32.51 2.29
-7 0 3 35.88 2.32
-7 0 3 39.05 2.08
-7 0 4 2.91 0.67
-7 0 4 2.46 0.79
-7 0 4 2.78 0.71
-7 0 4 3.66 0.76
-7 0 5 8.23 0.97
-7 0 5 7.99 0.9
-7 0 5 9.73 1.09
-7 0 6 8.02 0.9
-7 0 6 9.33 0.96
-7 0 7 0.42 0.3
-7 1 -2 145.29 4.89
-7 1 -1 467.52 12.03
-7 1 0 177.9 6.04
-7 1 1 47.83 2.78
-7 1 1 47.51 2.67
-7 1 1 47.16 2.7
-7 1 2 185.69 6.21
-7 1 2 175.74 6.13
-7 1 2 180.56 6.05
-7 1 2 189.89 5.66
-7 1 3 132.58 4.86
-7 1 3 133.25 5.11
-7 1 3 132.32 4.55
-7 1 3 135.4 4.88
-7 1 4 403.22 10.21
-7 1 4 396.15 10.21
-7 1 4 402.88 10.45
-7 1 5 149.03 4.87
-7 1 5 151.96 4.81
-7 1 6 68.35 2.7
-7 1 6 70.08 2.73
-7 1 7 78.47 2.59
-7 2 -3 11.13 1
-7 2 -3 9.7 1.05
-7 2 -2 19.58 1.61
-7 2 -2 17.39 1.32
-7 2 -1 0.35 0.38
-7 2 -1 0.51 0.59
-7 2 0 96.86 3.55
-7 2 0 98.83 4.19
-7 2 1 0.78 0.45
-7 2 1 1.65 0.55
-7 2 1 1.14 0.64
-7 2 2 142.92 4.79
-7 2 2 141.33 4.47
-7 2 2 143.34 5.22
-7 2 2 140.64 5.11
-7 2 3 0.12 0.37
-7 2 3 -0.09 0.46
-7 2 3 0.28 0.52
-7 2 4 18.81 1.49
-7 2 4 14.62 1.11
-7 2 4 16.56 1.33
-7 2 4 19 1.52
-7 2 5 73.17 2.46
-7 2 5 73.68 2.95
-7 2 6 86.48 2.98
-7 3 -5 241.13 6.06
-7 3 -4 193.63 5.41
-7 3 -3 287.87 7.59
-7 3 -2 154.16 4.91
-7 3 -2 156.57 5.3
-7 3 -1 218.69 6.4
-7 3 -1 225.91 6.99
-7 3 0 216.14 6.84
-7 3 0 203.1 6.11
-7 3 1 125.69 4.37
-7 3 1 121.87 4.24
-7 3 2 57.18 2.56
-7 3 2 56.26 2.7
-7 3 2 55.12 2.81
-7 3 2 55.88 2.9
-7 3 3 32.71 2
-7 3 3 29.76 1.72
-7 3 3 30.09 1.9
-7 3 4 252.18 6.91
-7 3 4 253.49 6.92
-7 3 4 245.2 6.44
-7 3 5 54.14 2.24
-7 3 5 51.96 1.98
-7 3 5 54.72 2.31
-7 3 6 113.92 3.21
-7 4 -6 1.25 0.33
-7 4 -5 3.48 0.57
-7 4 -4 118.16 3.87
-7 4 -3 21.16 1.51
-7 4 -2 66.69 2.88
-7 4 -1 187.48 5.94
-7 4 -1 187.67 5.72
-7 4 0 32.2 1.91
-7 4 0 28.21 1.93
-7 4 1 12.19 1.21
-7 4 1 11.1 1.21
-7 4 1 10.16 1.11
-7 4 2 260.44 7.32
-7 4 2 271.31 7.39
-7 4 2 267.52 7.18
-7 4 3 10.79 1.05
-7 4 3 12.91 1.17
-7 4 3 11.28 1.03
-7 4 4 9.24 0.86
-7 4 4 8.65 0.81
-7 4 4 9.84 0.96
-7 4 5 37.53 1.49
-7 4 5 40.73 1.53
-7 5 -6 52.48 1.86
-7 5 -5 71.94 2.58
-7 5 -4 269.58 7.03
-7 5 -3 129.23 4.22
-7 5 -2 85.06 3.28
-7 5 -2 89.13 3.36
-7 5 -1 102.44 3.72
-7 5 -1 103.05 3.7
-7 5 0 51.89 2.45
-7 5 0 56.14 2.49
-7 5 1 71.34 2.81
-7 5 1 61.26 2.59
-7 5 2 10.75 0.95
-7 5 2 14.32 1.12
-7 5 3 29.1 1.49
-7 5 4 91.66 2.72
-7 6 -5 37.77 1.63
-7 6 -4 90.79 3.07
-7 6 -3 88.93 3.15
-7 6 -2 91.7 3.27
-7 6 -1 139.91 4.35
-7 6 0 165.25 4.83
-7 6 1 60.58 2.36
-7 6 2 57.64 2.13
-7 6 3 73.39 2.25
-7 7 1 0.22 0.22
-6 -6 2 118.99 3.91
-6 -6 2 117.94 3.86
-6 -6 3 93.27 3.39
-6 -6 3 98.4 3.51
-6 -6 4 231.64 6.53
-6 -6 4 236.95 6.34
-6 -6 5 203.99 5.81
-6 -6 7 87.89 2.87
-6 -5 0 11.99 1.04
-6 -5 0 12.21 1.17
-6 -5 1 78.47 3.31
-6 -5 1 75.4 3.14
-6 -5 2 185.86 5.86
-6 -5 3 2.35 0.71
-6 -5 3 2.45 0.7
-6 -5 4 0.57 0.53
-6 -5 4 1.53 0.56
-6 -5 5 3.4 0.64
-6 -5 6 13.43 1.21
-6 -5 6 13.48 1.27
-6 -5 7 0.49 0.37
-6 -5 7 0.26 0.34
-6 -5 7 0.86 0.41
-6 -5 8 2.25 0.48
-6 -4 -2 94.37 3.31
-6 -4 -1 162.25 5.26
-6 -4 0 457.4 11.41
-6 -4 0 457.41 11.82
-6 -4 1 396.25 10.73
-6 -4 1 396.57 10.53
-6 -4 2 163.51 5.7
-6 -4 3 39.33 2.51
-6 -4 3 37.55 2.38
-6 -4 4 295.98 8.36
-6 -4 4 299.59 8.79
-6 -4 5 154.64 4.96
-6 -4 6 266.59 7.42
-6 -4 6 256.93 7.69
-6 -4 7 152.77 4.83
-6 -4 7 139.63 4.77
-6 -4 7 146.71 4.72
-6 -4 7 153.32 4.55
-6 -4 8 15.24 1.18
-6 -4 8 15 1.11
-6 -4 8 15.69 1.18
-6 -4 9 36.81 1.59
-6 -3 -2 -0.27 0.46
-6 -3 -1 172.29 5.9
-6 -3 0 47.78 2.81
-6 -3 0 45.99 2.59
-6 -3 1 37.39 2.55
-6 -3 1 44.18 2.65
-6 -3 2 317.77 9.3
-6 -3 2 313.05 9.2
-6 -3 3 7.06 1.18
-6 -3 3 9.37 1.27
-6 -3 4 113.01 4.76
-6 -3 4 110 4.31
-6 -3 5 24.35 1.71
-6 -3 5 28.51 1.84
-6 -3 6 26.84 2.09
-6 -3 6 24.55 1.75
-6 -3 6 26.6 1.87
-6 -3 7 92.78 3.49
-6 -3 7 92.91 3.52
-6 -3 7 84.88 3.37
-6 -3 8 0.72 0.43
-6 -3 8 0.89 0.41
-6 -3 8 0.52 0.4
-6 -3 9 55.88 2.13
-6 -2 -2 88.68 3.93
-6 -2 -2 91.14 3.6
-6 -2 -1 168.45 5.95
-6 -2 -1 158.4 5.31
-6 -2 0 443.12 11.8
-6 -2 0 463.62 12.33
-6 -2 1 400.39 10.95
-6 -2 1 392.17 10.35
-6 -2 2 314.04 9.11
-6 -2 2 305.4 9.16
-6 -2 2 294.81 8.44
-6 -2 3 100.4 4.53
-6 -2 3 98.08 3.98
-6 -2 3 107.82 4.37
-6 -2 4 169.1 5.49
-6 -2 4 161.1 5.48
-6 -2 4 157.98 5.5
-6 -2 4 177.27 6.33
-6 -2 5 41.12 2.38
-6 -2 5 42.13 2.38
-6 -2 5 39.93 2.35
-6 -2 6 179.23 5.81
-6 -2 6 179.69 5.61
-6 -2 6 184.07 5.78
-6 -2 6 167.79 5.47
-6 -2 6 178.73 6.26
-6 -2 7 284.87 7.56
-6 -2 7 287.62 7.77
-6 -2 7 272.65 7.5
-6 -2 7 294.64 7.94
-6 -2 8 7.48 0.89
-6 -2 8 8.32 0.96
-6 -2 8 7.5 0.82
-6 -2 9 24.75 1.19
-6 -2 9 24.79 1.33
-6 -1 -2 20.22 1.69
-6 -1 -2 21.18 1.91
-6 -1 -1 246.35 7.82
-6 -1 -1 231.29 7.02
-6 -1 0 69.2 3.61
-6 -1 0 63.5 3.24
-6 -1 1 89.64 4.17
-6 -1 1 92.75 4.16
-6 -1 2 46.19 2.73
-6 -1 2 48.73 2.98
-6 -1 2 44.99 2.81
-6 -1 3 164.14 5.81
-6 -1 3 170.13 5.9
-6 -1 3 167.59 5.54
-6 -1 3 169.32 6.33
-6 -1 4 247.93 7.25
-6 -1 4 254.21 7.68
-6 -1 4 260.14 7.58
-6 -1 4 260.25 8.38
-6 -1 4 235.75 7.28
-6 -1 5 78.1 3.56
-6 -1 5 81.63 3.65
-6 -1 5 80.59 3.63
-6 -1 5 79.64 3.42
-6 -1 6 209.69 7.07
-6 -1 6 217.97 6.28
-6 -1 6 200.9 6.15
-6 -1 6 222.34 6.73
-6 -1 6 227.4 6.57
-6 -1 6 222.49 6.81
-6 -1 7 71.02 3.17
-6 -1 7 66.33 2.92
-6 -1 7 70.09 3.08
-6 -1 8 56.53 2.58
-6 -1 8 57.95 2.44
-6 -1 8 59.8 2.53
-6 -1 9 28.39 1.34
-6 -1 9 32.85 1.49
-6 0 -3 246.58 7.17
-6 0 -2 3.81 0.97
-6 0 -2 5.44 1
-6 0 -1 62.69 3.08
-6 0 -1 68.45 3.46
-6 0 -1 71.62 3.69
-6 0 0 498.4 12.94
-6 0 1 214.56 7.23
-6 0 1 215.18 7.18
-6 0 2 151.11 5.18
-6 0 2 148.41 5.62
-6 0 2 152.53 5.62
-6 0 2 159.13 5.98
-6 0 3 195.27 6.42
-6 0 3 209.6 6.85
-6 0 3 204.09 7.25
-6 0 3 202.32 6.88
-6 0 4 34.57 2.36
-6 0 4 30.14 1.92
-6 0 4 33.57 2.27
-6 0 4 35.53 2.4
-6 0 4 31.64 2.57
-6 0 5 28.02 2.1
-6 0 5 25.56 1.77
-6 0 5 26.85 1.96
-6 0 5 28.4 2.08
-6 0 6 32.1 1.96
-6 0 6 30.83 2.37
-6 0 6 33.75 2.23
-6 0 6 37.57 2.32
-6 0 7 70.39 3.15
-6 0 7 73.56 2.92
-6 0 7 77.7 3.32
-6 0 8 10.97 1.06
-6 0 9 20.53 1.14
-6 1 -3 222.28 6.84
-6 1 -2 13.9 1.51
-6 1 -1 305.18 9.15
-6 1 -1 305.33 8.35
-6 1 0 118.77 4.24
-6 1 0 113.92 4.67
-6 1 0 124.4 5.03
-6 1 0 119.85 4.3
-6 1 1 387.89 10.05
-6 1 1 371.98 9.74
-6 1 1 366.3 10.67
-6 1 1 373.07 10.83
-6 1 2 280.33 8.66
-6 1 2 265.36 7.6
-6 1 2 273.36 8.41
-6 1 2 285.38 8.11
-6 1 2 265.96 8.66
-6 1 3 154.27 5.12
-6 1 3 166.75 5.71
-6 1 3 160.4 5.93
-6 1 3 162.19 5.88
-6 1 3 163.03 6.29
-6 1 4 188.86 6.35
-6 1 4 185.43 6.31
-6 1 4 195.95 6.56
-6 1 4 182.98 5.68
-6 1 4 181.44 6.84
-6 1 5 119.65 4.07
-6 1 5 124.23 4.74
-6 1 5 117.91 4.67
-6 1 6 312.91 8.78
-6 1 6 315.77 8.77
-6 1 6 300.47 7.89
-6 1 7 121.16 3.74
-6 1 7 130.36 4.44
-6 1 8 133.84 4.11
-6 1 8 130.57 4.05
-6 2 -4 223.27 6.6
-6 2 -3 194.87 6.35
-6 2 -2 24.45 4.25
-6 2 -2 24.07 2.01
-6 2 -1 99.77 3.75
-6 2 -1 91.42 4.26
-6 2 -1 92.6 3.87
-6 2 0 1.81 0.64
-6 2 0 1.21 0.68
-6 2 0 1.53 0.67
-6 2 0 1.11 0.55
-6 2 1 331.43 9.78
-6 2 1 321.97 9.04
-6 2 1 336.13 9.23
-6 2 2 116.17 4.89
-6 2 2 119.39 4.85
-6 2 2 106.58 4.88
-6 2 2 119.21 4.61
-6 2 2 110.49 4.29
-6 2 3 0.95 0.65
-6 2 3 1.15 0.76
-6 2 3 0.37 0.45
-6 2 3 0.22 0.58
-6 2 4 15.51 1.43
-6 2 4 18.21 1.7
-6 2 4 16.1 1.56
-6 2 5 4.74 0.92
-6 2 5 2.85 0.59
-6 2 5 4.94 0.82
-6 2 6 0.75 0.41
-6 2 7 8.97 0.98
-6 2 7 8.46 0.83
-6 2 7 7.99 0.92
-6 2 8 3.06 0.49
-6 3 -4 283.46 8.04
-6 3 -3 575.32 14.44
-6 3 -2 81.3 3.86
-6 3 -1 333.34 9.32
-6 3 -1 333.67 9.83
-6 3 -1 334.2 9.08
-6 3 -1 314.59 15.86
-6 3 -1 308.38 15.63
-6 3 0 132.79 5.36
-6 3 0 123.53 4.76
-6 3 0 128.25 4.77
-6 3 1 127.55 4.78
-6 3 1 121.04 5.13
-6 3 1 121.74 4.9
-6 3 1 119.17 4.63
-6 3 2 590.64 14.82
-6 3 2 631.85 15.2
-6 3 2 604.02 15.47
-6 3 2 594.43 15.2
-6 3 3 309.36 9.12
-6 3 3 322.08 9.26
-6 3 3 316.29 8.16
-6 3 3 332.2 8.96
-6 3 3 308.59 9.12
-6 3 4 111.6 4.42
-6 3 4 113.5 3.81
-6 3 4 108.4 4.16
-6 3 4 112.32 4.51
-6 3 5 113.33 4.02
-6 3 5 112.08 4.2
-6 3 5 110.21 3.71
-6 3 6 165.05 4.81
-6 3 6 150.2 4.94
-6 3 6 157.95 4.92
-6 3 7 56.17 2.18
-6 3 7 55.98 2.11
-6 4 -3 64.2 3.27
-6 4 -2 0.97 0.57
-6 4 -1 4.38 0.88
-6 4 -1 4.22 0.98
-6 4 -1 4.45 0.86
-6 4 0 138.91 5.15
-6 4 0 138.12 5.22
-6 4 0 138.6 5.06
-6 4 1 60.47 3.15
-6 4 1 67.92 2.8
-6 4 1 70.99 3.39
-6 4 1 62.84 3.47
-6 4 1 73.28 3.47
-6 4 2 20.96 1.82
-6 4 2 19.52 1.45
-6 4 2 23.84 1.88
-6 4 2 25.11 1.9
-6 4 3 2.39 0.6
-6 4 3 1.27 0.61
-6 4 3 1.49 0.57
-6 4 3 0.96 0.58
-6 4 4 12.41 1.13
-6 4 4 17.01 1.53
-6 4 4 13.66 1.31
-6 4 4 14.04 1.32
-6 4 5 10.49 1.15
-6 4 5 10.25 1.06
-6 4 5 9.77 1.02
-6 4 5 10.1 0.94
-6 4 6 1.28 0.41
-6 4 6 0.92 0.41
-6 5 -2 207.78 6.62
-6 5 -2 195.09 5.64
-6 5 -1 395.53 10.76
-6 5 -1 393.55 9.81
-6 5 -1 402.23 10.64
-6 5 0 24.07 1.9
-6 5 0 25.73 1.96
-6 5 0 24.18 1.59
-6 5 0 22.8 1.8
-6 5 1 168.95 5.2
-6 5 1 170 5.79
-6 5 1 167.38 5.59
-6 5 1 178.27 5.9
-6 5 2 256.99 7.02
-6 5 2 253.14 7.28
-6 5 2 264.92 7.59
-6 5 3 98.18 3.47
-6 5 3 103.09 3.96
-6 5 3 93.22 3.5
-6 5 3 96.26 3.73
-6 5 4 295.04 7.43
-6 5 4 286.37 7.82
-6 5 4 294.6 7.75
-6 5 5 51.95 2.02
-6 5 5 53.69 2.19
-6 6 -4 10.73 0.95
-6 6 -3 57.21 2.43
-6 6 -2 1.42 0.48
-6 6 -2 0.78 0.48
-6 6 -1 1.04 0.47
-6 6 -1 2.02 0.55
-6 6 0 107.79 3.75
-6 6 1 1.62 0.5
-6 6 2 33.07 1.79
-6 6 3 0.54 0.33
-6 6 4 10.77 0.85
-6 6 5 61.51 1.96
-6 7 -7 106.29 3.17
-6 7 -6 197.35 5.44
-6 7 -5 147.03 4.06
-6 7 -5 153.23 4.71
-6 7 -4 178.96 5.01
-6 7 -4 191.18 5.67
-6 7 -3 201.96 5.62
-6 7 -3 210.59 6.2
-6 7 -2 204.93 6.17
-6 7 -2 205.84 5.71
-6 7 -1 56.16 2.64
-6 7 -1 52.72 2.31
-6 7 0 33.92 1.96
-6 7 0 33.12 1.75
-6 7 1 95.63 3.21
-6 7 1 96.28 3.41
-6 7 2 97.25 3.07
-6 7 2 92.69 3.15
-6 7 3 31.1 1.4
-6 7 3 31.91 1.38
-6 8 -6 4.31 0.49
-6 8 -5 59.97 1.98
-6 8 -5 59.1 2.22
-6 8 -4 22.2 1.33
-6 8 -4 20.12 1.14
-6 8 -3 48.45 1.98
-6 8 -3 52.03 2.18
-6 8 -2 129.9 4.02
-6 8 -2 134.73 3.88
-6 8 -1 40.78 1.77
-6 8 -1 40.34 1.84
-6 8 0 13.81 0.97
-6 8 0 14.55 0.96
-6 8 1 68.7 2.23
-6 8 1 65.53 2.14
-6 9 -3 60.98 1.9
-6 9 -2 134.04 3.44
-5 -8 6 48.27 1.85
-5 -7 1 92.76 3.35
-5 -7 2 65.95 2.88
-5 -7 3 212.53 6.31
-5 -7 4 75.65 3.15
-5 -7 5 36.24 2.08
-5 -7 5 36.82 2.01
-5 -7 6 57.49 2.38
-5 -7 6 61.46 2.63
-5 -7 7 97.91 3.38
-5 -7 7 100.18 3.41
-5 -7 8 29.2 1.51
-5 -7 8 31.51 1.54
-5 -6 -1 95.52 3.34
-5 -6 0 31.59 1.99
-5 -6 1 198.93 6.35
-5 -6 2 89.54 3.88
-5 -6 4 78.76 3.54
-5 -6 5 49.03 2.74
-5 -6 5 42.91 2.42
-5 -6 6 102.97 3.72
-5 -6 6 103.93 4.07
-5 -6 7 86.09 3.44
-5 -6 7 76.59 3.18
-5 -6 8 206.57 5.89
-5 -6 8 213.65 6.03
-5 -6 8 193.34 5.45
-5 -6 9 2.08 0.5
-5 -6 9 2.38 0.51
-5 -5 -2 37.54 2.02
-5 -5 -1 231.95 7.02
-5 -5 0 1.76 0.75
-5 -5 1 217.54 7.14
-5 -5 2 151.62 5.67
-5 -5 3 50.53 2.94
-5 -5 4 110.79 4.5
-5 -5 5 43.46 2.52
-5 -5 5 45.86 2.81
-5 -5 6 21.51 1.62
-5 -5 6 21.87 1.87
-5 -5 6 22.09 1.61
-5 -5 7 37.8 2.3
-5 -5 7 37.29 2.16
-5 -5 7 36.79 2.32
-5 -5 8 11.57 1.22
-5 -5 8 11.25 1.15
-5 -5 9 105.41 3.65
-5 -5 9 113.19 3.83
-5 -5 10 15.31 1.05
-5 -5 10 14.96 1.04
-5 -4 -2 137.37 4.99
-5 -4 -1 371.63 10.43
-5 -4 0 79.83 3.88
-5 -4 1 172.37 6.24
-5 -4 1 179.76 11.58
-5 -4 2 376.92 17.49
-5 -4 3 406.7 11.2
-5 -4 4 181.29 6.13
-5 -4 4 167.62 11.06
-5 -4 5 111.29 4.33
-5 -4 5 110.39 4.25
-5 -4 5 118.61 4.93
-5 -4 6 178.79 6.25
-5 -4 6 170.01 5.76
-5 -4 7 54.53 2.97
-5 -4 7 55.06 2.87
-5 -4 8 443.45 11.14
-5 -4 8 455.72 11.06
-5 -4 9 73.6 3.08
-5 -4 9 77.08 3.16
-5 -4 9 74.75 3.13
-5 -4 10 109.45 3.51
-5 -4 10 105.83 3.46
-5 -4 10 104.57 3.42
-5 -3 -3 132.9 4.85
-5 -3 -2 344.97 9.85
-5 -3 -1 189.61 10.94
-5 -3 -1 213.75 7.02
-5 -3 -1 197.34 12.02
-5 -3 0 109.71 8.76
-5 -3 0 101.87 7.42
-5 -3 0 110.8 4.7
-5 -3 1 114.32 4.66
-5 -3 1 107.43 8.65
-5 -3 1 92.23 6.68
-5 -3 2 6.79 1.16
-5 -3 2 5.96 2.19
-5 -3 3 89.83 7.76
-5 -3 3 91.02 4.02
-5 -3 4 17.01 3.38
-5 -3 4 14.27 1.42
-5 -3 4 16.34 1.59
-5 -3 5 1.83 0.64
-5 -3 5 0.45 0.98
-5 -3 5 1.27 0.57
-5 -3 5 0.73 0.51
-5 -3 5 1.03 0.66
-5 -3 6 60.33 3.11
-5 -3 6 57.78 3.3
-5 -3 6 57.65 2.76
-5 -3 7 35.11 2.14
-5 -3 7 43.59 2.7
-5 -3 7 41.96 2.61
-5 -3 7 41.29 2.55
-5 -3 8 2.14 0.64
-5 -3 8 4.06 0.85
-5 -3 8 2.48 0.65
-5 -3 8 3.29 0.69
-5 -3 9 22.67 1.42
-5 -3 9 24.26 1.73
-5 -3 9 24.3 1.67
-5 -3 10 1.92 0.47
-5 -2 -4 366.85 9.76
-5 -2 -3 78.79 3.69
-5 -2 -2 452.01 12.08
-5 -2 -2 431.57 17.65
-5 -2 -1 904.28 28.28
-5 -2 -1 986.3 31.14
-5 -2 -1 970 22.54
-5 -2 0 111.17 8.56
-5 -2 0 109.13 4.58
-5 -2 0 100.84 6.98
-5 -2 1 379.41 16.91
-5 -2 2 364.71 10.2
-5 -2 3 323.34 9.23
-5 -2 3 296.7 14.23
-5 -2 3 285.83 8.25
-5 -2 3 283.73 8.11
-5 -2 3 292.74 8.56
-5 -2 4 758.82 17.89
-5 -2 4 773.69 17.99
-5 -2 4 739.92 17.91
-5 -2 4 790.42 25.65
-5 -2 5 288.8 8.51
-5 -2 5 263.86 13.05
-5 -2 5 286.73 8.02
-5 -2 5 297.83 9.12
-5 -2 5 299.45 8.42
-5 -2 6 87.57 3.75
-5 -2 6 82.45 3.86
-5 -2 6 90.54 4
-5 -2 6 87.08 4.18
-5 -2 7 101.39 4.21
-5 -2 7 85.76 3.73
-5 -2 7 86.81 4.06
-5 -2 7 89.98 3.91
-5 -2 7 93.39 4.08
-5 -2 8 310.53 8.59
-5 -2 8 312.07 8.81
-5 -2 8 312.96 8.86
-5 -2 8 298.32 8.4
-5 -2 9 99.11 3.59
-5 -2 9 95.18 3.57
-5 -2 9 102.49 3.87
-5 -2 10 147.57 4.42
-5 -2 10 149.15 4.23
-5 -2 10 152.04 4.51
-5 -1 -4 6.36 1.03
-5 -1 -3 21.44 1.9
-5 -1 -3 18.86 3.36
-5 -1 -2 156.22 5.74
-5 -1 -2 160.78 9.57
-5 -1 -1 202.07 10.39
-5 -1 -1 217.07 7.06
-5 -1 0 45.13 4.34
-5 -1 0 52.41 5.72
-5 -1 0 52.06 2.9
-5 -1 1 0.44 0.57
-5 -1 1 1.08 0.63
-5 -1 2 150.45 5.59
-5 -1 2 143.71 4.87
-5 -1 2 157.92 9.73
-5 -1 2 152.17 5.4
-5 -1 3 4.95 0.86
-5 -1 3 2.8 0.73
-5 -1 3 2.34 0.79
-5 -1 3 2.4 0.7
-5 -1 3 3.32 1.51
-5 -1 4 1.58 1.15
-5 -1 4 0.2 0.47
-5 -1 4 0.93 0.54
-5 -1 4 0.18 0.45
-5 -1 5 43.77 2.64
-5 -1 5 43.3 2.58
-5 -1 5 41.49 2.58
-5 -1 5 47.29 3.06
-5 -1 6 19.6 1.96
-5 -1 6 19.46 1.81
-5 -1 6 20.08 1.8
-5 -1 6 22.42 1.84
-5 -1 6 21.5 1.64
-5 -1 7 40.29 2.69
-5 -1 7 43.42 2.68
-5 -1 7 45.32 2.54
-5 -1 7 47.83 2.7
-5 -1 7 50.45 2.87
-5 -1 8 67.76 3.25
-5 -1 8 70.49 3.21
-5 -1 8 59.95 2.84
-5 -1 9 18.62 1.51
-5 -1 9 16.87 1.42
-5 -1 9 18.25 1.43
-5 -1 10 3.5 0.57
-5 -1 10 2.87 0.54
-5 0 -3 230.01 7.02
-5 0 -3 240.05 7.54
-5 0 -2 1071.11 31.75
-5 0 -2 1149.33 25.91
-5 0 -1 379.99 10.03
-5 0 -1 384.93 10.57
-5 0 -1 370.21 14.34
-5 0 0 559.81 13.98
-5 0 1 554.8 13.47
-5 0 1 560.78 14.2
-5 0 1 587.62 20.71
-5 0 1 579.59 14.35
-5 0 2 197.55 10.88
-5 0 2 204.47 6.23
-5 0 2 198.66 6.5
-5 0 2 207.17 6.86
-5 0 3 374.36 10.15
-5 0 3 377 15.65
-5 0 3 391.18 10.44
-5 0 3 374.63 10.17
-5 0 3 388.71 11
-5 0 4 261.48 8.55
-5 0 4 265.1 7.23
-5 0 4 269.91 7.99
-5 0 4 277.78 8.13
-5 0 4 251.29 7.54
-5 0 5 708.48 17.46
-5 0 5 731.38 17.49
-5 0 5 717.31 17.12
-5 0 5 720.45 18.12
-5 0 5 723.81 16.46
-5 0 5 681.45 16.87
-5 0 6 57.87 3.06
-5 0 6 56.72 3.35
-5 0 6 59.09 2.69
-5 0 6 55.78 2.78
-5 0 6 59.56 3.23
-5 0 6 59.94 3.2
-5 0 7 48.85 2.37
-5 0 7 48.35 2.75
-5 0 7 53.69 2.89
-5 0 7 46.05 2.4
-5 0 8 230.42 7.03
-5 0 8 238.76 7.18
-5 0 8 244.42 7.17
-5 0 9 34.01 1.9
-5 0 9 29.36 1.78
-5 0 9 29.88 1.77
-5 0 10 74.62 2.52
-5 0 10 70.06 2.38
-5 1 -3 60.44 3.04
-5 1 -3 63.64 3.32
-5 1 -2 30.52 2.15
-5 1 -2 35.85 2.44
-5 1 -1 6.99 1.15
-5 1 -1 5.12 0.9
-5 1 -1 4.79 0.96
-5 1 0 5.88 0.85
-5 1 0 4.86 0.98
-5 1 0 5.87 1.02
-5 1 1 117.39 4.66
-5 1 1 122.05 4.32
-5 1 1 129.07 4.9
-5 1 2 127.15 4.82
-5 1 2 127.85 4.46
-5 1 2 129.49 4.68
-5 1 2 128.41 5.17
-5 1 2 131.56 5.06
-5 1 3 47.37 3.03
-5 1 3 45.78 2.4
-5 1 3 49.73 2.8
-5 1 3 45.03 2.61
-5 1 3 46.94 2.79
-5 1 4 305.18 8.82
-5 1 4 300.26 8.21
-5 1 4 287.43 8.53
-5 1 4 304.9 8.8
-5 1 4 293.25 9.28
-5 1 4 285.14 8.11
-5 1 5 49.35 2.45
-5 1 5 51.49 2.75
-5 1 5 50.19 2.62
-5 1 5 59.5 3.16
-5 1 5 54.55 3.03
-5 1 5 51.13 2.64
-5 1 6 1.49 0.59
-5 1 6 1.27 0.5
-5 1 6 1.39 0.56
-5 1 6 1.45 0.65
-5 1 7 41.6 2.51
-5 1 7 41.34 2.43
-5 1 7 41.92 2.26
-5 1 7 42.03 2.57
-5 1 8 64.11 2.94
-5 1 8 64.88 2.87
-5 1 9 84.1 2.92
-5 2 -5 231.19 13.85
-5 2 -5 261.39 14.47
-5 2 -4 68.21 3.17
-5 2 -3 98.64 4.1
-5 2 -3 109.84 8.58
-5 2 -2 1008.55 22.2
-5 2 -2 993.51 23.04
-5 2 -1 701.21 16.73
-5 2 -1 650.87 16.04
-5 2 -1 691.16 15.91
-5 2 0 335.37 9.02
-5 2 0 328.11 9.47
-5 2 0 353.51 9.75
-5 2 1 355.85 14.49
-5 2 1 367.88 9.85
-5 2 1 375.78 14.98
-5 2 1 378.26 9.94
-5 2 1 375.76 10.54
-5 2 2 159.45 5.8
-5 2 2 152.08 5.88
-5 2 2 158.65 5.5
-5 2 2 161.79 5.32
-5 2 2 164.47 5.39
-5 2 3 208.75 6.55
-5 2 3 211.87 6.06
-5 2 3 215.15 6.57
-5 2 3 217.45 6.89
-5 2 3 206.26 6.83
-5 2 3 206.37 7.33
-5 2 4 91.26 4.55
-5 2 4 94.84 3.6
-5 2 4 96.51 3.95
-5 2 4 95.74 4.22
-5 2 4 90.72 3.88
-5 2 4 97.11 3.92
-5 2 5 451.18 11.17
-5 2 5 461.96 11.54
-5 2 6 28.23 1.93
-5 2 6 24.24 1.77
-5 2 6 24.01 1.74
-5 2 6 25.66 2.04
-5 2 6 23.98 1.93
-5 2 7 85.72 3.64
-5 2 7 81.72 3.33
-5 2 7 89.81 3.69
-5 2 7 86.65 3.43
-5 2 8 14.04 1.22
-5 2 8 10.29 1
-5 2 9 26.44 1.37
-5 3 -5 266.69 15.12
-5 3 -5 291.98 15.3
-5 3 -4 46.57 6.08
-5 3 -4 41.45 2.48
-5 3 -4 52.35 6.11
-5 3 -3 583.11 22.04
-5 3 -3 598.27 14.84
-5 3 -3 584.36 23.26
-5 3 -2 10.98 1.35
-5 3 -2 9.33 1.09
-5 3 -2 10.5 2.54
-5 3 -2 7.73 2.41
-5 3 -1 119.82 4.35
-5 3 -1 118.16 4.78
-5 3 -1 128.01 9.47
-5 3 -1 111 4.31
-5 3 0 361.86 10.07
-5 3 0 374.99 9.81
-5 3 0 346.32 15.2
-5 3 0 361.47 9.82
-5 3 0 363.77 15.92
-5 3 0 350.46 9.26
-5 3 1 79.65 3.99
-5 3 1 92.78 3.64
-5 3 1 87.42 3.32
-5 3 1 86.76 3.68
-5 3 1 78.65 6.44
-5 3 1 91.81 3.84
-5 3 1 97.82 3.98
-5 3 1 86.57 4.04
-5 3 2 117.74 4.83
-5 3 2 122.87 4.63
-5 3 2 117.79 4.43
-5 3 2 120.11 4.7
-5 3 2 122.22 4.17
-5 3 2 119.46 4.7
-5 3 3 96.52 4
-5 3 3 92.96 3.85
-5 3 3 92.93 3.9
-5 3 3 98.37 4.15
-5 3 3 92.35 3.61
-5 3 3 94.56 4.07
-5 3 4 316.91 8.9
-5 3 4 327.51 9.1
-5 3 4 324.14 9.51
-5 3 4 328.13 9.14
-5 3 4 324.02 8.77
-5 3 4 318.22 9.21
-5 3 5 249.42 7.65
-5 3 5 238.92 7.32
-5 3 5 234.64 6.94
-5 3 5 226.65 6.79
-5 3 5 239.95 7.21
-5 3 6 59.48 2.94
-5 3 6 66.06 3
-5 3 6 66.64 3.19
-5 3 6 62.51 2.95
-5 3 6 61.3 2.84
-5 3 7 24.55 1.62
-5 3 7 28.78 1.73
-5 3 7 25.91 1.68
-5 3 8 88.63 2.93
-5 4 -5 364.27 17.22
-5 4 -5 317.4 16.75
-5 4 -4 32.71 4.78
-5 4 -3 35.81 2.42
-5 4 -3 36.61 4.72
-5 4 -3 29.31 4.77
-5 4 -3 40.67 5.83
-5 4 -2 27.72 1.76
-5 4 -2 21.59 4
-5 4 -2 30.16 2.23
-5 4 -2 24.3 3.66
-5 4 -2 24.23 4.47
-5 4 -1 838.75 19.21
-5 4 -1 806.05 28.34
-5 4 -1 800.91 27.26
-5 4 -1 806.33 18.6
-5 4 -1 848.92 20.01
-5 4 -1 833.77 19.31
-5 4 -1 813.56 19.14
-5 4 0 311.34 15.06
-5 4 0 345 9.33
-5 4 0 340.15 9.36
-5 4 0 320.02 14.31
-5 4 0 330.81 8.83
-5 4 0 355.01 9.54
-5 4 0 321.9 8.85
-5 4 0 351.26 9.57
-5 4 1 56.46 2.78
-5 4 1 48.74 5.23
-5 4 1 56.17 2.69
-5 4 1 63.45 3.18
-5 4 1 58.07 2.94
-5 4 1 58.27 3.03
-5 4 1 53.46 3.14
-5 4 1 61.58 3.12
-5 4 1 53.8 2.89
-5 4 2 130.63 5.18
-5 4 2 137.57 4.87
-5 4 2 137.56 5.04
-5 4 2 134.74 5.05
-5 4 2 137.22 4.71
-5 4 3 32.91 2.16
-5 4 3 36.43 2.44
-5 4 3 31.94 2.15
-5 4 3 34.53 2.3
-5 4 3 30.35 2
-5 4 3 36.47 2.32
-5 4 4 0.3 0.54
-5 4 4 0.29 0.45
-5 4 4 0.91 0.58
-5 4 4 0.89 0.51
-5 4 4 0.67 0.52
-5 4 4 0.79 0.52
-5 4 5 208.48 6.19
-5 4 5 202.68 6.3
-5 4 5 199.12 6.43
-5 4 5 195.03 5.93
-5 4 5 203.2 6.19
-5 4 6 3.59 0.68
-5 4 6 2.59 0.62
-5 4 6 3.82 0.69
-5 4 6 5.14 0.81
-5 4 6 4.31 0.74
-5 4 7 44.48 2.02
-5 5 -5 220.41 12.77
-5 5 -4 12.91 3.36
-5 5 -4 12.6 2.81
-5 5 -3 614.59 24.36
-5 5 -3 614.81 14.73
-5 5 -3 611.57 14.54
-5 5 -3 574.34 24.72
-5 5 -3 597.13 21.29
-5 5 -2 17.53 1.5
-5 5 -2 22.89 3.98
-5 5 -2 25.06 1.86
-5 5 -2 22.63 4.31
-5 5 -1 160.44 5.49
-5 5 -1 161.21 5.03
-5 5 -1 149.79 9.9
-5 5 -1 148.13 10.82
-5 5 -1 157.34 5.71
-5 5 -1 165.7 5.72
-5 5 -1 161.21 5.29
-5 5 -1 162.05 5.56
-5 5 0 295.21 8.85
-5 5 0 302.55 8.69
-5 5 0 293.99 8.33
-5 5 0 311.81 8.67
-5 5 0 311.07 8.92
-5 5 0 277.55 14.27
-5 5 0 323.24 8.36
-5 5 0 290.53 8.5
-5 5 1 342.76 9.16
-5 5 1 310.85 14.33
-5 5 1 340.72 9.12
-5 5 1 336.65 9.32
-5 5 1 333.14 9.19
-5 5 2 200.52 6.21
-5 5 2 197.26 6.34
-5 5 2 198.27 6.16
-5 5 2 195.77 6.59
-5 5 2 185.44 6.04
-5 5 3 32.86 2.1
-5 5 3 29.1 2.17
-5 5 3 30.89 1.99
-5 5 3 28.23 1.89
-5 5 3 34.28 2.12
-5 5 4 286.81 7.79
-5 5 4 302.56 8.24
-5 5 4 279.24 8.27
-5 5 4 312.97 8.2
-5 5 4 292.01 8.04
-5 5 5 100.96 3.6
-5 5 5 92.41 3.35
-5 5 5 94.52 3.49
-5 5 6 189.74 5.26
-5 6 -3 4.13 0.85
-5 6 -3 3.33 0.74
-5 6 -2 0.54 0.45
-5 6 -2 0.68 0.5
-5 6 -2 0.64 0.49
-5 6 -2 1.68 0.61
-5 6 -2 -0.59 1.11
-5 6 -1 114.97 4.44
-5 6 -1 109.19 3.84
-5 6 -1 113.84 4.27
-5 6 -1 111.03 4.54
-5 6 -1 105.47 3.98
-5 6 -1 109.98 4.26
-5 6 0 27.63 2.06
-5 6 0 30.08 2
-5 6 0 29.36 2.04
-5 6 0 28.88 1.82
-5 6 0 26.95 1.98
-5 6 1 154.26 5.2
-5 6 1 151.05 5.25
-5 6 1 158.13 5.59
-5 6 1 148.39 5.36
-5 6 1 155.81 5.08
-5 6 2 13.35 1.34
-5 6 2 15.02 1.43
-5 6 2 15.87 1.47
-5 6 2 18.41 1.56
-5 6 2 15.86 1.45
-5 6 2 13.98 1.47
-5 6 3 1.76 0.62
-5 6 3 2.55 0.69
-5 6 3 2.78 0.65
-5 6 3 2.41 0.62
-5 6 4 0.21 0.43
-5 6 4 0.33 0.4
-5 6 4 0.21 0.4
-5 6 4 0.34 0.41
-5 6 5 -0.11 0.36
-5 6 5 0.53 0.35
-5 7 -8 108.06 3.15
-5 7 -5 143.34 4.76
-5 7 -4 112.84 4.44
-5 7 -4 115.11 4.05
-5 7 -4 108.5 4.12
-5 7 -3 307.03 8.54
-5 7 -3 329.56 9.03
-5 7 -3 302.42 8.5
-5 7 -2 30.37 2.12
-5 7 -2 25.93 1.86
-5 7 -2 27.59 1.92
-5 7 -2 26.8 1.81
-5 7 -1 309.93 8.64
-5 7 -1 316 8.48
-5 7 -1 294.26 8.46
-5 7 -1 296.04 7.71
-5 7 -1 293.8 8.24
-5 7 0 116.92 4.37
-5 7 0 110.61 4.17
-5 7 0 120.46 4.41
-5 7 0 112.97 3.91
-5 7 0 116.56 4.28
-5 7 1 157.08 5.17
-5 7 1 157.76 5.21
-5 7 1 150.69 4.87
-5 7 1 170.6 5.26
-5 7 1 159.04 5.16
-5 7 2 318.51 8.38
-5 7 2 322.55 8.4
-5 7 2 321.52 8.28
-5 7 2 316.58 8.41
-5 7 3 30.32 1.66
-5 7 3 30.27 1.69
-5 7 3 28.67 1.65
-5 7 3 32.77 1.74
-5 7 4 82.49 2.72
-5 7 4 74.58 2.59
-5 7 4 79.99 2.69
-5 7 4 75.81 2.55
-5 8 -8 23.28 1.09
-5 8 -7 -0.05 0.27
-5 8 -7 0.35 0.31
-5 8 -6 0.44 0.41
-5 8 -6 0.49 0.36
-5 8 -5 17.03 1.39
-5 8 -5 20.93 1.47
-5 8 -4 0.39 0.44
-5 8 -4 0.54 0.37
-5 8 -4 0.69 0.45
-5 8 -3 1.12 0.47
-5 8 -3 1.19 0.55
-5 8 -2 2.23 0.64
-5 8 -2 2.4 0.6
-5 8 -2 2.71 0.67
-5 8 -2 2.58 0.6
-5 8 -1 0.31 0.42
-5 8 -1 0.41 0.41
-5 8 -1 0.14 0.43
-5 8 -1 0.16 0.39
-5 8 0 0.94 0.4
-5 8 0 2.06 0.52
-5 8 0 2.11 0.57
-5 8 0 1.08 0.5
-5 8 1 1.05 0.45
-5 8 1 1.56 0.43
-5 8 1 1.19 0.4
-5 8 1 1.12 0.44
-5 8 2 12.11 0.94
-5 8 2 13.2 1.02
-5 8 3 14.2 0.9
-5 8 3 13.93 0.9
-5 9 -7 49.49 1.76
-5 9 -6 201.58 5.26
-5 9 -5 295.28 7.4
-5 9 -4 200.99 5.46
-5 9 -4 216.59 5.77
-5 9 -3 34.23 1.78
-5 9 -3 34.5 1.75
-5 9 -2 60.07 2.44
-5 9 -2 58.64 2.41
-5 9 -1 70.45 2.52
-5 9 -1 74.1 2.74
-5 9 0 65.17 2.31
-5 9 1 138.46 3.73
-5 10 -5 0.51 0.24
-5 10 -4 24.89 1.17
-4 -8 1 0.57 0.39
-4 -8 2 8.42 1
-4 -8 3 26.59 1.84
-4 -8 5 6.18 0.92
-4 -8 6 31.84 1.84
-4 -8 6 31.29 1.82
-4 -8 7 13.28 1.07
-4 -8 7 11.74 1.05
-4 -8 8 3.18 0.53
-4 -8 8 3.71 0.57
-4 -7 0 133.78 4.62
-4 -7 1 374.78 10.14
-4 -7 2 131.59 5
-4 -7 3 145.21 5.39
-4 -7 4 119.19 4.72
-4 -7 5 353.31 9.74
-4 -7 6 84.53 3.52
-4 -7 7 166.24 5.25
-4 -7 7 176.28 5.14
-4 -7 8 323.02 8.38
-4 -7 8 332.4 8.54
-4 -7 9 125.23 4.07
-4 -7 9 130 3.98
-4 -7 9 120.69 3.89
-4 -7 10 53.98 1.95
-4 -7 10 61.23 2.22
-4 -6 -1 6.58 1.03
-4 -6 0 53.71 3
-4 -6 1 38.41 2.6
-4 -6 2 1.1 0.7
-4 -6 4 34.76 2.42
-4 -6 5 17.28 1.67
-4 -6 6 2.36 0.7
-4 -6 6 2.22 0.61
-4 -6 7 3.82 0.68
-4 -6 7 3.09 0.73
-4 -6 7 3.62 0.77
-4 -6 8 17.01 1.62
-4 -6 8 20.95 1.69
-4 -6 8 20.63 1.69
-4 -6 9 26.97 1.81
-4 -6 9 30.14 1.88
-4 -6 9 29.42 1.93
-4 -6 10 88.44 3.13
-4 -6 10 86.75 3.2
-4 -6 10 91.95 3.31
-4 -6 11 26.36 1.33
-4 -5 -2 344.23 9.46
-4 -5 -1 368.25 10.33
-4 -5 0 123.63 4.99
-4 -5 0 118.41 8.96
-4 -5 1 464.13 12.54
-4 -5 1 469.02 19.67
-4 -5 2 298.97 15.26
-4 -5 2 296.82 8.94
-4 -5 3 168.82 11.27
-4 -5 3 173.71 11.52
-4 -5 3 176.74 6.14
-4 -5 4 198.24 12.26
-4 -5 4 198.37 6.56
-4 -5 5 491.12 12.54
-4 -5 5 472.02 12.18
-4 -5 6 61.5 2.98
-4 -5 6 68.55 3.46
-4 -5 6 67.94 6.79
-4 -5 6 64.14 3.17
-4 -5 6 71.07 7.08
-4 -5 7 404.04 10.77
-4 -5 7 393.76 10.76
-4 -5 8 123.19 4.81
-4 -5 8 115.19 4.58
-4 -5 8 108.95 4.08
-4 -5 8 118.65 4.6
-4 -5 9 261.68 7.78
-4 -5 9 267.08 7.7
-4 -5 9 263.91 7.69
-4 -5 10 211.54 6.15
-4 -5 10 201.78 5.95
-4 -5 10 202.24 6.03
-4 -5 11 1.99 0.44
-4 -4 -3 183.61 5.93
-4 -4 -2 1.54 0.65
-4 -4 -2 0.49 1.2
-4 -4 -1 16.23 3.32
-4 -4 -1 11.73 2.83
-4 -4 -1 21.8 1.88
-4 -4 0 135.53 9.47
-4 -4 0 134.68 5.19
-4 -4 1 85.24 7.4
-4 -4 1 73.31 3.56
-4 -4 2 39.14 5.06
-4 -4 3 27.79 2.04
-4 -4 3 27.1 4.24
-4 -4 3 21.39 3.94
-4 -4 4 89.32 3.78
-4 -4 4 91.79 7.75
-4 -4 4 84.94 3.53
-4 -4 5 135.39 4.88
-4 -4 5 139.31 9.64
-4 -4 5 133.8 4.79
-4 -4 5 139.7 9.51
-4 -4 6 100.76 3.82
-4 -4 6 87.32 7.75
-4 -4 6 106.33 4.28
-4 -4 6 104.23 4.42
-4 -4 6 92.78 7.78
-4 -4 7 10.12 2.62
-4 -4 7 14.47 1.54
-4 -4 7 13.38 1.5
-4 -4 8 85.13 3.61
-4 -4 8 97.91 4.19
-4 -4 8 92.16 4.06
-4 -4 9 3.87 0.87
-4 -4 9 2.76 0.82
-4 -4 10 266.05 7.43
-4 -4 10 257.04 7.43
-4 -4 11 174.53 4.95
-4 -4 11 169.11 4.86
-4 -3 -3 228.6 7.12
-4 -3 -2 84.3 7.2
-4 -3 -2 76.36 3.62
-4 -3 -2 76.97 6.81
-4 -3 -1 661.73 22.75
-4 -3 -1 684.95 23.49
-4 -3 -1 676.59 16.49
-4 -3 0 410.66 16.92
-4 -3 0 401.71 10.77
-4 -3 1 304.7 8.63
-4 -3 1 299.79 14.05
-4 -3 2 391.94 16.28
-4 -3 2 378.84 10.15
-4 -3 3 249.06 6.92
-4 -3 3 250.11 7.34
-4 -3 4 54.42 5.61
-4 -3 4 54.8 2.72
-4 -3 4 52.69 5.44
-4 -3 4 52.97 2.64
-4 -3 5 346.27 15.43
-4 -3 5 361.82 9.78
-4 -3 5 376.25 9.51
-4 -3 5 379.24 10.26
-4 -3 5 336.09 9.21
-4 -3 5 369.55 15.56
-4 -3 6 113.05 8.05
-4 -3 6 120.79 4.37
-4 -3 6 129.68 4.87
-4 -3 6 111.06 8.26
-4 -3 6 130.22 5
-4 -3 7 308.84 9.05
-4 -3 7 291.09 8.33
-4 -3 7 302.42 8.85
-4 -3 7 311.62 9.02
-4 -3 8 64.29 3.32
-4 -3 8 62.82 3.33
-4 -3 8 64.89 3.34
-4 -3 8 54.2 2.83
-4 -3 8 61.75 2.95
-4 -3 9 138.25 5.12
-4 -3 9 134.48 5.07
-4 -3 9 135.94 4.66
-4 -3 10 121.84 4.02
-4 -3 10 124.14 4.46
-4 -3 10 120.87 4.34
-4 -3 10 124.25 4.42
-4 -3 11 1.6 0.47
-4 -2 -4 58.77 6.24
-4 -2 -4 53.92 2.83
-4 -2 -3 656.91 16
-4 -2 -3 665.06 23.27
-4 -2 -2 28.53 3.89
-4 -2 -2 19.27 3.39
-4 -2 -2 22.59 1.8
-4 -2 -1 278.39 12.89
-4 -2 -1 263.54 11.93
-4 -2 -1 269.59 7.82
-4 -2 0 162.21 5.42
-4 -2 0 161.9 8.41
-4 -2 0 177.1 9.79
-4 -2 1 595.01 20.52
-4 -2 2 417.37 10.6
-4 -2 2 410.87 10.06
-4 -2 3 15.8 1.39
-4 -2 3 14.79 1.31
-4 -2 3 15.52 1.28
-4 -2 3 11.52 2.46
-4 -2 4 424.27 16.29
-4 -2 4 423.19 10.65
-4 -2 4 419.58 10.81
-4 -2 4 418.93 10.71
-4 -2 4 428.08 16.46
-4 -2 4 439.9 11.43
-4 -2 5 70.68 5.84
-4 -2 5 63.81 2.99
-4 -2 5 64.77 3.11
-4 -2 5 65.63 5.84
-4 -2 5 70.69 3.45
-4 -2 6 367.15 10.6
-4 -2 6 386.51 10.24
-4 -2 6 402.55 10.65
-4 -2 6 369.32 14.56
-4 -2 7 171.18 6.03
-4 -2 7 173.07 5.88
-4 -2 7 179.49 6.22
-4 -2 7 180.67 6.14
-4 -2 8 95.91 4.13
-4 -2 8 103.71 4.13
-4 -2 9 95.8 3.88
-4 -2 9 96.14 4.06
-4 -2 9 97.19 4.04
-4 -2 10 154.04 4.87
-4 -2 10 157.13 5.15
-4 -2 10 152.35 4.93
-4 -2 10 145.58 4.86
-4 -2 11 109.11 3.56
-4 -1 -5 303.51 14.98
-4 -1 -4 1073.85 24.22
-4 -1 -3 150.1 9.31
-4 -1 -3 167.46 5.55
-4 -1 -2 94.81 7.03
-4 -1 -2 96.32 3.85
-4 -1 -2 88.69 6.5
-4 -1 -1 295.26 12.83
-4 -1 -1 292.79 11.87
-4 -1 -1 292.05 8.17
-4 -1 0 25.88 1.77
-4 -1 0 21.8 2.74
-4 -1 1 789.52 17.54
-4 -1 1 805.02 18.26
-4 -1 1 796.73 21.17
-4 -1 2 243.56 8.32
-4 -1 2 254.08 7.15
-4 -1 2 253.25 6.8
-4 -1 3 42.24 2.28
-4 -1 3 48.73 2.39
-4 -1 3 50.57 2.69
-4 -1 3 43.31 2.25
-4 -1 3 45.93 4.51
-4 -1 4 188.66 9.44
-4 -1 4 179.46 5.73
-4 -1 4 189.61 6.18
-4 -1 4 186.17 5.49
-4 -1 4 177.33 5.73
-4 -1 5 8.8 1.13
-4 -1 5 7.73 1.09
-4 -1 5 8.31 1.91
-4 -1 5 7.08 1.17
-4 -1 6 26.75 1.96
-4 -1 6 24.44 2.02
-4 -1 6 22.4 1.89
-4 -1 6 26.28 2.02
-4 -1 7 183.78 6.12
-4 -1 7 176.52 5.97
-4 -1 7 178.69 5.44
-4 -1 7 179.78 6.26
-4 -1 7 168.93 6.02
-4 -1 8 59.62 3.05
-4 -1 8 56.33 3.16
-4 -1 8 57.85 3.16
-4 -1 8 59.15 3.08
-4 -1 9 75.11 3.42
-4 -1 9 79.32 3.51
-4 -1 9 76.49 3.36
-4 -1 10 1.57 0.51
-4 -1 10 2.31 0.59
-4 0 -4 252.84 13.26
-4 0 -4 244.61 7.25
-4 0 -3 779.5 18.21
-4 0 -3 800.81 26.18
-4 0 -3 768.05 24.31
-4 0 -2 197.25 9.54
-4 0 -2 194.85 6.07
-4 0 -1 1005.16 26.46
-4 0 -1 1028.58 28.31
-4 0 -1 945.57 21.74
-4 0 0 200.93 9.76
-4 0 0 195.68 8.2
-4 0 0 195.86 5.38
-4 0 1 579.13 16.04
-4 0 1 615.41 14.44
-4 0 1 597.2 19.3
-4 0 1 586.48 13.76
-4 0 1 630.45 14.37
-4 0 2 1100.16 23.8
-4 0 2 1120.26 29.92
-4 0 2 1093.79 24.01
-4 0 2 1066.88 24.39
-4 0 3 338.35 8.87
-4 0 3 342.68 9.34
-4 0 3 322.76 8.59
-4 0 3 342.79 13.07
-4 0 3 331.88 8.79
-4 0 4 191.86 5.5
-4 0 4 197.35 6.04
-4 0 4 184.92 6.31
-4 0 4 182.85 5.76
-4 0 4 193.49 6.05
-4 0 4 182.64 8.87
-4 0 5 247.61 7.28
-4 0 5 251.94 7.81
-4 0 5 236.05 6.84
-4 0 5 239.93 6.77
-4 0 5 242.59 7.4
-4 0 5 246.94 6.72
-4 0 5 251.34 7.39
-4 0 6 482.59 13.02
-4 0 6 502.85 12.86
-4 0 6 493.81 12.75
-4 0 6 491.42 12.37
-4 0 6 482.68 12.07
-4 0 6 500.01 12.14
-4 0 6 507.56 13
-4 0 7 97.04 4.2
-4 0 7 92.7 4.22
-4 0 7 101.58 4.04
-4 0 7 94.33 3.75
-4 0 7 101.88 4.37
-4 0 8 229.45 7.31
-4 0 8 215.25 6.68
-4 0 8 229.37 7.21
-4 0 8 226.35 7.14
-4 0 9 158.24 5.34
-4 0 9 152.87 5.1
-4 0 9 156.56 5.41
-4 0 10 130.83 4.34
-4 0 10 129.65 4.24
-4 0 11 93.52 2.8
-4 1 -6 47.18 5.83
-4 1 -5 166.52 10.98
-4 1 -4 154.31 9.9
-4 1 -4 146.91 5.15
-4 1 -3 506.13 12.8
-4 1 -3 517.09 12.42
-4 1 -3 531.09 19.47
-4 1 -2 188.07 5.91
-4 1 -1 4.2 1.47
-4 1 -1 4.12 0.79
-4 1 -1 3.02 0.65
-4 1 -1 4.81 0.67
-4 1 0 1.08 0.49
-4 1 0 0.61 0.4
-4 1 0 0.65 0.5
-4 1 1 6.63 0.86
-4 1 1 6.18 0.93
-4 1 1 4.88 0.88
-4 1 2 196.24 6.29
-4 1 2 206.53 5.71
-4 1 2 197.2 8.07
-4 1 2 199.85 5.65
-4 1 2 197.63 5.85
-4 1 2 190.69 5.81
-4 1 3 2.69 0.67
-4 1 3 2.6 0.72
-4 1 3 2.64 0.76
-4 1 3 3.11 0.55
-4 1 3 1.75 0.5
-4 1 3 1.5 0.48
-4 1 3 2.02 0.54
-4 1 4 78.62 3.43
-4 1 4 76.03 3.04
-4 1 4 82.01 3.06
-4 1 4 81.81 3.21
-4 1 4 75.94 3.24
-4 1 4 78.16 3.27
-4 1 5 10.27 1.26
-4 1 5 10.94 1.46
-4 1 5 11.05 1.32
-4 1 5 10.09 1.15
-4 1 5 12.3 1.22
-4 1 5 12.98 1.35
-4 1 5 9.77 1.08
-4 1 5 9.72 1.04
-4 1 6 88.68 3.93
-4 1 6 86.81 3.57
-4 1 6 90.18 4.05
-4 1 6 94.53 3.76
-4 1 6 85.67 3.61
-4 1 6 89.92 3.96
-4 1 7 1.92 0.64
-4 1 7 3.07 0.83
-4 1 7 2.88 0.74
-4 1 7 2.72 0.81
-4 1 8 29.54 1.95
-4 1 8 29.32 2.13
-4 1 8 26.26 1.92
-4 1 9 11.18 1.24
-4 1 10 2.73 0.53
-4 2 -7 122.73 9.66
-4 2 -6 181.03 11.78
-4 2 -6 216.29 12.7
-4 2 -5 334.09 15.95
-4 2 -4 1079.18 32.71
-4 2 -4 1064.56 23.55
-4 2 -3 268.04 7.47
-4 2 -2 779.04 24.26
-4 2 -2 769.7 18.18
-4 2 -2 816.83 18.03
-4 2 -2 766.69 17.41
-4 2 -1 709.92 21.58
-4 2 -1 678.7 15.98
-4 2 -1 714.84 16.4
-4 2 -1 710.08 15.93
-4 2 0 209.92 6.3
-4 2 0 210.13 5.83
-4 2 0 196.65 5.76
-4 2 0 208.27 5.87
-4 2 0 199.8 6.13
-4 2 1 1262.8 32.45
-4 2 1 1228.86 26.65
-4 2 1 1236.71 26.61
-4 2 1 1189.91 27.1
-4 2 1 1211.83 27
-4 2 1 1174.7 31.4
-4 2 1 1266.97 26.54
-4 2 1 1244 26.58
-4 2 1 1214.54 26.31
-4 2 2 319.4 11.78
-4 2 2 336.1 8.76
-4 2 2 347.75 8.68
-4 2 2 329.54 9.38
-4 2 2 323.13 9.03
-4 2 2 343.23 8.64
-4 2 2 356.27 9.06
-4 2 2 336.99 11.14
-4 2 2 333 8.35
-4 2 3 892.84 19.69
-4 2 3 881.39 19.81
-4 2 3 893.52 19.91
-4 2 3 870.8 20.01
-4 2 3 867.11 19.46
-4 2 3 860.38 20.72
-4 2 3 885.99 20.09
-4 2 4 137.3 4.61
-4 2 4 142.18 4.82
-4 2 4 133.29 4.59
-4 2 4 144.94 4.68
-4 2 4 147.43 5.21
-4 2 4 132.53 4.68
-4 2 4 147.75 5.06
-4 2 5 107.88 3.95
-4 2 5 117.17 4.32
-4 2 5 111.9 4.36
-4 2 5 117.96 4.24
-4 2 5 119.08 4.41
-4 2 5 115.55 4.65
-4 2 5 113.61 4.49
-4 2 6 402.02 10.91
-4 2 6 400.24 10.72
-4 2 6 391.7 10.44
-4 2 6 420.41 10.53
-4 2 6 402.58 10.4
-4 2 6 390.43 10.7
-4 2 7 135.63 4.79
-4 2 7 146.85 5.09
-4 2 7 150.48 5.11
-4 2 7 148 5.27
-4 2 7 145.04 5.18
-4 2 7 140.93 5.24
-4 2 8 146.99 4.88
-4 2 8 129.96 4.38
-4 2 8 138.85 4.89
-4 2 9 58.63 2.55
-4 2 9 63.44 2.58
-4 3 -7 4.96 2.1
-4 3 -6 26.07 4.37
-4 3 -6 20.86 3.92
-4 3 -5 4.14 1.97
-4 3 -4 27.28 1.82
-4 3 -4 26.66 4.03
-4 3 -4 24.25 4.09
-4 3 -3 24.77 3.75
-4 3 -3 31.6 2.01
-4 3 -2 75.44 5.93
-4 3 -2 69.81 6.25
-4 3 -2 69.92 2.84
-4 3 -2 73.07 3.24
-4 3 -2 73.09 2.97
-4 3 -1 0.27 0.48
-4 3 -1 1.45 0.55
-4 3 -1 0.21 0.36
-4 3 -1 0.28 0.77
-4 3 -1 0.14 0.38
-4 3 -1 0.74 0.42
-4 3 -1 -0.37 0.7
-4 3 0 5.37 0.74
-4 3 0 3.28 0.63
-4 3 0 3.61 1.43
-4 3 0 3.32 0.59
-4 3 0 5.12 0.83
-4 3 0 4.17 1.45
-4 3 0 3.89 0.72
-4 3 0 4.25 0.81
-4 3 1 18.96 1.39
-4 3 1 23.19 1.66
-4 3 1 23.6 1.63
-4 3 1 25.4 3.36
-4 3 1 22.81 1.55
-4 3 1 22.79 1.75
-4 3 1 24.72 1.55
-4 3 1 21.91 1.6
-4 3 1 21.88 2.8
-4 3 1 19.16 1.71
-4 3 2 37.31 2.15
-4 3 2 36.33 2.11
-4 3 2 38.67 2.15
-4 3 2 36.82 2.23
-4 3 2 36.68 2
-4 3 2 39.15 3.85
-4 3 2 32.88 1.95
-4 3 3 86.26 3.4
-4 3 3 84.93 3.45
-4 3 3 85.34 3.73
-4 3 3 86.41 3.38
-4 3 3 85.63 3.54
-4 3 3 85.26 3.51
-4 3 3 83.98 3.42
-4 3 3 83.37 3.4
-4 3 3 82.87 3.52
-4 3 4 80.74 3.4
-4 3 4 75.84 3.22
-4 3 4 80.38 3.49
-4 3 4 68.07 3.09
-4 3 4 79.24 3.66
-4 3 4 81.76 3.39
-4 3 4 82.4 3.54
-4 3 5 35.1 2.25
-4 3 5 37.01 2.27
-4 3 5 40.26 2.41
-4 3 5 29.68 2.08
-4 3 5 30.6 1.82
-4 3 5 35.2 2.4
-4 3 5 37.75 2.26
-4 3 5 37.71 2.14
-4 3 5 35.57 2.22
-4 3 6 41.71 2.15
-4 3 6 43.91 2.48
-4 3 6 47.11 2.61
-4 3 6 38.43 2.4
-4 3 6 39.31 2.46
-4 3 6 48.02 2.62
-4 3 6 42.39 2.16
-4 3 6 43.76 2.44
-4 3 7 6.1 0.92
-4 3 7 6.27 0.78
-4 3 7 6.08 0.91
-4 3 7 7.81 1.06
-4 3 7 7.68 1.07
-4 3 7 5.31 0.83
-4 3 7 6.93 1.01
-4 3 8 93.02 3.45
-4 3 8 99.83 3.48
-4 4 -7 74.23 7.55
-4 4 -6 355.53 17.29
-4 4 -5 38.95 5.41
-4 4 -5 40.31 5.22
-4 4 -4 859.29 27.65
-4 4 -4 885.53 29.21
-4 4 -4 839.61 19.64
-4 4 -3 1354.23 36.29
-4 4 -3 1301.94 38.19
-4 4 -3 1289.09 28.1
-4 4 -3 1311.55 28.86
-4 4 -2 398.68 15.18
-4 4 -2 405.17 10.52
-4 4 -2 419.21 10.37
-4 4 -2 419.63 10.98
-4 4 -2 427.59 17.48
-4 4 -2 384.61 17.6
-4 4 -2 425.65 10.38
-4 4 -1 439.87 18.06
-4 4 -1 457.64 11.07
-4 4 -1 443.33 11.06
-4 4 -1 454 10.64
-4 4 -1 466.72 11.73
-4 4 -1 419.17 16.91
-4 4 -1 422 10.85
-4 4 -1 457.46 11.29
-4 4 -1 431.2 14.94
-4 4 0 268.16 7.32
-4 4 0 259.54 7.08
-4 4 0 258.33 7.19
-4 4 0 266.53 7.41
-4 4 0 274.21 12.89
-4 4 0 263.82 7.56
-4 4 0 275.27 7.94
-4 4 0 264.31 11.68
-4 4 0 266.54 7.58
-4 4 1 368.43 9.5
-4 4 1 374.03 9.64
-4 4 1 353.19 12.87
-4 4 1 369.98 14.99
-4 4 1 381.73 9.79
-4 4 1 401.47 9.82
-4 4 1 371.91 10.18
-4 4 1 372.61 9.92
-4 4 2 278.97 7.64
-4 4 2 275.58 8.16
-4 4 2 282.71 7.81
-4 4 2 269.78 7.97
-4 4 2 289 7.8
-4 4 2 260.58 11.68
-4 4 2 282.65 7.86
-4 4 2 295.11 7.98
-4 4 3 731.79 17.55
-4 4 3 747.48 17.58
-4 4 3 775.92 17.54
-4 4 3 785.96 17.69
-4 4 3 721.63 17.99
-4 4 3 778.18 17.66
-4 4 3 754.97 17.62
-4 4 3 739.68 17.77
-4 4 4 88.23 3.69
-4 4 4 90.04 3.71
-4 4 4 91.69 3.66
-4 4 4 87.74 3.8
-4 4 4 96.09 3.83
-4 4 4 85.77 3.88
-4 4 5 149.33 5.41
-4 4 5 163.52 5.45
-4 4 5 163.96 5.45
-4 4 5 166.79 5.25
-4 4 5 156.23 4.99
-4 4 5 172.75 5.56
-4 4 5 155.51 5.29
-4 4 6 12.84 1.24
-4 4 6 13.72 1.34
-4 4 6 11 1.13
-4 4 6 14 1.17
-4 4 6 12.19 1.19
-4 4 6 13.74 1.32
-4 4 7 144.73 4.48
-4 4 7 154.58 4.82
-4 4 7 151.03 4.58
-4 5 -7 59.12 6.74
-4 5 -6 30.37 4.72
-4 5 -6 31.62 5.31
-4 5 -6 28.87 4.89
-4 5 -5 336.63 17.94
-4 5 -5 373.67 16.92
-4 5 -5 393.68 18.29
-4 5 -4 63.17 2.75
-4 5 -4 56.27 5.87
-4 5 -4 49.05 6.46
-4 5 -3 1.01 1.37
-4 5 -3 1.44 0.52
-4 5 -3 2.34 0.59
-4 5 -3 1.48 1.15
-4 5 -2 131.41 7.83
-4 5 -2 144.04 4.84
-4 5 -2 139.21 10.16
-4 5 -2 149.38 4.81
-4 5 -2 134.01 9.43
-4 5 -1 5.83 2.07
-4 5 -1 4.93 0.81
-4 5 -1 4.4 1.59
-4 5 -1 3.75 0.75
-4 5 -1 4.71 0.74
-4 5 -1 5.23 0.89
-4 5 -1 5.65 1
-4 5 -1 4.41 0.83
-4 5 0 50.09 5.51
-4 5 0 55.7 2.7
-4 5 0 51.14 2.73
-4 5 0 52.65 2.68
-4 5 0 53.61 2.65
-4 5 0 59.51 2.6
-4 5 0 45.34 4.62
-4 5 0 56.88 2.62
-4 5 1 60.6 2.85
-4 5 1 54.34 2.61
-4 5 1 58.23 2.71
-4 5 1 57.4 2.99
-4 5 1 48.04 5.16
-4 5 1 59.93 2.87
-4 5 1 59.95 3
-4 5 2 112.98 4.01
-4 5 2 107.21 4.21
-4 5 2 110.41 4.44
-4 5 2 113.48 4.17
-4 5 2 104.68 4.27
-4 5 2 109.12 4.2
-4 5 2 107.49 7.39
-4 5 2 108.99 3.96
-4 5 3 235.8 7.07
-4 5 3 238.51 6.99
-4 5 3 241.02 7.11
-4 5 3 244.31 7.2
-4 5 3 245.39 7.32
-4 5 3 251.43 7.19
-4 5 3 231.78 6.76
-4 5 3 228.03 7.28
-4 5 4 0.61 0.48
-4 5 4 0.56 0.52
-4 5 4 0.69 0.51
-4 5 4 0.53 0.4
-4 5 4 0.19 0.47
-4 5 4 0.58 0.49
-4 5 5 36.51 2.17
-4 5 5 32.04 1.91
-4 5 5 38.37 2.08
-4 5 5 36.56 2.19
-4 5 5 38.87 2.23
-4 5 5 36.28 2.12
-4 5 5 35.18 1.88
-4 5 6 67.45 2.86
-4 5 6 70.63 2.85
-4 5 7 5.95 0.65
-4 6 -6 342.48 17.17
-4 6 -6 350.81 18.13
-4 6 -6 340.36 16.31
-4 6 -5 5.17 2.09
-4 6 -5 2.53 1.56
-4 6 -5 5.12 1.98
-4 6 -4 172.68 12.43
-4 6 -4 197.28 5.94
-4 6 -4 184.93 10.72
-4 6 -4 188.23 12.22
-4 6 -3 611.97 25.55
-4 6 -3 679.62 15.94
-4 6 -3 649.56 24.78
-4 6 -3 677.39 15.67
-4 6 -2 554.56 13.14
-4 6 -2 551.86 13.37
-4 6 -2 559.92 22.47
-4 6 -2 529.7 13.57
-4 6 -2 517.56 13.35
-4 6 -2 493.13 20.17
-4 6 -1 297.45 13.69
-4 6 -1 311.35 8.46
-4 6 -1 287.86 7.78
-4 6 -1 288.78 8.47
-4 6 -1 276.66 14.75
-4 6 -1 309.06 8.29
-4 6 -1 290.87 8.37
-4 6 0 151.82 4.85
-4 6 0 148.2 5.02
-4 6 0 133.47 9.44
-4 6 0 145.99 5.18
-4 6 0 140.19 5.05
-4 6 0 142.8 5.07
-4 6 1 177.22 5.67
-4 6 1 167.12 5.7
-4 6 1 169.1 5.69
-4 6 1 177.15 5.53
-4 6 1 171.4 5.7
-4 6 1 159.83 5.75
-4 6 2 2.86 0.72
-4 6 2 3.19 0.78
-4 6 2 2.76 0.76
-4 6 2 3.35 0.73
-4 6 2 3.05 0.74
-4 6 2 3.39 0.78
-4 6 2 3.36 0.64
-4 6 3 412.01 10.82
-4 6 3 442.29 11.07
-4 6 3 424.17 10.99
-4 6 3 453.04 11.19
-4 6 3 419.16 10.68
-4 6 3 425.29 10.98
-4 6 4 73.01 3.06
-4 6 4 72.26 3.11
-4 6 4 68.87 3.04
-4 6 5 66.23 2.71
-4 6 5 69.07 2.79
-4 6 5 62.25 2.55
-4 6 6 14.81 1.03
-4 6 6 12.92 0.99
-4 7 -5 300.3 8.03
-4 7 -4 11.62 3.3
-4 7 -4 9.9 2.9
-4 7 -4 9.96 1.15
-4 7 -3 145.52 5.08
-4 7 -3 147.44 4.75
-4 7 -3 151.43 11.27
-4 7 -3 146.44 5.23
-4 7 -2 23.64 1.79
-4 7 -2 19.29 1.54
-4 7 -2 19.33 1.67
-4 7 -2 13.53 3.3
-4 7 -2 19.3 1.73
-4 7 -2 18.15 3.4
-4 7 -1 187.28 5.81
-4 7 -1 180.19 5.42
-4 7 -1 180.57 5.96
-4 7 -1 176.82 5.88
-4 7 -1 184.3 6.05
-4 7 -1 162.26 11.12
-4 7 0 180.6 5.53
-4 7 0 181.71 5.81
-4 7 0 170.89 5.68
-4 7 0 178.76 5.91
-4 7 1 1.25 0.54
-4 7 1 2.05 0.58
-4 7 1 0.75 0.5
-4 7 1 0.96 0.51
-4 7 2 272.8 7.66
-4 7 2 268.54 7.65
-4 7 2 277.02 7.56
-4 7 2 269.74 7.57
-4 7 3 147.17 4.57
-4 7 3 144.71 4.68
-4 7 3 134.72 4.39
-4 7 3 142.72 4.67
-4 7 3 143.16 4.68
-4 7 4 70.93 2.72
-4 7 4 70.68 2.61
-4 7 4 68.4 2.75
-4 7 4 70.38 2.75
-4 7 5 29.97 1.35
-4 7 5 32.4 1.52
-4 7 5 30.16 1.43
-4 8 -6 178.91 5.53
-4 8 -5 2.61 0.63
-4 8 -5 3 0.7
-4 8 -4 112.71 4.08
-4 8 -4 105.67 4.03
-4 8 -4 111.47 4.38
-4 8 -3 59.69 2.87
-4 8 -3 54.53 2.69
-4 8 -3 58.91 2.99
-4 8 -3 59.98 2.58
-4 8 -2 98.67 3.89
-4 8 -2 96.89 3.6
-4 8 -2 86.49 3.53
-4 8 -2 98.31 3.97
-4 8 -1 264.06 7.37
-4 8 -1 256.49 7.2
-4 8 -1 270.66 7.67
-4 8 -1 264.17 7.02
-4 8 0 85.67 3.23
-4 8 0 80.2 3.14
-4 8 0 89.36 3.46
-4 8 1 15.9 1.33
-4 8 1 12.77 1.25
-4 8 1 13.4 1.09
-4 8 1 13.92 1.19
-4 8 1 14.01 1.27
-4 8 2 0.83 0.38
-4 8 2 1.12 0.5
-4 8 2 0.8 0.39
-4 8 2 1.22 0.46
-4 8 3 40.47 1.88
-4 8 3 43.55 1.88
-4 8 3 43.09 1.92
-4 8 4 2.08 0.39
-4 8 4 1.98 0.35
-4 9 -9 35.38 1.4
-4 9 -8 247.45 6.31
-4 9 -7 170.12 5.04
-4 9 -6 21.21 1.53
-4 9 -5 94.77 3.28
-4 9 -5 93.36 3.64
-4 9 -4 64.55 2.73
-4 9 -4 60.61 2.86
-4 9 -3 170.56 5.28
-4 9 -2 60.76 2.74
-4 9 -2 63.61 2.52
-4 9 -1 107.98 3.6
-4 9 -1 102.03 3.27
-4 9 -1 111.6 3.83
-4 9 0 197.05 5.41
-4 9 0 205.58 5.68
-4 9 0 217.9 5.83
-4 9 0 207.17 5.84
-4 9 1 8.01 0.83
-4 9 1 9.61 0.83
-4 9 1 8.71 0.84
-4 9 1 7.81 0.79
-4 9 2 64.86 2.17
-4 9 2 58.67 2.03
-4 9 2 63.46 2.21
-4 10 -7 126.26 3.56
-4 10 -5 11.82 0.85
-4 10 -4 6.09 0.7
-4 10 -4 5.53 0.71
-4 10 -3 1.82 0.49
-4 10 -3 2.09 0.48
-4 10 -2 35.6 1.7
-4 10 -2 33.72 1.6
-4 10 -1 0.37 0.24
-4 10 -1 0.51 0.32
-4 10 -1 0.43 0.28
-4 10 0 87.64 2.54
-3 -9 2 31.48 1.81
-3 -9 3 13.65 1.27
-3 -9 4 67.62 3.01
-3 -9 5 32.07 1.97
-3 -9 6 36.2 1.99
-3 -9 7 123.6 3.86
-3 -8 0 52.35 2.46
-3 -8 1 280.91 8.01
-3 -8 2 46.91 2.7
-3 -8 3 133.44 5.06
-3 -8 5 130.52 4.93
-3 -8 6 135.92 4.86
-3 -8 7 107.45 3.81
-3 -8 7 95.11 3.54
-3 -8 7 100.42 3.69
-3 -8 8 28.32 1.71
-3 -8 8 29.94 1.68
-3 -8 8 28.74 1.76
-3 -8 9 4.08 0.64
-3 -8 9 5.36 0.74
-3 -8 10 27.45 1.31
-3 -7 -1 140.73 4.81
-3 -7 0 110.26 4.45
-3 -7 1 3.77 0.96
-3 -7 2 117.51 4.86
-3 -7 3 165.47 6.05
-3 -7 5 301.88 8.92
-3 -7 6 316.92 8.79
-3 -7 6 290 8.33
-3 -7 7 142.34 4.99
-3 -7 7 143.66 5.04
-3 -7 7 144.95 4.87
-3 -7 7 133.79 4.67
-3 -7 8 96.64 3.93
-3 -7 8 94.88 3.8
-3 -7 8 99.5 3.97
-3 -7 8 95.13 3.93
-3 -7 9 117.24 4.24
-3 -7 9 112.25 4.26
-3 -7 9 123.99 4.36
-3 -7 9 115.21 4
-3 -7 10 107.03 3.7
-3 -7 10 99.33 3.31
-3 -7 10 112.95 3.83
-3 -7 11 56.6 2.12
-3 -6 -1 3.58 0.86
-3 -6 0 257.92 8.06
-3 -6 1 119.35 9.03
-3 -6 1 121.95 8.95
-3 -6 1 124.66 5.05
-3 -6 2 94.91 8.16
-3 -6 2 88.77 7.92
-3 -6 2 94.73 4.25
-3 -6 2 87.76 7.8
-3 -6 3 48.31 5.68
-3 -6 3 56.16 6.39
-3 -6 3 47.62 5.89
-3 -6 4 139.51 10.37
-3 -6 4 163.63 11.02
-3 -6 4 168 5.85
-3 -6 5 268.55 13.72
-3 -6 5 286.74 8.09
-3 -6 5 258.77 14.48
-3 -6 5 293.4 8.47
-3 -6 6 8.67 1.19
-3 -6 6 5.22 2.3
-3 -6 6 7.8 1.12
-3 -6 6 7.36 1.07
-3 -6 7 31.8 2.19
-3 -6 7 25.7 1.87
-3 -6 7 29.04 1.89
-3 -6 7 25.91 2.04
-3 -6 8 40.11 2.56
-3 -6 8 37.35 2.46
-3 -6 8 38.5 2.4
-3 -6 8 39.26 2.49
-3 -6 9 2.17 0.7
-3 -6 9 1.09 0.54
-3 -6 9 1.5 0.64
-3 -6 9 1.23 0.6
-3 -6 10 20.63 1.62
-3 -6 10 20.3 1.61
-3 -6 10 20.65 1.49
-3 -6 11 23.12 1.31
-3 -6 11 24.9 1.53
-3 -5 -2 248.59 7.54
-3 -5 -1 445.41 11.83
-3 -5 0 310.2 8.96
-3 -5 0 303.84 14.45
-3 -5 1 262.56 7.83
-3 -5 1 252.45 12.59
-3 -5 1 249.42 12.78
-3 -5 1 241.45 12.84
-3 -5 2 252.24 12.44
-3 -5 2 236.2 12.65
-3 -5 2 239.61 7.36
-3 -5 2 225.84 12.28
-3 -5 3 416.25 17.02
-3 -5 3 428.51 17.98
-3 -5 3 434.98 11.45
-3 -5 3 466.6 18.59
-3 -5 4 117.71 4.43
-3 -5 4 113 8.44
-3 -5 4 107.18 7.82
-3 -5 4 116.33 4.11
-3 -5 4 111.18 8.61
-3 -5 5 409.28 16.69
-3 -5 5 407.46 10.82
-3 -5 5 436.67 11
-3 -5 5 427.26 17.84
-3 -5 6 542.37 13.12
-3 -5 6 526.64 20.51
-3 -5 6 563.23 21.49
-3 -5 6 537.42 13.6
-3 -5 6 523.38 13.45
-3 -5 7 665.92 16.07
-3 -5 7 683.41 23.98
-3 -5 7 685.47 16.67
-3 -5 7 695.84 24.64
-3 -5 7 678.57 16.77
-3 -5 8 131.75 5.06
-3 -5 8 130.84 5.2
-3 -5 8 132.49 5.15
-3 -5 8 135.46 5.27
-3 -5 9 71.29 3.42
-3 -5 9 70.15 3.47
-3 -5 9 74.35 3.65
-3 -5 9 77.19 3.67
-3 -5 10 206.02 6.62
-3 -5 10 216.64 6.47
-3 -5 11 161.67 5.08
-3 -5 11 164.02 4.97
-3 -5 11 158.26 4.77
-3 -4 -3 5.46 2.04
-3 -4 -3 6.35 0.98
-3 -4 -2 169.72 5.7
-3 -4 -1 15.95 3
-3 -4 -1 16.92 1.59
-3 -4 0 84.31 3.61
-3 -4 0 83.01 6.6
-3 -4 1 142.27 8.4
-3 -4 1 139.19 4.91
-3 -4 1 140.45 8.78
-3 -4 1 152.59 9.03
-3 -4 2 30.67 4.02
-3 -4 2 34.21 4.22
-3 -4 2 28.6 3.72
-3 -4 3 23.28 3.53
-3 -4 3 24.8 1.54
-3 -4 3 26.63 1.78
-3 -4 4 249.81 7.05
-3 -4 4 244.46 6.9
-3 -4 4 253.29 11.68
-3 -4 5 25.36 3.8
-3 -4 5 19.33 1.52
-3 -4 5 28.21 4.02
-3 -4 5 25.85 1.81
-3 -4 6 3.99 1.65
-3 -4 6 7.05 0.86
-3 -4 6 5.5 0.94
-3 -4 6 6.41 2
-3 -4 6 6.37 0.98
-3 -4 7 94.61 4.11
-3 -4 7 82.62 7.06
-3 -4 7 92.02 7.11
-3 -4 7 90.33 3.98
-3 -4 7 81.48 3.54
-3 -4 8 198.59 11.11
-3 -4 8 195.07 6.86
-3 -4 8 213.94 6.96
-3 -4 8 213.72 6.91
-3 -4 8 204.39 6.93
-3 -4 9 4.19 0.77
-3 -4 9 4.38 0.98
-3 -4 9 3.53 0.89
-3 -4 9 2.9 0.57
-3 -4 9 3.83 0.88
-3 -4 10 1.45 0.6
-3 -4 10 0.88 0.57
-3 -4 10 1.06 0.61
-3 -4 11 3.73 0.69
-3 -4 11 2.37 0.58
-3 -4 12 5.84 0.6
-3 -3 -4 326.29 15.53
-3 -3 -3 764.56 25.58
-3 -3 -3 762.86 17.75
-3 -3 -2 141.29 4.86
-3 -3 -2 146.75 8.41
-3 -3 -1 658.66 15.49
-3 -3 -1 661.03 21.21
-3 -3 0 889.33 20.12
-3 -3 0 939.15 26.5
-3 -3 1 320.38 8.42
-3 -3 1 323.26 13.1
-3 -3 1 329.03 13.07
-3 -3 2 433.92 15.36
-3 -3 2 448.31 15.94
-3 -3 2 443.18 10.76
-3 -3 2 430.99 15.84
-3 -3 3 976.73 21.35
-3 -3 3 963.72 21.06
-3 -3 3 966.64 21.11
-3 -3 4 201.61 5.86
-3 -3 4 202.14 10.13
-3 -3 4 194.06 5.7
-3 -3 4 220.6 10.3
-3 -3 4 202.98 5.83
-3 -3 5 735.57 22.83
-3 -3 5 755.41 23.36
-3 -3 5 708.51 16.93
-3 -3 5 747.09 16.5
-3 -3 5 727.8 17.04
-3 -3 6 120.21 7.54
-3 -3 6 116 4.08
-3 -3 6 122.09 4.4
-3 -3 6 117.55 7.79
-3 -3 6 119.5 4.45
-3 -3 6 114.67 4.48
-3 -3 7 1245.84 27.56
-3 -3 7 1256.83 28.27
-3 -3 7 1205.62 27.41
-3 -3 7 1297.22 28.14
-3 -3 7 1271.36 28.12
-3 -3 7 1220.76 34.3
-3 -3 8 453.87 11.65
-3 -3 8 438.78 10.97
-3 -3 8 449.47 12.3
-3 -3 8 481.46 12.25
-3 -3 9 14.32 1.23
-3 -3 9 14.1 1.53
-3 -3 9 11.79 1.44
-3 -3 9 14.37 1.42
-3 -3 10 242.51 7.48
-3 -3 10 249.26 7.46
-3 -3 10 242.07 7.29
-3 -3 10 242.24 7.04
-3 -3 11 80.83 3.21
-3 -3 11 77.16 2.98
-3 -3 11 82.4 3.29
-3 -3 12 59.16 2.13
-3 -2 -5 82.11 7.37
-3 -2 -4 100.72 7.7
-3 -2 -3 33.49 1.98
-3 -2 -3 36.13 4.28
-3 -2 -2 2.65 0.62
-3 -2 -2 0.88 0.73
-3 -2 -1 125.33 4.14
-3 -2 -1 124.71 7.11
-3 -2 0 8.18 1.8
-3 -2 0 7.61 0.88
-3 -2 1 1.33 0.92
-3 -2 1 0.26 0.58
-3 -2 2 3.86 0.64
-3 -2 3 52.82 2.26
-3 -2 3 52.02 4.37
-3 -2 3 59.01 4.6
-3 -2 3 53.07 2.27
-3 -2 3 54.92 2.31
-3 -2 4 0.34 0.38
-3 -2 4 1.36 0.89
-3 -2 4 0.84 0.81
-3 -2 4 1.31 0.44
-3 -2 4 0.64 0.39
-3 -2 5 13.27 2.31
-3 -2 5 14.58 1.35
-3 -2 5 12.85 1.18
-3 -2 5 14.04 2.42
-3 -2 5 15.15 1.35
-3 -2 5 13.13 1.3
-3 -2 6 31.68 2.01
-3 -2 6 29.69 2.03
-3 -2 6 28.66 1.97
-3 -2 6 26.68 3.39
-3 -2 6 30.45 2.02
-3 -2 6 27.52 3.24
-3 -2 6 26.68 1.83
-3 -2 7 16.34 1.28
-3 -2 7 17.64 1.63
-3 -2 7 20.58 1.73
-3 -2 7 16.69 1.54
-3 -2 7 14.9 1.47
-3 -2 8 175.1 6.14
-3 -2 8 175.87 5.9
-3 -2 8 175.23 6.08
-3 -2 8 165.55 5.25
-3 -2 8 172.3 6.06
-3 -2 9 98.23 4.22
-3 -2 9 86.27 3.45
-3 -2 9 96.26 4.1
-3 -2 9 94.9 4.22
-3 -2 9 90.71 3.92
-3 -2 10 104.91 4.23
-3 -2 10 106.32 3.68
-3 -2 10 112.29 4.2
-3 -2 10 116.99 4.46
-3 -2 10 103.23 4.01
-3 -2 11 0.67 0.44
-3 -2 12 9.69 0.75
-3 -1 -6 953.5 30.55
-3 -1 -5 154.55 9.74
-3 -1 -4 482.11 11.72
-3 -1 -4 482.24 17.85
-3 -1 -3 889.21 19.76
-3 -1 -3 880.15 26.39
-3 -1 -2 490.53 11.56
-3 -1 -2 468.25 15.87
-3 -1 -1 1082.3 23.57
-3 -1 -1 1130.65 28.8
-3 -1 0 551.32 12.59
-3 -1 0 534.56 16.63
-3 -1 1 973.71 21.06
-3 -1 2 59.56 4.35
-3 -1 2 58.85 4.27
-3 -1 3 960.62 25.69
-3 -1 3 987.75 21.27
-3 -1 3 983.41 25.78
-3 -1 4 584.22 17.67
-3 -1 4 620.69 14.28
-3 -1 4 603.01 18.04
-3 -1 4 610.67 13.98
-3 -1 4 583.05 13.98
-3 -1 5 369.44 9.59
-3 -1 5 379.41 9.93
-3 -1 5 374.91 13.14
-3 -1 5 376.79 12.75
-3 -1 5 390.72 9.92
-3 -1 6 316.48 8.71
-3 -1 6 336.46 8.95
-3 -1 6 314.54 8.17
-3 -1 6 316.92 8.71
-3 -1 6 313.85 8.66
-3 -1 7 534.26 12.91
-3 -1 7 546.85 13.14
-3 -1 7 533.92 13.4
-3 -1 7 546.91 13.71
-3 -1 7 553.36 13.93
-3 -1 7 577.99 13.86
-3 -1 8 168.12 5.92
-3 -1 8 164.44 5.33
-3 -1 8 172.99 6.02
-3 -1 8 170.81 6.07
-3 -1 8 177.54 5.99
-3 -1 9 150.17 5.5
-3 -1 9 151.35 5.01
-3 -1 9 156.44 5.56
-3 -1 9 164.16 5.83
-3 -1 9 160.88 5.48
-3 -1 10 131.91 4.27
-3 -1 10 138.55 4.83
-3 -1 10 135.49 4.4
-3 -1 10 139.07 4.98
-3 -1 11 6.84 0.87
-3 0 -6 28.08 4.26
-3 0 -5 188.92 10.45
-3 0 -5 184.66 10.54
-3 0 -4 18.85 3
-3 0 -4 18.03 1.37
-3 0 -4 20.02 3.24
-3 0 -3 211.4 10.06
-3 0 -3 204.4 5.83
-3 0 -2 99.62 3.45
-3 0 -2 104.74 6.37
-3 0 -2 108.93 6.18
-3 0 -2 103.68 5.83
-3 0 -1 661.84 15.07
-3 0 -1 682.72 19.32
-3 0 -1 707.69 19.83
-3 0 -1 681.94 18.43
-3 0 0 524.49 14.51
-3 0 0 545.5 16.07
-3 0 1 30.62 2.17
-3 0 1 39.28 3.31
-3 0 2 462.73 14.36
-3 0 2 481.52 11.34
-3 0 3 125.93 6.1
-3 0 3 121 4.1
-3 0 3 117.95 3.83
-3 0 4 93.74 3.59
-3 0 4 88.22 4.98
-3 0 5 89.59 3.21
-3 0 5 88.14 3.6
-3 0 5 84.45 3.16
-3 0 5 83.45 3.17
-3 0 5 92.73 3.6
-3 0 5 90.08 3.21
-3 0 5 88.91 3.52
-3 0 5 87.65 3.25
-3 0 5 86.64 3.49
-3 0 6 66.75 3.02
-3 0 6 71 3.2
-3 0 6 67.4 2.78
-3 0 6 70.93 3.28
-3 0 6 72.4 2.99
-3 0 6 75.75 2.97
-3 0 6 66.64 3.22
-3 0 6 64.28 2.78
-3 0 6 72.14 3
-3 0 6 66.92 3.17
-3 0 7 152.42 5.38
-3 0 7 170.49 5.7
-3 0 7 163.96 5.17
-3 0 7 158.55 5.64
-3 0 7 151.43 5.06
-3 0 7 153.2 5.69
-3 0 7 161.81 5.28
-3 0 8 98.91 3.9
-3 0 8 103.37 4.22
-3 0 8 105.72 3.89
-3 0 8 105.99 4.39
-3 0 8 101.25 4.21
-3 0 9 80.97 3.33
-3 0 9 78.57 3.33
-3 0 9 84.12 3.72
-3 0 10 253.65 7.07
-3 0 10 235.13 6.45
-3 1 -7 408.93 17.73
-3 1 -6 1097.25 33.44
-3 1 -5 290.18 13.68
-3 1 -4 919.94 20.66
-3 1 -4 1005.24 28.16
-3 1 -3 411.72 10.16
-3 1 -3 434.7 14.68
-3 1 -3 441.14 15.35
-3 1 -2 175.93 5.21
-3 1 -2 210.69 8.48
-3 1 -1 1471.82 35.49
-3 1 -1 1621.09 37.19
-3 1 0 1105.58 27.38
-3 1 1 250.34 9.34
-3 1 2 396.65 10.08
-3 1 2 429.56 12.03
-3 1 2 421.32 9.83
-3 1 2 406.49 12.8
-3 1 3 261.54 7.71
-3 1 4 45.42 2.3
-3 1 4 47.38 2.16
-3 1 4 44.68 2.4
-3 1 5 388.29 9.6
-3 1 5 371.39 10.13
-3 1 5 399.58 10.11
-3 1 5 376.41 9.63
-3 1 5 384.53 9.51
-3 1 5 372.67 9.52
-3 1 5 374.89 9.92
-3 1 6 260.79 7.21
-3 1 6 242.46 7.06
-3 1 6 242.41 6.94
-3 1 6 256.31 7.22
-3 1 6 248.96 7.18
-3 1 6 249.99 7.59
-3 1 6 248.97 6.97
-3 1 6 254.44 7.17
-3 1 6 249.34 7.51
-3 1 7 250.53 7.43
-3 1 7 250.01 7.34
-3 1 7 266.18 7.6
-3 1 7 245.6 7.07
-3 1 7 267.13 8.08
-3 1 7 254.78 7.52
-3 1 7 251.82 7.67
-3 1 7 259.65 7.44
-3 1 7 270.98 7.56
-3 1 8 98.64 3.82
-3 1 8 96.03 3.85
-3 1 8 100.97 4.36
-3 1 8 91.6 3.77
-3 1 9 5.69 0.94
-3 1 9 4.16 0.75
-3 1 9 5.53 0.82
-3 1 9 5.33 0.97
-3 1 10 58.79 2.32
-3 1 10 64.15 2.79
-3 2 -8 66.89 6.9
-3 2 -7 50.05 5.91
-3 2 -7 53.42 5.92
-3 2 -6 33.39 4.61
-3 2 -6 31.75 4.38
-3 2 -5 141.01 9.02
-3 2 -4 680.77 21.99
-3 2 -3 394.17 9.49
-3 2 -2 152.17 4.68
-3 2 -2 166.96 7.96
-3 2 -2 152.41 4.54
-3 2 -1 568.26 16.49
-3 2 -1 549.04 12.69
-3 2 0 805.67 20.86
-3 2 1 229.21 8.89
-3 2 1 218.9 5.97
-3 2 1 233.03 8.37
-3 2 1 214.94 5.82
-3 2 1 217.13 6.1
-3 2 2 63.4 4.09
-3 2 2 72.13 2.73
-3 2 2 68.66 3.5
-3 2 2 69.39 2.92
-3 2 3 682.44 15.35
-3 2 3 697.79 15.81
-3 2 3 666.49 17.81
-3 2 4 358.66 9.01
-3 2 4 347.29 9.12
-3 2 4 346.37 9.06
-3 2 4 363.15 8.94
-3 2 4 350.85 9.16
-3 2 4 352.92 8.95
-3 2 4 355.82 9.36
-3 2 4 363.22 8.76
-3 2 5 56.13 2.57
-3 2 5 57.05 2.61
-3 2 5 57.88 2.74
-3 2 5 58.62 2.46
-3 2 5 61.35 2.9
-3 2 5 60.88 2.96
-3 2 5 58.4 2.91
-3 2 5 61.63 2.76
-3 2 5 59.08 2.79
-3 2 6 205.38 6.5
-3 2 6 200.68 6.23
-3 2 6 211.58 6.45
-3 2 6 202.81 6.72
-3 2 6 210.34 6.18
-3 2 6 201.48 6.33
-3 2 6 198.35 6.42
-3 2 6 206.6 6.35
-3 2 7 114.91 4.39
-3 2 7 119.36 4.57
-3 2 7 113.21 4.73
-3 2 7 122.74 4.55
-3 2 7 117.48 4.13
-3 2 7 116.7 4.43
-3 2 7 109.78 4.23
-3 2 7 116.63 4.41
-3 2 7 113.69 4.37
-3 2 8 129.16 4.67
-3 2 8 135.54 4.71
-3 2 8 137.99 5.16
-3 2 8 131.34 4.67
-3 2 8 138.59 4.9
-3 2 9 281.82 7.41
-3 2 9 276.38 7.38
-3 2 9 279.66 7.89
-3 2 10 27.02 1.51
-3 3 -8 134.41 10.18
-3 3 -7 520.55 21.03
-3 3 -7 455.95 19.17
-3 3 -6 199.36 11.85
-3 3 -6 195.81 11.41
-3 3 -5 590.48 21.58
-3 3 -5 634.89 22.03
-3 3 -4 613.06 14.19
-3 3 -4 646.88 21.39
-3 3 -3 119.94 7.19
-3 3 -3 126.9 7.74
-3 3 -3 110.42 3.76
-3 3 -2 514.55 16.49
-3 3 -2 509.93 12.18
-3 3 -2 523.3 17.48
-3 3 -2 523.78 11.97
-3 3 -1 2.01 0.52
-3 3 -1 2.26 0.96
-3 3 -1 2.56 0.6
-3 3 0 927.91 25
-3 3 0 907.11 22.04
-3 3 0 861.81 19.3
-3 3 0 916.4 19.54
-3 3 0 896.13 23.7
-3 3 0 836.57 19.43
-3 3 1 54.53 4.31
-3 3 1 53.38 2.39
-3 3 1 49.09 3.58
-3 3 2 244.72 6.53
-3 3 2 240.56 9.63
-3 3 2 236.42 6.59
-3 3 2 222.12 7.42
-3 3 3 177.44 5.47
-3 3 3 188.35 5.46
-3 3 3 195.06 5.41
-3 3 3 189.1 5.36
-3 3 3 171.69 7.81
-3 3 3 184.02 5.3
-3 3 3 176.53 5.39
-3 3 3 184.65 5.39
-3 3 3 179.87 5.64
-3 3 3 184.38 5.41
-3 3 4 1.03 0.48
-3 3 4 2.87 0.64
-3 3 4 1.31 0.44
-3 3 4 0.67 0.42
-3 3 4 0.74 0.47
-3 3 4 0.95 0.44
-3 3 4 0.99 0.59
-3 3 4 0.75 0.45
-3 3 4 0.23 0.35
-3 3 4 0.88 0.51
-3 3 4 0.77 0.45
-3 3 5 48.06 2.5
-3 3 5 52.07 2.64
-3 3 5 51.62 2.63
-3 3 5 54.73 2.67
-3 3 5 43.74 2.57
-3 3 5 46.97 2.3
-3 3 5 46.41 2.52
-3 3 5 48.62 2.46
-3 3 5 44.4 2.43
-3 3 5 45.83 2.54
-3 3 6 27.53 1.94
-3 3 6 23.63 1.84
-3 3 6 24.85 1.79
-3 3 6 26.74 1.65
-3 3 6 25.65 1.78
-3 3 6 26.13 2.04
-3 3 6 26.26 1.89
-3 3 6 24.56 1.85
-3 3 6 26.84 1.93
-3 3 7 131.9 5.08
-3 3 7 132.24 4.78
-3 3 7 130.4 4.71
-3 3 7 136.78 4.88
-3 3 7 137.48 4.51
-3 3 8 82.01 3.3
-3 3 8 88.58 3.69
-3 3 8 89.33 3.42
-3 3 8 84.35 3.37
-3 3 8 86.54 3.42
-3 3 9 0.56 0.35
-3 4 -8 163.56 11.46
-3 4 -7 153.97 10.83
-3 4 -7 143.09 10.02
-3 4 -6 469.9 19.42
-3 4 -6 443.79 18.87
-3 4 -5 197.81 11.31
-3 4 -4 575.23 20.93
-3 4 -4 593.17 20.37
-3 4 -3 416.97 15.13
-3 4 -3 400.37 10.13
-3 4 -2 209.84 6.22
-3 4 -2 232.39 9.65
-3 4 -2 233 10.88
-3 4 -2 211.57 6.06
-3 4 -1 1094.48 31.08
-3 4 -1 1091.23 27.53
-3 4 -1 1097.99 29.73
-3 4 -1 1109.37 24
-3 4 0 739.99 18.77
-3 4 0 760.87 17.44
-3 4 0 770.3 21.75
-3 4 0 802.96 23.52
-3 4 1 386.42 9.64
-3 4 1 391.49 9.68
-3 4 1 396.65 9.84
-3 4 1 373.32 14.44
-3 4 1 399.52 9.59
-3 4 1 393.15 9.73
-3 4 1 411.09 10.02
-3 4 1 395.28 12.68
-3 4 1 391.37 9.61
-3 4 2 255.2 10.84
-3 4 2 236.89 6.51
-3 4 2 244.1 6.68
-3 4 2 245.59 6.69
-3 4 2 238.1 6.79
-3 4 2 237.75 6.61
-3 4 2 250.98 6.79
-3 4 2 245.79 6.95
-3 4 2 236.29 6.53
-3 4 3 225.13 6.36
-3 4 3 214.17 6.21
-3 4 3 217.26 6.28
-3 4 3 229.91 6.57
-3 4 3 219.22 6.29
-3 4 3 202.8 9.54
-3 4 3 225.06 6.4
-3 4 3 221.07 6.44
-3 4 3 215.15 6.53
-3 4 3 220.92 6.35
-3 4 3 218.98 6.42
-3 4 4 203.02 6
-3 4 4 184.85 6.02
-3 4 4 201.46 6.12
-3 4 4 192.42 5.89
-3 4 4 196.85 5.8
-3 4 4 194.36 6.13
-3 4 4 200.88 6.19
-3 4 4 198.76 6.07
-3 4 4 206.18 6.19
-3 4 4 201.58 6.17
-3 4 4 200.13 6.11
-3 4 5 461.11 11.72
-3 4 5 476.78 12.02
-3 4 5 475.92 12.11
-3 4 5 469.11 12.05
-3 4 5 463.74 12.13
-3 4 5 480.54 12.08
-3 4 5 449.44 11.61
-3 4 5 497.34 12.02
-3 4 5 489.05 11.72
-3 4 6 78.97 3.1
-3 4 6 83.63 3.58
-3 4 6 82.95 3.61
-3 4 6 79.54 3.63
-3 4 6 83.47 3.55
-3 4 6 86.88 3.45
-3 4 6 83.79 3.57
-3 4 6 80.21 3.31
-3 4 7 60.35 2.9
-3 4 7 66.32 2.92
-3 4 7 56.39 2.51
-3 4 7 57.31 2.77
-3 4 7 57.03 2.51
-3 4 7 57.57 2.69
-3 4 8 131.18 4.1
-3 5 -8 14.81 3.5
-3 5 -7 83.97 7.95
-3 5 -7 84.44 7.71
-3 5 -6 489.93 19.94
-3 5 -6 460.99 19.38
-3 5 -5 53.86 6.23
-3 5 -5 47.06 5.57
-3 5 -5 44.61 5.52
-3 5 -4 141.45 8.87
-3 5 -4 148.6 4.53
-3 5 -4 144.14 9.61
-3 5 -4 138.5 9.74
-3 5 -3 104.73 3.59
-3 5 -3 95.69 6.63
-3 5 -3 93.79 7.3
-3 5 -3 101.31 8.03
-3 5 -2 34.66 4.56
-3 5 -2 34.73 1.8
-3 5 -2 36.13 3.64
-3 5 -2 32.06 1.83
-3 5 -2 34.16 4.19
-3 5 -1 3.56 0.67
-3 5 -1 3.47 0.6
-3 5 -1 3.32 0.54
-3 5 -1 2.99 0.94
-3 5 -1 3.27 1.39
-3 5 0 89.85 3.5
-3 5 0 86.87 3.15
-3 5 0 84.93 3.32
-3 5 0 79.02 6.46
-3 5 0 83.9 3.33
-3 5 0 74.91 5.49
-3 5 0 87.45 3.28
-3 5 1 23.16 3.49
-3 5 1 21.69 1.43
-3 5 1 25.17 1.65
-3 5 1 22.15 1.54
-3 5 1 21.7 1.58
-3 5 1 26.2 1.75
-3 5 1 24.1 1.73
-3 5 1 21.49 1.57
-3 5 2 233.09 6.64
-3 5 2 225.55 6.8
-3 5 2 237.27 6.79
-3 5 2 225.87 6.67
-3 5 2 228.46 11.14
-3 5 2 241.56 6.74
-3 5 2 227.19 6.48
-3 5 3 29.83 1.94
-3 5 3 31.27 1.99
-3 5 3 29.31 1.88
-3 5 3 31.05 2
-3 5 3 31.4 1.95
-3 5 3 29.34 1.94
-3 5 3 30.08 1.95
-3 5 3 30.83 1.95
-3 5 4 5.73 0.9
-3 5 4 4.44 0.84
-3 5 4 4.47 0.88
-3 5 4 4.25 0.9
-3 5 4 5.33 0.82
-3 5 4 4.86 0.86
-3 5 4 3.74 0.81
-3 5 4 4.45 0.77
-3 5 5 16.54 1.49
-3 5 5 13.12 1.25
-3 5 5 16.95 1.51
-3 5 5 15.26 1.4
-3 5 5 14.36 1.34
-3 5 5 13.63 1.37
-3 5 5 16.62 1.48
-3 5 6 123.38 3.99
-3 5 6 126.26 4.5
-3 5 6 125.4 4.4
-3 5 6 128.08 4.36
-3 5 6 123.89 4.24
-3 5 6 131.31 4.54
-3 5 6 129.05 4.38
-3 5 7 69.48 2.53
-3 5 7 76.81 2.9
-3 6 -7 2.14 1.44
-3 6 -7 2.11 1.74
-3 6 -7 0.55 1.48
-3 6 -6 436.14 18.79
-3 6 -6 401.45 18.84
-3 6 -6 421.74 18.86
-3 6 -5 934.88 29.58
-3 6 -5 927.2 30.48
-3 6 -5 864.49 30.79
-3 6 -4 349.78 8.97
-3 6 -4 332.13 14.73
-3 6 -4 331.43 16.46
-3 6 -3 428.4 18.66
-3 6 -3 440.69 15.9
-3 6 -3 426.33 10.31
-3 6 -3 416.82 17.63
-3 6 -3 416.58 10.59
-3 6 -2 196.52 5.71
-3 6 -2 191.13 5.9
-3 6 -2 201.79 11.71
-3 6 -2 202.2 10.97
-3 6 -1 372.22 9.38
-3 6 -1 364.94 9.47
-3 6 -1 374.29 14.88
-3 6 -1 368.65 9.13
-3 6 -1 353.04 9.61
-3 6 -1 358.65 9.5
-3 6 0 421.65 10.56
-3 6 0 404.03 10.5
-3 6 0 426.48 10.43
-3 6 0 397.48 16.96
-3 6 1 551.59 13.15
-3 6 1 514.31 19.56
-3 6 1 544.13 13.19
-3 6 1 529.02 13
-3 6 1 522.44 12.96
-3 6 1 532.21 12.58
-3 6 2 217.36 6.37
-3 6 2 212.12 6.49
-3 6 2 211.78 6.38
-3 6 2 216.03 6.51
-3 6 2 217.26 6.59
-3 6 2 222.29 11.46
-3 6 2 209.11 6.18
-3 6 3 167.91 5.57
-3 6 3 175.01 5.44
-3 6 3 180.54 5.68
-3 6 3 163.28 5.39
-3 6 3 168.58 5.55
-3 6 3 172.29 5.44
-3 6 3 167.93 5.47
-3 6 4 24.5 1.75
-3 6 4 26.46 1.79
-3 6 4 23.61 1.74
-3 6 4 27.19 1.81
-3 6 4 24.58 1.7
-3 6 5 250.01 6.79
-3 6 5 251.15 7.04
-3 6 5 244.71 6.77
-3 6 5 254.29 6.98
-3 6 5 248.51 6.89
-3 6 5 242.36 6.94
-3 6 6 109.38 3.5
-3 6 6 104.4 3.44
-3 6 6 115.9 3.72
-3 7 -7 33.44 4.87
-3 7 -6 99.64 8.3
-3 7 -6 117.5 9.38
-3 7 -6 101.61 8.88
-3 7 -5 29.7 1.86
-3 7 -5 29.26 4.78
-3 7 -5 25.68 3.99
-3 7 -5 32.38 4.96
-3 7 -4 1.55 1.39
-3 7 -4 1.67 1.5
-3 7 -4 3.33 0.74
-3 7 -4 2.67 1.26
-3 7 -3 3.48 0.67
-3 7 -3 1.92 1.58
-3 7 -3 3.76 0.76
-3 7 -3 4.26 0.81
-3 7 -3 2.16 1.57
-3 7 -2 0.47 0.43
-3 7 -2 0.52 0.99
-3 7 -2 0.87 0.96
-3 7 -2 0.33 0.4
-3 7 -2 0.86 0.41
-3 7 -2 1.11 0.57
-3 7 -1 33.5 2.11
-3 7 -1 30.44 1.92
-3 7 -1 31.5 1.86
-3 7 -1 29.72 1.9
-3 7 0 1.24 0.53
-3 7 0 0.85 0.52
-3 7 0 1.1 0.52
-3 7 0 0.94 1.15
-3 7 0 0.98 0.5
-3 7 0 1.05 0.5
-3 7 1 65.75 3.02
-3 7 1 67.99 3.11
-3 7 1 64.84 2.86
-3 7 1 65.71 6.37
-3 7 1 66.87 3.13
-3 7 1 67.6 3.14
-3 7 2 6.79 0.96
-3 7 2 8.01 0.96
-3 7 2 6.17 0.93
-3 7 2 7.66 1
-3 7 2 6.91 0.89
-3 7 2 8 1.07
-3 7 3 7.66 1.02
-3 7 3 6.03 0.83
-3 7 3 7.7 0.91
-3 7 3 6.99 1
-3 7 3 6.91 0.95
-3 7 3 6.19 0.86
-3 7 4 24.04 1.56
-3 7 4 21.29 1.33
-3 7 4 22.84 1.5
-3 7 4 23.75 1.51
-3 7 5 9.03 0.82
-3 7 5 9.83 0.89
-3 7 5 7.01 0.73
-3 7 5 9.54 0.88
-3 8 -6 294.54 7.72
-3 8 -5 180.74 5.63
-3 8 -4 479.31 11.98
-3 8 -4 463.88 20.3
-3 8 -3 422.94 10.22
-3 8 -3 402.57 10.7
-3 8 -3 405.8 11.01
-3 8 -3 406.19 18.46
-3 8 -2 63.27 2.82
-3 8 -2 63.77 2.66
-3 8 -2 66.93 3.14
-3 8 -2 65.72 3.18
-3 8 -1 282.98 7.74
-3 8 -1 293.75 8.33
-3 8 -1 293.35 8
-3 8 0 30.59 1.98
-3 8 0 31.8 2.07
-3 8 0 31.18 2.01
-3 8 0 31.03 1.9
-3 8 1 366.59 9.67
-3 8 1 367.82 9.66
-3 8 1 372.95 9.6
-3 8 1 373.71 9.6
-3 8 2 138.23 4.52
-3 8 2 134 4.35
-3 8 2 134.28 4.36
-3 8 2 138.03 4.59
-3 8 3 66.56 2.5
-3 8 3 70.6 2.75
-3 8 3 64.42 2.38
-3 8 4 71.76 2.49
-3 9 -6 19.28 1.32
-3 9 -5 25.17 1.64
-3 9 -4 5.54 0.87
-3 9 -4 8.31 1.1
-3 9 -3 24.45 1.49
-3 9 -3 23.48 1.74
-3 9 -3 26.9 1.87
-3 9 -2 51.47 2.23
-3 9 -2 54.22 2.43
-3 9 -2 59.58 2.83
-3 9 -2 59.13 2.78
-3 9 -1 0.57 0.41
-3 9 -1 0.63 0.4
-3 9 -1 0.76 0.5
-3 9 0 78.88 3.06
-3 9 0 82.06 3.19
-3 9 0 71.74 2.87
-3 9 0 74.02 2.91
-3 9 1 155.26 4.58
-3 9 1 153.79 4.58
-3 9 1 153.72 4.67
-3 9 1 149.5 4.38
-3 9 2 2.54 0.52
-3 9 2 3.13 0.54
-3 9 3 8.33 0.69
-3 9 3 8.03 0.68
-3 10 -9 147.11 3.78
-3 10 -8 98.43 3.11
-3 10 -7 12.44 1.04
-3 10 -6 116.48 3.47
-3 10 -6 121.6 3.95
-3 10 -5 41.63 1.93
-3 10 -5 37.34 1.98
-3 10 -4 142.25 4.41
-3 10 -4 139.14 4.41
-3 10 -3 221 6.09
-3 10 -3 208.14 5.84
-3 10 -2 102.57 3.22
-3 10 -2 111.31 3.71
-3 10 -2 107.34 3.42
-3 10 -1 41.24 1.77
-3 10 -1 39.78 1.61
-3 10 -1 43.97 1.98
-3 10 0 18.03 1
-3 10 0 16.05 1.05
-3 10 0 14.9 1.01
-3 10 1 67.5 2.22
-3 10 1 72.85 2.18
-3 11 -5 16.9 0.92
-3 11 -4 57.82 2.03
-3 11 -3 13.02 0.89
-3 11 -2 82.72 2.48
-2 -10 3 194.99 5.49
-2 -10 4 110.49 3.8
-2 -10 6 1.65 0.47
-2 -9 1 0.82 0.49
-2 -9 2 44.08 2.45
-2 -9 3 19.64 1.7
-2 -9 4 9.94 1.25
-2 -9 6 22.62 1.75
-2 -9 7 58.63 2.69
-2 -9 8 5.6 0.77
-2 -9 9 16.14 1.17
-2 -8 0 57.76 2.85
-2 -8 1 367.5 10.17
-2 -8 2 224.04 7.29
-2 -8 3 372.02 10.61
-2 -8 5 46.11 2.8
-2 -8 6 66.93 3.35
-2 -8 7 213.64 6.57
-2 -8 7 210.73 6.46
-2 -8 8 120.14 4
-2 -8 8 112.88 4.3
-2 -8 8 116.16 4.06
-2 -8 9 337.73 8.67
-2 -8 9 344.29 9.19
-2 -8 9 356.82 9.26
-2 -8 10 117.8 3.99
-2 -8 10 123.86 4.02
-2 -7 -1 1.07 0.61
-2 -7 0 0.22 0.56
-2 -7 1 0.46 1.01
-2 -7 1 -0.12 0.57
-2 -7 2 20.32 1.84
-2 -7 2 14.18 3.13
-2 -7 2 19.02 3.52
-2 -7 2 9.81 2.82
-2 -7 3 44.09 5.68
-2 -7 3 47.49 2.88
-2 -7 3 40.87 5.32
-2 -7 3 40.99 5.27
-2 -7 4 1.08 1.45
-2 -7 4 4.16 1.81
-2 -7 5 46.18 5.94
-2 -7 5 45.04 2.73
-2 -7 5 43.46 5.83
-2 -7 5 42.59 5.24
-2 -7 6 73.23 3.83
-2 -7 6 73.88 6.73
-2 -7 6 65.08 3.24
-2 -7 6 67.93 7.24
-2 -7 6 74.7 3.48
-2 -7 7 30.91 2.21
-2 -7 7 31.1 2.13
-2 -7 7 32.8 2.5
-2 -7 7 32.27 2.11
-2 -7 8 54.61 3.02
-2 -7 8 49.45 2.73
-2 -7 8 49.43 2.54
-2 -7 9 4.28 0.88
-2 -7 9 4.29 0.74
-2 -7 9 4.78 0.87
-2 -7 10 70.49 3.03
-2 -7 10 69.43 3.21
-2 -7 10 68.83 3.13
-2 -7 11 12.87 1.17
-2 -7 11 12.84 1.06
-2 -6 -1 361.94 10
-2 -6 0 194.94 10.96
-2 -6 0 203.14 6.64
-2 -6 1 236.3 12.29
-2 -6 1 216.16 11.57
-2 -6 1 226.45 11.57
-2 -6 1 219.42 7.07
-2 -6 2 591.06 21.12
-2 -6 2 587.72 14.8
-2 -6 2 582.52 21.27
-2 -6 2 613.95 22.03
-2 -6 3 743.13 24.63
-2 -6 3 725 25.38
-2 -6 3 767.62 25.67
-2 -6 4 505.33 13.11
-2 -6 4 531.84 13.54
-2 -6 4 545.58 20.95
-2 -6 5 244.94 12.34
-2 -6 5 263.83 13.93
-2 -6 5 270.75 8.28
-2 -6 5 260.1 7.73
-2 -6 5 265.17 7.56
-2 -6 6 250.63 12.24
-2 -6 6 240.52 7.48
-2 -6 6 258.87 8.22
-2 -6 6 257.24 7.44
-2 -6 7 47.93 2.48
-2 -6 7 51.15 5.12
-2 -6 7 53.76 6.17
-2 -6 7 45.39 2.76
-2 -6 8 199.39 6.59
-2 -6 8 190.44 11.91
-2 -6 8 188.78 6.17
-2 -6 8 195.62 6.88
-2 -6 8 199.43 6.73
-2 -6 9 211.95 6.77
-2 -6 9 209.49 6.95
-2 -6 9 192.23 6.19
-2 -6 10 162.04 5.53
-2 -6 10 156.54 4.85
-2 -6 10 159.81 5.66
-2 -6 10 159.08 5.03
-2 -6 11 115.72 4.09
-2 -6 11 115.37 4.03
-2 -5 -2 75.18 3.32
-2 -5 -1 1.02 0.75
-2 -5 -1 0.47 0.46
-2 -5 0 29.42 2
-2 -5 0 27.72 3.57
-2 -5 0 21.97 3.42
-2 -5 0 25.88 3.44
-2 -5 1 102.85 7.02
-2 -5 1 108.78 7.32
-2 -5 1 104.43 4.03
-2 -5 1 95.84 7.03
-2 -5 2 2.68 0.71
-2 -5 2 4.99 1.75
-2 -5 2 1.51 1.24
-2 -5 2 4.03 1.76
-2 -5 3 785.46 24.47
-2 -5 3 813.14 19.09
-2 -5 3 815.87 25.81
-2 -5 3 852.36 18.95
-2 -5 4 235.6 6.78
-2 -5 4 243.18 11.08
-2 -5 4 220.32 11.68
-2 -5 4 229.86 6.5
-2 -5 4 241.44 7.17
-2 -5 5 109.65 7.24
-2 -5 5 121.09 4.64
-2 -5 5 118.78 4.17
-2 -5 5 123.61 8.63
-2 -5 5 111.36 4.13
-2 -5 6 143.25 8.32
-2 -5 6 144.71 5.14
-2 -5 6 157.77 10.01
-2 -5 6 151.97 4.85
-2 -5 7 105.89 4.6
-2 -5 7 111.51 4.47
-2 -5 8 198.36 11.62
-2 -5 8 196.86 6.72
-2 -5 8 207.33 6.96
-2 -5 8 206.17 6.52
-2 -5 8 206.85 6.94
-2 -5 8 177.36 10.54
-2 -5 9 169.33 6.1
-2 -5 9 174.5 6.26
-2 -5 9 170.17 5.77
-2 -5 10 28.33 2.12
-2 -5 10 30.5 1.88
-2 -5 10 29.87 1.99
-2 -5 10 33.33 2.23
-2 -5 11 75.61 3.26
-2 -5 11 70.52 2.77
-2 -5 11 68.64 2.7
-2 -5 11 68.84 2.81
-2 -5 11 69.32 3
-2 -4 -4 460.47 18.93
-2 -4 -2 671.41 15.66
-2 -4 -2 668.19 20.23
-2 -4 -1 484.14 11.71
-2 -4 -1 466.78 16.15
-2 -4 -1 453.92 15.92
-2 -4 0 303.65 8.16
-2 -4 0 337.72 12.39
-2 -4 0 300.32 12.29
-2 -4 0 327.73 12.53
-2 -4 1 112.4 3.88
-2 -4 1 121.02 6.71
-2 -4 1 118.46 6.95
-2 -4 1 109.02 6.78
-2 -4 2 476.08 15.81
-2 -4 2 491.03 16.68
-2 -4 2 486.8 16.72
-2 -4 3 909.85 20.17
-2 -4 3 951.1 26.79
-2 -4 3 955.73 20.93
-2 -4 3 951.25 20.62
-2 -4 4 690.44 15.35
-2 -4 4 648.65 15.25
-2 -4 4 653.47 21.32
-2 -4 4 680.47 15.82
-2 -4 5 223.5 6.24
-2 -4 5 233.83 10.08
-2 -4 5 243.19 11.46
-2 -4 5 233.55 6.58
-2 -4 6 85.74 3.57
-2 -4 6 86.72 3.7
-2 -4 6 83.12 6.61
-2 -4 6 90.24 5.86
-2 -4 7 41.81 2.56
-2 -4 7 36.28 4.48
-2 -4 7 41.65 2.54
-2 -4 7 42.96 2.45
-2 -4 8 158.67 5.57
-2 -4 8 157.81 5.72
-2 -4 8 144.02 9.18
-2 -4 8 153.55 5.67
-2 -4 8 156.57 5.46
-2 -4 8 146.07 4.95
-2 -4 9 130.2 5.17
-2 -4 9 134.18 4.7
-2 -4 9 130.66 4.93
-2 -4 9 128.94 5.03
-2 -4 9 118.63 4.46
-2 -4 10 26.66 1.97
-2 -4 10 25.21 2.05
-2 -4 10 28.25 2.19
-2 -4 10 29.57 2.05
-2 -4 10 27.67 1.85
-2 -4 11 78.1 3.47
-2 -4 11 81.67 3.1
-2 -4 11 79.37 3.19
-2 -4 11 83.44 3.29
-2 -4 12 26.87 1.37
-2 -3 -5 2.7 1.4
-2 -3 -4 377.85 15.96
-2 -3 -2 359.6 8.96
-2 -3 -2 364.62 12.67
-2 -3 -1 98.34 3.4
-2 -3 -1 105.53 6.07
-2 -3 -1 102.44 5.68
-2 -3 0 527.9 16.06
-2 -3 0 518.46 15.39
-2 -3 0 496.56 11.73
-2 -3 0 535.97 15.98
-2 -3 1 75.23 2.72
-2 -3 1 72.05 4.58
-2 -3 1 78.87 5.03
-2 -3 1 73.41 4.91
-2 -3 2 128.4 3.93
-2 -3 2 134.81 6.46
-2 -3 2 144.56 7.1
-2 -3 2 138.68 6.89
-2 -3 3 851.17 22.1
-2 -3 3 816.18 18.17
-2 -3 3 805.41 22.72
-2 -3 4 173.76 5.04
-2 -3 4 178.87 4.89
-2 -3 4 191.48 8.02
-2 -3 4 188.95 8.78
-2 -3 5 2862.45 59.51
-2 -3 5 2894.86 59.44
-2 -3 5 2827.05 65.73
-2 -3 5 2973.41 64.03
-2 -3 5 2849.85 59.41
-2 -3 6 68.2 2.8
-2 -3 6 74.73 3.19
-2 -3 6 75.12 3.25
-2 -3 6 70.66 5.53
-2 -3 6 71.4 3.16
-2 -3 6 73.99 2.85
-2 -3 7 53.43 2.87
-2 -3 7 56.27 4.7
-2 -3 7 53.98 2.61
-2 -3 7 57.83 2.81
-2 -3 7 58.16 2.83
-2 -3 7 50.66 4.88
-2 -3 8 414.69 11.15
-2 -3 8 418.93 11.25
-2 -3 8 385.92 10.53
-2 -3 8 399.09 10.49
-2 -3 8 412.84 10.93
-2 -3 8 415 11.03
-2 -3 9 205.4 7.08
-2 -3 9 219.69 7.21
-2 -3 9 226.07 6.86
-2 -3 9 216.61 6.66
-2 -3 9 212.76 6.97
-2 -3 9 210.67 6.91
-2 -3 10 162.2 5.4
-2 -3 10 169.3 5.81
-2 -3 10 171.76 5.55
-2 -3 10 173.49 5.68
-2 -3 11 139.41 4.41
-2 -3 11 134.78 4.62
-2 -3 11 129.69 4.18
-2 -3 12 70.94 2.56
-2 -3 12 76.25 2.46
-2 -2 -6 656.09 23.37
-2 -2 -5 22.71 3.56
-2 -2 -4 326.71 13.72
-2 -2 -3 40.41 1.89
-2 -2 -3 45.95 3.61
-2 -2 -2 300.43 10.58
-2 -2 -1 795.36 20.92
-2 -2 -1 784.98 20.27
-2 -2 0 480.58 14.48
-2 -2 0 500.83 14.13
-2 -2 0 493.77 14.41
-2 -2 1 10.58 1.58
-2 -2 1 7.41 1.47
-2 -2 1 10.49 1.63
-2 -2 2 826.15 21.55
-2 -2 3 6.24 1.37
-2 -2 3 7.42 1.41
-2 -2 3 5.52 1.3
-2 -2 4 846.77 18.55
-2 -2 4 852.88 22.63
-2 -2 4 846.33 18.54
-2 -2 5 742.81 16.81
-2 -2 5 741.67 20.44
-2 -2 5 770.4 21.16
-2 -2 5 760.07 17.03
-2 -2 5 760.19 16.66
-2 -2 5 730.64 16.91
-2 -2 6 94.08 3.48
-2 -2 6 98.17 5.5
-2 -2 6 92.45 3.32
-2 -2 6 98.83 3.78
-2 -2 6 91.03 3.45
-2 -2 6 96.34 3.61
-2 -2 6 93.3 5.78
-2 -2 7 20.62 1.72
-2 -2 7 22.89 1.75
-2 -2 7 19.86 1.51
-2 -2 7 20.23 1.65
-2 -2 7 19.58 1.56
-2 -2 7 16.3 2.39
-2 -2 8 1.31 0.55
-2 -2 8 2.26 0.76
-2 -2 8 1.71 0.7
-2 -2 8 1.44 0.58
-2 -2 8 1.72 0.65
-2 -2 9 51.36 2.74
-2 -2 9 51.37 2.91
-2 -2 9 47.9 2.9
-2 -2 9 47.97 2.61
-2 -2 9 47.89 2.71
-2 -2 9 50.56 2.82
-2 -2 10 19.9 1.83
-2 -2 10 21.84 1.64
-2 -2 10 22.29 1.71
-2 -2 10 22.2 1.65
-2 -2 10 27.07 2.01
-2 -2 11 0.49 0.39
-2 -2 11 0.82 0.44
-2 -2 12 1.15 0.33
-2 -2 12 1.44 0.41
-2 -1 -6 186.56 10.58
-2 -1 -5 513.16 18.23
-2 -1 -5 498.72 17.37
-2 -1 -4 288.23 11.82
-2 -1 -4 282.78 11.5
-2 -1 -3 488.2 15.5
-2 -1 -3 477.38 15.35
-2 -1 -2 1875.67 41.69
-2 -1 -2 1793.35 42.41
-2 -1 -1 446.33 12.79
-2 -1 -1 419.7 12.94
-2 -1 0 575.42 15.8
-2 -1 0 606.23 15.86
-2 -1 1 1034.96 24.87
-2 -1 2 603.72 15.84
-2 -1 2 589.65 15.87
-2 -1 3 699.95 18.21
-2 -1 3 702.51 18.07
-2 -1 4 115.41 5.28
-2 -1 4 122.07 5.6
-2 -1 5 2776 60.46
-2 -1 5 2825.67 57.95
-2 -1 5 2781.66 61.21
-2 -1 5 2825.2 57.85
-2 -1 5 2789.53 57.64
-2 -1 6 462.6 11.41
-2 -1 6 455.86 11.24
-2 -1 6 453.03 11.28
-2 -1 6 422.91 10.7
-2 -1 6 459 10.8
-2 -1 6 466.07 11.32
-2 -1 6 433.53 13.4
-2 -1 6 461.93 11.21
-2 -1 7 297.35 8.31
-2 -1 7 296.14 8.41
-2 -1 7 291.61 7.5
-2 -1 7 278.55 7.92
-2 -1 7 287.4 8.24
-2 -1 7 298.44 8.25
-2 -1 7 279.04 7.5
-2 -1 7 292.29 8.2
-2 -1 8 232.87 7.35
-2 -1 8 232.63 6.94
-2 -1 8 231.84 7.08
-2 -1 8 230.97 6.47
-2 -1 8 236.94 7.4
-2 -1 8 231.34 7.11
-2 -1 8 233.45 7.27
-2 -1 9 143.62 5.42
-2 -1 9 136.09 4.48
-2 -1 9 145.58 5.03
-2 -1 9 152.41 5.31
-2 -1 9 142.22 5.41
-2 -1 9 147.76 5.05
-2 -1 9 159.46 5.54
-2 -1 10 146.73 4.99
-2 -1 10 146.2 5.25
-2 -1 10 135 4.53
-2 -1 11 165.47 5.18
-2 -1 11 162.51 4.89
-2 -1 12 105.91 3.1
-2 0 -6 303.21 13.26
-2 0 -6 314.84 13.74
-2 0 -5 139.04 7.97
-2 0 -5 113.71 7.26
-2 0 -4 374.9 13.26
-2 0 -4 352.18 13.07
-2 0 -3 293.42 10.47
-2 0 -3 280.71 10.54
-2 0 -2 319.74 10.23
-2 0 -2 315.76 10.64
-2 0 -1 10.07 1.44
-2 0 -1 13.64 1.57
-2 0 -1 11.9 1.6
-2 0 0 218.2 7.39
-2 0 0 216.64 6.65
-2 0 1 137.37 5.39
-2 0 1 131.94 4.14
-2 0 1 144.77 5.44
-2 0 2 69.2 3.53
-2 0 2 62.78 2.53
-2 0 2 73.34 3.59
-2 0 3 55.35 3.02
-2 0 3 55.99 3.07
-2 0 4 10.92 1.31
-2 0 4 11.12 0.99
-2 0 4 12.51 1.51
-2 0 4 11.82 1
-2 0 5 23.77 1.58
-2 0 5 23.04 1.53
-2 0 5 22.56 1.46
-2 0 6 54.3 2.59
-2 0 6 51.39 2.32
-2 0 6 51.18 2.51
-2 0 6 47.93 2.33
-2 0 6 48.04 2.46
-2 0 6 49.58 2.34
-2 0 6 49.24 2.25
-2 0 7 21.48 1.73
-2 0 7 20.29 1.57
-2 0 7 20.46 1.65
-2 0 7 21.49 1.54
-2 0 7 20.99 1.75
-2 0 7 17.52 1.49
-2 0 7 20.79 1.65
-2 0 7 19.37 1.48
-2 0 7 22.81 1.8
-2 0 8 163.35 5.76
-2 0 8 163.41 5.27
-2 0 8 165.79 5.47
-2 0 8 165.18 5.72
-2 0 8 159.56 5.91
-2 0 8 166.24 5.45
-2 0 8 166.89 5.24
-2 0 8 171.69 5.86
-2 0 9 31.13 1.98
-2 0 9 34.31 2.28
-2 0 9 32.5 2.34
-2 0 9 35.86 2.02
-2 0 9 33.53 2.3
-2 0 10 4.93 0.68
-2 0 10 4.24 0.82
-2 0 10 6.12 1
-2 0 11 4.72 0.66
-2 0 11 5.13 0.77
-2 1 -7 274.09 13.27
-2 1 -6 818.1 25.57
-2 1 -5 365.36 14.21
-2 1 -4 653.1 19.26
-2 1 -4 668.15 19.99
-2 1 -3 1561.07 36.76
-2 1 -3 1497.92 35.98
-2 1 -2 902.06 22.93
-2 1 -1 1916.95 41.66
-2 1 0 303.13 8.91
-2 1 1 1069.85 24.68
-2 1 2 1013.62 23.29
-2 1 2 1027.88 23.22
-2 1 2 1025.23 22.06
-2 1 3 326.19 8.79
-2 1 4 867.86 18.86
-2 1 4 847.99 18.99
-2 1 5 1192.36 25.51
-2 1 5 1134.19 25.15
-2 1 5 1197.47 25.64
-2 1 5 1195.75 25.29
-2 1 5 1104.35 25.32
-2 1 5 1180.35 25.23
-2 1 5 1195.04 25.21
-2 1 6 234.5 6.65
-2 1 6 226.2 6.74
-2 1 6 223.19 6.46
-2 1 6 227.72 6.76
-2 1 6 216.23 6.33
-2 1 6 235.95 6.66
-2 1 6 231.22 6.16
-2 1 6 228.76 6.56
-2 1 6 216.87 6.54
-2 1 6 233.13 6.47
-2 1 7 491.9 12.56
-2 1 7 504.33 12.41
-2 1 7 473.9 12.22
-2 1 7 480.63 12.7
-2 1 7 522.67 12.64
-2 1 7 478.53 11.67
-2 1 7 517.5 12.51
-2 1 7 490.36 12.22
-2 1 7 524.5 12.38
-2 1 7 522.85 12.87
-2 1 8 209.47 6.7
-2 1 8 194.76 6.16
-2 1 8 203.78 6.3
-2 1 8 200.3 6.67
-2 1 8 206.03 6.22
-2 1 9 87.23 3.74
-2 1 9 84.57 3.89
-2 1 9 84.7 3.73
-2 1 9 88.21 3.46
-2 1 9 85.14 3.31
-2 1 10 107.92 3.87
-2 1 10 107.07 3.51
-2 1 10 109.83 4.08
-2 1 11 47.42 1.81
-2 2 -8 0.47 1.15
-2 2 -7 21.61 3.39
-2 2 -7 17.96 3.44
-2 2 -6 13.47 2.77
-2 2 -6 20.91 3.19
-2 2 -5 2.03 1.17
-2 2 -5 0.72 0.88
-2 2 -4 753.06 22.13
-2 2 -4 760.35 22.41
-2 2 -3 292.14 10.79
-2 2 -2 201.77 7.8
-2 2 -1 108.95 4.92
-2 2 0 58.59 3.04
-2 2 0 61.52 3.49
-2 2 1 428.92 11.3
-2 2 1 409.48 12.16
-2 2 2 44.32 3.04
-2 2 2 42.02 2.07
-2 2 3 14.36 1.08
-2 2 3 14.79 1.76
-2 2 4 43.86 2.13
-2 2 4 50.91 3.4
-2 2 5 35.27 2
-2 2 5 34.58 2.02
-2 2 5 32 2.04
-2 2 5 34.27 1.8
-2 2 5 29.97 1.82
-2 2 5 34.59 1.94
-2 2 6 45.03 2.43
-2 2 6 33.74 2.05
-2 2 6 41.68 2.46
-2 2 6 39.41 2.48
-2 2 6 42.41 2.33
-2 2 6 46.44 2.17
-2 2 6 37.48 2.08
-2 2 6 41.36 2.26
-2 2 7 35.43 2.25
-2 2 7 29.42 1.97
-2 2 7 36.64 2.23
-2 2 7 34.84 2.35
-2 2 7 35.04 2.44
-2 2 7 34.99 2.25
-2 2 7 29.43 1.77
-2 2 7 34.84 2.15
-2 2 7 34.52 2.13
-2 2 8 143.87 4.93
-2 2 8 139.86 5.2
-2 2 8 133.65 5.24
-2 2 8 137.16 4.75
-2 2 8 129.22 4.85
-2 2 9 19.24 1.48
-2 2 9 21.16 1.65
-2 2 9 18.92 1.39
-2 2 10 10.81 0.88
-2 2 10 7.35 0.83
-2 3 -8 415.78 18.57
-2 3 -7 716.8 25.16
-2 3 -7 725.67 26.1
-2 3 -7 696.46 23.37
-2 3 -6 950.61 29.12
-2 3 -6 943.84 29.39
-2 3 -6 891.38 27.44
-2 3 -5 884.45 26.31
-2 3 -5 840.79 25.46
-2 3 -4 387.13 13.99
-2 3 -4 369.43 13.76
-2 3 -4 372.76 13.86
-2 3 -3 814.04 21.97
-2 3 -3 780.69 22.48
-2 3 -2 1725.9 39.61
-2 3 -2 1693.3 39.03
-2 3 -1 333.34 10.39
-2 3 -1 355.29 11.46
-2 3 0 1287.42 31.74
-2 3 0 1302.22 28.94
-2 3 0 1315.75 30.72
-2 3 1 653.24 18.28
-2 3 1 652.91 16.67
-2 3 2 152.2 6.78
-2 3 2 130.99 4.02
-2 3 3 443.92 13.68
-2 3 3 413.73 10.05
-2 3 4 255.64 7.03
-2 3 4 255.96 7.2
-2 3 4 262.63 7.03
-2 3 4 251.86 6.88
-2 3 4 260.62 6.91
-2 3 4 249.3 7.1
-2 3 4 270.91 10.27
-2 3 4 250.68 6.84
-2 3 4 273.98 7.1
-2 3 4 249.43 6.72
-2 3 5 598.85 14.39
-2 3 5 593.38 14.53
-2 3 5 610.23 14.24
-2 3 5 612.95 14.84
-2 3 5 608.23 14.92
-2 3 5 615.55 14.54
-2 3 5 622.02 14.46
-2 3 5 607.8 14.52
-2 3 5 617.63 14.07
-2 3 6 448.5 11.9
-2 3 6 448.77 10.77
-2 3 6 440.72 11.36
-2 3 6 441.63 11.47
-2 3 6 465.14 11.12
-2 3 6 451.51 11.61
-2 3 6 447.39 11.41
-2 3 6 443.07 11.99
-2 3 7 14.65 1.57
-2 3 7 13.71 1.57
-2 3 7 12.16 1.12
-2 3 7 9.9 1.2
-2 3 7 12.16 1.28
-2 3 7 12.03 1.29
-2 3 8 159.58 5.48
-2 3 8 158.03 5.1
-2 3 8 153.5 5.51
-2 3 9 103.55 3.65
-2 3 9 96.93 3.42
-2 3 9 98.06 3.29
-2 3 10 18.75 1
-2 4 -9 9.74 2.79
-2 4 -8 8.87 2.8
-2 4 -8 11.29 3.14
-2 4 -7 2.93 1.46
-2 4 -7 3.1 1.6
-2 4 -6 425.36 17.63
-2 4 -6 421.39 16.72
-2 4 -5 0.36 0.56
-2 4 -5 1.46 1.27
-2 4 -4 84.6 6.08
-2 4 -4 93.46 6.18
-2 4 -4 91.64 6.34
-2 4 -3 84.67 5.54
-2 4 -3 93.01 5.49
-2 4 -3 82.61 5.94
-2 4 -3 81.75 5.73
-2 4 -2 492.18 16.49
-2 4 -2 505.24 15.06
-2 4 -2 487.47 14.24
-2 4 -1 12.92 2.23
-2 4 -1 11.39 1.62
-2 4 -1 13.04 1.02
-2 4 -1 11.57 1.96
-2 4 0 1.8 0.79
-2 4 0 1.57 0.91
-2 4 0 1.31 0.51
-2 4 0 1.74 0.46
-2 4 1 661.51 19.67
-2 4 1 638.59 14.64
-2 4 1 681.58 17.73
-2 4 2 88.52 5.74
-2 4 2 93.38 3.24
-2 4 2 94.3 3.25
-2 4 2 86.59 3.15
-2 4 3 43.24 2.16
-2 4 3 43.37 2.13
-2 4 3 47.77 2.36
-2 4 3 39.72 2.16
-2 4 3 43.85 2.03
-2 4 3 42.16 2.13
-2 4 3 44.45 2.16
-2 4 3 43.41 2.1
-2 4 3 46.49 2.22
-2 4 3 47.47 4.3
-2 4 4 69.53 2.89
-2 4 4 65.93 2.95
-2 4 4 71.14 3.22
-2 4 4 60.36 3
-2 4 4 67.9 2.93
-2 4 4 68.44 2.91
-2 4 4 64.11 2.85
-2 4 4 67.61 2.96
-2 4 4 64.57 2.71
-2 4 5 28.05 1.93
-2 4 5 30.04 1.8
-2 4 5 27.58 1.9
-2 4 5 27.7 2.09
-2 4 5 24.47 2
-2 4 5 27.4 1.79
-2 4 5 28.04 1.9
-2 4 5 27.95 1.92
-2 4 5 24.67 1.69
-2 4 6 95.71 4.25
-2 4 6 103.44 3.61
-2 4 6 100.94 4.33
-2 4 6 102.36 4
-2 4 6 102.17 3.77
-2 4 6 95.79 3.84
-2 4 6 100.82 4.1
-2 4 6 107.96 4.11
-2 4 6 97.92 3.69
-2 4 7 253.05 7.26
-2 4 7 240.69 7.44
-2 4 7 252.02 7.54
-2 4 7 233.61 6.47
-2 4 8 47.57 2.29
-2 4 8 45.49 2.36
-2 4 8 45.34 2.18
-2 4 9 68.71 2.42
-2 5 -8 310.6 16.21
-2 5 -8 276.47 13.85
-2 5 -7 355.49 16.15
-2 5 -7 393.52 17.93
-2 5 -7 407.44 18.23
-2 5 -7 389.73 16.77
-2 5 -6 485.39 19.25
-2 5 -6 515.86 19.83
-2 5 -6 513.08 19.42
-2 5 -5 553 20.27
-2 5 -5 553.59 19.9
-2 5 -5 525.71 19.18
-2 5 -5 556.96 19.99
-2 5 -4 672.01 22.74
-2 5 -4 697.46 22.03
-2 5 -4 670.27 21.08
-2 5 -4 723.09 22.92
-2 5 -3 189.56 9.85
-2 5 -3 165.29 8.3
-2 5 -3 174.02 8.02
-2 5 -2 771.48 23.5
-2 5 -2 767.14 20.97
-2 5 -2 738.29 19.56
-2 5 -2 746.13 22.58
-2 5 -1 226.16 8.16
-2 5 -1 218.22 10.5
-2 5 -1 219.83 9.74
-2 5 0 372.22 9.01
-2 5 0 362.94 8.82
-2 5 0 347.46 8.87
-2 5 0 365.14 9.05
-2 5 0 366.97 9.08
-2 5 0 378.58 12.97
-2 5 1 133.72 4.19
-2 5 1 135.07 4.35
-2 5 1 141.39 4.51
-2 5 1 135.8 4.16
-2 5 1 137.46 4.26
-2 5 1 136.65 4.36
-2 5 1 134.83 4.36
-2 5 1 132.96 4.13
-2 5 1 141.22 4.4
-2 5 1 141.78 8.11
-2 5 2 411.15 10.16
-2 5 2 402.29 10.16
-2 5 2 415.11 10.56
-2 5 2 422.46 10.36
-2 5 2 408.59 10.12
-2 5 2 426.46 15.77
-2 5 2 420.89 10.28
-2 5 2 411.05 10.15
-2 5 2 407.77 10.06
-2 5 3 31.24 1.92
-2 5 3 30.04 1.88
-2 5 3 34.7 2.17
-2 5 3 28.2 1.89
-2 5 3 31.44 1.85
-2 5 3 31.67 1.88
-2 5 3 30.86 3.94
-2 5 3 32.62 1.93
-2 5 3 31.41 1.92
-2 5 4 15.11 1.34
-2 5 4 14.41 1.4
-2 5 4 16.73 1.63
-2 5 4 15.3 1.34
-2 5 4 14.48 1.37
-2 5 4 13.31 1.28
-2 5 4 15.21 1.39
-2 5 5 338.56 9.2
-2 5 5 354.26 10.02
-2 5 5 352.09 9.33
-2 5 5 376.71 9.49
-2 5 5 343.6 9.27
-2 5 5 353.93 9.62
-2 5 5 368.29 9.65
-2 5 6 177.39 5.15
-2 5 6 171.85 5.93
-2 5 6 173.96 5.29
-2 5 6 170.07 5.3
-2 5 6 175.41 5.63
-2 5 6 187.44 5.8
-2 5 7 17.73 1.37
-2 5 7 18.29 1.51
-2 5 8 5.87 0.67
-2 5 8 6.97 0.69
-2 6 -8 142.67 10.77
-2 6 -8 135.09 10.48
-2 6 -8 148.48 9.82
-2 6 -7 46.48 5.84
-2 6 -7 50.22 5.79
-2 6 -6 262.32 13.65
-2 6 -6 287.25 14.5
-2 6 -6 282.5 13.87
-2 6 -6 294.8 14.44
-2 6 -5 133.59 9.26
-2 6 -5 138.21 9.09
-2 6 -5 144.15 8.79
-2 6 -5 134.08 9.16
-2 6 -4 61.94 6.01
-2 6 -4 55.81 5.31
-2 6 -4 56 4.95
-2 6 -4 60.22 5.82
-2 6 -3 265.5 13.23
-2 6 -3 289.17 11.97
-2 6 -3 305.61 11.17
-2 6 -2 738.21 20.27
-2 6 -2 743.12 23.67
-2 6 -2 679.8 15.48
-2 6 -2 696.53 22.48
-2 6 -2 689.36 15.62
-2 6 -1 32.81 1.88
-2 6 -1 35.8 1.91
-2 6 -1 31.63 1.72
-2 6 -1 30.48 1.75
-2 6 -1 34.06 4.22
-2 6 -1 30.93 3.7
-2 6 0 326.49 8.39
-2 6 0 317.5 8.41
-2 6 0 312.88 8.07
-2 6 0 316.1 8.36
-2 6 0 333.14 8.58
-2 6 1 136.93 4.63
-2 6 1 134.72 4.47
-2 6 1 140.13 8.78
-2 6 1 131.85 4.28
-2 6 1 142.87 4.68
-2 6 1 130.01 4.5
-2 6 1 131.45 4.27
-2 6 2 54.51 5.48
-2 6 2 48.72 2.4
-2 6 2 47.83 2.42
-2 6 2 48.75 2.32
-2 6 2 49.27 2.54
-2 6 2 49.18 2.46
-2 6 2 47.27 2.41
-2 6 3 590.88 14.1
-2 6 3 601.8 14.31
-2 6 3 583.74 13.78
-2 6 3 575.48 13.77
-2 6 3 582.12 14
-2 6 3 589.93 14.16
-2 6 4 7.07 0.97
-2 6 4 7.12 0.9
-2 6 4 8.36 1.07
-2 6 4 6.45 0.91
-2 6 4 7.57 1.04
-2 6 4 6.63 0.94
-2 6 5 98.5 3.77
-2 6 5 98.18 3.6
-2 6 5 100.47 3.69
-2 6 5 94.83 3.46
-2 6 5 102.72 3.85
-2 6 6 48.37 2.26
-2 6 6 43.91 1.98
-2 6 6 44.95 2.19
-2 6 7 94.48 3.01
-2 7 -7 60.69 6.74
-2 7 -7 59.34 6.5
-2 7 -7 68.19 6.9
-2 7 -6 180.79 11.45
-2 7 -6 169.66 10.75
-2 7 -6 198.92 11.24
-2 7 -6 181.08 11.44
-2 7 -5 213.55 11.75
-2 7 -5 212.2 12.14
-2 7 -5 210.3 11.02
-2 7 -5 242.16 12.97
-2 7 -4 119.94 8.07
-2 7 -4 119.63 8.77
-2 7 -3 51.21 2.3
-2 7 -3 45.14 4.47
-2 7 -3 51.52 5.68
-2 7 -3 59.23 5.97
-2 7 -2 240.11 12.68
-2 7 -2 237.6 6.93
-2 7 -2 230.6 6.52
-2 7 -2 229.81 6.43
-2 7 -1 43.51 2.36
-2 7 -1 46.82 2.36
-2 7 -1 43.87 2.27
-2 7 -1 47.71 2.48
-2 7 0 164.47 5.4
-2 7 0 172.89 5.55
-2 7 0 167.15 5.47
-2 7 0 184.35 5.62
-2 7 1 4.15 0.7
-2 7 1 2.68 0.68
-2 7 1 4.49 1.85
-2 7 1 2.97 0.73
-2 7 1 3.55 0.76
-2 7 1 4.62 0.86
-2 7 2 145.64 5.11
-2 7 2 147.45 4.67
-2 7 2 145.69 4.88
-2 7 2 148.96 5.11
-2 7 2 146.03 4.81
-2 7 2 149.72 4.85
-2 7 3 27.53 1.73
-2 7 3 25.35 1.58
-2 7 3 27.7 1.71
-2 7 3 26.93 1.78
-2 7 3 24.04 1.77
-2 7 4 11.69 1.14
-2 7 4 10.61 1.06
-2 7 4 11.82 1.03
-2 7 4 12.48 1.16
-2 7 4 12.54 1.17
-2 7 5 97.79 3.28
-2 7 5 106.47 3.41
-2 7 5 106.3 3.52
-2 7 6 7.12 0.68
-2 8 -6 278.89 7.61
-2 8 -6 290.73 14.5
-2 8 -5 198.41 11.29
-2 8 -5 204.39 11.87
-2 8 -4 109.37 8.55
-2 8 -3 190.98 6.28
-2 8 -3 194.8 5.65
-2 8 -3 198.31 11.89
-2 8 -2 290.38 7.9
-2 8 -2 289.73 8.31
-2 8 -2 307.63 14.96
-2 8 -2 292.7 7.85
-2 8 -2 293.38 8.26
-2 8 -1 269.88 7.39
-2 8 -1 242.84 7.31
-2 8 -1 244.45 13.16
-2 8 -1 257.62 7.25
-2 8 -1 249.87 7.28
-2 8 0 153.54 5.15
-2 8 0 149.65 5.17
-2 8 0 148.88 5.06
-2 8 0 152.06 4.93
-2 8 0 150.93 5.02
-2 8 1 153.6 5.25
-2 8 1 157 5.18
-2 8 1 160.21 5.26
-2 8 1 160.1 4.93
-2 8 2 70.45 3.08
-2 8 2 71.72 2.82
-2 8 2 70.06 3.03
-2 8 2 64.84 2.61
-2 8 2 62.46 2.61
-2 8 3 107.68 3.53
-2 8 4 67.74 2.45
-2 8 4 61.99 2.28
-2 8 4 61.15 2.36
-2 9 -6 81.87 3.19
-2 9 -5 11.85 1.38
-2 9 -5 10.14 1.14
-2 9 -4 60.11 3.06
-2 9 -4 66.35 3.08
-2 9 -3 6.26 0.81
-2 9 -3 8.3 1.08
-2 9 -3 7.46 1
-2 9 -2 33.67 2.14
-2 9 -2 31.33 1.81
-2 9 -2 31.81 1.92
-2 9 -2 33.9 2.06
-2 9 -2 34.82 1.92
-2 9 -1 0.18 0.45
-2 9 -1 0.15 0.4
-2 9 -1 0.07 0.36
-2 9 -1 0.62 0.42
-2 9 0 15.78 1.31
-2 9 0 14.69 1.32
-2 9 0 16.25 1.32
-2 9 0 15.85 1.15
-2 9 1 8.77 0.92
-2 9 1 7.23 0.89
-2 9 1 9.16 0.99
-2 9 2 2.6 0.54
-2 9 2 2.31 0.5
-2 9 3 5.69 0.62
-2 10 -7 15.74 1.25
-2 10 -7 16.33 1.24
-2 10 -6 266.39 6.67
-2 10 -6 256.03 6.86
-2 10 -5 276.26 7.11
-2 10 -5 263.24 6.98
-2 10 -4 26.92 1.68
-2 10 -4 28.61 1.76
-2 10 -4 29.2 1.66
-2 10 -3 187.27 5.55
-2 10 -3 173.92 4.97
-2 10 -2 114.08 3.55
-2 10 -2 112.83 3.48
-2 10 -1 135.53 4.04
-2 10 -1 134.42 4.25
-2 10 -1 134.03 3.99
-2 10 0 88.61 2.94
-2 10 0 84.59 2.86
-2 10 0 88.08 2.89
-2 10 1 77.84 2.48
-2 10 1 75.12 2.48
-2 11 -6 9.45 0.69
-2 11 -5 4.63 0.57
-2 11 -4 3.61 0.56
-2 11 -3 2.78 0.49
-2 11 -2 4.61 0.54
-1 -10 2 19.18 1.38
-1 -10 3 35.39 2.03
-1 -10 4 6.58 0.96
-1 -10 5 484.45 12.07
-1 -10 6 0.8 0.45
-1 -10 7 8.96 0.99
-1 -9 1 90.23 3.67
-1 -9 2 102.61 4.2
-1 -9 3 1.12 0.62
-1 -9 4 79.42 3.78
-1 -9 6 59.6 3.09
-1 -9 7 110.13 4.14
-1 -9 7 98.57 3.79
-1 -9 8 51.85 2.4
-1 -9 8 48.02 2.46
-1 -9 9 40.13 2.13
-1 -9 10 47.28 2.16
-1 -9 10 49.65 2.19
-1 -8 0 144.16 5.15
-1 -8 1 245 7.67
-1 -8 2 342.64 9.92
-1 -8 2 336.88 15.8
-1 -8 3 22.58 3.97
-1 -8 3 27.7 4.36
-1 -8 4 5.35 2
-1 -8 4 7.13 1.17
-1 -8 4 5.47 2.05
-1 -8 5 746.58 25.67
-1 -8 5 714.01 17.7
-1 -8 5 677.16 25.62
-1 -8 6 84 3.65
-1 -8 6 85.6 4.16
-1 -8 7 277.51 8.17
-1 -8 7 278.78 8.26
-1 -8 7 285.38 8.89
-1 -8 8 57.69 2.74
-1 -8 8 58.07 3.09
-1 -8 9 107.51 4.3
-1 -8 10 129.01 4.55
-1 -8 11 119.09 3.89
-1 -8 11 117.6 3.42
-1 -7 -1 36.87 2.32
-1 -7 0 148.18 5.37
-1 -7 0 139.91 9.17
-1 -7 1 417.23 17.27
-1 -7 1 410.41 11.25
-1 -7 2 55.02 5.78
-1 -7 2 53.73 5.53
-1 -7 2 54.01 5.81
-1 -7 3 21.13 3.58
-1 -7 3 24.73 1.91
-1 -7 3 22.12 3.84
-1 -7 4 13.26 3.06
-1 -7 4 12.43 1.48
-1 -7 5 40.53 4.95
-1 -7 5 31.03 4.68
-1 -7 5 36.59 2.51
-1 -7 6 222.36 7.05
-1 -7 6 216.25 11.59
-1 -7 6 231.4 7.65
-1 -7 6 238.34 13.87
-1 -7 7 95.85 7.35
-1 -7 7 104.1 4.73
-1 -7 7 102.27 4.33
-1 -7 7 93.91 3.84
-1 -7 8 0.86 0.52
-1 -7 8 0.71 0.58
-1 -7 9 68.49 3.23
-1 -7 9 78.87 3.74
-1 -7 9 73.31 3.71
-1 -7 10 8.41 1.04
-1 -7 10 9.46 1.23
-1 -7 10 10.18 1.27
-1 -7 11 9.44 0.92
-1 -7 11 8.95 1.01
-1 -7 12 6.93 0.66
-1 -7 12 7.82 0.62
-1 -6 -1 420.1 10.99
-1 -6 -1 423.17 16.16
-1 -6 0 517.77 18.24
-1 -6 0 482.87 12.43
-1 -6 1 492.52 17.88
-1 -6 1 490.23 17.33
-1 -6 1 467.04 17.65
-1 -6 2 1346.02 35.92
-1 -6 2 1299.85 28.66
-1 -6 2 1336.8 36.18
-1 -6 3 43.68 2.44
-1 -6 3 46.65 4.71
-1 -6 3 35.44 4.5
-1 -6 4 206.06 10.45
-1 -6 4 200.68 6.44
-1 -6 4 190.7 11.08
-1 -6 5 598.05 20.36
-1 -6 5 608.12 15.19
-1 -6 5 606.66 22.44
-1 -6 6 132.29 8.26
-1 -6 6 148.02 5.55
-1 -6 6 139.45 9.9
-1 -6 7 821.02 24.68
-1 -6 7 797.09 19.16
-1 -6 7 845.88 19.66
-1 -6 7 832.25 28.78
-1 -6 7 834.99 19.29
-1 -6 8 232.73 7.5
-1 -6 8 246.8 7.54
-1 -6 8 250.45 8.06
-1 -6 8 228.21 13.29
-1 -6 8 247.4 7.83
-1 -6 9 163.23 5.71
-1 -6 9 151.67 5.69
-1 -6 9 161.12 5.93
-1 -6 9 155.15 5.85
-1 -6 10 187.24 6.14
-1 -6 10 179.4 6.06
-1 -6 11 149.68 5.12
-1 -6 11 159.14 4.85
-1 -6 11 150.47 4.91
-1 -6 12 186.25 5.11
-1 -6 12 199.61 5.1
-1 -5 -4 211.84 11.79
-1 -5 -2 28.26 1.8
-1 -5 -1 107.71 3.91
-1 -5 -1 101.4 6.54
-1 -5 0 76.33 5.58
-1 -5 0 79.2 5.63
-1 -5 0 89.38 5.69
-1 -5 1 33.8 3.66
-1 -5 1 38.89 3.91
-1 -5 2 224.84 9.96
-1 -5 2 222.47 6.3
-1 -5 2 233.23 10.55
-1 -5 3 155.26 4.97
-1 -5 3 153.48 8.65
-1 -5 4 313.89 12.04
-1 -5 4 303.2 8.31
-1 -5 4 282.17 12.99
-1 -5 5 2.8 1.15
-1 -5 5 3.88 0.66
-1 -5 5 2.27 0.65
-1 -5 5 1.57 1.36
-1 -5 6 3.67 0.73
-1 -5 6 3.89 1.3
-1 -5 6 3.84 1.62
-1 -5 7 27.45 3.16
-1 -5 7 27.64 2.12
-1 -5 7 27.04 1.95
-1 -5 7 28.35 2.01
-1 -5 7 30.35 2.12
-1 -5 7 26.23 1.77
-1 -5 7 28.82 4.33
-1 -5 8 2.55 0.76
-1 -5 8 0.99 0.56
-1 -5 8 0.71 0.58
-1 -5 8 1.28 0.74
-1 -5 8 0.61 0.46
-1 -5 8 1.41 1.16
-1 -5 9 0.12 0.55
-1 -5 9 1.13 0.78
-1 -5 9 0.68 0.56
-1 -5 9 0.18 0.44
-1 -5 9 -0.44 0.97
-1 -5 10 23.79 1.97
-1 -5 10 21.15 1.72
-1 -5 10 21.07 1.89
-1 -5 10 21.95 1.74
-1 -5 10 21.81 1.63
-1 -5 10 22.24 1.81
-1 -5 11 120.31 4.46
-1 -5 11 128.12 4.33
-1 -5 11 122.52 4.25
-1 -5 12 14.84 1.08
-1 -5 12 13.39 1.04
-1 -4 -5 686.27 23.31
-1 -4 -4 190.5 10.64
-1 -4 -2 464.16 11.07
-1 -4 -2 477 14.75
-1 -4 -1 76.31 2.85
-1 -4 -1 69.65 4.65
-1 -4 -1 66.01 4.26
-1 -4 -1 79.19 4.85
-1 -4 0 1739.01 40.73
-1 -4 0 1723.68 40.48
-1 -4 1 1768.41 40.91
-1 -4 1 1723.09 41.13
-1 -4 2 1991.52 45.13
-1 -4 2 1923.47 46.01
-1 -4 3 379.02 13.5
-1 -4 3 370.99 9.2
-1 -4 4 347.81 11.9
-1 -4 4 351.69 13.3
-1 -4 4 355.23 8.98
-1 -4 5 315.99 10.98
-1 -4 5 298.19 7.76
-1 -4 5 291.15 12.4
-1 -4 6 727.97 19.53
-1 -4 6 684.92 16.38
-1 -4 6 675.87 22.22
-1 -4 6 688.94 16.16
-1 -4 7 369.96 15.14
-1 -4 7 360.32 9.71
-1 -4 7 358.92 9.74
-1 -4 7 350.47 9.3
-1 -4 7 366.2 9.85
-1 -4 8 349.2 9.86
-1 -4 8 370.15 10.02
-1 -4 8 360.05 9.77
-1 -4 8 317.74 14.55
-1 -4 8 335.9 9.38
-1 -4 8 349.24 10.01
-1 -4 9 478.1 12.58
-1 -4 9 479.38 12.76
-1 -4 9 470.54 12.45
-1 -4 9 458.56 11.9
-1 -4 9 437.48 11.79
-1 -4 10 67.58 3.46
-1 -4 10 58.67 3.16
-1 -4 10 64.05 3.12
-1 -4 10 60.15 2.95
-1 -4 10 56.7 2.93
-1 -4 11 215.19 6.5
-1 -4 11 227.5 6.6
-1 -4 11 231 6.6
-1 -4 11 213.64 6.22
-1 -4 11 215.3 6.12
-1 -4 12 97.87 3.25
-1 -4 12 93.66 3.15
-1 -3 -5 47.97 5.16
-1 -3 -2 7.43 1.32
-1 -3 -2 6.9 1.26
-1 -3 -1 13.25 1.71
-1 -3 -1 10.86 1.6
-1 -3 -1 11.94 1.6
-1 -3 0 203.8 7.56
-1 -3 0 210.2 7.58
-1 -3 1 1124.21 26.7
-1 -3 1 1122.97 27.21
-1 -3 2 6.33 1.32
-1 -3 3 62.7 3.69
-1 -3 3 57.7 4.11
-1 -3 4 64.53 3.78
-1 -3 4 54.61 4.21
-1 -3 5 23.84 2.28
-1 -3 5 20.96 1.4
-1 -3 5 25.76 3.08
-1 -3 5 20.18 1.41
-1 -3 6 175.35 5.51
-1 -3 6 173.33 5.39
-1 -3 6 179.52 8.86
-1 -3 6 175.65 5.46
-1 -3 7 177.49 5.93
-1 -3 7 192.65 6.17
-1 -3 7 201.75 6.1
-1 -3 7 190.88 5.84
-1 -3 7 191.32 9.6
-1 -3 7 191.38 5.79
-1 -3 7 181.78 5.65
-1 -3 8 14.52 1.57
-1 -3 8 13.99 1.49
-1 -3 8 13.35 1.36
-1 -3 8 12.41 1.29
-1 -3 8 18.2 1.59
-1 -3 8 9.76 2.2
-1 -3 8 15.4 1.59
-1 -3 9 25.76 2.12
-1 -3 9 22.26 1.89
-1 -3 9 23.34 2.07
-1 -3 9 23.91 1.91
-1 -3 9 21.54 1.81
-1 -3 9 22.87 1.81
-1 -3 10 1.08 0.63
-1 -3 10 1.43 0.6
-1 -3 10 2.83 0.78
-1 -3 10 1.04 0.55
-1 -3 10 1.7 0.64
-1 -3 10 1.36 0.55
-1 -3 11 91.74 3.63
-1 -3 11 91.48 3.54
-1 -3 11 87.75 3.55
-1 -3 12 35.83 1.68
-1 -3 12 33.95 1.58
-1 -2 -6 380.7 15.34
-1 -2 -5 500.73 17.48
-1 -2 -4 697.08 20.81
-1 -2 -3 1163.62 26.46
-1 -2 -2 354.47 9.91
-1 -2 -2 351.49 10.14
-1 -2 -1 279.04 8.41
-1 -2 -1 279.14 8.6
-1 -2 -1 295.62 8.62
-1 -2 0 919.51 21.02
-1 -2 0 877.85 21.19
-1 -2 1 721.12 17.38
-1 -2 1 725.2 17.95
-1 -2 2 9999 203.22
-1 -2 3 249.36 7.68
-1 -2 3 241.77 8.46
-1 -2 4 68.92 3.44
-1 -2 4 63.01 4
-1 -2 5 413.64 9.96
-1 -2 5 419.6 9.9
-1 -2 5 399.82 13.03
-1 -2 6 252.4 9.95
-1 -2 6 259.06 7.21
-1 -2 6 257.83 6.8
-1 -2 6 263.33 7.13
-1 -2 7 499.97 12.55
-1 -2 7 475.78 15.6
-1 -2 7 511.13 12.51
-1 -2 7 496.45 12.38
-1 -2 7 511.42 12.38
-1 -2 8 222.16 6.78
-1 -2 8 221.71 6.72
-1 -2 8 217.04 6.74
-1 -2 8 213.17 6.68
-1 -2 8 221.19 6.57
-1 -2 9 287.49 8.88
-1 -2 9 276.35 8.31
-1 -2 9 298.98 8.59
-1 -2 9 297.55 8.55
-1 -2 9 289.38 8.55
-1 -2 9 276.71 7.97
-1 -2 10 97.97 4.05
-1 -2 10 92.23 3.97
-1 -2 10 90.78 3.95
-1 -2 11 124.22 4.2
-1 -2 11 118.45 4.24
-1 -2 11 109.77 4.11
-1 -2 12 18.31 1.18
-1 -2 12 15.34 1.04
-1 -1 -6 316.68 13.25
-1 -1 -5 120.02 6.94
-1 -1 -5 101.58 5.81
-1 -1 -4 67.93 4.31
-1 -1 -4 76.66 4.9
-1 -1 -3 11.7 1.64
-1 -1 -2 374.62 9.58
-1 -1 -2 373.63 10.71
-1 -1 -2 387.14 10.17
-1 -1 -1 124.39 4.5
-1 -1 -1 123.47 4.19
-1 -1 -1 122.48 4.65
-1 -1 0 204.14 5.9
-1 -1 0 194.02 6.01
-1 -1 0 201 6.08
-1 -1 1 594.78 14.25
-1 -1 2 34.76 1.99
-1 -1 2 32.51 2.12
-1 -1 3 5668.59 114.78
-1 -1 3 5536.91 113.79
-1 -1 4 3.24 0.87
-1 -1 5 163.11 6.47
-1 -1 5 171.89 4.88
-1 -1 6 336.82 8.67
-1 -1 6 322.29 8.42
-1 -1 6 330.27 8.45
-1 -1 6 304.18 10.09
-1 -1 7 113.55 4.36
-1 -1 7 118.09 4.47
-1 -1 7 120.88 4.33
-1 -1 7 114.82 3.85
-1 -1 7 126.51 4.45
-1 -1 7 118.82 4.36
-1 -1 7 116.79 4.12
-1 -1 7 118.8 3.71
-1 -1 7 121.24 4.4
-1 -1 8 334.38 9.56
-1 -1 8 348.27 9.72
-1 -1 8 323.89 9.32
-1 -1 8 326.41 9.15
-1 -1 8 332.54 9.4
-1 -1 8 344.15 9.52
-1 -1 8 342.94 9.49
-1 -1 8 325.77 8.83
-1 -1 8 336.52 8.66
-1 -1 9 125.62 4.39
-1 -1 9 138.02 4.45
-1 -1 9 139.72 5.18
-1 -1 9 131.81 5.03
-1 -1 9 133.59 5.13
-1 -1 10 21.45 1.38
-1 -1 10 25.64 1.9
-1 -1 10 21.83 1.82
-1 -1 10 24.21 1.88
-1 -1 11 102.06 3.59
-1 -1 11 109.21 3.86
-1 -1 11 101.3 3.76
-1 -1 12 35.11 1.53
-1 0 -6 322.7 12.49
-1 0 -5 476.38 15.39
-1 0 -5 471.85 15.16
-1 0 -4 541.71 15.98
-1 0 -4 573.6 16.22
-1 0 -3 1171.32 27.34
-1 0 -3 1156.99 27.43
-1 0 -3 1145.57 27.98
-1 0 -2 1373.47 31.56
-1 0 -2 1481.34 31.91
-1 0 -1 1000.36 22.09
-1 0 0 210.55 5.93
-1 0 0 218.96 5.94
-1 0 1 4.27 0.64
-1 0 1 3.81 0.6
-1 0 2 5310.96 107.12
-1 0 2 5257.95 106.07
-1 0 2 5339.64 106.94
-1 0 3 1299 27.55
-1 0 3 1264.42 27.01
-1 0 4 325.45 7.83
-1 0 4 395.43 9.2
-1 0 5 36.21 1.84
-1 0 5 31.79 1.71
-1 0 6 8.22 1
-1 0 6 8.65 1.02
-1 0 6 8.01 0.96
-1 0 6 8.5 1.01
-1 0 6 8.33 1.01
-1 0 6 7.52 0.89
-1 0 6 8.22 0.9
-1 0 6 9.92 1.05
-1 0 7 189.93 5.73
-1 0 7 190.61 6.17
-1 0 7 193.59 6.24
-1 0 7 196.34 5.81
-1 0 7 195.61 6.2
-1 0 7 198.32 6.32
-1 0 7 192.01 5.65
-1 0 7 195.47 5.59
-1 0 8 115.24 4.17
-1 0 8 113.2 4.58
-1 0 8 118.57 4.22
-1 0 8 114.58 4.66
-1 0 8 113.17 3.95
-1 0 9 107.75 3.85
-1 0 9 108.84 4.4
-1 0 9 104.8 4.46
-1 0 9 105.47 3.95
-1 0 9 102.33 3.59
-1 0 10 16.23 1.44
-1 0 10 17.78 1.29
-1 0 10 17.04 1.56
-1 0 11 144.39 4.52
-1 1 -7 11.16 2.46
-1 1 -6 615.98 19.78
-1 1 -6 648.18 21.16
-1 1 -6 599.75 18.06
-1 1 -5 127.78 6.99
-1 1 -5 144.43 7.72
-1 1 -4 1420.4 33.52
-1 1 -4 1407.53 34
-1 1 -4 1437.4 34.68
-1 1 -3 339.51 10.27
-1 1 -3 335.67 10.55
-1 1 -3 343.1 10.86
-1 1 -2 235.09 7.23
-1 1 -1 456.5 11.4
-1 1 0 115.71 3.57
-1 1 1 890.73 19.98
-1 1 1 897.45 19.07
-1 1 2 576.39 13.71
-1 1 3 1809.33 39.01
-1 1 5 730.24 16.1
-1 1 6 83.75 3.42
-1 1 6 89.83 3.51
-1 1 6 88.32 3.3
-1 1 6 87.5 3.36
-1 1 6 82 3.47
-1 1 6 86.24 3.61
-1 1 6 88.29 3.41
-1 1 6 86.64 3.27
-1 1 6 83.04 3.2
-1 1 7 250.05 7.23
-1 1 7 258.71 7.36
-1 1 7 243.24 7.61
-1 1 7 253.86 7.84
-1 1 7 260.31 7.16
-1 1 7 263.51 7.64
-1 1 8 235.44 6.9
-1 1 8 233.93 7.04
-1 1 8 224.57 7.32
-1 1 8 242.53 7.39
-1 1 8 238.32 7.6
-1 1 8 237.64 6.79
-1 1 9 170.32 5.38
-1 1 9 153.79 5.46
-1 1 9 171.13 5.88
-1 1 9 156.11 4.94
-1 1 9 159.42 4.91
-1 1 10 164.17 4.8
-1 1 10 155.96 5.23
-1 2 -8 347.61 15.51
-1 2 -8 386.43 17.52
-1 2 -7 282.72 13.2
-1 2 -7 287.08 14.16
-1 2 -6 716.11 22.52
-1 2 -6 770.47 23.84
-1 2 -6 702.49 20.69
-1 2 -5 10.07 2.09
-1 2 -5 16.75 2.27
-1 2 -5 11.14 2.22
-1 2 -4 644.63 18.44
-1 2 -4 650.31 17.8
-1 2 -4 645.71 18.61
-1 2 -3 202.39 7.72
-1 2 -3 220.09 7.82
-1 2 -3 204.61 7.77
-1 2 -2 538.25 14.26
-1 2 -1 1357.77 29.97
-1 2 -1 1384.01 29.71
-1 2 0 64.2 2.48
-1 2 0 63.22 2.12
-1 2 0 65.11 3.05
-1 2 1 764.98 18.97
-1 2 1 789.53 17.81
-1 2 2 200.34 7.08
-1 2 3 54.53 3.45
-1 2 5 0.61 0.39
-1 2 5 0.85 0.47
-1 2 5 0.96 0.51
-1 2 5 0.63 0.42
-1 2 5 1.02 0.39
-1 2 6 28.25 1.83
-1 2 6 22.22 1.79
-1 2 6 23.07 1.69
-1 2 6 22.33 1.39
-1 2 6 20.1 1.52
-1 2 6 22 1.6
-1 2 6 22.94 1.7
-1 2 7 57.02 2.86
-1 2 7 58.35 2.92
-1 2 7 53.73 2.99
-1 2 7 52.23 3.03
-1 2 7 55.18 2.85
-1 2 7 55.77 2.74
-1 2 8 0.68 0.46
-1 2 8 0.77 0.49
-1 2 8 0.75 0.59
-1 2 8 0.75 0.47
-1 2 8 0.12 0.57
-1 2 9 2.71 0.65
-1 2 9 3.74 0.88
-1 2 10 4.55 0.62
-1 3 -9 545.04 21.35
-1 3 -8 442.27 18.86
-1 3 -8 477.04 20.3
-1 3 -7 35.7 4.56
-1 3 -7 29.95 4.38
-1 3 -7 37.27 3.93
-1 3 -6 526.42 18.75
-1 3 -6 543.25 19.21
-1 3 -6 518.83 17.13
-1 3 -5 673.74 20.61
-1 3 -5 666.64 19.72
-1 3 -5 667.95 20.69
-1 3 -4 891.76 24.07
-1 3 -4 893.56 23.67
-1 3 -3 1174.02 28.74
-1 3 -2 1853.42 42.25
-1 3 -2 1881.74 41.55
-1 3 -2 1863.79 42.08
-1 3 -1 207.87 7.75
-1 3 -1 204.17 6.68
-1 3 0 303.47 8.04
-1 3 0 305.71 7.14
-1 3 0 323.44 9.59
-1 3 1 384.88 11.95
-1 3 2 558.98 12.6
-1 3 2 665.74 17.11
-1 3 3 1726.66 40.72
-1 3 4 370.02 9.45
-1 3 4 384.52 9.81
-1 3 4 371.4 9.34
-1 3 4 385.38 9.24
-1 3 4 383.31 9.25
-1 3 4 376.1 9.41
-1 3 5 409 11.02
-1 3 5 416.98 10.72
-1 3 5 407.99 10.88
-1 3 5 418.11 10.21
-1 3 5 435.88 10.82
-1 3 5 414.88 11.06
-1 3 5 433.8 10.65
-1 3 5 425.6 10.27
-1 3 5 425.53 10.43
-1 3 5 422.59 10.47
-1 3 6 266.98 7.09
-1 3 6 260.65 7.79
-1 3 6 265.21 7.59
-1 3 6 286.89 7.99
-1 3 6 269.26 8.26
-1 3 6 273.34 8.32
-1 3 6 267.92 7.2
-1 3 6 275.43 7.55
-1 3 6 279.65 7.83
-1 3 7 141.64 5.03
-1 3 7 150.83 5.28
-1 3 7 143.48 5.49
-1 3 7 146.45 5.05
-1 3 8 164.39 5.74
-1 3 8 160.91 5.15
-1 3 9 92.17 3.29
-1 3 9 89.65 3.45
-1 3 9 85.16 2.97
-1 3 10 80.51 2.43
-1 4 -9 112.92 9.35
-1 4 -9 115.63 9.86
-1 4 -8 50.74 6.07
-1 4 -8 61.89 6.89
-1 4 -7 74.91 6.84
-1 4 -7 72.62 6.92
-1 4 -7 84.89 6.31
-1 4 -6 400.3 14.84
-1 4 -6 432.8 16.68
-1 4 -6 407.25 15.23
-1 4 -5 21.39 2.84
-1 4 -5 16.76 2.77
-1 4 -5 18.78 2.77
-1 4 -5 16.63 2.72
-1 4 -4 33.24 3.32
-1 4 -4 36.88 3.63
-1 4 -3 366.32 12.66
-1 4 -3 365.21 12.39
-1 4 -3 379.57 12.97
-1 4 -2 41.39 3.54
-1 4 -2 45.39 3.32
-1 4 -1 83.67 5.03
-1 4 -1 69.49 3.78
-1 4 -1 85.23 4.85
-1 4 0 200.01 5.59
-1 4 0 211.35 8.28
-1 4 1 105.54 3.39
-1 4 2 3.33 0.59
-1 4 2 3.66 1.25
-1 4 3 43.93 2.26
-1 4 3 47.01 2.21
-1 4 3 48.22 2.41
-1 4 3 46.17 2.38
-1 4 3 46.36 2.12
-1 4 3 48.09 2.25
-1 4 3 46.59 2.21
-1 4 3 44.81 2.05
-1 4 3 50.17 2.29
-1 4 4 4.38 0.78
-1 4 4 3.96 0.8
-1 4 4 5.76 0.98
-1 4 4 4.72 0.91
-1 4 4 4.79 0.73
-1 4 4 5.06 0.78
-1 4 4 4.74 0.73
-1 4 4 3.93 0.72
-1 4 4 4.11 0.75
-1 4 5 0.08 0.41
-1 4 5 0.46 0.53
-1 4 5 0.79 0.49
-1 4 5 0.38 0.54
-1 4 5 0.11 0.54
-1 4 5 0.45 0.6
-1 4 5 0.82 0.49
-1 4 5 0.23 0.37
-1 4 5 0.3 0.37
-1 4 6 2.43 0.69
-1 4 6 1.91 0.78
-1 4 6 1.66 0.74
-1 4 6 2.62 0.6
-1 4 6 2 0.56
-1 4 6 2.27 0.54
-1 4 7 19.65 1.65
-1 4 7 18.94 1.75
-1 4 7 19.65 1.56
-1 4 8 3.38 0.67
-1 4 8 4.13 0.78
-1 4 8 4.15 0.68
-1 4 9 41.21 1.8
-1 4 9 39.28 1.53
-1 5 -9 719.46 27.22
-1 5 -9 768.97 28.54
-1 5 -8 317.24 16.23
-1 5 -8 335.2 16.8
-1 5 -7 811.18 27.32
-1 5 -7 776.85 24.98
-1 5 -6 255.5 11.58
-1 5 -6 272.5 13.11
-1 5 -6 277.74 13.17
-1 5 -6 263.16 12.17
-1 5 -5 394.37 14.8
-1 5 -5 409.82 15.59
-1 5 -5 428.63 15.83
-1 5 -4 805.91 23.78
-1 5 -4 825.63 24
-1 5 -4 833.07 24.41
-1 5 -3 187.8 9.05
-1 5 -3 201.52 8.87
-1 5 -3 187.01 9.06
-1 5 -2 1636.33 38.64
-1 5 -2 1657.46 40.71
-1 5 -1 442.1 12.8
-1 5 -1 425.51 11.4
-1 5 -1 426 14.94
-1 5 -1 440.67 14.58
-1 5 0 439.96 10.66
-1 5 0 454.36 15.61
-1 5 1 188.12 5.52
-1 5 1 184.31 5.39
-1 5 1 188.93 5.57
-1 5 1 178.94 5.33
-1 5 1 183.09 5.18
-1 5 2 105.88 3.92
-1 5 2 103.71 3.63
-1 5 2 103.68 3.96
-1 5 2 114.81 7.37
-1 5 2 103.97 3.43
-1 5 2 114.28 3.65
-1 5 2 101.84 3.66
-1 5 3 870.06 19.69
-1 5 3 898.31 20.22
-1 5 3 830.49 18.99
-1 5 3 875.61 19.22
-1 5 3 870.59 19.69
-1 5 3 890.88 19.29
-1 5 3 864.05 19.69
-1 5 3 850.93 19.57
-1 5 4 638.04 15.31
-1 5 4 632.58 15.45
-1 5 4 656.36 16
-1 5 4 644.27 14.97
-1 5 4 643.8 15.3
-1 5 4 642.47 14.93
-1 5 4 658.31 15.53
-1 5 5 55.55 2.68
-1 5 5 60.55 3
-1 5 5 59.64 3.24
-1 5 5 57 2.7
-1 5 5 55.9 2.56
-1 5 5 60.1 2.97
-1 5 6 174.44 5.2
-1 5 6 178.03 5.83
-1 5 6 189.37 6.27
-1 5 6 181.85 5.28
-1 5 6 184.62 5.83
-1 5 7 153.67 4.92
-1 5 7 156.22 5.17
-1 5 8 30.64 1.5
-1 5 8 28.62 1.41
-1 6 -9 39.11 5.49
-1 6 -8 19.22 3.89
-1 6 -8 20.28 3.97
-1 6 -8 12.74 2.76
-1 6 -7 52.34 6.09
-1 6 -7 49.07 5.36
-1 6 -6 12.94 2.51
-1 6 -6 17.35 3.34
-1 6 -6 14.3 2.99
-1 6 -6 15.02 2.95
-1 6 -5 0.79 1.15
-1 6 -5 1.58 1.15
-1 6 -5 0.7 0.77
-1 6 -5 0.73 1.27
-1 6 -4 92.73 6.67
-1 6 -4 93.93 6.83
-1 6 -3 10.95 2.29
-1 6 -3 8.12 1.89
-1 6 -2 9.64 0.94
-1 6 -2 9.98 2.18
-1 6 -1 11.99 1.21
-1 6 -1 13.54 1.16
-1 6 -1 9.13 2.16
-1 6 -1 12.54 1.1
-1 6 0 32.7 1.91
-1 6 0 36.55 2.11
-1 6 0 31.43 3.95
-1 6 0 33.84 1.94
-1 6 0 33 1.8
-1 6 1 22.97 1.71
-1 6 1 23.55 1.66
-1 6 1 21.73 1.6
-1 6 1 20.97 1.43
-1 6 1 20.42 1.44
-1 6 2 5.45 1.79
-1 6 2 7.9 0.96
-1 6 2 6.46 1.05
-1 6 2 7.82 0.9
-1 6 2 7.13 0.95
-1 6 3 9.36 1.09
-1 6 3 8.55 1.12
-1 6 3 10.04 1.31
-1 6 3 8.28 0.93
-1 6 3 9.61 1.16
-1 6 3 7.66 0.91
-1 6 3 7.81 1.05
-1 6 4 8.74 1.09
-1 6 4 8.25 1.03
-1 6 4 8.46 1.27
-1 6 4 10.83 1.18
-1 6 4 8.92 0.95
-1 6 4 8.55 1.14
-1 6 5 85.87 3.35
-1 6 5 89.07 3.58
-1 6 5 97.09 4.03
-1 6 5 86.86 3.35
-1 6 5 91.31 3.65
-1 6 6 46.75 2.24
-1 6 6 43.52 1.88
-1 6 6 50.82 2.34
-1 6 7 19.85 1.15
-1 7 -8 251.72 14.33
-1 7 -7 459.92 19.72
-1 7 -7 465.57 19.46
-1 7 -6 392.38 17.25
-1 7 -6 364.11 16.21
-1 7 -6 377.93 16.64
-1 7 -5 383.94 16.1
-1 7 -5 332.33 14.5
-1 7 -5 358.44 15.14
-1 7 -4 242.43 11.88
-1 7 -4 256.12 11.3
-1 7 -4 258.48 12.37
-1 7 -3 393.07 15.93
-1 7 -3 380.55 9.26
-1 7 -3 394.14 14.65
-1 7 -3 361.31 9.24
-1 7 -2 267.87 7.61
-1 7 -2 256.06 12.55
-1 7 -2 238.01 6.78
-1 7 -2 236.51 6.8
-1 7 -1 70.46 3.33
-1 7 -1 78.19 3.19
-1 7 -1 74.63 6.58
-1 7 -1 70.83 3.09
-1 7 -1 70.67 2.95
-1 7 0 1119.53 24.76
-1 7 0 1087.06 24.37
-1 7 0 1138.37 33.18
-1 7 0 1121.11 24.42
-1 7 0 1043.18 23.68
-1 7 1 3.43 0.8
-1 7 1 2.41 0.66
-1 7 1 2.76 0.76
-1 7 1 3.11 0.63
-1 7 1 2.79 0.65
-1 7 2 39.4 2.36
-1 7 2 36.85 2.07
-1 7 2 40.32 2.35
-1 7 2 33.33 1.81
-1 7 2 35.35 2.12
-1 7 3 326.1 8.77
-1 7 3 298.32 8.16
-1 7 3 321.85 8.68
-1 7 3 316.3 8.59
-1 7 4 171.37 5.32
-1 7 4 160 5.02
-1 7 4 170.85 5.25
-1 7 4 179.37 5.43
-1 7 5 123.69 3.78
-1 7 5 128.74 3.78
-1 7 5 127.09 4.02
-1 7 6 39.41 1.64
-1 8 -7 24.53 4.22
-1 8 -7 21.69 3.75
-1 8 -6 0.96 1.3
-1 8 -5 24.15 3.71
-1 8 -5 25.87 4.06
-1 8 -4 143.86 9.34
-1 8 -3 4.43 0.8
-1 8 -3 5.74 1.07
-1 8 -3 5.75 0.8
-1 8 -3 3.98 0.7
-1 8 -2 165.73 5.78
-1 8 -2 162.86 5.14
-1 8 -2 150.96 5.1
-1 8 -2 165.53 10.32
-1 8 -2 155.1 4.99
-1 8 -1 20.17 1.76
-1 8 -1 20.53 1.62
-1 8 -1 18.58 3.48
-1 8 -1 20.35 1.62
-1 8 -1 21.26 1.48
-1 8 0 30.61 2.04
-1 8 0 27.77 2.07
-1 8 0 31.77 2.07
-1 8 0 27.13 1.61
-1 8 1 167.1 5.47
-1 8 1 154.96 5.1
-1 8 1 161.74 5.42
-1 8 1 154.93 4.87
-1 8 2 0.64 0.36
-1 8 2 1.05 0.54
-1 8 2 0.79 0.35
-1 8 2 0.6 0.42
-1 8 3 101.84 3.67
-1 8 3 101.93 3.63
-1 8 3 100.39 3.5
-1 8 4 0.46 0.31
-1 8 4 0.49 0.33
-1 8 4 0.25 0.33
-1 9 -5 88.1 4.07
-1 9 -4 230.86 7.35
-1 9 -4 219.75 6.41
-1 9 -3 115.26 4.59
-1 9 -3 109.02 3.7
-1 9 -3 103.25 3.77
-1 9 -3 107.89 3.74
-1 9 -2 107.91 4.4
-1 9 -2 112.88 3.94
-1 9 -2 110.7 4.01
-1 9 -2 106.94 3.56
-1 9 -1 14.27 1.45
-1 9 -1 16.04 1.37
-1 9 -1 16.29 1.41
-1 9 0 169.57 5.39
-1 9 0 170.24 5.35
-1 9 0 174.04 5.45
-1 9 1 32.4 1.88
-1 9 1 29.75 1.63
-1 9 1 32.47 1.86
-1 9 2 28.32 1.62
-1 9 2 29.12 1.62
-1 9 3 30.53 1.44
-1 9 3 32.43 1.43
-1 10 -9 0.47 0.32
-1 10 -8 144.91 4.71
-1 10 -7 42.04 2.35
-1 10 -7 45.4 1.92
-1 10 -6 41.66 2.4
-1 10 -5 46.59 2.55
-1 10 -4 107.44 4.12
-1 10 -3 72.11 3.15
-1 10 -3 72.05 2.64
-1 10 -2 22.73 1.62
-1 10 -2 24.7 1.43
-1 10 -2 27.23 1.71
-1 10 -2 26.07 1.52
-1 10 -1 139.71 4.22
-1 10 -1 139.55 4.38
-1 10 -1 144.57 4.3
-1 10 0 87.41 2.91
-1 10 0 80.7 2.71
-1 10 0 84.34 2.9
-1 10 1 7.56 0.7
-1 10 1 8.03 0.7
-1 11 -6 79.48 2.56
-1 11 -5 11.02 0.9
-1 11 -4 33.1 1.63
-1 11 -2 33.19 1.46
0 -11 5 48.45 2.13
0 -10 2 12.13 1.18
0 -10 3 1.77 0.61
0 -10 4 36.62 2.25
0 -10 5 1.14 0.63
0 -10 6 1.88 0.67
0 -10 7 3.94 0.74
0 -10 8 6.99 0.79
0 -10 8 5.67 0.73
0 -9 1 5.07 0.91
0 -9 2 736.49 17.76
0 -9 5 224.24 7.08
0 -9 6 151.4 5.58
0 -9 7 215.26 7.08
0 -9 7 216.31 6.65
0 -9 8 182.29 5.64
0 -9 8 185.14 5.95
0 -9 8 192.01 6.4
0 -9 9 200.03 6.12
0 -9 9 202.46 6.41
0 -9 10 116.37 3.93
0 -9 11 153.98 3.99
0 -8 0 64.55 3.18
0 -8 1 2.69 1.48
0 -8 2 37.34 4.87
0 -8 3 359.62 16.32
0 -8 4 15.38 1.61
0 -8 4 16.73 3.52
0 -8 5 10.69 2.71
0 -8 5 10.06 1.4
0 -8 5 14.5 3.34
0 -8 6 17.3 3.21
0 -8 6 13.77 1.67
0 -8 6 14.14 3.41
0 -8 7 9.16 1.47
0 -8 8 121.22 4.81
0 -8 8 119.09 5.07
0 -8 9 76.92 3.58
0 -8 10 37.37 2.23
0 -8 10 30.96 2.12
0 -8 11 24.64 1.41
0 -8 11 23.42 1.46
0 -7 -1 592.28 14.44
0 -7 0 112.25 7.97
0 -7 1 14.93 3
0 -7 2 408.4 16.73
0 -7 2 407.28 16.09
0 -7 3 345.65 9.4
0 -7 3 342.27 15.07
0 -7 3 316.4 14.81
0 -7 4 705.2 17.07
0 -7 4 678.39 24.43
0 -7 5 190.35 6.55
0 -7 5 180.51 10.38
0 -7 5 178.45 11.38
0 -7 6 215.04 11.15
0 -7 6 187.6 12.31
0 -7 6 200.3 7
0 -7 7 224.15 11.34
0 -7 7 213.74 13.31
0 -7 7 240 7.95
0 -7 8 143.81 5.22
0 -7 8 147.76 10.84
0 -7 9 227.06 7.17
0 -7 9 230.32 7.63
0 -7 9 233.8 7.48
0 -7 10 88.85 3.85
0 -7 10 84.21 3.7
0 -7 11 352.66 9.1
0 -7 11 343.23 8.8
0 -7 11 353.9 8.85
0 -7 11 337.87 8.78
0 -7 12 1.48 0.4
0 -7 12 2.63 0.46
0 -6 -1 207.71 10.28
0 -6 0 243.62 11.34
0 -6 1 44.81 4.25
0 -6 1 49.9 4.8
0 -6 2 75.74 5.99
0 -6 2 84.81 3.33
0 -6 2 84.8 6.26
0 -6 3 329.8 13.42
0 -6 3 294.73 13.4
0 -6 3 321.56 8.67
0 -6 4 60.77 5.21
0 -6 4 64.45 6
0 -6 4 64.88 3.08
0 -6 5 537.28 18.52
0 -6 5 549.68 13.88
0 -6 6 5.5 0.87
0 -6 6 5.86 1.79
0 -6 6 6.18 1.07
0 -6 7 137.67 7.81
0 -6 7 140.87 4.85
0 -6 7 142.03 5.11
0 -6 7 135.08 9.87
0 -6 8 209.75 6.71
0 -6 8 223.17 7.15
0 -6 8 210.62 12.84
0 -6 8 217.21 7.35
0 -6 9 138.95 5.13
0 -6 9 138.65 5.41
0 -6 9 138.95 5.45
0 -6 10 307.81 9.17
0 -6 10 313.73 9.06
0 -6 10 309.93 8.88
0 -6 11 51.57 2.58
0 -6 11 49.2 2.37
0 -6 12 110.18 3.58
0 -5 -2 359.17 12.9
0 -5 -1 1340.7 34.05
0 -5 0 177.23 8.4
0 -5 0 166.62 7.43
0 -5 1 298.72 11.38
0 -5 1 311.53 11.87
0 -5 2 2.53 0.61
0 -5 2 4.16 1.34
0 -5 2 3.29 1.31
0 -5 3 32.72 1.88
0 -5 4 1433.41 36.06
0 -5 4 1454.13 31.31
0 -5 5 311.11 8.05
0 -5 5 308.79 8.44
0 -5 5 309.04 11.77
0 -5 5 311.98 8.59
0 -5 6 134.63 7.15
0 -5 6 142.34 4.67
0 -5 6 143.59 4.86
0 -5 6 152.22 5.25
0 -5 7 270.6 8.06
0 -5 7 257.16 7.73
0 -5 7 254.38 7.49
0 -5 7 260.29 8.13
0 -5 8 116.13 4.63
0 -5 8 120.1 4.85
0 -5 8 113.62 8.81
0 -5 8 116.27 4.77
0 -5 9 1.28 0.62
0 -5 9 2.56 0.88
0 -5 9 1.05 0.59
0 -5 9 1.02 0.65
0 -5 9 0.92 1.13
0 -5 10 93.12 4.26
0 -5 10 85.07 3.86
0 -5 10 87.42 3.68
0 -5 11 308.3 8.87
0 -5 11 301.16 8.23
0 -5 11 325.57 8.63
0 -5 11 294.95 7.82
0 -5 12 4.29 0.68
0 -4 -2 973.86 24.81
0 -4 -1 370.38 11.93
0 -4 -1 348.4 10.19
0 -4 0 969.77 25.34
0 -4 0 1031.01 24.66
0 -4 1 331.18 11.12
0 -4 1 332.05 11.14
0 -4 2 116.37 5.81
0 -4 3 1246.89 30.19
0 -4 4 265.81 9.54
0 -4 4 268.55 6.97
0 -4 4 258.38 7
0 -4 5 714.56 19.39
0 -4 5 729.96 16.66
0 -4 5 720.61 16.34
0 -4 5 732.43 16.68
0 -4 6 416.33 12.94
0 -4 6 452.07 10.83
0 -4 6 433.66 10.92
0 -4 6 435.1 11.26
0 -4 6 428.5 11.03
0 -4 7 181.01 5.8
0 -4 7 180.96 5.92
0 -4 7 172.83 5.77
0 -4 7 177.42 6.13
0 -4 8 396.6 10.67
0 -4 8 388.52 10.77
0 -4 8 395.32 10.53
0 -4 8 382.77 10.39
0 -4 9 291.7 8.68
0 -4 9 272.08 8.65
0 -4 9 278.06 8.31
0 -4 9 269.87 7.97
0 -4 10 325.18 9.62
0 -4 10 311.98 8.9
0 -4 10 314.79 8.54
0 -4 11 192.24 5.83
0 -4 11 230.72 6.62
0 -4 12 112.36 3.71
0 -3 -2 535.52 14.22
0 -3 -2 525.34 12.8
0 -3 -1 65.65 3.64
0 -3 -1 65.02 3.01
0 -3 0 883.67 21.04
0 -3 0 893.56 21.57
0 -3 1 1138.3 26.57
0 -3 3 68.12 3.66
0 -3 4 25.88 2.18
0 -3 5 116.66 4.82
0 -3 5 106.27 3.64
0 -3 5 108.28 3.77
0 -3 6 328.95 8.51
0 -3 6 313.7 8.33
0 -3 7 13.33 1.34
0 -3 7 12.54 1.35
0 -3 7 12.02 1.21
0 -3 7 14.13 1.45
0 -3 7 12.89 1.18
0 -3 8 315.56 8.58
0 -3 8 314.71 9.21
0 -3 8 326.04 8.91
0 -3 8 312.35 13.13
0 -3 8 320.91 9.4
0 -3 8 311.6 8.61
0 -3 9 104.87 4.58
0 -3 9 106.03 4.26
0 -3 9 107.69 4.39
0 -3 9 106.22 4.17
0 -3 10 0.17 0.42
0 -3 10 -0.11 0.5
0 -3 10 0.1 0.5
0 -3 10 0.09 0.41
0 -3 10 0.62 0.64
0 -3 11 49.02 2.59
0 -3 11 47.29 2.51
0 -3 12 3.93 0.64
0 -3 12 4.46 0.67
0 -2 -5 301.08 11.44
0 -2 -4 216.29 8.73
0 -2 -3 7.26 0.85
0 -2 -2 2502.91 52.31
0 -2 -2 2499.84 51.19
0 -2 -1 1749.49 37.38
0 -2 -1 1746.23 36.41
0 -2 0 6202.53 126.14
0 -2 1 130.56 4.56
0 -2 2 53.87 2.69
0 -2 3 1268.62 27.77
0 -2 4 1482.29 31.84
0 -2 5 562.7 12.92
0 -2 5 571.17 13.11
0 -2 6 557.95 13.24
0 -2 6 545.89 12.66
0 -2 7 685.58 16.45
0 -2 7 690.34 16.48
0 -2 7 698.31 16.06
0 -2 7 680.83 16.19
0 -2 7 691.08 16.07
0 -2 7 703.39 16.54
0 -2 8 141.41 5.37
0 -2 8 147.03 5.42
0 -2 8 148.74 5.02
0 -2 8 151.48 5.25
0 -2 8 138.24 5.01
0 -2 9 212.49 6.98
0 -2 9 194.31 6.08
0 -2 9 188.81 6.61
0 -2 9 203.5 6.61
0 -2 9 198.31 6.45
0 -2 10 469.1 12.53
0 -2 10 471.54 11.86
0 -2 10 471.46 12.45
0 -2 10 475.36 12.37
0 -2 10 486.55 12.19
0 -2 11 213.85 6.35
0 -2 11 214.37 6.31
0 -2 11 198.84 5.9
0 -2 12 63.23 2.34
0 -2 12 61.21 2.34
0 -1 -5 53.42 3.94
0 -1 -4 26.71 2.49
0 -1 -4 23.62 2
0 -1 -3 347.27 9.29
0 -1 -2 64.18 2.12
0 -1 -2 61.6 2.47
0 -1 -1 512.95 11.45
0 -1 -1 518.79 11.25
0 -1 -1 524.73 10.92
0 -1 -1 497.98 11.07
0 -1 0 4.6 0.55
0 -1 2 38.99 1.6
0 -1 3 50.31 1.78
0 -1 5 40.6 1.92
0 -1 6 1.2 0.47
0 -1 6 1.41 0.43
0 -1 6 1.24 0.49
0 -1 7 4.08 0.81
0 -1 7 4.59 0.84
0 -1 7 5.23 0.79
0 -1 7 2.67 0.55
0 -1 7 3.98 0.79
0 -1 7 5.14 0.87
0 -1 7 4.6 0.83
0 -1 8 86.06 3.9
0 -1 8 84.71 3.35
0 -1 8 85.26 3.87
0 -1 8 85.18 3.77
0 -1 8 87.9 3.82
0 -1 9 110.94 4.61
0 -1 9 109.6 4.33
0 -1 9 106.52 3.95
0 -1 9 117.24 4.76
0 -1 9 121.14 4.7
0 -1 9 113.95 4.58
0 -1 10 0.9 0.51
0 -1 10 0.44 0.37
0 -1 10 0.32 0.48
0 -1 10 1.61 0.66
0 -1 10 0.49 0.5
0 -1 11 80.52 3.2
0 -1 11 82.54 3.22
0 -1 11 74.69 2.98
0 -1 12 0.31 0.26
0 0 -6 509.59 17.18
0 0 -5 1150.48 28.34
0 0 -5 1193.88 29.81
0 0 -4 264.41 8.56
0 0 -4 261 8.55
0 0 -4 259.71 9.2
0 0 -3 757.51 17.89
0 0 -3 754.81 17.96
0 0 -3 762.54 18.56
0 0 -2 325.53 8.26
0 0 -2 324.73 8.2
0 0 -1 90.29 2.58
0 0 -1 86.07 2.55
0 0 2 320.68 8.22
0 0 3 715.08 17.22
0 0 5 1076.77 23.52
0 0 5 1091.3 23.19
0 0 5 1058.52 23.31
0 0 6 469.2 11.75
0 0 6 468.68 11.58
0 0 6 477.39 11.35
0 0 6 488.05 11.83
0 0 6 471.46 11.65
0 0 6 489.52 11.72
0 0 6 460.51 11.29
0 0 7 569.31 13.71
0 0 7 546.23 13.23
0 0 7 535.2 13.81
0 0 7 570.48 13.8
0 0 7 579.15 13.86
0 0 7 532.54 12.73
0 0 8 210.84 6.69
0 0 8 204.57 6.62
0 0 8 211.18 6.41
0 0 8 198.75 6.84
0 0 8 219.1 6.92
0 0 8 216.2 6.88
0 0 8 200.19 5.77
0 0 9 110.69 4.29
0 0 9 105.51 4.02
0 0 9 107.97 4.54
0 0 9 107.55 4.47
0 0 9 104.92 4.41
0 0 10 112.58 4
0 0 10 119.51 3.93
0 0 10 116.21 4.41
0 0 10 116.88 4.39
0 0 10 115.71 4.36
0 0 11 221.34 6.05
0 1 -8 89.11 7.41
0 1 -7 4.47 1.39
0 1 -7 5.75 1.93
0 1 -6 0.26 0.63
0 1 -6 0.62 0.68
0 1 -5 41.46 3.41
0 1 -5 36.07 2.51
0 1 -5 45.02 3.79
0 1 -4 0.73 0.51
0 1 -4 1.12 0.64
0 1 -3 55.71 3.12
0 1 -3 53.27 2.62
0 1 -2 47.07 2.18
0 1 -1 3.84 0.55
0 1 -1 2.74 0.49
0 1 -1 2.86 0.46
0 1 0 1.69 0.41
0 1 0 2.3 0.44
0 1 2 64.98 2.84
0 1 3 280.24 6.49
0 1 3 383.47 9.32
0 1 4 25.54 1.49
0 1 4 23.56 2.23
0 1 5 51.61 2.47
0 1 5 48.25 2.17
0 1 6 225.05 6.52
0 1 6 215.68 6.78
0 1 6 210.63 6.26
0 1 6 211 6.49
0 1 6 214.09 6.3
0 1 6 223.18 6.74
0 1 6 212.32 6.55
0 1 6 223.94 6.67
0 1 6 218.24 6.06
0 1 7 101.16 4.15
0 1 7 99.92 3.97
0 1 7 98.56 4.29
0 1 7 112.2 4.39
0 1 7 101.81 4.25
0 1 7 96.15 3.66
0 1 8 39.57 2.46
0 1 8 36.07 2.29
0 1 8 36.15 2.56
0 1 8 38.74 2.55
0 1 8 40.43 2.61
0 1 8 36.26 2.03
0 1 9 145.56 5.03
0 1 9 147.98 4.97
0 1 9 148.04 5.37
0 1 9 145.74 5.29
0 1 9 146.03 5.31
0 1 9 137.66 4.31
0 1 10 29.9 1.67
0 1 10 32.27 1.73
0 1 10 32.72 1.96
0 1 11 33.58 1.51
0 2 -9 179.37 11.62
0 2 -8 165.95 9.65
0 2 -8 155.77 10.33
0 2 -7 707.62 22.94
0 2 -7 761.21 24.54
0 2 -6 600.43 19.01
0 2 -6 590.77 19.64
0 2 -5 612.25 18
0 2 -5 595.67 16.04
0 2 -4 1643.89 38.35
0 2 -4 1662.41 37.02
0 2 -3 1390.19 31.13
0 2 -2 60.96 2.88
0 2 -2 66.28 3.22
0 2 -1 132.64 4.69
0 2 -1 136.44 4.84
0 2 0 5605.44 114.65
0 2 2 2394.53 51.01
0 2 2 2429.39 52.45
0 2 3 8.57 1.26
0 2 4 204.08 5.81
0 2 4 197.56 7.5
0 2 5 277.25 7.91
0 2 5 279.76 7.87
0 2 5 278.24 7.64
0 2 5 284.82 7.59
0 2 5 281.96 8.01
0 2 5 283.21 7.88
0 2 5 279.7 7.92
0 2 5 292.06 7.32
0 2 5 295.56 7.58
0 2 6 170.54 5.73
0 2 6 161.5 5.8
0 2 6 164.77 5.69
0 2 6 169.41 5.78
0 2 6 168.1 5.28
0 2 7 512.19 13.33
0 2 7 529.32 13.71
0 2 7 536.28 13.56
0 2 7 518.98 13.54
0 2 7 499.9 12.7
0 2 8 60.86 3.08
0 2 8 58.47 2.94
0 2 8 56.32 3.16
0 2 8 54.96 3.08
0 2 8 60.57 3.23
0 2 8 57.62 2.66
0 2 9 233.91 6.64
0 2 9 230.8 6.65
0 2 9 228.6 6.87
0 2 9 225.29 6.06
0 2 10 1.49 0.42
0 2 10 1.44 0.44
0 3 -9 122.76 9.92
0 3 -8 340.54 15.34
0 3 -8 321.67 15.77
0 3 -7 11.34 2.52
0 3 -7 15.97 3.12
0 3 -6 310.03 13.06
0 3 -6 335.46 11.39
0 3 -5 114.66 5.28
0 3 -5 116.31 6.7
0 3 -5 120.24 5.92
0 3 -4 22.7 2.16
0 3 -4 29.67 2.65
0 3 -3 76.92 3.93
0 3 -3 74.47 4.18
0 3 -2 399.6 11.49
0 3 -2 412.61 12.09
0 3 -1 1103.77 26.04
0 3 0 898.01 22.2
0 3 1 55.96 3.74
0 3 2 497.54 13.43
0 3 2 484.6 11.28
0 3 3 528.63 12.29
0 3 3 535.38 14.71
0 3 4 32.46 1.93
0 3 4 33.24 2.03
0 3 4 25.84 2.54
0 3 4 30.76 2.02
0 3 4 28.52 1.77
0 3 4 30.49 1.92
0 3 4 34.22 1.78
0 3 5 194.93 6.22
0 3 5 192.93 5.62
0 3 5 189.68 6.26
0 3 5 196.51 6.45
0 3 5 199.75 6.1
0 3 5 190.93 6.24
0 3 5 191.11 5.48
0 3 5 188.31 5.47
0 3 5 201.36 5.98
0 3 6 238.28 6.62
0 3 6 237.01 7.63
0 3 6 251.02 7.51
0 3 6 251.22 7.75
0 3 6 252.05 7.82
0 3 6 254.89 7.33
0 3 7 119.4 4.78
0 3 7 117.5 4.62
0 3 7 121.68 4.84
0 3 7 125.2 4.98
0 3 7 114.55 4.35
0 3 8 30.06 2.02
0 3 8 31.09 2.1
0 3 8 30.93 1.82
0 3 9 66.8 2.76
0 3 9 66.57 2.34
0 4 -9 276 14.84
0 4 -9 310.31 16.38
0 4 -8 388.67 17.46
0 4 -8 393.41 17.91
0 4 -7 185.43 10.6
0 4 -7 165.03 8.17
0 4 -6 450.47 16.93
0 4 -6 437.91 14.9
0 4 -5 723.69 19.67
0 4 -5 777.82 22.66
0 4 -5 736.13 21.02
0 4 -4 254.67 9.22
0 4 -4 264.75 10.33
0 4 -3 1270.29 30.55
0 4 -3 1274.35 31.29
0 4 -2 117.42 5.74
0 4 -2 113.01 5.84
0 4 -1 332.04 11.18
0 4 0 893.35 19.44
0 4 0 905.46 23.72
0 4 1 309.7 7.67
0 4 1 314.81 7.95
0 4 1 331.38 11.9
0 4 2 904.28 19.95
0 4 2 870.33 19.26
0 4 2 891.32 22.68
0 4 2 902.85 19.55
0 4 3 123.43 4.05
0 4 3 118.82 4.05
0 4 3 119.49 4.25
0 4 3 119.51 3.98
0 4 3 118.48 4.09
0 4 4 41.15 2.3
0 4 4 41.5 2.22
0 4 4 46.03 2.6
0 4 4 43.2 2.35
0 4 4 40.74 2.42
0 4 4 41.36 2.17
0 4 4 38.56 1.91
0 4 4 47.07 2.44
0 4 5 56.95 2.66
0 4 5 52.04 2.98
0 4 5 55.58 2.87
0 4 5 53.42 2.97
0 4 5 54.81 2.5
0 4 5 50.64 2.33
0 4 6 12.92 1.17
0 4 6 14.58 1.56
0 4 6 15.68 1.52
0 4 6 15.77 1.65
0 4 6 13.91 1.14
0 4 6 14.43 1.42
0 4 7 51.78 2.72
0 4 7 50.1 2.77
0 4 7 50.66 2.55
0 4 8 61.44 2.65
0 4 8 60.28 2.68
0 4 8 62.04 2.47
0 4 9 80.58 2.58
0 4 9 84.68 2.61
0 5 -9 0.56 1.06
0 5 -9 1.79 1.47
0 5 -8 113.01 9.01
0 5 -8 115.94 9.4
0 5 -7 260.17 13.42
0 5 -7 261.53 11.61
0 5 -6 139.68 9.06
0 5 -6 154.58 8.41
0 5 -5 293.25 10.83
0 5 -5 303.25 12.23
0 5 -4 1382.8 34.74
0 5 -4 1482.92 36.55
0 5 -3 25.55 2.9
0 5 -2 1.98 0.9
0 5 -1 294.92 11.51
0 5 0 151.25 4.57
0 5 0 159.34 4.93
0 5 0 154.63 8.08
0 5 1 1141.42 24.68
0 5 1 1165.27 25.14
0 5 1 1174.21 31.78
0 5 1 1137.75 24.89
0 5 1 1114.91 24.61
0 5 2 288.71 7.92
0 5 2 287.99 7.72
0 5 2 302.95 8.26
0 5 2 303.05 8.38
0 5 2 311.79 8.08
0 5 3 163.57 5.34
0 5 3 160.42 5.22
0 5 3 159.78 5.47
0 5 3 160.19 5.23
0 5 3 162.22 5.35
0 5 4 318.35 8.7
0 5 4 322.5 8.86
0 5 4 310.09 9.03
0 5 4 309.52 8.51
0 5 4 312.33 8.82
0 5 5 37.99 2.2
0 5 5 42.87 2.51
0 5 5 42.39 2.6
0 5 5 39.88 2.14
0 5 5 39.51 2.41
0 5 6 253.04 6.8
0 5 6 267.93 7.59
0 5 6 265.44 7.76
0 5 6 253.63 6.62
0 5 7 105.11 3.73
0 5 7 108.4 3.84
0 5 7 104.4 3.61
0 5 8 54.49 2
0 5 8 51.16 1.86
0 6 -9 124.12 10.08
0 6 -9 136.81 10.52
0 6 -8 203.13 12.61
0 6 -7 124.53 9.27
0 6 -5 495.13 16.5
0 6 -5 528.98 19.14
0 6 -4 58.45 4.81
0 6 -3 292.36 12.08
0 6 -2 76.81 5.83
0 6 -1 43.74 2.22
0 6 -1 41.6 2.36
0 6 -1 44.82 4.56
0 6 0 198 5.89
0 6 0 200.24 6.31
0 6 0 191.33 5.66
0 6 1 174.35 5.46
0 6 1 176.5 5.89
0 6 1 168.14 5.63
0 6 1 177.82 5.52
0 6 2 17.79 1.47
0 6 2 17.86 1.4
0 6 2 18.29 1.63
0 6 2 18.07 1.55
0 6 3 32.48 2.14
0 6 3 32.94 2.05
0 6 3 31.08 2.2
0 6 3 28.99 1.98
0 6 3 31.96 2.12
0 6 4 50.63 2.67
0 6 4 47.98 2.59
0 6 4 48.8 2.8
0 6 4 54.8 2.66
0 6 4 56.19 2.84
0 6 5 3.63 0.69
0 6 5 3.12 0.7
0 6 5 4.29 0.81
0 6 5 3.81 0.81
0 6 5 3.23 0.61
0 6 6 20.26 1.38
0 6 6 18.88 1.35
0 6 7 4.18 0.49
0 7 -8 142.61 10.53
0 7 -7 221.54 13.1
0 7 -6 188.32 11.42
0 7 -5 170.64 10.36
0 7 -4 626.5 20.94
0 7 -4 662.83 22.39
0 7 -3 298.34 7.88
0 7 -3 329.23 13.76
0 7 -3 317.83 13.45
0 7 -2 397.59 10.38
0 7 -2 355.31 9.48
0 7 -2 363.26 13.88
0 7 -2 367.6 15.25
0 7 -1 12.53 1.27
0 7 -1 11.29 1.25
0 7 -1 10.49 1.31
0 7 -1 14.69 2.93
0 7 0 84.93 3.5
0 7 0 85.87 3.87
0 7 0 87.07 3.69
0 7 0 96.87 7.68
0 7 0 83.97 3.37
0 7 1 493.68 12.25
0 7 1 510.56 13.1
0 7 1 507.62 12.78
0 7 1 497.31 12.68
0 7 1 477.65 12.25
0 7 2 451.36 11.96
0 7 2 467.8 11.78
0 7 3 161.24 5.45
0 7 3 160.18 5.32
0 7 3 162.99 5.38
0 7 4 126.62 4.34
0 7 4 123.1 4.04
0 7 4 134.33 4.28
0 7 4 137.84 4.53
0 7 5 62.93 2.31
0 7 5 65.91 2.57
0 7 6 70.84 2.26
0 8 -7 10.85 2.79
0 8 -7 10.99 2.79
0 8 -6 15.82 3.4
0 8 -6 16 3.22
0 8 -5 14.25 3.04
0 8 -4 15.82 2.95
0 8 -4 17.02 3.18
0 8 -3 316.39 8.74
0 8 -3 308.02 9.17
0 8 -3 310.16 14.22
0 8 -3 295.73 8.03
0 8 -2 41.19 2.37
0 8 -2 40.4 2.65
0 8 -2 37.29 2.19
0 8 -2 45.06 5.22
0 8 -1 2.19 0.62
0 8 -1 0.93 0.6
0 8 -1 0.2 0.45
0 8 -1 1.41 0.56
0 8 0 45.18 2.37
0 8 0 55.66 3.03
0 8 0 49.91 2.71
0 8 0 46.08 2.65
0 8 0 48.78 2.37
0 8 1 1.97 0.67
0 8 1 1.16 0.53
0 8 1 2.22 0.73
0 8 2 38.33 2.24
0 8 2 38.58 2.09
0 8 3 10.83 1.08
0 8 3 12.87 1.1
0 8 3 14.15 1.16
0 8 4 5.38 0.64
0 8 4 5.59 0.61
0 8 4 5.93 0.66
0 9 -4 148.05 5.56
0 9 -4 143.21 5.06
0 9 -4 142.7 4.62
0 9 -3 90.57 3.72
0 9 -3 95.02 3.44
0 9 -3 96.24 3.72
0 9 -2 590.9 14.44
0 9 -2 642.41 15.54
0 9 -2 624.93 14.55
0 9 -2 619.71 14.85
0 9 -1 3.79 0.82
0 9 -1 5.03 0.85
0 9 -1 5.18 0.91
0 9 0 77.25 3.21
0 9 0 75.34 3.23
0 9 1 92.99 3.51
0 9 1 99.47 3.57
0 9 2 128.58 3.87
0 9 2 114.73 3.35
0 9 3 176.21 4.53
0 9 3 180.67 4.41
0 10 -9 0.56 0.34
0 10 -7 3.13 0.62
0 10 -6 1.33 0.47
0 10 -5 1.35 0.48
0 10 -5 1.45 0.58
0 10 -4 28.84 2
0 10 -4 31.39 1.59
0 10 -3 0.54 0.5
0 10 -3 0.48 0.36
0 10 -2 11.7 1.2
0 10 -2 10.37 0.93
0 10 -2 11.07 1.03
0 10 -1 0.85 0.37
0 10 -1 0.45 0.32
0 10 -1 0.35 0.36
0 10 0 6.17 0.68
0 10 0 4.97 0.64
0 10 1 19.15 1.05
0 10 1 21.33 1.07
0 11 -6 124.4 3.53
0 11 -5 44.04 1.86
0 11 -4 111.45 3.44
0 11 -3 41.03 1.73
1 -11 4 36.5 1.83
1 -11 5 11.59 1.04
1 -10 2 30.64 1.89
1 -10 6 45.02 2.36
1 -10 7 51.86 2.4
1 -10 7 49.87 2.54
1 -10 8 170.92 4.95
1 -10 8 167.25 5.06
1 -10 8 176.55 5.4
1 -10 9 0.56 0.35
1 -10 9 1.18 0.44
1 -9 5 97.04 4.15
1 -9 6 177.9 6.23
1 -9 7 245.65 7.78
1 -9 8 144.6 5.37
1 -9 9 120.86 4.32
1 -9 9 117.68 4.48
1 -9 10 249.89 6.79
1 -8 1 15.79 3.19
1 -8 2 154.52 10.15
1 -8 3 9.04 2.46
1 -8 4 163.87 10.85
1 -8 4 166.41 5.88
1 -8 5 24.96 4.03
1 -8 5 27.28 2.2
1 -8 5 30.52 4.81
1 -8 6 1.75 1.44
1 -8 6 0.79 0.74
1 -8 6 0.57 1.08
1 -8 7 26.63 2.27
1 -8 8 79.08 3.99
1 -8 9 1.69 0.6
1 -8 9 1.05 0.54
1 -8 10 26.7 1.71
1 -8 10 25.66 1.86
1 -8 11 89.38 3.16
1 -7 0 1237.81 35.12
1 -7 1 92.12 7.23
1 -7 2 272.41 12.44
1 -7 2 281.56 13.55
1 -7 3 409.8 16.96
1 -7 3 388.76 16.62
1 -7 3 430.04 11.07
1 -7 4 294.19 13.71
1 -7 4 290.04 8.57
1 -7 5 382.77 16.04
1 -7 5 388.66 10.91
1 -7 6 388.88 10.33
1 -7 6 415.77 11.53
1 -7 6 417.44 16.45
1 -7 7 489.89 17.9
1 -7 7 499.13 12.81
1 -7 7 511.13 13.75
1 -7 8 264.27 8.03
1 -7 9 237.06 7.5
1 -7 9 247.83 7.92
1 -7 10 164.53 5.67
1 -7 10 166.99 5.63
1 -7 10 172.63 5.78
1 -7 11 241.55 6.95
1 -7 11 250.33 6.8
1 -7 11 248.78 6.66
1 -7 11 253.43 6.77
1 -7 12 37.66 1.63
1 -7 12 32.98 1.49
1 -6 -1 22.68 3.23
1 -6 0 42.2 4.44
1 -6 1 11.79 2.39
1 -6 1 14.83 2.46
1 -6 2 11.72 2.43
1 -6 2 11.05 1.16
1 -6 3 12.11 1.25
1 -6 4 90.8 6.52
1 -6 4 78.36 3.5
1 -6 5 1.7 1.12
1 -6 5 0.76 0.62
1 -6 5 1.28 0.56
1 -6 6 11.71 2.31
1 -6 6 18.14 1.74
1 -6 6 14.93 1.56
1 -6 7 55.77 4.78
1 -6 7 60.49 3.14
1 -6 7 57.86 3.28
1 -6 8 19.88 1.86
1 -6 8 20.18 1.96
1 -6 8 15.01 1.76
1 -6 9 32.55 2.4
1 -6 9 33.47 2.45
1 -6 10 10.16 1.35
1 -6 10 11.63 1.34
1 -6 10 9.66 1.24
1 -6 11 32.58 2.1
1 -6 11 34.34 1.92
1 -6 11 33.56 1.93
1 -6 12 30.05 1.58
1 -6 12 29.31 1.5
1 -5 -2 122.86 6.9
1 -5 -1 198.21 9.17
1 -5 0 496.02 16.2
1 -5 0 471.93 14.25
1 -5 1 489.04 16.19
1 -5 2 1721.55 36.39
1 -5 2 1776.91 42.36
1 -5 3 200.22 5.86
1 -5 4 792.76 18.09
1 -5 4 819.26 18.48
1 -5 4 813.21 23.15
1 -5 5 430.35 14.56
1 -5 5 414.32 10.82
1 -5 5 411.7 10.65
1 -5 6 256.39 10.48
1 -5 6 267.88 7.92
1 -5 7 780.03 18.21
1 -5 7 780.99 18.71
1 -5 7 806.72 19.17
1 -5 7 783.33 18.94
1 -5 8 283.68 8.5
1 -5 8 316.87 9.17
1 -5 8 301.57 9
1 -5 8 298.11 9.34
1 -5 9 725.83 18
1 -5 9 719.98 17.42
1 -5 9 721.55 17.56
1 -5 9 712.89 18.27
1 -5 10 79.8 3.87
1 -5 10 77.39 3.42
1 -5 10 76.44 3.34
1 -5 11 72.11 3.37
1 -5 11 74.13 3.23
1 -5 11 72.41 3.06
1 -5 12 98.94 3.37
1 -5 12 104.58 3.3
1 -4 -2 1.67 0.89
1 -4 -1 109.91 5.85
1 -4 0 210.75 8.59
1 -4 1 80.35 4.92
1 -4 2 44.95 3.55
1 -4 3 356.83 11.96
1 -4 4 27.48 1.7
1 -4 4 26.98 1.6
1 -4 4 23.28 2.64
1 -4 5 18.47 1.51
1 -4 5 19.68 1.52
1 -4 5 18.13 2.26
1 -4 6 360.57 11.71
1 -4 6 395.25 10.29
1 -4 6 376.44 10.07
1 -4 7 76.56 3.44
1 -4 7 86.16 3.69
1 -4 7 80.76 3.79
1 -4 8 50.7 2.92
1 -4 8 59.9 3.24
1 -4 8 55.18 2.97
1 -4 9 111.05 4.94
1 -4 9 105.38 4.7
1 -4 9 109.9 4.3
1 -4 9 109.09 4.27
1 -4 10 52.16 2.6
1 -4 10 57.45 3.05
1 -4 10 55.3 2.86
1 -4 11 165.8 5.65
1 -4 11 166.12 5.49
1 -4 11 171.35 5.34
1 -4 12 53.78 2.17
1 -3 -3 1718.84 38.34
1 -3 -2 696.05 18.13
1 -3 -1 414.97 12.2
1 -3 0 335.16 10.01
1 -3 1 211.36 7.48
1 -3 2 1896.89 42.41
1 -3 3 1086.57 25.91
1 -3 4 859.17 21.35
1 -3 5 583.93 14.08
1 -3 5 642.06 14.35
1 -3 5 617.69 15.9
1 -3 5 605.8 14.28
1 -3 6 474.82 11.66
1 -3 7 38.81 2.33
1 -3 7 36.39 2.18
1 -3 7 33.18 2.3
1 -3 8 405.09 10.48
1 -3 8 397.42 10.41
1 -3 8 408.06 11.32
1 -3 9 514.22 13.57
1 -3 9 493.86 12.44
1 -3 9 515.28 13.64
1 -3 9 515.8 13.06
1 -3 10 129.77 5.09
1 -3 10 119.72 4.83
1 -3 10 133.64 4.8
1 -3 11 117.92 4.38
1 -3 11 126.34 4.16
1 -3 11 122.84 4.25
1 -3 12 5.06 0.62
1 -2 -4 950.09 22.65
1 -2 -3 53.45 2.8
1 -2 -2 220.39 6.04
1 -2 -1 820.57 18.71
1 -2 0 59.2 2.91
1 -2 1 1313.36 29.3
1 -2 3 193.69 6.86
1 -2 4 589.6 14.55
1 -2 4 597.82 15.78
1 -2 5 7.56 0.87
1 -2 5 7.96 0.9
1 -2 5 7.67 0.83
1 -2 5 7.02 0.9
1 -2 6 696.17 15.83
1 -2 6 659.95 15.65
1 -2 6 659.39 15.28
1 -2 6 677.78 15.88
1 -2 7 260.37 7.61
1 -2 7 263.47 7.03
1 -2 7 242.86 6.71
1 -2 7 265.33 7.75
1 -2 8 350.96 9.82
1 -2 8 341.22 9.78
1 -2 8 329.88 8.7
1 -2 8 347.66 9.47
1 -2 8 344.19 9.23
1 -2 9 238.34 7.6
1 -2 9 225.77 6.49
1 -2 9 244.03 7.63
1 -2 9 245.53 7.4
1 -2 9 234.9 7.07
1 -2 9 236.42 7.54
1 -2 10 16.4 1.6
1 -2 10 15.53 1.49
1 -2 10 15.64 1.6
1 -2 10 15.32 1.48
1 -2 11 300.27 7.77
1 -2 11 299.63 7.93
1 -2 12 153.14 4.25
1 -2 12 154.8 4.09
1 -1 -4 524.22 12.8
1 -1 -4 486.66 13.36
1 -1 -3 1734.64 35.04
1 -1 -3 1714.57 35.55
1 -1 0 110.25 3.17
1 -1 1 438.73 10.79
1 -1 2 219.04 7.01
1 -1 3 335.81 9.3
1 -1 4 1284.38 30.3
1 -1 4 1294.9 27.82
1 -1 4 1247.41 26.25
1 -1 4 1192.26 25.84
1 -1 5 124.6 4.09
1 -1 5 123.72 4
1 -1 5 124.09 4.16
1 -1 6 575.3 14
1 -1 6 580.25 13.75
1 -1 6 570.45 13.77
1 -1 6 582.97 14.11
1 -1 7 12.3 1.35
1 -1 7 11.2 1.27
1 -1 7 10.08 1.07
1 -1 7 10.12 1.24
1 -1 7 11.6 1.21
1 -1 7 12.29 1.26
1 -1 8 52.96 2.91
1 -1 8 53.44 2.85
1 -1 8 52.67 2.61
1 -1 8 51.95 2.97
1 -1 8 53.86 2.86
1 -1 8 49.97 2.77
1 -1 9 82.2 3.8
1 -1 9 92.75 3.99
1 -1 9 87.64 3.49
1 -1 9 85.52 4
1 -1 9 89.9 3.84
1 -1 9 86.67 3.78
1 -1 10 149.09 5.02
1 -1 10 136.93 4.37
1 -1 10 152.27 5.05
1 -1 11 84.21 2.94
1 -1 11 81.24 3.01
1 0 -6 9.4 1.92
1 0 -5 36.83 2.74
1 0 -5 38.03 3.25
1 0 -4 401.53 11.02
1 0 -3 1305.05 27.63
1 0 -2 5401.31 109.41
1 0 -1 1.05 0.43
1 0 1 1024.9 22.28
1 0 1 972.24 21.79
1 0 2 1321.8 28.34
1 0 3 1086.35 23.43
1 0 3 1122.34 26.3
1 0 4 528.14 11.86
1 0 4 513.91 15.26
1 0 4 490.91 11.87
1 0 5 448.12 10.87
1 0 5 431.8 10.4
1 0 5 430.88 10.39
1 0 5 439.98 14.74
1 0 5 436.17 10.78
1 0 6 313.61 8.7
1 0 6 303.16 8.17
1 0 6 306.11 8.12
1 0 6 308.22 8.1
1 0 6 301.54 8.46
1 0 6 312.07 8.26
1 0 6 310.3 8.34
1 0 6 303.17 8.55
1 0 7 57.08 3.19
1 0 7 57.17 2.83
1 0 7 52.85 2.66
1 0 7 58.01 2.81
1 0 7 57.64 3.1
1 0 7 63.25 2.99
1 0 7 61.19 3.04
1 0 7 53.92 2.35
1 0 8 903.16 21.24
1 0 8 936.61 21.82
1 0 8 906.37 21.22
1 0 8 920.02 21.91
1 0 8 953.99 21.6
1 0 8 962.57 21.76
1 0 9 255.72 7.64
1 0 9 246.83 7.17
1 0 9 240.02 7.4
1 0 9 244.73 7.48
1 0 10 51.13 2.51
1 0 10 50.69 2.25
1 0 10 48.48 2.44
1 0 11 234.59 5.8
1 0 11 235.82 5.97
1 1 -7 126.81 8.03
1 1 -6 345 12.08
1 1 -5 182.42 7.56
1 1 -4 0.98 0.46
1 1 -3 5763.78 117.28
1 1 -2 34.64 2.03
1 1 1 116.84 4.27
1 1 2 381.54 9.92
1 1 2 382.47 11.13
1 1 3 10.59 1.63
1 1 3 9.7 1.02
1 1 4 66.21 4.49
1 1 4 64.64 2.57
1 1 5 113.73 6.7
1 1 5 117.85 4.18
1 1 5 114.62 3.94
1 1 5 112.02 4.07
1 1 5 110.29 3.96
1 1 6 286.7 7.87
1 1 6 276.17 8.15
1 1 6 271.26 7.86
1 1 6 285.17 8.08
1 1 6 273.37 7.37
1 1 6 275.75 7.94
1 1 7 30.73 2.25
1 1 7 30.07 2.06
1 1 7 30.86 2.13
1 1 7 31.9 2.25
1 1 7 31.16 1.87
1 1 8 16.1 1.65
1 1 8 16.37 1.53
1 1 8 18.39 1.65
1 1 8 18.74 1.76
1 1 8 13.18 1.18
1 1 9 1.56 0.64
1 1 9 1.69 0.62
1 1 9 1.36 0.62
1 1 10 19.52 1.36
1 1 10 21.15 1.32
1 1 10 20.01 1.35
1 2 -8 239.64 12.68
1 2 -7 516.5 17.79
1 2 -6 246.55 10.61
1 2 -4 64.86 3.48
1 2 -3 259.88 7.9
1 2 -3 230.67 5.64
1 2 -2 9027.16 186.15
1 2 -2 9211.24 183.96
1 2 -1 690.4 16.16
1 2 0 879.24 20.81
1 2 1 269.49 8.52
1 2 2 352.49 11.26
1 2 2 363.11 10.44
1 2 3 1043.52 23.1
1 2 3 1085.96 23.16
1 2 3 1117.26 27.33
1 2 4 613.85 14.55
1 2 4 636.71 18.69
1 2 4 619.03 14.54
1 2 4 624.03 14.66
1 2 4 624.75 14.28
1 2 4 621.67 14.54
1 2 4 602.36 14.07
1 2 5 461.67 11.51
1 2 5 476.18 12.15
1 2 5 470.08 16.12
1 2 5 464.24 12.14
1 2 5 469.92 11.74
1 2 5 474.13 11.73
1 2 5 466.55 11.99
1 2 5 486.27 11.56
1 2 6 337.44 9.92
1 2 6 357.01 9.61
1 2 6 347.06 9.56
1 2 6 349.67 9.92
1 2 6 351.11 9.23
1 2 7 78.31 3.81
1 2 7 84.47 3.76
1 2 7 76.52 3.26
1 2 8 181.97 6.13
1 2 8 180.77 5.88
1 2 8 170.06 5.22
1 2 9 302 8.12
1 2 9 299.68 7.94
1 2 9 293.31 7.89
1 2 10 143.08 3.87
1 2 10 140.16 3.82
1 3 -9 23.29 4.3
1 3 -8 14.78 2.95
1 3 -8 15.83 3.45
1 3 -7 184.94 10.21
1 3 -6 186.65 9.6
1 3 -4 53.09 2.37
1 3 -4 61.31 3.92
1 3 -3 59.11 2.86
1 3 -3 61 3.89
1 3 -2 14.99 1.52
1 3 -2 9.21 1.56
1 3 -1 1090.87 25.71
1 3 0 198.77 7.6
1 3 0 196.75 7.84
1 3 1 12.57 1.81
1 3 2 6.25 0.78
1 3 2 5.54 0.75
1 3 2 6.68 1.5
1 3 3 13.77 1.23
1 3 3 12.07 1.15
1 3 3 12.73 1.22
1 3 3 11.08 1.16
1 3 3 9.64 1.82
1 3 4 3.72 0.77
1 3 4 2.68 0.67
1 3 4 2.19 1.17
1 3 4 2.88 0.67
1 3 4 3.38 0.83
1 3 4 2.66 0.65
1 3 4 2.65 0.55
1 3 4 1.88 0.55
1 3 5 54.9 2.95
1 3 5 54.84 2.83
1 3 5 50.73 2.74
1 3 5 48 2.19
1 3 5 52.77 2.67
1 3 6 267.07 8.35
1 3 6 261.09 7.2
1 3 6 283.31 8.21
1 3 6 273.83 8.1
1 3 6 276.43 7.84
1 3 7 103.97 4.47
1 3 7 107.51 4.31
1 3 7 104.4 4.2
1 3 7 104.93 3.97
1 3 8 25.77 1.88
1 3 8 27.53 1.87
1 3 8 24.93 1.72
1 3 8 27.48 1.59
1 3 9 0.05 0.27
1 4 -9 499.07 20.27
1 4 -9 490.69 21.24
1 4 -8 370.44 16.7
1 4 -7 359.28 15.71
1 4 -4 312.11 9.38
1 4 -4 326.07 11.8
1 4 -3 382.8 11.29
1 4 -3 368.02 12.94
1 4 -2 1982.92 43.83
1 4 -2 1879.66 45.41
1 4 -1 1773.55 41.18
1 4 0 1557 32.99
1 4 0 1531.93 33.11
1 4 0 1685.89 38.63
1 4 0 1654.76 38.72
1 4 1 65.42 2.69
1 4 1 66.06 2.76
1 4 2 419.48 10.38
1 4 2 413.23 10.53
1 4 2 409.82 10.18
1 4 2 427.57 14.46
1 4 2 409.3 10.44
1 4 2 407 10
1 4 2 409.42 10.09
1 4 3 250.99 7.37
1 4 3 252.16 7.25
1 4 3 257.47 10.88
1 4 3 266.08 7.66
1 4 3 256.18 7.18
1 4 3 246.68 7.15
1 4 3 256.14 7.23
1 4 4 155.74 5.44
1 4 4 155.66 5.69
1 4 4 163.33 5.44
1 4 4 164.17 5.41
1 4 4 153.15 4.94
1 4 5 602.48 15.06
1 4 5 580.97 14.33
1 4 5 622.29 15.05
1 4 5 623.56 14.91
1 4 5 587.28 13.9
1 4 6 180.64 5.42
1 4 6 196.72 6.3
1 4 6 185.46 6.07
1 4 6 187.11 5.99
1 4 7 134.59 4.9
1 4 7 134.22 4.71
1 4 7 132.5 4.56
1 4 7 137.54 4.49
1 4 8 41.98 1.98
1 4 8 39.55 1.82
1 4 8 39.44 1.71
1 5 -9 0.54 1.02
1 5 -9 0.59 1.44
1 5 -8 2.09 1.52
1 5 -7 26.32 4.17
1 5 -4 271.65 9.57
1 5 -3 144.28 6.85
1 5 -2 242.32 9.91
1 5 -1 29.49 1.82
1 5 -1 32.85 3.55
1 5 0 71.64 3.03
1 5 0 78.41 3.27
1 5 0 74 5.8
1 5 1 94.66 3.65
1 5 1 89.83 3.74
1 5 1 88.86 3.32
1 5 1 90.83 3.43
1 5 2 26.6 1.88
1 5 2 26.26 1.83
1 5 2 25.12 1.72
1 5 2 24.24 3.2
1 5 2 27.82 1.98
1 5 2 25.26 1.68
1 5 2 26.92 1.82
1 5 3 27.92 1.94
1 5 3 33.18 2.28
1 5 3 32.29 2.05
1 5 3 32.46 2.1
1 5 3 30.99 2.08
1 5 4 187.64 6.15
1 5 4 201.99 6.25
1 5 4 200.5 6.75
1 5 4 183.43 6.15
1 5 4 190.82 6.2
1 5 4 181.4 5.76
1 5 4 190.89 6.26
1 5 5 40.38 2.27
1 5 5 46.07 2.6
1 5 5 47.26 2.58
1 5 5 43.7 2.12
1 5 6 7.21 0.81
1 5 6 9.53 1.11
1 5 6 9.59 1.07
1 5 6 9.81 1.08
1 5 7 43.05 2
1 5 7 39.88 1.85
1 6 -9 135.23 10.31
1 6 -9 147.62 11.04
1 6 -8 254.29 14.15
1 6 -7 752.47 26.77
1 6 -4 197.47 8.89
1 6 -3 36.03 3.76
1 6 -2 1210.14 27.07
1 6 -2 1262.15 33.17
1 6 -1 427.88 11.02
1 6 -1 426.1 11.28
1 6 0 426.03 10.85
1 6 0 403.32 11.01
1 6 1 349.04 9.55
1 6 1 349.19 9.82
1 6 1 347.67 9.42
1 6 1 333.22 13.74
1 6 2 105.96 4.28
1 6 2 105.5 4.24
1 6 3 125.3 4.76
1 6 3 122.51 4.43
1 6 3 120.47 4.5
1 6 3 129.31 4.81
1 6 4 25.85 1.83
1 6 4 23.93 1.74
1 6 4 25.2 1.66
1 6 4 26.15 1.89
1 6 5 115.48 3.88
1 6 5 119.01 4.06
1 6 5 118.47 4.2
1 6 6 147.1 4.23
1 7 -8 -0.55 1.21
1 7 -6 193.67 11.83
1 7 -3 22.39 1.89
1 7 -3 23.86 3.46
1 7 -2 46.55 2.66
1 7 -2 48.98 2.85
1 7 -1 370.02 10.09
1 7 -1 355.34 9.7
1 7 0 125.61 4.72
1 7 0 121.59 4.92
1 7 0 119.97 7.98
1 7 0 116.97 4.4
1 7 1 34 2.26
1 7 1 36.56 2.43
1 7 1 36.11 2.26
1 7 2 165.66 5.84
1 7 2 171.87 5.73
1 7 2 180.65 5.84
1 7 3 0.46 0.48
1 7 3 0.32 0.37
1 7 3 0.27 0.46
1 7 4 224.5 6.3
1 7 4 227.64 6.01
1 7 4 232.74 6.47
1 7 5 76.34 2.45
1 7 5 83.89 2.79
1 8 -6 63.6 6.73
1 8 -5 614.07 23.03
1 8 -4 5.62 1.1
1 8 -4 6.81 2.12
1 8 -3 25.66 2.1
1 8 -3 22.74 1.65
1 8 -2 290.68 8.47
1 8 -2 300.02 8.87
1 8 -2 280.03 8.11
1 8 -1 201.3 6.47
1 8 -1 198.05 6.75
1 8 -1 199.61 6.4
1 8 0 118.67 4.47
1 8 0 123.54 4.66
1 8 0 117.63 4.59
1 8 0 117.9 4.23
1 8 1 44.67 2.57
1 8 1 51.82 2.5
1 8 2 95.5 3.71
1 8 2 97.47 3.61
1 8 2 94.62 3.51
1 8 3 9.97 0.96
1 8 3 8.66 0.83
1 8 3 9.65 0.92
1 8 4 2.58 0.42
1 8 4 2.53 0.4
1 9 -6 50.01 2.88
1 9 -5 314.61 8.98
1 9 -5 315.27 9.25
1 9 -4 72.06 3.35
1 9 -4 62.81 3.34
1 9 -3 0.67 0.44
1 9 -3 0.22 0.5
1 9 -3 0.74 0.46
1 9 -2 78.35 3.36
1 9 -2 77.36 3.59
1 9 -2 78.87 3.17
1 9 -2 72.86 3.3
1 9 -1 73.93 3.08
1 9 -1 77.99 3.18
1 9 -1 69.23 3.16
1 9 0 223.44 6.44
1 9 0 226.61 6.51
1 9 1 141.9 4.35
1 9 1 131.86 3.8
1 9 2 74.99 2.58
1 9 2 76.46 2.49
1 10 -8 47 2.17
1 10 -8 50.21 2.3
1 10 -7 10.05 1.02
1 10 -7 9.45 1.04
1 10 -6 1.37 0.52
1 10 -6 0.5 0.45
1 10 -5 401.93 10.11
1 10 -5 414.04 10.54
1 10 -4 4.78 0.75
1 10 -4 5.21 0.84
1 10 -4 4.57 0.65
1 10 -3 28.26 1.84
1 10 -3 28.22 1.59
1 10 -2 17.53 1.1
1 10 -2 18.52 1.25
1 10 -1 6.49 0.67
1 10 -1 6.4 0.64
1 10 -1 7.89 0.78
1 10 0 96.76 2.85
1 10 0 96.53 2.91
2 -11 4 3.9 0.6
2 -10 6 275.19 7.53
2 -10 7 21.14 1.58
2 -10 8 138.29 4.49
2 -9 5 12.66 1.44
2 -9 6 93.53 4.15
2 -9 7 86.78 3.96
2 -9 8 71.29 3.41
2 -9 9 28.2 1.92
2 -8 1 294.58 14.37
2 -8 2 315.25 15.19
2 -8 3 212.53 12.26
2 -8 4 122.95 4.89
2 -8 5 219.95 12.41
2 -8 5 231.27 7.59
2 -8 6 310.88 9.53
2 -8 7 164.74 6.24
2 -8 8 105.5 4.09
2 -8 8 105.54 4.63
2 -8 9 0.93 0.52
2 -8 10 183.27 5.57
2 -8 10 192.05 5.89
2 -8 11 65.79 2.34
2 -8 11 69.83 2.36
2 -7 -1 1.96 1.14
2 -7 0 186.92 10.69
2 -7 1 38.17 4.9
2 -7 2 230.57 12.35
2 -7 3 55.75 2.95
2 -7 3 54.8 5.75
2 -7 4 140.6 5.36
2 -7 4 134.42 9.16
2 -7 5 249.41 7.87
2 -7 5 226.08 7.01
2 -7 5 231.66 12.19
2 -7 6 197.17 10.82
2 -7 6 204.86 7.1
2 -7 6 192.1 6.55
2 -7 7 64.05 3.27
2 -7 7 65.43 3.67
2 -7 7 62.13 3.43
2 -7 8 608.8 15.45
2 -7 8 629.52 15.94
2 -7 9 150.95 5.52
2 -7 9 158.81 5.79
2 -7 10 1.12 0.57
2 -7 10 1.72 0.57
2 -7 10 0.92 0.52
2 -7 11 162.81 5
2 -7 11 162.97 4.82
2 -7 11 171.23 4.74
2 -6 -1 140.16 8.56
2 -6 0 361.7 14.88
2 -6 1 43.98 4.76
2 -6 2 724.3 16.9
2 -6 2 751.63 23.82
2 -6 3 309.06 8.68
2 -6 4 64.18 3.22
2 -6 4 58.69 2.78
2 -6 4 58.08 5.46
2 -6 5 142.8 5.14
2 -6 5 147.94 5.52
2 -6 5 152.29 8.91
2 -6 6 281.48 12.49
2 -6 6 290.09 8.72
2 -6 6 295.68 8.98
2 -6 7 45.99 2.96
2 -6 8 151.99 5.71
2 -6 8 143.17 5.78
2 -6 8 155.88 6.02
2 -6 9 0.73 0.67
2 -6 9 1.8 0.77
2 -6 9 0.68 0.65
2 -6 10 55.79 2.99
2 -6 10 53.48 2.61
2 -6 10 53.35 2.73
2 -6 11 6.37 0.88
2 -6 11 6.11 0.85
2 -6 11 5.35 0.74
2 -6 12 50.91 1.89
2 -5 -2 467.2 16.17
2 -5 -1 157.99 8.49
2 -5 0 405.35 15
2 -5 1 228.67 10.36
2 -5 1 217.19 6.04
2 -5 2 745.72 17.12
2 -5 2 782.64 22.96
2 -5 2 760.91 22.64
2 -5 3 173.05 5.11
2 -5 3 175.56 5.53
2 -5 3 177.77 9.25
2 -5 3 177.98 9.01
2 -5 4 687.24 16.37
2 -5 4 685.12 16.02
2 -5 4 713.95 21.62
2 -5 5 567.19 13.93
2 -5 5 539.44 13.6
2 -5 5 548.7 18.23
2 -5 6 477.08 16.05
2 -5 6 478.14 12.58
2 -5 7 367.55 10.65
2 -5 7 387.31 10.91
2 -5 8 274.07 8.71
2 -5 8 287.99 8.73
2 -5 8 277.98 8.93
2 -5 9 419.88 11.8
2 -5 9 420.04 11.43
2 -5 9 435.39 12.17
2 -5 10 136.93 5.13
2 -5 10 125.18 4.26
2 -5 10 124.92 4.39
2 -5 10 126.44 4.75
2 -5 10 135.55 4.6
2 -5 11 97.37 3.62
2 -5 11 98.36 3.42
2 -5 12 80.42 2.53
2 -5 12 83.23 2.54
2 -4 -2 99.02 5.96
2 -4 -1 724.36 20.73
2 -4 -1 708.65 19.48
2 -4 0 1.08 0.75
2 -4 1 12.67 2.06
2 -4 2 463.62 11.09
2 -4 2 479.46 15.33
2 -4 3 90.13 3.37
2 -4 3 84.58 5.69
2 -4 4 91.71 3.57
2 -4 4 97.68 6.22
2 -4 4 91.17 3.45
2 -4 4 89.2 5.57
2 -4 4 92.15 3.35
2 -4 5 1.1 0.49
2 -4 5 1.21 0.79
2 -4 5 0.91 0.55
2 -4 5 1.54 0.96
2 -4 5 1.43 0.56
2 -4 6 395.21 10.85
2 -4 6 419.45 10.91
2 -4 6 395.24 12.99
2 -4 6 403.55 10.87
2 -4 7 4.1 0.87
2 -4 7 4.59 1.05
2 -4 8 5.58 1
2 -4 9 11.19 1.17
2 -4 9 10.26 1.23
2 -4 9 12.42 1.58
2 -4 10 0.33 0.52
2 -4 10 0.71 0.49
2 -4 10 0.51 0.48
2 -4 10 0.82 0.59
2 -4 11 6.68 0.91
2 -4 11 6.18 0.89
2 -4 11 7.18 0.84
2 -4 12 4.41 0.53
2 -4 12 5.16 0.6
2 -3 -3 454.04 13.9
2 -3 -2 145.89 5.89
2 -3 -1 668.34 17.7
2 -3 0 1317.06 31.28
2 -3 1 323.55 10.86
2 -3 2 1659.15 38.81
2 -3 3 750.72 16.77
2 -3 4 346.08 8.82
2 -3 4 359.21 12.42
2 -3 4 338.55 8.63
2 -3 5 806.17 18.37
2 -3 5 797.91 20.88
2 -3 5 800.47 22.57
2 -3 5 800.29 18.44
2 -3 5 798.17 18.37
2 -3 6 807.06 18.73
2 -3 6 865.73 19.3
2 -3 6 832.41 19.61
2 -3 7 669.79 16.14
2 -3 7 677.78 16.74
2 -3 7 669.12 16.84
2 -3 8 442.2 11.66
2 -3 8 404.81 10.41
2 -3 8 414.32 10.86
2 -3 8 417.59 11.77
2 -3 9 266.56 8.23
2 -3 9 258.24 8.01
2 -3 9 258.44 7.63
2 -3 9 275.4 8.48
2 -3 10 102.17 4.16
2 -3 10 102.25 4.12
2 -3 10 97.12 3.75
2 -3 11 126.15 4.18
2 -3 11 134.88 4.25
2 -3 11 131.92 4.37
2 -3 11 127.13 4.01
2 -3 12 167.34 4.37
2 -2 -3 19.42 1.69
2 -2 1 100.66 4.33
2 -2 2 189.14 7.18
2 -2 3 243.9 9.35
2 -2 3 250.83 9.12
2 -2 4 650.31 15.05
2 -2 4 693.42 19.91
2 -2 4 666.03 18.53
2 -2 4 673.74 15.2
2 -2 5 2.28 0.62
2 -2 5 1.02 0.6
2 -2 5 1.55 0.46
2 -2 5 2.65 0.64
2 -2 5 1.9 0.9
2 -2 6 15.13 1.4
2 -2 6 16.33 1.4
2 -2 6 15.05 1.53
2 -2 6 16.51 1.53
2 -2 7 21.61 1.82
2 -2 7 20.95 1.62
2 -2 7 23.54 1.83
2 -2 7 21.6 1.65
2 -2 7 23.77 1.96
2 -2 8 0.23 0.47
2 -2 8 1.84 0.6
2 -2 8 -0.22 0.51
2 -2 8 0.74 0.5
2 -2 8 0.12 0.55
2 -2 9 232.85 7.29
2 -2 9 228.19 6.48
2 -2 9 229.33 7.3
2 -2 9 229.92 6.88
2 -2 9 221.57 7.22
2 -2 10 20.5 1.61
2 -2 10 21.39 1.67
2 -2 10 21.33 1.73
2 -2 10 18.64 1.46
2 -2 11 0.06 0.36
2 -2 11 0.34 0.36
2 -2 11 0.44 0.32
2 -1 -4 887.08 21.09
2 -1 -3 365.56 10.78
2 -1 -1 940.14 20.37
2 -1 0 291.65 8.15
2 -1 1 1851.62 40.6
2 -1 2 870.53 21.84
2 -1 3 1382.28 33.48
2 -1 4 597.24 13.69
2 -1 4 616.87 16.55
2 -1 4 596.36 15.56
2 -1 5 335.01 8.54
2 -1 5 313.33 8.09
2 -1 5 311.93 12.95
2 -1 5 304.31 10.21
2 -1 6 775.94 18.16
2 -1 6 789.24 18.32
2 -1 6 781.12 18.05
2 -1 6 762.35 17.56
2 -1 6 778.74 18.59
2 -1 7 269.95 8.03
2 -1 7 272.91 8.28
2 -1 7 264.48 7.83
2 -1 7 252.7 7.51
2 -1 7 276.95 8.09
2 -1 7 274.78 7.63
2 -1 7 275.83 8.49
2 -1 8 613.99 15.34
2 -1 8 629.27 15.34
2 -1 8 628.83 15.05
2 -1 8 620.93 15.66
2 -1 8 621.92 15.04
2 -1 9 345.23 9.27
2 -1 9 338.06 9.02
2 -1 9 349.83 9.83
2 -1 9 359.94 9.32
2 -1 9 331.73 9.11
2 -1 10 3.48 0.71
2 -1 10 4.14 0.61
2 -1 10 3.41 0.76
2 -1 10 3.39 0.64
2 -1 11 29.91 1.49
2 -1 11 27.33 1.27
2 0 -4 12.63 1.52
2 0 -3 57.08 3.31
2 0 -2 69.43 3.73
2 0 -1 141.83 5.7
2 0 0 216.58 7.07
2 0 0 220.89 7.58
2 0 1 11.25 1.58
2 0 1 23.61 2.15
2 0 2 309.62 10.4
2 0 2 308.74 9.68
2 0 3 269.52 8.74
2 0 4 360.46 9.18
2 0 4 359.57 10.28
2 0 4 366.95 9.27
2 0 4 386.25 13.64
2 0 5 127.03 4.49
2 0 5 117.34 7.57
2 0 5 125.95 4.34
2 0 5 120.17 4.12
2 0 5 129.51 4.6
2 0 6 297.55 8.52
2 0 6 289.42 7.85
2 0 6 292.17 13.39
2 0 6 295.1 8.31
2 0 6 278.9 7.69
2 0 6 280.5 7.95
2 0 6 265.9 7.21
2 0 6 295.09 8.02
2 0 6 294.22 8.51
2 0 7 24.62 2.1
2 0 7 23.14 1.74
2 0 7 23.34 1.79
2 0 7 23.26 1.96
2 0 7 23.04 1.72
2 0 7 20.48 1.69
2 0 7 27.71 2.18
2 0 8 5.06 0.89
2 0 8 2.74 0.81
2 0 8 3.67 0.82
2 0 9 271.72 7.47
2 0 9 262.83 7.94
2 0 9 258.09 7.33
2 0 10 85.42 3.22
2 0 10 79.56 2.81
2 0 10 80.69 2.84
2 1 -6 485.32 15.37
2 1 -5 2778.42 59.46
2 1 -4 117.37 5.23
2 1 -3 682.83 17.67
2 1 -2 619.38 16.46
2 1 -1 1053.56 25.39
2 1 1 451.5 13.15
2 1 1 418.84 12.69
2 1 2 1723.84 39.12
2 1 3 475.63 13.4
2 1 3 461.47 15.35
2 1 4 265.49 7.37
2 1 4 262.11 11.3
2 1 4 253.93 7.13
2 1 4 263.44 7.28
2 1 5 492.07 11.71
2 1 5 520.36 12.7
2 1 5 484.47 17.75
2 1 5 499.72 12.42
2 1 5 475.17 11.73
2 1 5 477.27 11.71
2 1 5 498.72 12.45
2 1 6 174.75 6.09
2 1 6 166.36 5.81
2 1 6 159.23 9.74
2 1 6 158.06 5.74
2 1 6 162.34 5.29
2 1 6 159.69 5.06
2 1 6 169.73 5.83
2 1 7 97.31 4.49
2 1 7 99.89 4.27
2 1 7 96.99 4.28
2 1 7 96.69 4.31
2 1 7 98.71 4.12
2 1 7 94.07 3.85
2 1 7 92.97 3.49
2 1 8 449.64 12.02
2 1 8 444.08 11.57
2 1 8 447.03 11.28
2 1 9 77.13 3.07
2 1 9 66.86 2.74
2 1 10 74.66 2.67
2 1 10 74.57 2.46
2 2 -8 0.88 0.96
2 2 -7 20.71 3.07
2 2 -5 742.15 19.72
2 2 -4 872.29 22.47
2 2 -3 9.69 1.61
2 2 -2 879.92 22.64
2 2 -1 10.22 1.69
2 2 0 496.51 14.82
2 2 1 788.22 21.17
2 2 2 264.05 7.04
2 2 2 275.47 9.94
2 2 2 276.48 10.82
2 2 3 40.68 2.16
2 2 3 42.68 4.2
2 2 3 36.71 3.12
2 2 4 299.8 12.91
2 2 4 313.04 8.6
2 2 4 314.43 8.61
2 2 4 303.85 8.33
2 2 5 20.1 1.76
2 2 5 21.92 1.85
2 2 5 20.77 3.32
2 2 5 22.27 1.76
2 2 5 21 1.58
2 2 5 21.03 1.63
2 2 5 19.03 1.63
2 2 6 612.14 15.25
2 2 6 557.45 20.59
2 2 6 592.31 15.27
2 2 6 622.34 15.04
2 2 6 604.5 14.46
2 2 6 595.86 14.35
2 2 6 578.56 14.68
2 2 7 146.43 5.53
2 2 7 150.12 5.38
2 2 7 141.85 4.91
2 2 7 148.35 4.79
2 2 8 69.92 2.88
2 2 9 177.01 4.83
2 2 9 150.83 4.25
2 3 -9 221.48 12.88
2 3 -8 410.74 16.87
2 3 -7 56.35 5.65
2 3 -6 68.48 4.76
2 3 -5 2799.73 62.84
2 3 -4 185.05 8.36
2 3 -3 853.75 23.37
2 3 -2 133.99 6.91
2 3 0 483.86 11.27
2 3 0 492.61 15.79
2 3 0 472.65 11.12
2 3 1 95.76 3.45
2 3 1 95.02 5.96
2 3 1 100.23 3.46
2 3 2 355.88 13.47
2 3 2 330.62 12.36
2 3 3 269 11.93
2 3 3 252.77 7.42
2 3 3 267.65 7.22
2 3 4 329.38 9.32
2 3 4 310.37 13.74
2 3 4 325.45 9.24
2 3 4 325.52 9.02
2 3 4 317.77 8.5
2 3 4 326.64 8.9
2 3 4 339.72 8.8
2 3 5 1.93 0.73
2 3 5 2.13 0.8
2 3 5 1.9 1.45
2 3 5 3.07 0.83
2 3 5 2.05 0.65
2 3 5 2.27 0.62
2 3 6 98.51 4.32
2 3 6 84.86 3.26
2 3 6 91.79 4.18
2 3 6 86.33 3.9
2 3 6 86.71 3.55
2 3 6 93.5 3.73
2 3 7 62.87 3.17
2 3 7 60.04 2.96
2 3 7 59.44 2.64
2 3 7 61.5 2.68
2 3 8 64.55 2.67
2 3 8 58.12 2.22
2 4 -8 163.41 10.72
2 4 -5 234.72 10.65
2 4 -4 620.58 19.92
2 4 -3 934.08 26.56
2 4 -2 464.88 16.41
2 4 -1 105.51 6.97
2 4 -1 111.39 3.79
2 4 0 278.15 7.54
2 4 0 285.17 12.22
2 4 1 443.23 11.1
2 4 1 457.34 16.34
2 4 1 433.33 10.89
2 4 1 445.16 16.2
2 4 2 635.77 15
2 4 2 572.78 20.13
2 4 2 601.39 14.73
2 4 3 113.57 4.53
2 4 3 111.48 4.44
2 4 3 112.42 7.74
2 4 3 115.46 4.51
2 4 3 105.61 4.19
2 4 4 379.28 10.67
2 4 4 388.54 10.79
2 4 4 378.43 15.53
2 4 4 378.95 10.41
2 4 4 392.92 9.96
2 4 5 75.64 3.66
2 4 5 74.28 3.72
2 4 5 73.65 3.5
2 4 5 71.18 3.1
2 4 5 75.29 3.42
2 4 6 91.87 3.97
2 4 6 87.24 3.22
2 4 6 102.21 4.19
2 4 6 96.24 3.92
2 4 6 94.2 3.45
2 4 6 97.69 3.74
2 4 7 235.03 6.56
2 4 7 231.73 6.21
2 4 8 131.01 3.71
2 5 -9 172.64 11.46
2 5 -8 185.53 11.85
2 5 -5 101.68 7.32
2 5 -4 226.99 11.55
2 5 -3 758.65 24.64
2 5 -2 2.97 0.67
2 5 -1 90.54 3.65
2 5 -1 89.16 7.05
2 5 0 22.26 1.73
2 5 0 21.23 3.42
2 5 1 0.91 0.52
2 5 1 0.93 0.49
2 5 1 -0.39 0.95
2 5 2 65.84 3.31
2 5 2 71.16 3.27
2 5 2 63.01 5.84
2 5 2 60.57 2.9
2 5 3 5.2 0.96
2 5 3 4.82 0.93
2 5 3 7.05 1.12
2 5 3 3.83 1.58
2 5 3 4.88 0.9
2 5 3 4.55 0.78
2 5 4 274.02 8.09
2 5 4 274.73 7.98
2 5 4 272.83 7.46
2 5 4 263.94 7.33
2 5 5 7.32 1.02
2 5 5 8.71 1.01
2 5 5 9.54 1.16
2 5 6 4.85 0.74
2 5 6 5.26 0.76
2 5 7 2.64 0.44
2 5 7 3.42 0.45
2 6 -8 160.24 11.44
2 6 -3 693.79 16.68
2 6 -2 525.98 13.33
2 6 -1 203.96 6.54
2 6 -1 198.04 6.52
2 6 0 180.29 6.15
2 6 0 179.68 6.21
2 6 0 173.05 10.29
2 6 1 321.65 9.17
2 6 1 321.29 9.31
2 6 1 298.49 8.55
2 6 1 317.22 14.28
2 6 2 109.42 4.52
2 6 2 103.92 4.11
2 6 2 106.27 4.36
2 6 3 264.92 7.65
2 6 3 267.11 7.48
2 6 3 270.74 7.58
2 6 3 283.14 8.1
2 6 4 254.68 7.15
2 6 4 252.13 6.91
2 6 4 238.33 6.54
2 6 4 265.85 7.36
2 6 5 24.75 1.39
2 6 5 23.63 1.4
2 6 6 160.04 4.19
2 7 -4 4.66 0.94
2 7 -3 35.83 2.42
2 7 -2 13.96 1.52
2 7 -2 18.27 1.73
2 7 -1 0.34 0.5
2 7 -1 -0.12 0.44
2 7 0 -0.11 0.46
2 7 0 -0.12 0.45
2 7 0 0.39 0.45
2 7 1 -0.11 0.46
2 7 1 0.2 0.51
2 7 2 63.03 2.91
2 7 2 65.9 3.08
2 7 3 0.87 0.48
2 7 3 0.37 0.4
2 7 3 0.46 0.43
2 7 4 18.62 1.2
2 7 4 18.71 1.25
2 7 5 0.97 0.28
2 8 -6 60.5 3.2
2 8 -5 34.89 2.4
2 8 -4 642.01 15.98
2 8 -4 638.19 16
2 8 -3 315.74 9.14
2 8 -3 320.51 9.23
2 8 -3 307.69 8.39
2 8 -2 183.54 6.2
2 8 -2 180.9 6.25
2 8 -1 302.5 8.61
2 8 -1 298.68 8.75
2 8 -1 292.6 8.42
2 8 -1 292.12 8.01
2 8 0 43.98 2.51
2 8 0 46.3 2.57
2 8 0 47.02 2.38
2 8 1 175.14 5.56
2 8 1 175.39 5.41
2 8 1 171.07 5.27
2 8 2 23.6 1.54
2 8 2 24.42 1.44
2 8 2 22.8 1.43
2 8 3 154.3 4.14
2 8 3 145.86 4.05
2 9 -9 14.42 1.13
2 9 -8 6.05 0.85
2 9 -7 55.15 2.73
2 9 -6 19.25 1.64
2 9 -6 18.5 1.58
2 9 -5 17.15 1.55
2 9 -5 14.15 1.42
2 9 -4 7.68 1.07
2 9 -4 8.12 1.12
2 9 -3 15.73 1.48
2 9 -3 13.61 1.12
2 9 -2 36.53 2.12
2 9 -2 35.59 2.17
2 9 -2 38.3 1.98
2 9 -1 0.51 0.39
2 9 -1 0.67 0.43
2 9 -1 0.74 0.47
2 9 0 38.19 1.89
2 9 1 2.39 0.45
2 9 1 2.23 0.43
2 10 -7 309.62 7.79
2 10 -7 311.34 7.75
2 10 -6 1.17 0.44
2 10 -6 1.13 0.41
2 10 -5 28.46 1.64
2 10 -5 29.11 1.7
2 10 -4 88.4 3.13
2 10 -4 90.55 3.25
2 10 -4 86.97 2.85
2 10 -3 158.67 4.44
2 10 -2 148.23 4.11
2 10 -1 49 1.76
3 -10 6 123.06 4.03
3 -10 7 12.62 1.12
3 -9 5 27.53 2.02
3 -9 6 18.96 1.71
3 -9 7 15.66 1.56
3 -9 8 11.43 1.25
3 -9 9 1.44 0.51
3 -8 2 55.45 6.2
3 -8 3 437.52 11.54
3 -8 3 473.34 19.46
3 -8 4 509.73 13.35
3 -8 5 203.52 7.02
3 -8 6 294.62 9.12
3 -8 7 1.3 0.6
3 -8 7 1.02 0.63
3 -8 7 1.58 0.6
3 -8 8 322.95 9.06
3 -8 8 363.84 9.92
3 -8 9 248.02 6.94
3 -8 10 127.52 4.02
3 -8 10 134.95 4.2
3 -8 10 132.78 3.75
3 -7 0 -0.46 1.12
3 -7 1 29.09 4.39
3 -7 2 1.95 1.42
3 -7 2 0.96 0.54
3 -7 3 3.59 0.86
3 -7 4 2.85 1.57
3 -7 4 3.61 0.91
3 -7 5 27.66 4.18
3 -7 5 31.45 2.45
3 -7 5 28.44 2.07
3 -7 6 114.47 8.25
3 -7 6 125.53 5.3
3 -7 6 122.77 4.9
3 -7 7 29.65 2.44
3 -7 7 25.74 2.17
3 -7 8 7.42 1.16
3 -7 8 7.17 1.22
3 -7 9 22.88 1.8
3 -7 9 23.46 1.9
3 -7 9 24.36 1.98
3 -7 10 34.46 2.01
3 -7 10 31.52 1.68
3 -7 10 31.84 1.89
3 -7 10 34.21 1.73
3 -7 10 33.24 1.67
3 -6 -1 558.45 20.35
3 -6 0 434.72 17.6
3 -6 1 379.42 16.42
3 -6 2 196.39 6.29
3 -6 2 199.53 11.36
3 -6 3 449.21 11.93
3 -6 4 345.43 9.43
3 -6 4 348.42 10.01
3 -6 4 354.36 15.5
3 -6 5 908.18 21.33
3 -6 5 931.38 21.91
3 -6 5 864.4 27.9
3 -6 6 400.29 11.45
3 -6 6 397.4 11.18
3 -6 6 388.2 15.7
3 -6 7 1.61 0.81
3 -6 8 497.6 13.3
3 -6 8 486.18 13.38
3 -6 9 41.26 2.57
3 -6 9 40.37 2.53
3 -6 9 36.4 2.56
3 -6 10 404.69 10.49
3 -6 10 387.02 9.91
3 -6 10 421.32 10.03
3 -6 10 398.49 9.67
3 -6 10 396.49 10.65
3 -6 11 191.53 5.03
3 -6 11 190.04 4.77
3 -5 -2 245.13 11.58
3 -5 -1 25.8 3.68
3 -5 0 75.15 5.79
3 -5 1 2.23 0.63
3 -5 1 2.75 1.31
3 -5 2 34.21 2.13
3 -5 2 26.93 3.72
3 -5 3 104.07 4.2
3 -5 3 103.28 7.45
3 -5 4 140.12 5.28
3 -5 4 144.69 5.06
3 -5 4 151.8 8.93
3 -5 5 56.68 3.14
3 -5 5 55.96 5.7
3 -5 5 49.73 2.86
3 -5 5 53.63 5.18
3 -5 5 50.6 2.72
3 -5 6 461.66 12.46
3 -5 6 447.22 16.24
3 -5 7 94.64 4.37
3 -5 7 84.66 4.26
3 -5 8 11.83 1.49
3 -5 8 11.31 1.53
3 -5 9 55.01 3.05
3 -5 9 47.15 2.69
3 -5 9 46.37 2.58
3 -5 9 49.37 2.46
3 -5 9 50.88 3.08
3 -5 10 35.48 2.03
3 -5 10 33.99 1.79
3 -5 11 153.51 4.5
3 -5 11 145.64 4.16
3 -5 11 139 3.75
3 -4 -3 253.75 11
3 -4 -1 419.44 14.43
3 -4 0 762.93 22.44
3 -4 1 997.46 27.84
3 -4 2 217.11 10.2
3 -4 3 401.24 10.4
3 -4 3 384.29 15.03
3 -4 4 585.56 14.17
3 -4 4 585.42 19.64
3 -4 4 549.53 13.52
3 -4 5 179.6 9.11
3 -4 5 197.47 6.45
3 -4 5 180.48 9.92
3 -4 5 190.95 6.16
3 -4 6 450.12 12.05
3 -4 6 447.03 11.98
3 -4 6 437.11 11.9
3 -4 7 148.72 5.63
3 -4 7 147.13 5.8
3 -4 7 143.87 5.72
3 -4 8 138.31 5.27
3 -4 8 142.57 5.14
3 -4 9 17.81 1.71
3 -4 9 14.15 1.35
3 -4 9 18.02 1.6
3 -4 9 15.35 1.34
3 -4 9 20.14 1.9
3 -4 10 190.16 6.1
3 -4 10 201.99 5.98
3 -4 10 194.6 5.46
3 -4 10 198.62 6.33
3 -4 11 139.28 4.09
3 -3 -2 243.19 9.51
3 -3 3 108.13 3.7
3 -3 4 600.43 14.58
3 -3 4 619.41 19.7
3 -3 4 604.67 14.39
3 -3 5 584.16 14.37
3 -3 5 579.6 19.18
3 -3 5 567.61 14.27
3 -3 6 174.45 5.69
3 -3 6 205.33 6.46
3 -3 6 179.16 9.37
3 -3 6 198.22 6.63
3 -3 7 454.69 11.92
3 -3 7 474.28 11.81
3 -3 7 427.29 12.4
3 -3 7 443.05 12.37
3 -3 8 134.07 4.88
3 -3 8 132.92 4.47
3 -3 8 143.62 5.16
3 -3 8 137.72 4.68
3 -3 8 143.34 5.61
3 -3 9 61.08 3.13
3 -3 9 59.05 2.99
3 -3 9 56.35 2.6
3 -3 9 61 3.25
3 -3 10 168.7 5.21
3 -3 10 172.13 5.29
3 -3 10 158.26 4.63
3 -3 10 161.8 5.28
3 -3 11 118.33 3.57
3 -2 0 713.42 17.75
3 -2 1 514.57 14.77
3 -2 2 147.83 7.08
3 -2 3 367.89 13.67
3 -2 3 390.79 9.65
3 -2 4 589.39 13.69
3 -2 4 601.4 19.69
3 -2 4 602.48 18.68
3 -2 4 599.25 17.87
3 -2 4 595.78 14.26
3 -2 5 118.3 4.24
3 -2 5 121.24 4.48
3 -2 5 124.37 4.19
3 -2 5 128.5 7.27
3 -2 5 123.84 6.32
3 -2 5 125.11 4.71
3 -2 6 27.76 1.95
3 -2 6 26.97 1.95
3 -2 6 29.14 1.95
3 -2 6 30.17 2.21
3 -2 6 28.93 2.22
3 -2 7 50.19 2.86
3 -2 7 51.18 2.69
3 -2 7 56.59 2.93
3 -2 7 48.39 2.42
3 -2 7 52.84 3.07
3 -2 7 56.36 3.33
3 -2 8 86.63 3.86
3 -2 8 81.76 3.42
3 -2 8 90.7 3.91
3 -2 8 82.96 3.34
3 -2 8 91.63 4.13
3 -2 9 9.9 1.17
3 -2 9 9.39 0.98
3 -2 9 10.32 1.24
3 -2 9 9.51 0.99
3 -2 9 8.1 1.12
3 -2 10 20.08 1.48
3 -2 10 21.05 1.51
3 -1 -4 44.64 3.64
3 -1 -3 315.12 11.33
3 -1 -2 455.33 14.57
3 -1 -1 240.26 7.65
3 -1 0 1016.69 24.61
3 -1 1 1511.84 35.69
3 -1 2 185.09 8.28
3 -1 2 186.1 8.2
3 -1 3 404.46 14.51
3 -1 3 405.24 13.44
3 -1 4 946.23 20.98
3 -1 4 913.93 27.28
3 -1 4 942.63 24.61
3 -1 4 939.62 21.3
3 -1 5 278.08 7.86
3 -1 5 269.85 7.61
3 -1 5 266.08 7.49
3 -1 5 291.98 10.95
3 -1 6 1010.68 23.38
3 -1 6 998.08 22.59
3 -1 6 1015.39 23.02
3 -1 6 1038.71 23.42
3 -1 7 407.05 11.55
3 -1 7 423.45 11.08
3 -1 7 423.71 11.33
3 -1 7 418.16 11.39
3 -1 7 439.86 12.08
3 -1 8 33.48 2.39
3 -1 8 33.25 2.1
3 -1 8 36.71 2.2
3 -1 8 30.25 2.19
3 -1 8 33.79 2.25
3 -1 8 31.81 2.48
3 -1 9 200.68 6.4
3 -1 9 209.03 6.02
3 -1 9 218.36 6.55
3 -1 10 182.4 5.29
3 0 -4 87.52 5.23
3 0 -3 122.67 6.34
3 0 -2 475.8 14.93
3 0 -1 33.95 2.72
3 0 -1 36.27 3.31
3 0 0 526.75 15.25
3 0 1 671.13 19.34
3 0 1 705.27 19.71
3 0 2 106.04 6.31
3 0 2 101.88 5.83
3 0 3 180.5 9.37
3 0 3 193.58 8.42
3 0 4 15.82 1.31
3 0 4 13.41 2
3 0 5 184.92 6.1
3 0 5 183.36 10.67
3 0 5 178.06 5.78
3 0 5 181.82 6.22
3 0 6 29.62 2.25
3 0 6 28.19 4.48
3 0 6 31.31 2.18
3 0 6 29.67 2.11
3 0 6 33.5 2.44
3 0 7 125.87 5.17
3 0 7 116.06 4.5
3 0 7 130.94 4.99
3 0 7 131.47 4.99
3 0 7 129.1 4.79
3 0 7 123.08 5.18
3 0 8 4.53 1
3 0 8 3.63 0.82
3 0 8 4.39 0.86
3 0 8 5.04 0.97
3 0 9 8.14 0.99
3 0 9 8.31 0.93
3 0 10 11.26 0.92
3 0 10 11.24 0.75
3 1 -5 403.25 13.46
3 1 -4 643.06 18.91
3 1 -3 1003.27 26.45
3 1 -2 57.43 4.33
3 1 -1 1037.41 27.32
3 1 0 554.87 16.71
3 1 1 1053.86 22.89
3 1 1 1101.93 28.46
3 1 1 1091.69 28.21
3 1 2 456.37 11.07
3 1 2 469.81 16.23
3 1 2 462.76 15.25
3 1 3 884.28 24.14
3 1 4 496.56 18.54
3 1 4 480.75 12.01
3 1 4 475.79 11.99
3 1 4 491.08 12.41
3 1 5 155.32 5.66
3 1 5 147.98 9.71
3 1 5 157.46 5.46
3 1 5 150.94 5.37
3 1 5 146.85 5.49
3 1 6 922.16 21.89
3 1 6 955.86 21.56
3 1 6 887.66 29.38
3 1 6 925.22 21.48
3 1 6 881.94 20.34
3 1 6 912.29 21.68
3 1 7 441.2 11.93
3 1 7 452.72 11.62
3 1 7 422.32 11.48
3 1 7 409.25 10.19
3 1 7 429.79 11.59
3 1 8 115.54 4.4
3 1 8 120.31 4.29
3 1 9 24.68 1.55
3 1 9 25.45 1.46
3 2 -5 14.67 2.46
3 2 -4 0.27 0.79
3 2 -3 64.05 4.89
3 2 -2 3.34 1.3
3 2 -1 2.62 0.52
3 2 -1 1.71 1.13
3 2 0 7.09 0.84
3 2 0 7.89 1.85
3 2 1 116.34 3.98
3 2 1 115.73 7
3 2 1 125.49 7.47
3 2 2 2.22 0.59
3 2 2 2.08 1.08
3 2 3 32.05 3.5
3 2 3 33.6 4.3
3 2 3 31.59 1.95
3 2 4 98.24 4.24
3 2 4 86.69 7.32
3 2 4 96.57 4
3 2 4 96.14 4.05
3 2 5 79.69 3.9
3 2 5 81.15 3.7
3 2 5 80.02 3.38
3 2 5 80 3.71
3 2 6 34.21 2.48
3 2 6 36.11 2.4
3 2 6 34.56 2.34
3 2 6 32.92 1.98
3 2 6 30.71 2.21
3 2 7 19.52 1.78
3 2 7 21.62 1.75
3 2 7 19.72 1.65
3 2 7 18.74 1.31
3 2 8 16.21 1.35
3 2 9 101.65 3.1
3 2 9 103.98 3
3 3 -6 120.92 7.38
3 3 -5 732.66 22.63
3 3 -4 207.96 10.17
3 3 -3 1004.68 28.72
3 3 -2 439.96 16.19
3 3 -1 313.97 8.06
3 3 -1 299.86 7.68
3 3 0 867.34 19.3
3 3 0 836.4 25.75
3 3 0 843.34 18.92
3 3 1 603.77 14.43
3 3 1 610.58 20.29
3 3 1 591.81 13.83
3 3 2 127.25 7.89
3 3 2 134.61 4.88
3 3 2 143.32 8.95
3 3 2 128.19 4.48
3 3 3 736.71 24.6
3 3 3 699.37 16.76
3 3 4 311.03 9.19
3 3 4 297.99 8.77
3 3 4 303.69 14.49
3 3 4 299.49 8.62
3 3 5 147 5.6
3 3 5 140.58 5.3
3 3 5 152.71 5.41
3 3 5 139.53 4.98
3 3 5 139.47 5.01
3 3 6 379.36 10.65
3 3 6 377.55 10.37
3 3 6 393.43 10.33
3 3 6 383.8 9.78
3 3 7 82.59 3.35
3 3 7 86.56 3.32
3 3 7 78.78 2.79
3 3 8 275.59 6.79
3 4 -8 203.52 12.13
3 4 -6 4.87 1.75
3 4 -5 22.47 3.54
3 4 -4 251.73 12.25
3 4 -3 25.83 3.72
3 4 -2 36.42 4.48
3 4 -2 33.49 1.92
3 4 -1 137.89 4.84
3 4 -1 138.98 9.05
3 4 -1 142.8 4.66
3 4 0 80.06 6.81
3 4 0 81 3.49
3 4 0 73.63 3.22
3 4 1 15.41 1.51
3 4 1 12.77 1.26
3 4 1 20.7 3.56
3 4 1 17.58 3.2
3 4 2 152.3 5.59
3 4 2 142.53 9.62
3 4 2 151.18 5.21
3 4 2 149.78 9.03
3 4 3 6.21 1.1
3 4 3 4.22 0.9
3 4 3 7.33 2.25
3 4 3 5.96 1.01
3 4 3 4.17 0.8
3 4 4 100.48 4.39
3 4 4 102.72 4.28
3 4 4 102.79 4.19
3 4 4 99.83 4.09
3 4 5 40.56 2.53
3 4 5 38.76 2.39
3 4 5 40.35 2.39
3 4 5 39.68 2.28
3 4 6 63.31 2.96
3 4 6 68.33 2.87
3 4 6 64.08 2.63
3 4 7 49.39 2
3 5 -8 128.06 9.88
3 5 -6 519.52 19.95
3 5 -5 389.16 16.97
3 5 -4 98.38 8.04
3 5 -3 424.21 10.86
3 5 -3 408.62 17.89
3 5 -2 231.98 7.12
3 5 -2 226.95 6.85
3 5 -1 231.95 7.17
3 5 -1 219.92 6.83
3 5 -1 227.74 12.78
3 5 0 279.71 8.43
3 5 0 281.45 8.23
3 5 0 283.69 14.01
3 5 0 273.97 14.14
3 5 1 398.33 11.1
3 5 1 420.23 17.64
3 5 2 217.82 6.92
3 5 2 201.58 11.69
3 5 2 204.09 6.36
3 5 3 19.27 1.74
3 5 3 17.55 1.54
3 5 3 22.06 1.78
3 5 4 184.59 6.2
3 5 4 209.25 6.11
3 5 5 104.36 3.87
3 5 5 107.24 3.54
3 5 5 114.03 3.78
3 5 5 115.55 3.84
3 5 6 86.13 2.73
3 5 6 87.64 2.73
3 6 -4 149.88 5.34
3 6 -4 165.7 11.16
3 6 -3 52.71 2.98
3 6 -3 53.67 2.88
3 6 -3 57.1 6.63
3 6 -2 89.84 4.01
3 6 -2 84.07 3.79
3 6 -1 106.86 4.54
3 6 -1 104.27 4.34
3 6 0 224.15 7.21
3 6 0 220.13 12.37
3 6 1 1.91 0.62
3 6 2 190.21 6.25
3 6 2 219.94 6.64
3 6 3 53.25 2.6
3 6 3 53.32 2.34
3 6 3 58.54 2.78
3 6 4 50.66 2.22
3 6 5 55.56 2.02
3 7 -6 299.22 8.59
3 7 -5 276.88 8.16
3 7 -4 62.12 3.33
3 7 -4 62.43 3.19
3 7 -3 138.87 5.35
3 7 -3 139.82 5.16
3 7 -2 94.51 4.21
3 7 -2 92.49 4.05
3 7 -1 3.59 0.83
3 7 0 90.43 3.76
3 7 1 108.3 4.3
3 7 1 113.58 4.2
3 7 2 85.46 3.13
3 7 2 92.42 3.45
3 7 3 45.05 2.01
3 7 3 47.65 2.07
3 7 4 1.45 0.31
3 8 -8 25.93 1.62
3 8 -7 98.39 3.73
3 8 -6 123.08 4.67
3 8 -6 118.44 4.37
3 8 -5 119.53 4.61
3 8 -5 109.89 4.27
3 8 -4 183.08 6.1
3 8 -4 176.21 5.85
3 8 -3 118.63 4.48
3 8 -2 38.05 2.28
3 8 -2 34.84 1.93
3 8 -1 231.97 6.99
3 8 -1 233.14 6.48
3 8 0 45.67 2.38
3 8 0 48.12 2.37
3 8 0 48.76 2.22
3 8 1 98.22 3.42
3 8 1 98.41 3.24
3 8 1 100.06 3.26
3 8 2 67.5 2.1
3 8 2 76.45 2.36
3 9 -8 25.79 1.53
3 9 -7 119.12 4.01
3 9 -7 116.14 3.68
3 9 -6 31.58 1.87
3 9 -6 28.76 1.68
3 9 -5 27.68 1.78
3 9 -5 21.73 1.51
3 9 -4 48.92 2.33
3 9 -3 11.25 1.12
3 9 -2 27.45 1.65
3 9 -2 25.3 1.36
3 9 -1 0.74 0.33
3 9 -1 0.91 0.36
3 9 0 0.21 0.22
3 9 0 0.03 0.21
4 -9 5 92.49 3.69
4 -9 6 19.41 1.59
4 -9 7 187.46 5.76
4 -9 8 261.13 7.02
4 -8 3 53.49 2.83
4 -8 4 115.81 4.69
4 -8 5 1.91 0.71
4 -8 6 218.22 7.17
4 -8 7 345.58 9.74
4 -8 8 24.22 1.62
4 -8 8 23.58 1.78
4 -8 9 202.1 5.55
4 -7 1 180.78 11.66
4 -7 2 22.44 3.99
4 -7 2 21.08 1.8
4 -7 3 149.96 5.63
4 -7 4 10.47 2.75
4 -7 4 11.8 1.56
4 -7 5 292.02 9.15
4 -7 5 290.63 8.47
4 -7 6 18.29 1.88
4 -7 6 17.79 1.74
4 -7 7 21.26 1.99
4 -7 7 21.34 1.86
4 -7 8 79.55 3.6
4 -7 9 99.71 3.73
4 -7 9 101.51 3.78
4 -7 9 97.61 3.8
4 -6 -1 175.85 10.84
4 -6 0 147.86 10.07
4 -6 1 274.6 8.04
4 -6 1 280.92 13.87
4 -6 1 285.56 14.57
4 -6 2 510.36 13.35
4 -6 2 513.47 20.43
4 -6 2 527.59 21.03
4 -6 3 632.25 16.27
4 -6 3 642.82 24.03
4 -6 3 672.25 24.16
4 -6 4 191.86 6.87
4 -6 4 197.05 11.92
4 -6 4 194.61 6.42
4 -6 4 186.67 11.36
4 -6 5 3.98 1.69
4 -6 5 2.76 0.87
4 -6 5 5.02 1.04
4 -6 6 377.29 10.97
4 -6 6 360.31 10.56
4 -6 7 347.11 10.2
4 -6 8 369.53 10.3
4 -6 8 363.93 10.38
4 -6 9 226.04 6.75
4 -6 9 218.65 6.53
4 -6 9 225.72 6.92
4 -6 10 188.09 5.31
4 -6 10 175.13 5.33
4 -5 -2 113.77 8.19
4 -5 -1 45.49 4.83
4 -5 0 45.96 5.07
4 -5 1 4.02 0.85
4 -5 1 5.12 1.82
4 -5 2 133.3 5.12
4 -5 2 138.6 9.33
4 -5 3 2.86 0.82
4 -5 3 1.39 1.25
4 -5 4 63.15 3.47
4 -5 5 385.96 11.18
4 -5 5 396.54 17.34
4 -5 5 389.82 10.99
4 -5 5 396.16 16.26
4 -5 5 382.91 10.47
4 -5 6 38.16 2.7
4 -5 6 30.04 2.26
4 -5 7 62.65 3.49
4 -5 7 65.43 3.6
4 -5 8 3.48 0.85
4 -5 8 2.41 0.83
4 -5 9 5.19 0.82
4 -5 9 5.17 0.94
4 -5 10 28.52 1.67
4 -5 10 24.69 1.65
4 -4 -3 782.64 24.74
4 -4 -1 356.58 14.4
4 -4 0 269 12.51
4 -4 1 396.92 16.05
4 -4 2 402.98 16.42
4 -4 3 1239.48 27.09
4 -4 4 857.89 20.13
4 -4 4 837.3 27.12
4 -4 4 814.85 19.38
4 -4 5 38.48 4.84
4 -4 5 35.62 2.41
4 -4 6 358.36 10.56
4 -4 6 336.96 15.39
4 -4 6 385.08 10.85
4 -4 6 362.72 10.53
4 -4 7 80.87 3.96
4 -4 7 86.66 4.25
4 -4 7 89.03 4.23
4 -4 8 616.06 15.5
4 -4 8 654.95 15.05
4 -4 9 329.31 8.97
4 -4 9 324.27 8.36
4 -4 9 334.76 9.29
4 -4 10 155.03 4.61
4 -4 10 164.71 4.7
4 -4 10 151.86 4.75
4 -3 -3 83.12 6.44
4 -3 2 69.83 2.94
4 -3 3 34.45 4.33
4 -3 3 33.87 2.09
4 -3 4 33.63 4.29
4 -3 4 32.42 4.02
4 -3 4 31.25 2.14
4 -3 5 4.71 0.96
4 -3 5 4.89 1.08
4 -3 5 5.24 1.88
4 -3 5 4.2 1.42
4 -3 6 26.14 2.12
4 -3 6 20.79 3.33
4 -3 6 26.98 2.26
4 -3 7 3.45 0.96
4 -3 7 5.42 0.99
4 -3 7 3.35 0.74
4 -3 7 4.38 1.04
4 -3 8 27.01 1.84
4 -3 8 26.82 1.67
4 -3 8 30.44 1.94
4 -3 8 28.8 2.26
4 -3 8 31 2.38
4 -3 9 24.8 1.69
4 -3 9 21.31 1.51
4 -3 9 23.26 1.78
4 -3 10 18.53 1.24
4 -2 -4 162.64 8.73
4 -2 -3 1002.31 28.75
4 -2 -2 373.84 14.8
4 -2 -1 1378.53 36.66
4 -2 0 196.39 7.88
4 -2 1 656.63 19.38
4 -2 2 771.45 23.17
4 -2 2 805.28 24.29
4 -2 3 271.62 12.3
4 -2 3 266.31 12
4 -2 4 1015.7 22.61
4 -2 4 958.78 30.24
4 -2 4 1009.26 29.63
4 -2 4 1044.75 28.87
4 -2 4 1026.26 23.38
4 -2 5 322.46 8.93
4 -2 5 343.15 9.53
4 -2 5 315.7 13.73
4 -2 5 325.05 9.69
4 -2 6 184.66 6.18
4 -2 6 189.85 6.36
4 -2 6 196.6 6.93
4 -2 7 124.28 4.73
4 -2 7 113.12 4.4
4 -2 7 118.34 4.46
4 -2 7 132.26 5.17
4 -2 7 131.95 5.39
4 -2 8 235.27 6.97
4 -2 8 240.18 6.99
4 -2 8 247.12 6.84
4 -2 8 240.9 7.43
4 -2 8 238.77 7.83
4 -2 9 202.17 5.84
4 -2 9 188.22 5.5
4 -2 9 191.83 5.66
4 -2 10 205.01 5.36
4 -1 -4 92.12 6.48
4 -1 -3 4.55 1.56
4 -1 -2 215.47 10.34
4 -1 -1 5.35 1.26
4 -1 -1 6.47 1.85
4 -1 0 1.85 0.95
4 -1 0 1.29 1.12
4 -1 1 2.21 1.05
4 -1 1 5.17 1.7
4 -1 2 186.58 9.47
4 -1 2 177.53 9.26
4 -1 3 487.17 18.26
4 -1 3 525.41 17.74
4 -1 4 146.48 9.66
4 -1 4 145.22 8.12
4 -1 4 157.57 5.66
4 -1 5 155.24 5.52
4 -1 5 153.68 5.42
4 -1 5 135.75 9.67
4 -1 5 127.65 8
4 -1 5 167.54 6.01
4 -1 6 50.01 2.91
4 -1 6 48.78 2.61
4 -1 6 49.03 2.65
4 -1 7 28.58 2.15
4 -1 7 26.62 1.85
4 -1 7 30.23 2.1
4 -1 7 33.02 2.12
4 -1 7 30.39 2.19
4 -1 8 114 4.24
4 -1 8 116.52 4.14
4 -1 8 108.38 3.98
4 -1 8 109.27 4.04
4 -1 8 115.29 4.66
4 -1 9 54.24 2.4
4 -1 9 53.9 2.16
4 -1 10 34.33 1.43
4 0 -4 171.02 9.09
4 0 -3 355.89 14.06
4 0 -2 1066.78 27.23
4 0 -2 1150.09 30.81
4 0 -1 620.36 18.44
4 0 -1 634.05 20.38
4 0 0 188.24 8.85
4 0 1 944.06 27.6
4 0 1 1031.7 28.51
4 0 2 180.09 9.77
4 0 2 186.51 9.56
4 0 3 758.53 24.6
4 0 3 714.22 22.53
4 0 4 222.52 12.27
4 0 5 38.81 2.56
4 0 5 39.22 2.29
4 0 5 38.77 2.35
4 0 5 37.07 2.25
4 0 6 377.49 10.47
4 0 6 355.54 9.86
4 0 6 353.3 9.73
4 0 6 352.63 9.88
4 0 6 371.12 10.68
4 0 7 58.27 3.13
4 0 7 56.35 2.87
4 0 7 54.93 2.8
4 0 7 51.28 2.6
4 0 7 56.19 3.14
4 0 8 51.81 2.5
4 0 8 48.9 2.37
4 0 9 122.78 3.72
4 0 9 120.16 3.5
4 1 -5 7.03 1.88
4 1 -4 181.64 9.6
4 1 -3 39.29 3.64
4 1 -3 44.4 4.53
4 1 -2 260.45 10.7
4 1 -2 284.84 12.4
4 1 -1 820.93 23.9
4 1 -1 840.72 25.5
4 1 0 21.92 1.43
4 1 0 22.99 3.19
4 1 0 17.69 3.02
4 1 1 284.83 7.74
4 1 1 311.15 13.17
4 1 1 293.97 12.86
4 1 2 99.11 7.08
4 1 2 106.96 7.76
4 1 3 153.86 8.75
4 1 3 163.17 10.24
4 1 3 162.17 5.1
4 1 4 1041.22 24.19
4 1 4 1028.07 23.37
4 1 4 1057.3 24.31
4 1 5 308.98 9.24
4 1 5 305.83 8.66
4 1 5 289.26 15.11
4 1 5 301.33 9.2
4 1 6 22.49 1.95
4 1 6 25.37 1.9
4 1 6 22.46 1.49
4 1 6 24.02 2.03
4 1 7 123.97 4.71
4 1 7 120.78 4.33
4 1 7 111.46 4.41
4 1 8 85.62 3.13
4 1 8 89.37 3.15
4 2 -5 66.6 5.98
4 2 -4 425.52 16.75
4 2 -3 21.97 3.44
4 2 -2 389.38 9.71
4 2 -2 424.42 16.34
4 2 -1 554.47 13.15
4 2 -1 564.88 19.36
4 2 0 168.29 5.26
4 2 0 161.94 9.6
4 2 0 152.86 9.19
4 2 1 260.76 7.51
4 2 1 261.43 12.61
4 2 1 259.52 12.79
4 2 2 20.6 1.76
4 2 2 22.96 3.99
4 2 2 19.09 3.2
4 2 3 629.54 14.98
4 2 4 56.92 3.22
4 2 4 53.36 2.78
4 2 4 54.98 6.14
4 2 4 54.53 3.1
4 2 5 5.23 0.99
4 2 5 4.57 1.01
4 2 5 4.7 0.89
4 2 5 6.6 0.9
4 2 6 28.91 2.18
4 2 6 34.09 2.11
4 2 6 33.06 2.11
4 2 6 33.32 1.78
4 2 6 30.59 2.09
4 2 7 14.53 1.36
4 2 7 13.8 1.19
4 2 7 14.11 1.23
4 3 -6 115.11 8.2
4 3 -5 349.26 15.33
4 3 -4 51.4 5.53
4 3 -3 254.87 7.22
4 3 -3 253.62 12.96
4 3 -2 383.92 10.08
4 3 -2 428.92 17.4
4 3 -1 289.54 8.2
4 3 -1 289.2 14.12
4 3 -1 308.56 14.03
4 3 0 379.67 10.18
4 3 0 382.44 16.59
4 3 0 379.41 16.56
4 3 1 671.21 16.35
4 3 1 676.47 23.55
4 3 1 646.03 23.77
4 3 2 59.74 5.86
4 3 2 68.51 3.48
4 3 3 216.07 6.61
4 3 3 211.87 12.68
4 3 3 219.38 7.06
4 3 4 367.44 9.73
4 3 4 351.16 9.88
4 3 5 373.39 9.76
4 3 5 375.38 9.89
4 3 5 373.71 9.53
4 3 5 358.36 9.68
4 3 6 313.08 8.06
4 3 6 318.63 8.18
4 3 6 298.9 7.59
4 3 7 3.97 0.56
4 4 -6 89.26 7.45
4 4 -5 128.01 9.21
4 4 -4 85.45 7.65
4 4 -3 28.78 2.03
4 4 -3 30.41 4.56
4 4 -2 36.09 2.32
4 4 -1 76.37 3.58
4 4 -1 78.94 7.42
4 4 -1 74.47 7.11
4 4 0 112.14 8.97
4 4 0 122.32 4.85
4 4 0 129.04 9.43
4 4 1 17.6 1.73
4 4 1 15.69 3.24
4 4 2 3.57 1.86
4 4 3 173.89 6.11
4 4 3 168.32 5.61
4 4 3 167.85 5.61
4 4 4 28.69 2.08
4 4 4 27.26 1.84
4 4 4 26.28 1.8
4 4 5 46.16 2.42
4 4 5 44.21 2.17
4 4 5 44.65 2.09
4 4 6 0.74 0.3
4 4 6 0.84 0.26
4 5 -6 62.05 6.42
4 5 -5 473.14 20.05
4 5 -4 187.15 6.28
4 5 -4 171.17 11.56
4 5 -3 172.99 6.01
4 5 -3 164.88 11.48
4 5 -2 292.6 8.69
4 5 -2 262.18 15.03
4 5 -1 417.65 11.54
4 5 -1 428.52 18.87
4 5 -1 443.85 19.57
4 5 0 112.67 4.74
4 5 0 112.84 9.17
4 5 1 328.65 9.64
4 5 2 295.09 8.6
4 5 2 291.16 7.88
4 5 2 297.47 7.98
4 5 3 139.71 4.91
4 5 3 133.87 4.36
4 5 4 145.19 4.74
4 5 4 147.48 4.33
4 5 4 154.19 4.6
4 5 5 118.76 3.29
4 5 5 133.55 3.55
4 6 -5 15.55 1.59
4 6 -4 33.75 2.35
4 6 -4 26.97 4.68
4 6 -3 6.48 1.11
4 6 -3 6.77 0.97
4 6 -2 1.05 0.59
4 6 -2 0.56 0.46
4 6 -2 0.58 1.27
4 6 -1 31.63 2.31
4 6 0 52.67 2.97
4 6 1 4.95 0.85
4 6 2 0.91 0.48
4 6 2 1.15 0.5
4 6 3 0.93 0.41
4 6 4 9.41 0.65
4 6 4 10.86 0.76
4 7 -9 118.39 3.67
4 7 -8 309.15 8.14
4 7 -7 173.03 5.57
4 7 -6 84.27 3.64
4 7 -5 336.41 9.39
4 7 -4 117.34 4.59
4 7 -3 134.08 4.91
4 7 -3 115.7 4.25
4 7 -2 119.38 4.61
4 7 -1 321.93 9.02
4 7 0 110.78 4.23
4 7 0 117.99 4.02
4 7 1 42.1 2.04
4 7 2 158.5 4.37
4 8 -8 2.07 0.46
4 8 -7 12.15 1.1
4 8 -6 34.9 1.98
4 8 -5 6.7 0.91
4 8 -4 9.32 1.08
4 8 -3 22.95 1.63
4 8 -2 9.45 1.04
4 8 -2 8.81 0.81
4 8 -1 0.74 0.36
4 8 -1 0.27 0.25
4 8 0 10.11 0.82
4 8 0 8.51 0.73
4 8 0 10.06 0.75
4 9 -2 62.84 2
5 -8 4 0.09 0.46
5 -8 5 19.31 1.66
5 -8 6 0.36 0.51
5 -8 7 0.06 0.31
5 -8 7 0.08 0.37
5 -7 2 24.19 1.9
5 -7 3 314.18 9.2
5 -7 4 109.27 4.65
5 -7 5 158.56 5.83
5 -7 5 155.22 5.25
5 -7 6 662.27 15.99
5 -7 6 620.18 15.25
5 -7 7 140.24 5
5 -7 7 134.33 4.67
5 -7 8 132.29 4.27
5 -7 8 126.38 4.33
5 -7 8 128.31 4.23
5 -6 1 106.53 4.32
5 -6 1 93.75 8.12
5 -6 1 99.78 8.79
5 -6 2 0.53 1.01
5 -6 2 0.72 0.58
5 -6 2 1.55 1.5
5 -6 3 5.72 1.15
5 -6 3 3.26 0.82
5 -6 4 147.03 5.75
5 -6 4 135.49 5.18
5 -6 5 250.36 8.23
5 -6 5 253.37 7.91
5 -6 6 16.17 1.73
5 -6 6 12.69 1.49
5 -6 7 79.12 3.65
5 -6 8 65.7 2.95
5 -6 8 63.85 3
5 -6 9 54.94 2.38
5 -5 -2 195.62 11.43
5 -5 0 279.32 8.26
5 -5 0 285.8 14.18
5 -5 1 160.57 5.88
5 -5 1 160.5 10.66
5 -5 2 23.39 2.12
5 -5 2 19.66 3.71
5 -5 3 638.51 16.6
5 -5 3 667.4 24.68
5 -5 4 16.03 3.36
5 -5 4 17.03 1.86
5 -5 5 261 8.52
5 -5 5 243.9 12.87
5 -5 5 254.99 8.23
5 -5 6 275.28 8.45
5 -5 6 249.77 7.74
5 -5 7 192.2 6.46
5 -5 7 192.14 6.58
5 -5 8 144.7 4.9
5 -5 8 151.09 5.24
5 -5 9 63.95 2.57
5 -4 -2 124.35 9.08
5 -4 -1 44.38 5.11
5 -4 -1 62.27 6.48
5 -4 0 337.26 15.65
5 -4 1 773.61 26.61
5 -4 2 23.97 4.17
5 -4 3 39.21 2.77
5 -4 3 35.56 4.97
5 -4 4 45.19 2.94
5 -4 4 32.15 4.78
5 -4 4 48.05 5.52
5 -4 4 37.99 2.47
5 -4 5 327.06 15.89
5 -4 5 364.35 10.18
5 -4 6 476.19 13.01
5 -4 6 497.1 13.29
5 -4 6 483.99 12.91
5 -4 7 112.15 4.5
5 -4 7 119.93 4.84
5 -4 7 106.88 4.53
5 -4 8 203.39 5.92
5 -4 9 128.08 3.81
5 -4 9 133.2 4.23
5 -3 -3 94.8 7.6
5 -3 -2 134.56 9.29
5 -3 -1 90.96 7.7
5 -3 0 429.94 18.11
5 -3 2 8.64 1.14
5 -3 2 8.93 2.59
5 -3 3 584.9 22.34
5 -3 3 648.16 22.73
5 -3 3 601.66 15.08
5 -3 4 36.66 5.01
5 -3 4 45.41 5.18
5 -3 4 47.09 2.82
5 -3 5 276.71 8.7
5 -3 5 255.95 13.3
5 -3 5 277.63 8.61
5 -3 6 84.16 3.97
5 -3 6 86.26 4.13
5 -3 7 25.83 1.9
5 -3 7 29.55 2.21
5 -3 7 30.28 2.28
5 -3 8 111.59 3.93
5 -3 8 118.6 3.92
5 -3 8 114.59 4.29
5 -3 9 30.76 1.48
5 -2 -3 216.69 11.78
5 -2 -2 177.68 10.61
5 -2 -1 400.57 17.13
5 -2 0 385.39 16.65
5 -2 1 604.89 19.86
5 -2 1 671.43 23.2
5 -2 2 973.67 29.26
5 -2 2 1036.8 31.19
5 -2 3 109.32 8.06
5 -2 3 101.59 7.81
5 -2 3 100.5 4.39
5 -2 4 67.33 6.03
5 -2 4 65.43 6.44
5 -2 4 71.72 3.69
5 -2 5 255.4 7.55
5 -2 5 267.56 8.27
5 -2 5 266.59 8.49
5 -2 6 398.46 10.45
5 -2 6 391.13 10.76
5 -2 6 412.62 11.33
5 -2 6 408.94 11.48
5 -2 7 359.61 9.31
5 -2 7 359.79 9.91
5 -2 7 358.25 10.24
5 -2 8 214.27 5.94
5 -2 8 215.1 5.77
5 -2 8 221.9 6.25
5 -2 9 233.84 5.67
5 -1 -4 323.51 14.59
5 -1 -3 52.37 5.6
5 -1 -2 135.36 9.07
5 -1 -1 127.21 8.87
5 -1 0 6.62 1.81
5 -1 1 5 1.67
5 -1 1 7.41 2.14
5 -1 2 30.48 4.14
5 -1 2 26.9 4.02
5 -1 3 65.27 6.49
5 -1 3 61.74 5.93
5 -1 4 0.73 0.53
5 -1 4 1.01 1.11
5 -1 4 1.56 0.7
5 -1 5 32.43 2.23
5 -1 5 29.62 2.18
5 -1 5 29.64 1.93
5 -1 5 30.94 2.41
5 -1 6 0.51 0.52
5 -1 6 1.41 0.57
5 -1 6 0.82 0.45
5 -1 6 1.31 0.53
5 -1 6 0.98 0.61
5 -1 7 14.19 1.35
5 -1 7 13.87 1.22
5 -1 7 13.04 1.27
5 -1 8 0.72 0.34
5 -1 8 0.82 0.37
5 0 -4 280.99 13.63
5 0 -3 382.01 16.43
5 0 -2 214.45 11.85
5 0 -1 506.6 17.49
5 0 -1 567.3 20.97
5 0 0 547.31 19.08
5 0 1 388.35 16.1
5 0 1 380.72 16.44
5 0 2 1125.89 33.43
5 0 2 1136.72 33.92
5 0 3 229.72 11.82
5 0 3 239.12 13.17
5 0 4 195.88 6.61
5 0 4 199.4 12.18
5 0 4 193.04 6.88
5 0 5 194.69 6.1
5 0 5 192.72 5.94
5 0 6 193.55 6.23
5 0 6 190.62 5.64
5 0 6 177.33 5.74
5 0 7 226.78 6.5
5 0 7 212.38 5.96
5 0 7 220.48 6.22
5 0 7 230.6 6.76
5 0 8 179.29 4.63
5 0 8 191.38 4.87
5 1 -5 32.06 4.32
5 1 -4 0.91 1.11
5 1 -3 2.78 1.53
5 1 -2 133.3 8
5 1 -2 135.9 9.39
5 1 -1 1.5 1.23
5 1 -1 0.47 1.03
5 1 0 47.23 5.22
5 1 0 37.88 4.94
5 1 1 231.85 12.47
5 1 1 228.33 12.35
5 1 2 157.7 9.89
5 1 2 153.46 10.43
5 1 3 17.13 3.48
5 1 4 8.53 1.3
5 1 4 6.81 1.15
5 1 5 3.62 0.88
5 1 5 2.79 0.86
5 1 5 3.94 0.7
5 1 5 3.19 0.59
5 1 5 3.61 0.7
5 1 6 12.86 1.33
5 1 6 11.88 1.08
5 1 6 11.29 1.17
5 1 6 12.3 1.33
5 1 7 24.52 1.57
5 1 7 22.45 1.23
5 1 7 23.58 1.49
5 2 -5 281.96 14.09
5 2 -4 759.41 26.39
5 2 -3 294.91 14.95
5 2 -3 283.76 12.81
5 2 -2 402.02 17.59
5 2 -2 355.21 15.43
5 2 -1 408.01 17.2
5 2 0 106.2 4.11
5 2 0 113.53 8.81
5 2 0 92.92 7.85
5 2 1 966.8 30.61
5 2 1 923.83 30.83
5 2 2 412.23 17.12
5 2 2 396.26 18.09
5 2 3 75.44 3.78
5 2 4 374.53 10.37
5 2 4 356.59 10.19
5 2 5 71.53 3.35
5 2 5 72.93 3.1
5 2 5 67.74 2.64
5 2 5 72.79 3.28
5 2 6 86.43 3.36
5 2 6 88.45 3.14
5 2 6 81.45 3.08
5 2 7 167.04 4.31
5 3 -5 1.48 1.08
5 3 -4 11.47 3.04
5 3 -3 87.13 8.03
5 3 -3 78.43 6.98
5 3 -2 6.91 1.02
5 3 -2 6.56 2.19
5 3 -2 7.08 2.4
5 3 -1 103.46 4.16
5 3 -1 98.46 8.69
5 3 -1 108.12 8.65
5 3 0 99.97 4.19
5 3 0 99.3 8.51
5 3 0 96.01 8.3
5 3 1 189.17 11.57
5 3 1 177.01 11.66
5 3 3 134.86 5.17
5 3 3 135.53 5.03
5 3 4 35.39 2.27
5 3 4 34.97 2
5 3 4 35.86 1.93
5 3 4 33.59 2.1
5 3 5 8.24 0.99
5 3 5 9.14 0.92
5 3 5 7.78 0.75
5 3 6 24.42 1.2
5 4 -5 111.92 9.04
5 4 -4 173.99 5.63
5 4 -4 172.9 11.53
5 4 -4 157.17 10.18
5 4 -3 422.43 11.03
5 4 -3 404.77 19.06
5 4 -3 407.75 17.93
5 4 -2 397.22 10.67
5 4 -2 385.02 17.55
5 4 -1 153.98 11.02
5 4 -1 155.18 5.57
5 4 -1 144.26 10.49
5 4 0 82.47 3.82
5 4 0 82.7 7.68
5 4 2 121.78 4.54
5 4 3 182.16 5.35
5 4 3 186.23 5.52
5 4 3 182.55 5.51
5 4 4 22.08 1.53
5 4 4 21.95 1.3
5 4 4 22.73 1.34
5 5 -5 42.2 2.37
5 5 -4 113.92 4.38
5 5 -3 53.84 2.88
5 5 -2 158.81 5.6
5 5 -1 211.26 6.81
5 5 0 0.52 0.46
5 5 1 194.57 5.83
5 5 2 32.65 1.98
5 5 3 237.73 6.42
5 5 3 243.3 6.21
5 6 -6 98.14 3.61
5 6 -5 42.9 2.33
5 6 -4 78.75 3.41
5 6 -3 67.7 3.17
5 6 -2 77.34 3.43
5 6 -1 167.47 5.53
5 6 0 24.28 1.64
5 6 1 85.46 3.12
5 6 1 92.89 3.18
5 6 2 1.58 0.39
5 7 -6 59.17 2.41
5 7 -5 31.94 1.8
5 7 -4 73.67 3
5 7 -3 191.14 5.67
5 7 -2 56.09 2.51
5 7 -1 82.64 2.81
5 7 0 91.88 2.84
6 -7 3 204.33 6.25
6 -7 4 197.69 6.17
6 -7 5 173.05 5.55
6 -7 6 212.58 6.17
6 -6 1 1.63 0.59
6 -6 2 0.74 0.55
6 -6 3 61.71 3.28
6 -6 4 11.54 1.43
6 -6 4 12.26 1.29
6 -6 5 9.62 1.26
6 -6 5 7.22 1.02
6 -6 6 5.14 0.9
6 -6 6 4.83 0.82
6 -6 7 16.47 1.29
6 -6 7 13.32 1.15
6 -5 0 22.78 1.84
6 -5 1 389.82 10.85
6 -5 2 209.75 7.15
6 -5 3 203.49 7.03
6 -5 4 573.68 14.89
6 -5 5 256.1 7.9
6 -5 5 249.19 7.69
6 -5 6 209.58 6.58
6 -5 6 209.28 6.55
6 -5 7 274.22 7.47
6 -5 7 282.77 7.67
6 -4 0 135.31 10.17
6 -4 2 0.4 0.61
6 -4 2 0.53 0.82
6 -4 3 63.75 3.6
6 -4 4 3.81 0.82
6 -4 4 5.05 1.07
6 -4 5 0.19 0.42
6 -4 5 2.47 0.82
6 -4 6 22.11 1.78
6 -4 6 23.95 1.88
6 -4 6 20.47 1.64
6 -4 7 5.27 0.77
6 -4 7 5.66 0.87
6 -3 -2 641.35 23.76
6 -3 -1 108.59 8.69
6 -3 -1 136.06 9.91
6 -3 0 132.03 9.95
6 -3 1 312.86 15.84
6 -3 2 74.49 7.26
6 -3 2 73.33 3.4
6 -3 3 551.48 21.26
6 -3 3 544.43 13.87
6 -3 4 277.51 8.81
6 -3 4 287.65 8.51
6 -3 5 363.15 10.13
6 -3 5 348.36 9.88
6 -3 6 273.08 7.83
6 -3 6 282.86 8.09
6 -3 7 141.16 4.68
6 -3 7 143.39 4.73
6 -2 -3 0.95 1.05
6 -2 -2 117.68 9.29
6 -2 -1 366.05 17.26
6 -2 0 0.53 1.3
6 -2 1 90.95 8.09
6 -2 2 16.85 3.55
6 -2 2 19.85 1.83
6 -2 3 183.83 11.18
6 -2 3 196.42 6.7
6 -2 4 231.5 7.62
6 -2 4 235.28 7.57
6 -2 5 28.08 2.07
6 -2 5 26.6 2.1
6 -2 6 94.1 3.54
6 -2 6 97.61 3.92
6 -2 6 102.26 4.09
6 -2 7 69.31 2.48
6 -2 7 72.24 2.82
6 -2 7 73.72 3.02
6 -1 -3 153.24 10.47
6 -1 -2 274.06 14.69
6 -1 -1 410.83 18.46
6 -1 1 322.23 15.87
6 -1 2 12.88 3.07
6 -1 3 216.8 6.69
6 -1 3 220.02 7.36
6 -1 4 230.95 6.98
6 -1 4 247.12 7.8
6 -1 5 139.34 4.68
6 -1 5 139.38 4.8
6 -1 5 150.45 5.43
6 -1 6 207.14 6.11
6 -1 6 219.69 6.59
6 -1 7 135.41 3.87
6 -1 7 143.36 4.39
6 0 -4 33.48 4.72
6 0 -3 205.23 12.48
6 0 -2 160.35 10.92
6 0 -1 194.31 12.26
6 0 0 473.13 19.98
6 0 1 71.89 7.02
6 0 2 3.2 1.59
6 0 3 249.73 7.6
6 0 3 248.9 8.05
6 0 4 136.54 4.86
6 0 4 124.65 4.63
6 0 4 136.82 5.23
6 0 5 221.61 6.49
6 0 5 212.04 6.36
6 0 6 124.19 3.92
6 0 7 178.23 4.45
6 1 -3 177.26 11.57
6 1 -2 44.02 5.66
6 1 0 54.12 6.28
6 1 1 232.22 13
6 1 3 29.54 2.12
6 1 3 29.24 2.23
6 1 4 32 2.07
6 1 5 44.23 2.28
6 1 5 51.74 2.52
6 1 6 61.65 2.2
6 2 -3 100.97 8.66
6 2 -2 310.25 15.99
6 2 -1 387.37 18
6 2 3 134.07 4.8
6 2 3 126.38 4.77
6 2 4 142.31 4.71
6 2 4 139.87 4.7
6 2 5 148.48 4.13
6 3 2 0.28 0.41
6 3 2 0.46 0.4
6 3 3 4.96 0.8
6 3 3 5.03 0.68
6 3 3 4.83 0.66
6 3 3 6.29 0.86
6 3 4 7.6 0.82
6 3 4 8.29 0.69
6 4 1 146.98 4.83
6 4 2 85.67 3.06
6 4 3 64.9 2.11
6 5 0 12.2 1.05
6 5 2 7.9 0.61
6 6 0 178.48 4.46
7 -6 2 86.66 3.19
7 -6 3 82.99 3.19
7 -6 4 100.31 3.53
7 -5 1 108.08 4
7 -5 2 83.76 3.52
7 -5 3 133.58 4.72
7 -5 3 132.43 4.38
7 -5 4 276.74 7.69
7 -5 4 276 7.39
7 -5 5 77.04 3.01
7 -5 5 75.84 2.88
7 -4 0 27.35 1.94
7 -4 1 188.71 6.23
7 -4 2 74.65 3.53
7 -4 3 23.5 1.89
7 -4 4 115.91 4.35
7 -4 4 121.39 4.33
7 -4 5 3.3 0.67
7 -4 5 3.39 0.66
7 -3 2 167.71 5.96
7 -3 3 300.64 8.71
7 -3 4 197.9 6.16
7 -3 4 195.03 5.71
7 -3 5 267.15 7.17
7 -3 5 270.09 7.35
7 -2 1 0.87 0.49
7 -2 2 20.13 1.64
7 -2 3 10.78 1.3
7 -2 3 8.69 1.09
7 -2 4 3.53 0.7
7 -2 4 2.15 0.64
7 -2 5 9.91 1.02
7 -2 5 10.82 1.03
7 -1 1 486.02 12.43
7 -1 2 153.61 5.35
7 -1 3 340.02 9.37
7 -1 3 350.21 9.38
7 -1 4 306.23 7.94
7 -1 4 303.93 8.23
7 0 1 11.18 1.33
7 0 2 21.39 1.53
7 0 2 20.76 1.73
7 0 3 1.92 0.6
7 0 3 2.06 0.58
7 0 4 4.68 0.74
7 0 5 29.56 1.31
7 1 1 139.84 5.05
7 1 2 232.83 6.6
7 1 2 238.48 6.98
7 1 3 166.62 4.92
7 1 3 182.76 5.38
7 1 4 280.68 6.69
7 2 1 63.04 2.9
7 2 2 33.37 1.81
7 2 3 41.88 1.57
7 3 1 46.49 2.11
7 3 1 45.68 2.12
8 -3 1 25.72 1.55
8 -2 -1 93.8 3.3
8 -2 0 151.46 4.7
8 -2 1 30.48 1.77
loop_
_geom_angle_atom_site_label_1
_geom_angle_atom_site_label_2
_geom_angle_atom_site_label_3
_geom_angle
_geom_angle_site_symmetry_1
_geom_angle_site_symmetry_3
_geom_angle_publ_flag
C3 N2 C1 117.71(17) . . ?
C11 N10 H10 116.1 . . ?
C11 N10 C1 127.77(17) . . ?
C1 N10 H10 116.1 . . ?
C17 N16 C15 117.24(17) . . ?
C18 C13 C11 119.15(17) . . ?
C14 C13 C11 122.22(17) . . ?
C14 C13 C18 118.52(18) . . ?
C4 C5 H5 119.9 . . ?
C6 C5 H5 119.9 . . ?
C6 C5 C4 120.16(18) . . ?
C5 C4 C7 124.16(19) . . ?
C3 C4 C5 116.92(18) . . ?
C3 C4 C7 118.89(19) . . ?
O12 C11 N10 125.11(17) . . ?
O12 C11 C13 121.52(17) . . ?
N10 C11 C13 113.36(16) . . ?
C8 C7 C4 174.2(2) . . ?
C13 C18 H18 120.7 . . ?
C17 C18 C13 118.60(18) . . ?
C17 C18 H18 120.7 . . ?
C5 C6 H6 121.0 . . ?
C5 C6 C1 117.95(18) . . ?
C1 C6 H6 121.0 . . ?
N2 C1 N10 112.67(17) . . ?
N2 C1 C6 123.24(18) . . ?
N10 C1 C6 124.02(18) . . ?
N16 C17 C18 123.61(19) . . ?
N16 C17 H17 118.2 . . ?
C18 C17 H17 118.2 . . ?
C13 C14 H14 120.6 . . ?
C15 C14 C13 118.71(18) . . ?
C15 C14 H14 120.6 . . ?
N16 C15 C14 123.30(18) . . ?
N16 C15 H15 118.4 . . ?
C14 C15 H15 118.4 . . ?
N2 C3 C4 123.99(19) . . ?
N2 C3 H3 118.0 . . ?
C4 C3 H3 118.0 . . ?
C7 C8 Br9 177.0(2) . . ?
loop_
_geom_bond_atom_site_label_1
_geom_bond_atom_site_label_2
_geom_bond_distance
_geom_bond_site_symmetry_2
_geom_bond_publ_flag
Br9 C8 1.809(2) . ?
O12 C11 1.219(2) . ?
N2 C1 1.341(3) . ?
N2 C3 1.335(3) . ?
N10 H10 0.8600 . ?
N10 C11 1.369(2) . ?
N10 C1 1.398(2) . ?
N16 C17 1.337(3) . ?
N16 C15 1.343(3) . ?
C13 C11 1.504(3) . ?
C13 C18 1.389(3) . ?
C13 C14 1.389(3) . ?
C5 H5 0.9300 . ?
C5 C4 1.401(3) . ?
C5 C6 1.381(3) . ?
C4 C7 1.433(3) . ?
C4 C3 1.401(3) . ?
C7 C8 1.196(3) . ?
C18 H18 0.9300 . ?
C18 C17 1.388(3) . ?
C6 H6 0.9300 . ?
C6 C1 1.400(3) . ?
C17 H17 0.9300 . ?
C14 H14 0.9300 . ?
C14 C15 1.389(3) . ?
C15 H15 0.9300 . ?
C3 H3 0.9300 . ?
loop_
_geom_torsion_atom_site_label_1
_geom_torsion_atom_site_label_2
_geom_torsion_atom_site_label_3
_geom_torsion_atom_site_label_4
_geom_torsion
_geom_torsion_site_symmetry_1
_geom_torsion_site_symmetry_2
_geom_torsion_site_symmetry_3
_geom_torsion_site_symmetry_4
_geom_torsion_publ_flag
C13 C18 C17 N16 -0.8(3) . . . . ?
C13 C14 C15 N16 -0.9(3) . . . . ?
C5 C4 C3 N2 0.6(3) . . . . ?
C5 C6 C1 N2 2.4(3) . . . . ?
C5 C6 C1 N10 -174.25(18) . . . . ?
C4 C5 C6 C1 -0.8(3) . . . . ?
C11 N10 C1 N2 -176.68(18) . . . . ?
C11 N10 C1 C6 0.3(3) . . . . ?
C11 C13 C18 C17 176.01(18) . . . . ?
C11 C13 C14 C15 -175.10(18) . . . . ?
C7 C4 C3 N2 178.44(19) . . . . ?
C18 C13 C11 O12 -43.5(3) . . . . ?
C18 C13 C11 N10 137.57(19) . . . . ?
C18 C13 C14 C15 1.2(3) . . . . ?
C6 C5 C4 C7 -178.32(18) . . . . ?
C6 C5 C4 C3 -0.6(3) . . . . ?
C1 N2 C3 C4 0.9(3) . . . . ?
C1 N10 C11 O12 -12.8(3) . . . . ?
C1 N10 C11 C13 166.08(18) . . . . ?
C17 N16 C15 C14 -0.2(3) . . . . ?
C14 C13 C11 O12 132.8(2) . . . . ?
C14 C13 C11 N10 -46.1(3) . . . . ?
C14 C13 C18 C17 -0.4(3) . . . . ?
C15 N16 C17 C18 1.1(3) . . . . ?
C3 N2 C1 N10 174.57(17) . . . . ?
C3 N2 C1 C6 -2.5(3) . . . . ?
