#------------------------------------------------------------------------------
#$Date: 2021-12-07 05:53:47 +0200 (Tue, 07 Dec 2021) $
#$Revision: 271223 $
#$URL: file:///home/coder/svn-repositories/cod/cif/7/15/83/7158396.cif $
#------------------------------------------------------------------------------
#
# This file is available in the Crystallography Open Database (COD),
# http://www.crystallography.net/
#
# All data on this site have been placed in the public domain by the
# contributors.
#
data_7158396
loop_
_publ_author_name
'Zhang, Zhu-Zhu'
'Sun, Cai-Ling'
'Zhang, Xiao-Hong'
'Zhang, Xing-Guo'
_publ_section_title
;
 Base-promoted thioannulation of <i>o</i>-alkynyl oxime ethers with sodium
 sulfide for the general synthesis of isothiocoumarins.
;
_journal_issue                   46
_journal_name_full               'Organic &amp; biomolecular chemistry'
_journal_page_first              10174
_journal_page_last               10180
_journal_paper_doi               10.1039/d1ob02012a
_journal_volume                  19
_journal_year                    2021
_chemical_formula_sum            'C16 H12 O S'
_chemical_formula_weight         252.32
_space_group_crystal_system      triclinic
_space_group_IT_number           2
_space_group_name_Hall           '-P 1'
_space_group_name_H-M_alt        'P -1'
_atom_sites_solution_hydrogens   geom
_audit_creation_method           SHELXL-2013
_audit_update_record
;
2021-05-20 deposited with the CCDC.	2021-11-05 downloaded from the CCDC.
;
_cell_angle_alpha                91.3540(10)
_cell_angle_beta                 92.0140(10)
_cell_angle_gamma                92.341(2)
_cell_formula_units_Z            2
_cell_length_a                   7.2215(3)
_cell_length_b                   8.8635(4)
_cell_length_c                   9.7122(4)
_cell_measurement_reflns_used    6047
_cell_measurement_temperature    293(2)
_cell_measurement_theta_max      54.958
_cell_measurement_theta_min      6.151
_cell_volume                     620.56(5)
_computing_cell_refinement       'Bruker SAINT'
_computing_data_collection       'Bruker APEX2'
_computing_data_reduction        'Bruker SAINT'
_computing_molecular_graphics    'Bruker SHELXTL'
_computing_publication_material  'Bruker SHELXTL'
_computing_structure_refinement  'SHELXL-2013 (Sheldrick, 2013)'
_computing_structure_solution    'SHELXS-97 (Sheldrick 2008)'
_diffrn_ambient_temperature      293(2)
_diffrn_measured_fraction_theta_full 0.986
_diffrn_measured_fraction_theta_max 0.986
_diffrn_measurement_device_type  'Bruker APEX-II CCD'
_diffrn_measurement_method       '\f and \w scans'
_diffrn_radiation_type           MoK\a
_diffrn_radiation_wavelength     0.71073
_diffrn_reflns_av_R_equivalents  0.0252
_diffrn_reflns_av_unetI/netI     0.0218
_diffrn_reflns_Laue_measured_fraction_full 0.986
_diffrn_reflns_Laue_measured_fraction_max 0.986
_diffrn_reflns_limit_h_max       8
_diffrn_reflns_limit_h_min       -8
_diffrn_reflns_limit_k_max       10
_diffrn_reflns_limit_k_min       -10
_diffrn_reflns_limit_l_max       11
_diffrn_reflns_limit_l_min       -11
_diffrn_reflns_number            8960
_diffrn_reflns_point_group_measured_fraction_full 0.986
_diffrn_reflns_point_group_measured_fraction_max 0.986
_diffrn_reflns_theta_full        25.242
_diffrn_reflns_theta_max         26.000
_diffrn_reflns_theta_min         3.076
_exptl_absorpt_coefficient_mu    0.244
_exptl_absorpt_correction_T_max  0.7456
_exptl_absorpt_correction_T_min  0.6267
_exptl_absorpt_correction_type   multi-scan
_exptl_absorpt_process_details   sadabs
_exptl_crystal_colour            yellow
_exptl_crystal_density_diffrn    1.350
_exptl_crystal_description       prismatic
_exptl_crystal_F_000             264
_exptl_crystal_size_max          0.200
_exptl_crystal_size_mid          0.150
_exptl_crystal_size_min          0.110
_refine_diff_density_max         0.238
_refine_diff_density_min         -0.168
_refine_diff_density_rms         0.033
_refine_ls_extinction_method     none
_refine_ls_goodness_of_fit_ref   1.066
_refine_ls_hydrogen_treatment    constr
_refine_ls_matrix_type           full
_refine_ls_number_parameters     164
_refine_ls_number_reflns         2401
_refine_ls_number_restraints     0
_refine_ls_restrained_S_all      1.066
_refine_ls_R_factor_all          0.0416
_refine_ls_R_factor_gt           0.0375
_refine_ls_shift/su_max          0.001
_refine_ls_shift/su_mean         0.000
_refine_ls_structure_factor_coef Fsqd
_refine_ls_weighting_details
'w=1/[\s^2^(Fo^2^)+(0.0637P)^2^+0.1056P] where P=(Fo^2^+2Fc^2^)/3'
_refine_ls_weighting_scheme      calc
_refine_ls_wR_factor_gt          0.1070
_refine_ls_wR_factor_ref         0.1117
_reflns_Friedel_coverage         0.000
_reflns_number_gt                2160
_reflns_number_total             2401
_reflns_threshold_expression     'I > 2\s(I)'
_cod_data_source_file            d1ob02012a2.cif
_cod_data_source_block           mo_dd21176_0m
_cod_depositor_comments          'Adding full bibliography for 7158396.cif.'
_cod_database_code               7158396
_shelx_space_group_comment
; 
The symmetry employed for this shelxl refinement is uniquely defined 
by the following loop, which should always be used as a source of 
symmetry information in preference to the above space-group names. 
They are only intended as comments. 
;
_shelx_estimated_absorpt_t_min   0.953
_shelx_estimated_absorpt_t_max   0.974
_shelxl_version_number           2013-4
_shelx_res_file
; 
TITL mo_dd21176_0m_a.res in P-1 
CELL 0.71073 7.2215 8.8635 9.7122 91.354 92.014 92.341 
ZERR 2 0.0003 0.0004 0.0004 0.001 0.001 0.002 
LATT 1 
SFAC C  H  O  S 
UNIT 32 24 2 2 
OMIT 1 -3 2 
OMIT 0 0 1 
OMIT 0 1 0 
OMIT -2 -2 3 
OMIT 2 2 3 
OMIT  -3.00  52.00 
L.S. 8 
ACTA 
BOND $H 
FMAP 2 
PLAN 20 
LIST 4 
HTAB C8 O1_$1 
EQIV $1 x+1, y, z 
conf 
htab 
mpla c2 > c7 
mpla c10 > c15 
wpdb -1 
size 0.20 0.15 0.11 
TEMP 20.24 
WGHT    0.063700    0.105600 
FVAR       2.62993 
S1    4    0.335027    0.657037    0.343314    11.00000    0.03380    0.07010 = 
         0.05457   -0.01494   -0.00308    0.00642 
O1    3    0.077610    0.540531    0.184371    11.00000    0.03477    0.12028 = 
         0.07368   -0.02324   -0.01106    0.00311 
C1    1    0.241394    0.529820    0.213118    11.00000    0.03580    0.07013 = 
         0.04650   -0.00298   -0.00260   -0.00371 
C2    1    0.361018    0.422111    0.148077    11.00000    0.04272    0.05039 = 
         0.04183    0.00184   -0.00266   -0.00755 
C3    1    0.280802    0.326404    0.043501    11.00000    0.05583    0.06095 = 
         0.05179   -0.00029   -0.01005   -0.01376 
AFIX  43 
H3    2    0.156227    0.333819    0.018001    11.00000   -1.20000 
AFIX   0 
C4    1    0.384411    0.222105   -0.021385    11.00000    0.07900    0.05501 = 
         0.05435   -0.00943   -0.00942   -0.01447 
AFIX  43 
H4    2    0.329870    0.158426   -0.090119    11.00000   -1.20000 
AFIX   0 
C5    1    0.570514    0.211327    0.015266    11.00000    0.07790    0.05058 = 
         0.06098   -0.01286    0.00088    0.00227 
AFIX  43 
H5    2    0.640340    0.139667   -0.028266    11.00000   -1.20000 
AFIX   0 
C6    1    0.652140    0.306252    0.115765    11.00000    0.05359    0.05272 = 
         0.05975   -0.00772   -0.00061    0.00374 
AFIX  43 
H6    2    0.777711    0.299194    0.138152    11.00000   -1.20000 
AFIX   0 
C7    1    0.550088    0.413401    0.185160    11.00000    0.04203    0.04457 = 
         0.04386   -0.00035   -0.00045   -0.00244 
C8    1    0.643967    0.509512    0.289341    11.00000    0.03342    0.05117 = 
         0.04937   -0.00469   -0.00330    0.00037 
AFIX  43 
H8    2    0.769347    0.494273    0.305980    11.00000   -1.20000 
AFIX   0 
C9    1    0.569967    0.618432    0.364761    11.00000    0.03318    0.04759 = 
         0.04047   -0.00020   -0.00054   -0.00200 
C10   1    0.674939    0.716352    0.468559    11.00000    0.03794    0.04627 = 
         0.04041   -0.00097   -0.00049   -0.00260 
C11   1    0.866427    0.709094    0.485398    11.00000    0.03855    0.08150 = 
         0.06851   -0.02982   -0.00147    0.00042 
AFIX  43 
H11   2    0.929215    0.641798    0.430965    11.00000   -1.20000 
AFIX   0 
C12   1    0.964462    0.800466    0.581838    11.00000    0.03924    0.08791 = 
         0.07174   -0.02375   -0.00671   -0.00494 
AFIX  43 
H12   2    1.092430    0.793296    0.590695    11.00000   -1.20000 
AFIX   0 
C13   1    0.878708    0.901896    0.665334    11.00000    0.05743    0.04911 = 
         0.05097   -0.00348   -0.00963   -0.00632 
C14   1    0.689325    0.908417    0.650393    11.00000    0.05877    0.05470 = 
         0.05707   -0.01418   -0.00593    0.00657 
AFIX  43 
H14   2    0.627264    0.974804    0.706245    11.00000   -1.20000 
AFIX   0 
C15   1    0.589301    0.818059    0.553814    11.00000    0.04294    0.05667 = 
         0.05609   -0.01069   -0.00433    0.00464 
AFIX  43 
H15   2    0.461329    0.825633    0.545775    11.00000   -1.20000 
AFIX   0 
C16   1    0.988913    1.000158    0.770656    11.00000    0.07677    0.06884 = 
         0.07054   -0.01760   -0.02251   -0.00670 
AFIX 137 
H16A  2    0.945916    1.101170    0.768469    11.00000   -1.50000 
H16B  2    1.117858    1.001258    0.749631    11.00000   -1.50000 
H16C  2    0.972994    0.960487    0.860796    11.00000   -1.50000 
AFIX   0 
HKLF 4 
  
REM  mo_dd21176_0m_a.res in P-1 
REM R1 =  0.0375 for    2160 Fo > 4sig(Fo)  and  0.0416 for all    2401 data 
REM    164 parameters refined using      0 restraints 
  
END 
  
WGHT      0.0622      0.1111 
  
REM Instructions for potential hydrogen bonds 
HTAB C8 O1_$1 
  
REM Highest difference peak  0.238,  deepest hole -0.168,  1-sigma level  0.033 
Q1    1   0.3033  0.5953  0.2751  11.00000  0.05    0.24 
Q2    1   0.6230  0.6719  0.4160  11.00000  0.05    0.20 
Q3    1   0.4580  0.4141  0.1775  11.00000  0.05    0.18 
Q4    1   0.5941  0.4732  0.2126  11.00000  0.05    0.17 
Q5    1   0.3268  0.3630  0.1139  11.00000  0.05    0.17 
Q6    1   0.8988  1.0570  0.8480  11.00000  0.05    0.17 
Q7    1   1.1001  0.9446  0.8235  11.00000  0.05    0.16 
Q8    1   0.9242  0.8049  0.5022  11.00000  0.05    0.16 
Q9    1   0.6375  0.8019  0.4805  11.00000  0.05    0.15 
Q10   1   1.0497  1.1075  0.7248  11.00000  0.05    0.15 
Q11   1   0.2990  0.4655  0.1864  11.00000  0.05    0.14 
Q12   1   0.9075  0.7688  0.5242  11.00000  0.05    0.13 
Q13   1   0.9301  0.9533  0.7145  11.00000  0.05    0.13 
Q14   1   0.6392  0.8449  0.6249  11.00000  0.05    0.13 
Q15   1   0.9015  0.7395  0.5520  11.00000  0.05    0.13 
Q16   1   0.0950  0.4522  0.2333  11.00000  0.05    0.12 
Q17   1   0.7620  0.7248  0.4604  11.00000  0.05    0.12 
Q18   1   0.7950  0.9319  0.6203  11.00000  0.05    0.12 
Q19   1   0.7855  0.7479  0.4383  11.00000  0.05    0.12 
Q20   1   0.5856  0.5354  0.3616  11.00000  0.05    0.12 
;
_shelx_res_checksum              46838
_shelx_hkl_file
; 
  -2   0   0    0.40    0.70 
   2   0   0    1.90    0.80 
   2   0   0    0.20    0.60 
  -4   0   0 5028.00  143.39 
  -4   0   0 4897.01  144.49 
  -4   0   0 5251.17  144.79 
  -4   0   0 5072.89  142.89 
   4   0   0 5132.69  144.69 
   4   0   0 5272.27  145.19 
  -5   0   0  330.87   14.90 
  -5   0   0  310.07   12.90 
  -5   0   0  323.87   14.70 
  -5   0   0  314.47   13.50 
   5   0   0  332.77   15.10 
   5   0   0  331.87   14.80 
  -6   0   0  277.87   12.60 
  -6   0   0  272.97   11.90 
  -6   0   0  282.27   14.30 
  -6   0   0  252.37   13.70 
   6   0   0  281.37   14.20 
   6   0   0  252.57   14.00 
  -7   0   0   85.79    7.80 
  -7   0   0   87.09    6.80 
   7   0   0   82.29   14.60 
  -8   0   0   62.59    5.80 
  -8   0   0   75.29    6.30 
  -8   0   0   77.39    8.10 
   8   0   0   81.09    8.60 
  -9   0   0  426.26   22.70 
  -9   0   0  465.75   19.20 
   9   0   0  478.75   24.50 
   9  -1   0  106.79   10.90 
  -9   1   0  102.09   10.40 
  -9   1   0  102.49    8.50 
   8  -1   0  691.63   30.20 
  -8   1   0  748.43   27.30 
  -8   1   0  645.64   27.10 
  -8   1   0  701.63   29.50 
   7  -1   0   39.60    6.10 
  -7   1   0   53.19    6.30 
  -7   1   0   47.20    5.20 
  -7   1   0   46.70    4.40 
   6  -1   0   30.30    4.60 
   6  -1   0   22.20    4.30 
  -6   1   0   35.90    3.60 
  -6   1   0   28.30    4.70 
  -6   1   0   24.10    4.10 
  -6   1   0   22.20    4.40 
   5  -1   0  636.84   22.90 
   5  -1   0  662.83   24.60 
   5  -1   0  652.23   23.90 
  -5   1   0  632.24   21.60 
  -5   1   0  619.74   22.90 
  -5   1   0  599.94   23.30 
  -5   1   0  631.94   23.80 
   4  -1   0  238.98   11.10 
   4  -1   0  233.58   11.20 
   4  -1   0  234.98   10.50 
  -4   1   0  232.28    9.70 
  -4   1   0  232.38   10.60 
  -4   1   0  226.98   10.90 
  -4   1   0  242.08   10.90 
   3  -1   0   37.80    3.40 
   3  -1   0   40.80    3.30 
   3  -1   0   40.80    3.60 
  -3   1   0   42.70    3.00 
  -3   1   0   43.90    3.60 
  -3   1   0   38.40    3.40 
   0   1   0    0.10    0.10 
  -1  -1   0 2161.68   55.59 
  -1  -1   0 1955.50   55.59 
   1   1   0 1847.32   55.59 
   1   1   0 2004.70   55.59 
   1   1   0 1980.70   55.79 
  -2  -1   0  379.46   13.30 
  -2  -1   0  380.86   13.50 
  -2  -1   0  417.26   13.00 
   2   1   0  375.06   16.90 
   2   1   0  391.66   13.20 
   2   1   0  401.86   13.60 
  -3  -1   0 2035.90   59.49 
  -3  -1   0 2040.60   60.19 
  -3  -1   0 2010.10   60.59 
  -3  -1   0 2139.79   59.29 
   3   1   0 2036.60   59.79 
   3   1   0 2100.49   60.49 
   3   1   0 2044.30   60.49 
  -4  -1   0 1005.40   32.60 
  -4  -1   0  956.60   30.90 
  -4  -1   0  973.80   32.00 
  -4  -1   0  984.00   30.50 
   4   1   0  974.40   32.10 
   4   1   0  951.00   31.20 
   4   1   0  971.70   32.30 
  -5  -1   0    8.10    2.50 
  -5  -1   0    9.90    2.30 
  -5  -1   0   10.00    2.30 
  -5  -1   0    5.30    2.40 
   5   1   0    8.00    2.30 
   5   1   0    6.60    2.50 
  -6  -1   0   29.80    5.00 
  -6  -1   0   26.10    4.50 
  -6  -1   0   27.10    3.40 
  -6  -1   0   24.90    3.90 
   6   1   0   22.50    4.50 
   6   1   0   31.40    5.60 
  -7  -1   0 1152.78   42.10 
  -7  -1   0 1265.57   39.10 
   7   1   0 1183.48   43.20 
  -8  -1   0  294.27   16.60 
  -8  -1   0  315.57   13.80 
  -8  -1   0  298.67   13.60 
   8   1   0  264.97   16.70 
  -9  -1   0   90.19    9.70 
  -9  -1   0  101.29    7.20 
   9   1   0   91.19    9.90 
   9  -2   0    3.20    4.10 
  -9   2   0   10.50    3.60 
  -9   2   0    3.60    2.90 
   8  -2   0   94.89    9.40 
  -8   2   0   94.09    8.40 
  -8   2   0   95.39    9.10 
  -7   2   0   64.99    6.30 
  -7   2   0   49.99    4.60 
  -7   2   0   48.50    6.00 
   6  -2   0  158.28   10.40 
   6  -2   0  149.29   10.50 
  -6   2   0  163.88   10.10 
  -6   2   0  162.28   10.20 
  -6   2   0  157.68   10.00 
   5  -2   0  264.97   12.60 
   5  -2   0  255.97   12.80 
   5  -2   0  257.57   13.20 
  -5   2   0  232.08   13.20 
  -5   2   0  262.87   11.10 
  -5   2   0  295.27   13.50 
   4  -2   0 4504.95  127.19 
   4  -2   0 4335.97  126.19 
   4  -2   0 4658.73  127.09 
  -4   2   0 4397.16  125.89 
  -4   2   0 4436.86  124.69 
  -4   2   0 4314.37  126.69 
   2  -2   0   93.29    4.80 
   2  -2   0   94.89    5.00 
   2  -2   0   93.39    4.90 
  -2   2   0   94.89    4.70 
  -2   2   0   94.79    6.00 
  -2   2   0   88.59    4.40 
   0  -2   0 1133.59   32.60 
   0  -2   0 1128.19   32.60 
   0  -2   0 1096.79   32.10 
   0   2   0 1132.09   32.70 
   0   2   0 1121.79   32.10 
   0   2   0 1142.09   32.60 
  -1  -2   0   14.50    1.40 
  -1  -2   0   11.30    1.70 
  -1  -2   0   15.20    1.60 
   1   2   0   16.00    1.50 
   1   2   0   16.90    1.70 
   1   2   0   14.00    1.60 
  -2  -2   0 1748.03   51.29 
  -2  -2   0 1726.33   51.79 
  -2  -2   0 1794.92   50.99 
   2   2   0 1772.32   52.19 
   2   2   0 1850.91   51.59 
   2   2   0 1753.92   51.59 
  -3  -2   0 1076.39   34.90 
  -3  -2   0 1049.59   34.30 
  -3  -2   0 1214.18   33.70 
   3   2   0 1108.09   34.50 
   3   2   0 1103.39   34.90 
   3   2   0 1093.09   34.80 
  -4  -2   0  182.28    8.00 
  -4  -2   0  161.38    9.20 
  -4  -2   0  173.28    9.00 
   4   2   0  161.28    8.70 
   4   2   0  160.38    8.90 
   4   2   0  157.48    8.90 
  -5  -2   0  281.07   13.20 
  -5  -2   0  311.57   14.30 
  -5  -2   0  307.77   15.00 
  -5  -2   0  338.17   12.80 
   5   2   0  297.97   13.70 
   5   2   0  319.67   14.80 
   5   2   0  312.57   14.60 
  -6  -2   0  357.86   15.80 
  -6  -2   0  376.36   17.90 
  -6  -2   0  357.76   17.90 
  -6  -2   0  409.86   15.20 
   6   2   0  364.26   17.50 
  -7  -2   0  565.84   24.30 
  -7  -2   0  568.94   22.20 
  -7  -2   0  599.44   22.90 
   7   2   0  558.14   24.80 
  -8  -2   0  448.16   16.70 
  -8  -2   0  371.06   19.40 
  -8  -2   0  379.46   16.90 
   8   2   0  337.37   19.70 
  -9  -2   0    9.30    3.70 
  -9  -2   0    4.70    2.70 
   9   2   0   14.10    6.50 
   9  -3   0  160.48   13.60 
  -9   3   0  172.38   12.20 
  -8   3   0   28.40    5.70 
  -8   3   0   21.10    5.30 
   7  -3   0   13.00    3.50 
   7  -3   0    5.10    3.20 
  -7   3   0   17.50    4.20 
  -7   3   0    9.50    3.10 
   6  -3   0 1380.36   46.70 
   6  -3   0 1446.56   48.40 
   6  -3   0 1368.06   47.00 
  -6   3   0 1395.56   47.40 
  -6   3   0 1447.66   44.00 
   5  -3   0 1120.59   37.10 
   5  -3   0 1143.49   37.90 
  -5   3   0 1070.09   37.00 
  -5   3   0 1034.40   37.00 
  -5   3   0 1077.09   35.80 
   4  -3   0  304.77   13.80 
   4  -3   0  341.97   14.40 
   4  -3   0  326.87   14.10 
  -4   3   0  319.07   14.20 
  -4   3   0  329.97   13.30 
  -4   3   0  320.17   12.60 
   3  -3   0 1457.15   45.20 
   3  -3   0 1511.05   45.30 
   3  -3   0 1513.15   45.20 
  -3   3   0 1448.26   44.00 
  -3   3   0 1447.46   45.30 
  -3   3   0 1525.35   44.40 
   2  -3   0 3739.23  102.59 
   2  -3   0 3701.43  102.99 
   2  -3   0 3643.94  102.99 
  -2   3   0 3530.05  102.99 
  -2   3   0 3662.53  102.19 
  -2   3   0 3602.94  102.29 
   1  -3   0  190.98    7.40 
   1  -3   0  188.48    7.70 
   1  -3   0  190.38    7.80 
  -1   3   0  179.18    7.60 
  -1   3   0  189.28    7.20 
  -1   3   0  185.38    7.80 
   0  -3   0  730.23   22.50 
   0  -3   0  718.23   21.80 
   0  -3   0  729.33   22.40 
   0   3   0  700.53   21.60 
   0   3   0  696.23   22.40 
  -1  -3   0   22.40    2.30 
  -1  -3   0   24.90    2.40 
  -1  -3   0   28.30    2.20 
   1   3   0   22.90    2.40 
   1   3   0   18.40    1.90 
   1   3   0   23.80    2.30 
  -2  -3   0  396.46   14.00 
  -2  -3   0  396.46   14.20 
   2   3   0  399.96   14.80 
   2   3   0  394.06   14.50 
   2   3   0  415.36   14.60 
  -3  -3   0 1618.04   47.00 
  -3  -3   0 1588.94   48.40 
  -3  -3   0 1532.45   47.20 
   3   3   0 1570.84   48.20 
   3   3   0 1583.24   48.00 
   3   3   0 1552.24   47.80 
  -4  -3   0    4.20    1.60 
  -4  -3   0    2.40    1.50 
  -4  -3   0    1.00    1.30 
   4   3   0    0.50    1.40 
   4   3   0    4.20    2.00 
   4   3   0    5.20    2.00 
  -5  -3   0   98.29    7.30 
  -5  -3   0  114.79    8.50 
  -5  -3   0  109.19    6.50 
   5   3   0   95.79    7.60 
   5   3   0  107.29    7.80 
   5   3   0  100.19    7.60 
  -6  -3   0 1274.57   41.90 
  -6  -3   0 1216.28   41.00 
   6   3   0 1200.08   42.80 
   6   3   0 1222.78   42.30 
  -7  -3   0   86.49    6.30 
  -7  -3   0   69.59    6.90 
  -7  -3   0   60.19    6.50 
   7   3   0   79.09    7.90 
  -8  -3   0   75.59    7.60 
  -8  -3   0   67.19    5.80 
   8   3   0   49.60    8.00 
   8  -4   0  222.88   14.50 
   8  -4   0  210.88   15.60 
  -8   4   0  222.48   14.60 
  -8   4   0  222.88   14.80 
   7  -4   0  181.98   12.40 
   7  -4   0  199.18   13.50 
  -7   4   0  182.28   12.40 
   6  -4   0 1131.59   40.80 
   6  -4   0 1118.89   39.90 
   6  -4   0 1156.38   40.30 
  -6   4   0 1116.99   40.10 
   5  -4   0 1622.64   52.09 
   5  -4   0 1568.34   52.49 
   5  -4   0 1638.54   52.69 
  -5   4   0 1660.63   49.90 
  -5   4   0 1627.74   52.59 
   4  -4   0    8.00    2.30 
   4  -4   0   12.00    3.10 
   4  -4   0    5.60    2.40 
  -4   4   0    7.10    2.30 
  -4   4   0    8.40    2.00 
  -4   4   0    6.40    1.90 
   3  -4   0  135.39    7.80 
   3  -4   0  133.69    7.40 
   3  -4   0  139.59    7.80 
  -3   4   0  136.49    7.10 
  -3   4   0  128.39    7.70 
  -3   4   0  136.49    7.10 
   2  -4   0 5094.89  140.19 
   2  -4   0 5074.39  140.89 
   2  -4   0 4831.22  142.49 
  -2   4   0 5091.79  139.89 
  -2   4   0 5014.30  140.99 
  -2   4   0 4944.31  140.29 
   1  -4   0 1712.03   49.10 
   1  -4   0 1608.94   48.10 
   1  -4   0 1687.53   49.10 
  -1   4   0 1598.14   50.99 
  -1   4   0 1649.54   48.00 
  -1   4   0 1634.04   48.90 
   0  -4   0    1.70    1.00 
   0  -4   0    2.20    1.10 
   0  -4   0    0.40    0.60 
   0   4   0    2.40    0.90 
   0   4   0    1.50    1.00 
   0   4   0    1.60    1.10 
  -1  -4   0  998.30   29.80 
  -1  -4   0  923.41   30.60 
  -1  -4   0 1001.20   30.60 
   1   4   0  953.50   30.80 
   1   4   0  953.10   30.90 
   1   4   0  985.20   29.70 
  -2  -4   0 2239.08   62.89 
  -2  -4   0 2257.87   63.59 
  -2  -4   0 2158.58   63.99 
   2   4   0 2139.39   63.89 
   2   4   0 2014.30   63.49 
   2   4   0 2161.08   63.19 
  -3  -4   0  215.78    9.80 
  -3  -4   0  215.68   10.60 
  -3  -4   0  199.88    9.50 
   3   4   0  211.48   10.40 
   3   4   0  219.88   10.70 
   3   4   0  201.08   10.20 
  -4  -4   0  441.26   17.20 
  -4  -4   0  427.16   16.50 
  -4  -4   0  426.86   18.10 
   4   4   0  421.46   17.90 
   4   4   0  445.36   18.20 
   4   4   0  418.86   17.80 
  -5  -4   0  177.48    9.30 
  -5  -4   0  170.88   11.20 
  -5  -4   0  152.38    9.70 
   5   4   0  169.48   10.60 
   5   4   0  167.08   10.80 
  -6  -4   0  449.95   19.90 
  -6  -4   0  495.65   18.60 
   6   4   0  495.65   21.80 
   6   4   0  425.96   20.40 
  -7  -4   0    0.70    2.40 
  -7  -4   0    6.70    2.60 
   7   4   0    0.40    2.70 
  -8  -4   0   23.20    5.70 
  -8  -4   0   33.40    4.50 
   8   4   0   28.20    6.50 
   8  -5   0  246.98   16.80 
   8  -5   0  251.77   16.40 
  -8   5   0  268.07   20.90 
  -8   5   0  258.27   18.50 
   7  -5   0  641.54   28.60 
   7  -5   0  664.23   29.70 
  -7   5   0  697.93   28.90 
   6  -5   0  159.18   11.50 
   6  -5   0  151.98   11.10 
   6  -5   0  166.88   11.40 
  -6   5   0  156.58   11.00 
   5  -5   0  115.29    9.10 
   5  -5   0  111.59    9.20 
   5  -5   0  112.29    8.80 
  -5   5   0  117.89    9.20 
   4  -5   0 1795.72   57.09 
   4  -5   0 1845.62   57.39 
   4  -5   0 1851.91   58.09 
  -4   5   0 1853.51   57.79 
   3  -5   0  320.37   13.70 
   3  -5   0  334.47   14.60 
   3  -5   0  334.87   14.40 
  -3   5   0  319.77   13.20 
  -3   5   0  321.77   13.60 
  -3   5   0  328.17   14.50 
   2  -5   0  630.54   22.30 
   2  -5   0  647.24   21.60 
   2  -5   0  620.44   22.20 
  -2   5   0  605.54   20.90 
  -2   5   0  615.44   22.00 
  -2   5   0  622.44   22.30 
   1  -5   0   13.40    2.80 
   1  -5   0    4.90    1.50 
   1  -5   0    2.80    1.50 
  -1   5   0    3.10    1.40 
  -1   5   0    4.40    1.30 
  -1   5   0    6.60    2.00 
   0  -5   0  109.09    5.90 
   0  -5   0  101.99    6.70 
   0   5   0   96.29    5.50 
   0   5   0  104.49    6.20 
   0   5   0   97.69    6.60 
  -1  -5   0 1676.93   47.70 
  -1  -5   0 1491.45   45.70 
   1   5   0 1522.75   46.70 
   1   5   0 1472.25   45.50 
   1   5   0 1477.05   48.00 
  -2  -5   0 8445.06  257.47 
  -2  -5   0 9573.54  258.07 
   2   5   0 9409.06  257.97 
   2   5   0 9999.00  258.07 
   2   5   0 8872.61  263.77 
  -3  -5   0   87.19    6.80 
  -3  -5   0   87.19    6.10 
  -3  -5   0   97.99    6.60 
   3   5   0   89.69    6.80 
   3   5   0  108.49    7.40 
   3   5   0   86.39    6.40 
  -4  -5   0  144.49    9.60 
  -4  -5   0  144.09    8.50 
  -4  -5   0  139.39    8.40 
   4   5   0  147.29    9.40 
   4   5   0  144.39    9.60 
  -5  -5   0 4617.54  140.89 
  -5  -5   0 4971.50  138.19 
  -5  -5   0 4920.81  137.09 
   5   5   0 4635.64  139.69 
  -6  -5   0  451.25   19.90 
  -6  -5   0  423.46   18.10 
   6   5   0  468.85   21.60 
  -7  -5   0   15.40    3.90 
  -7  -5   0   15.10    3.60 
   7   5   0   20.40    4.80 
  -8  -5   0   29.40    5.00 
  -8  -5   0   28.80    6.90 
   8  -6   0   18.70    5.10 
   8  -6   0   13.50    5.10 
   7  -6   0  215.08   15.00 
   7  -6   0  233.58   15.70 
  -7   6   0  219.68   14.50 
   6  -6   0  467.25   23.00 
   6  -6   0  468.25   22.40 
  -6   6   0  493.95   22.70 
   5  -6   0  381.66   18.90 
   5  -6   0  382.96   18.30 
   5  -6   0  404.66   18.50 
  -5   6   0  374.76   18.30 
   4  -6   0  130.09    8.70 
   4  -6   0  125.49    9.30 
   4  -6   0  117.09    8.50 
  -4   6   0  120.59    8.60 
   3  -6   0 1358.56   44.60 
   3  -6   0 1343.57   43.90 
   3  -6   0 1359.46   43.40 
  -3   6   0 1355.76   44.20 
   2  -6   0   94.79    7.60 
   2  -6   0  106.99    7.10 
   2  -6   0   90.89    6.80 
  -2   6   0   97.49    6.10 
  -2   6   0  103.99    7.00 
   1  -6   0   59.59    4.80 
   1  -6   0   59.69    5.30 
   1  -6   0   62.99    5.30 
  -1   6   0   61.59    4.50 
  -1   6   0   61.79    5.20 
   0  -6   0  519.65   18.60 
   0  -6   0  484.55   19.60 
   0  -6   0  532.25   19.80 
   0   6   0  524.95   19.40 
   0   6   0  507.65   18.20 
  -1  -6   0   34.30    4.20 
  -1  -6   0   22.20    4.10 
  -1  -6   0   31.40    3.80 
   1   6   0   34.20    3.50 
   1   6   0   45.30    4.50 
  -2  -6   0  233.38   10.90 
  -2  -6   0  230.58   12.00 
  -2  -6   0  247.18   11.90 
   2   6   0  232.68   12.30 
   2   6   0  221.88   11.60 
  -3  -6   0  441.96   17.80 
  -3  -6   0  429.36   18.60 
  -3  -6   0  397.96   16.80 
   3   6   0  440.06   18.60 
  -4  -6   0  124.29    9.20 
  -4  -6   0  129.39    8.50 
  -4  -6   0  129.79    8.40 
   4   6   0  132.99    9.40 
  -5  -6   0  298.27   14.30 
  -5  -6   0  306.57   14.90 
  -5  -6   0  276.87   15.90 
   5   6   0  295.87   16.00 
  -6  -6   0    5.00    2.80 
  -6  -6   0    7.00    3.30 
   6   6   0    2.40    3.10 
  -7  -6   0    3.10    2.50 
  -7  -6   0    3.90    2.50 
   7   6   0   -3.20    2.70 
   7  -7   0   -3.40    2.20 
   7  -7   0   -2.00    3.00 
   6  -7   0   10.40    4.30 
  -6   7   0    8.80    3.60 
   5  -7   0   68.69    7.70 
   5  -7   0   79.39    8.90 
   5  -7   0   90.79    8.10 
  -5   7   0   83.99    7.70 
   4  -7   0   46.40    5.90 
   4  -7   0   42.40    5.20 
  -4   7   0   41.40    5.10 
   3  -7   0  164.38   10.40 
   3  -7   0  169.98   10.00 
   3  -7   0  174.98   11.10 
  -3   7   0  189.58   10.90 
   2  -7   0  152.58    9.00 
   2  -7   0  151.08    9.60 
   2  -7   0  152.28    9.70 
  -2   7   0  167.08    9.80 
   1  -7   0   35.20    4.10 
   1  -7   0   38.40    4.60 
   1  -7   0   34.80    4.50 
  -1   7   0   40.40    4.50 
   0  -7   0  255.37   12.70 
   0  -7   0  248.18   12.80 
   0  -7   0  238.38   11.40 
   0   7   0  232.08   11.90 
  -1  -7   0  975.90   33.80 
  -1  -7   0  981.90   34.50 
  -1  -7   0 1008.70   32.90 
   1   7   0  959.90   33.50 
  -2  -7   0   -0.80    1.80 
  -2  -7   0    0.30    1.70 
  -2  -7   0    1.60    1.40 
   2   7   0    0.50    1.50 
  -3  -7   0   24.10    4.20 
  -3  -7   0   36.50    5.80 
  -3  -7   0   31.10    4.60 
   3   7   0   31.50    5.10 
  -4  -7   0  184.08   10.70 
  -4  -7   0  175.28   10.70 
  -4  -7   0  167.88   11.70 
   4   7   0  163.58   11.20 
  -5  -7   0   87.39    7.40 
  -5  -7   0   99.89    8.20 
   5   7   0   96.29    8.70 
  -6  -7   0    0.90    2.50 
  -6  -7   0   -1.80    3.40 
   6   7   0    6.00    3.50 
  -7  -7   0    3.10    2.60 
  -7  -7   0   -0.40    2.80 
   7  -8   0   11.20    5.20 
   7  -8   0   17.80    5.70 
   6  -8   0   11.30    3.90 
   6  -8   0    3.30    3.20 
  -6   8   0    4.20    3.00 
   5  -8   0   29.70    5.20 
   5  -8   0   29.80    6.10 
  -5   8   0   33.10    5.60 
   4  -8   0  104.39    9.30 
   4  -8   0   91.99    8.20 
   4  -8   0  103.89    9.00 
  -4   8   0   90.89    8.40 
   3  -8   0    5.40    2.60 
   3  -8   0    8.60    2.90 
  -3   8   0    8.10    2.80 
   2  -8   0   60.19    5.80 
   2  -8   0   58.59    6.40 
  -2   8   0   56.69    6.10 
   1  -8   0  239.98   12.40 
   1  -8   0  240.98   13.50 
   1  -8   0  253.87   13.70 
  -1   8   0  255.17   13.00 
   0  -8   0   99.89    8.00 
   0  -8   0   95.19    7.20 
   0  -8   0   95.09    7.90 
   0   8   0   90.99    7.40 
  -1  -8   0   18.90    4.20 
  -1  -8   0   19.90    3.70 
  -1  -8   0   19.20    4.60 
   1   8   0   18.10    3.60 
  -2  -8   0  188.48   11.90 
  -2  -8   0  171.98   10.30 
  -2  -8   0  188.08   11.40 
   2   8   0  173.18   10.90 
  -3  -8   0   11.60    3.70 
  -3  -8   0    5.40    2.50 
   3   8   0    2.20    2.30 
  -4  -8   0   12.30    3.70 
  -4  -8   0    7.80    3.20 
   4   8   0    7.60    3.00 
  -5  -8   0   78.39    8.10 
  -5  -8   0   74.09    7.30 
   5   8   0   70.89    8.20 
  -6  -8   0    6.50    3.10 
  -6  -8   0    3.40    3.20 
   6  -9   0    5.50    4.50 
   6  -9   0    3.30    4.30 
   5  -9   0    3.20    2.70 
   4  -9   0   95.59    9.90 
   4  -9   0   99.29    9.00 
  -4   9   0   89.99    8.50 
   3  -9   0  109.89   10.30 
   3  -9   0  108.99    9.30 
   3  -9   0  122.79   10.00 
  -3   9   0  122.29    9.50 
   2  -9   0   13.70    4.00 
   2  -9   0   14.30    4.10 
   2  -9   0   11.70    3.10 
  -2   9   0   14.30    3.80 
   1  -9   0   53.39    7.10 
   1  -9   0   52.59    6.10 
   1  -9   0   57.59    7.00 
  -1   9   0   55.69    6.30 
   0  -9   0  111.89   11.40 
   0  -9   0  133.49   10.20 
   0  -9   0  126.59    9.20 
   0   9   0  121.49    9.30 
  -1  -9   0  189.08   12.30 
  -1  -9   0  159.58   10.50 
  -1  -9   0  176.38   12.20 
   1   9   0  167.88   11.20 
  -2  -9   0   -0.80    2.20 
  -2  -9   0    1.10    2.20 
  -2  -9   0    5.30    3.30 
   2   9   0   -0.50    1.70 
  -3  -9   0   18.00    4.40 
  -3  -9   0   27.10    4.70 
   3   9   0   15.70    4.10 
  -4  -9   0   68.29    7.60 
  -4  -9   0   72.09    7.60 
   4   9   0   80.99    8.20 
  -5  -9   0   55.79    6.90 
  -5  -9   0   30.30    5.90 
   4 -10   0    5.70    3.40 
   3 -10   0   45.30    6.80 
   3 -10   0   47.60    8.00 
  -3  10   0   56.29    9.40 
   2 -10   0  168.48   13.10 
   2 -10   0  159.58   11.30 
  -2  10   0  158.58   11.70 
   1 -10   0   49.20   10.80 
   1 -10   0   54.79    7.20 
  -1  10   0   56.59    6.30 
   0 -10   0  170.78   12.70 
   0 -10   0  144.79   17.00 
   0  10   0  164.38   11.50 
  -1 -10   0    2.30    2.80 
  -1 -10   0    5.50    3.50 
   1  10   0    5.80    3.00 
  -2 -10   0    1.60    2.60 
  -2 -10   0   -1.30    2.30 
   2  10   0   -0.50    3.20 
  -3 -10   0   38.60    5.90 
  -3 -10   0   35.10    6.20 
  -4 -10   0   19.70    5.00 
  -4 -10   0   13.70    3.80 
   3 -11   0   12.40    4.30 
   3 -11   0    7.50    4.20 
   2 -11   0    9.70    4.40 
   2 -11   0   13.10    4.10 
   1 -11   0   78.29    9.60 
   1 -11   0   85.69    8.40 
   0 -11   0    0.70    2.70 
   0 -11   0    2.30    3.90 
  -1 -11   0    5.80    3.90 
  -1 -11   0   -0.30    3.20 
  -2 -11   0    2.20    3.20 
  -2 -11   0   -0.60    2.70 
  -2 -11   1   24.90    5.90 
  -2 -11   1   39.30    6.40 
  -1 -11   1  289.17   16.60 
  -1 -11   1  296.07   18.00 
   0 -11   1   82.79    9.40 
   1 -11   1    7.30    3.60 
   1 -11   1   18.90    5.70 
   2 -11   1   31.70    6.80 
   2 -11   1   21.40    5.10 
   3 -11   1   21.50    5.10 
   3 -11   1    4.80    4.10 
  -4 -10   1    8.40    3.30 
  -4 -10   1   14.00    6.60 
   3  10  -1    3.40    4.60 
  -3 -10   1    2.30    3.30 
  -3 -10   1    5.60    3.20 
   2  10  -1  299.97   17.00 
  -2 -10   1  287.37   17.10 
  -2 -10   1  290.07   15.90 
   1  10  -1  498.25   22.90 
  -1 -10   1  493.55   23.50 
  -1 -10   1  485.55   22.20 
   0  10  -1   22.50    4.60 
   0 -10   1   28.20    5.10 
   0 -10   1   31.70    6.50 
  -1  10  -1   32.80    5.60 
   1 -10   1   27.50    5.20 
   1 -10   1   46.20    6.80 
  -2  10  -1  188.28   12.50 
   2 -10   1  172.18   12.70 
   2 -10   1  179.28   12.10 
  -3  10  -1   17.00    4.50 
   3 -10   1   11.10    3.70 
   3 -10   1   11.40    4.10 
   4 -10   1   18.30    5.20 
   4 -10   1   15.20    4.30 
  -5  -9   1    1.10    2.60 
  -5  -9   1    1.20    2.90 
   4   9  -1   33.40    6.40 
  -4  -9   1   38.50    6.30 
  -4  -9   1   32.10    6.00 
   3   9  -1   21.10    4.30 
  -3  -9   1   19.10    3.90 
  -3  -9   1   16.30    4.40 
   2   9  -1    2.20    2.40 
  -2  -9   1    2.60    2.70 
  -2  -9   1    2.90    2.30 
   1   9  -1   58.29    6.50 
  -1  -9   1   43.60    5.80 
  -1  -9   1   49.40    6.60 
   0   9  -1  100.69    8.60 
   0  -9   1  117.39    8.80 
   0  -9   1  103.49    9.10 
  -1   9  -1   26.20    4.80 
   1  -9   1   19.60    4.20 
   1  -9   1   27.40    5.20 
  -2   9  -1   58.39    6.90 
   2  -9   1   73.69    7.00 
   2  -9   1   68.69    7.20 
  -3   9  -1   44.60    5.70 
   3  -9   1   32.80    5.30 
   3  -9   1   35.80    6.30 
  -4   9  -1    2.50    3.20 
   4  -9   1    2.80    2.90 
   4  -9   1   -1.10    2.60 
  -5   9  -1   61.99    7.80 
   5  -9   1   69.59    7.60 
   5  -9   1   56.19    7.80 
   6  -9   1   82.39    9.40 
   6  -9   1   51.69    8.80 
  -6  -8   1   -0.40    3.00 
  -6  -8   1    0.10    2.40 
   5   8  -1    3.10    3.00 
  -5  -8   1    0.10    2.20 
  -5  -8   1    4.50    2.90 
   4   8  -1    2.50    2.80 
  -4  -8   1    4.70    2.90 
  -4  -8   1    2.70    2.60 
   3   8  -1    9.40    3.50 
  -3  -8   1   11.50    3.60 
  -3  -8   1   11.30    3.20 
   2   8  -1   11.20    3.40 
  -2  -8   1   16.10    4.00 
  -2  -8   1   16.10    3.40 
   1   8  -1    5.00    1.80 
  -1  -8   1   -2.10    1.90 
  -1  -8   1    3.20    2.50 
  -1  -8   1   -1.00    1.40 
   0   8  -1   72.59    6.50 
   0  -8   1   75.19    7.10 
   0  -8   1   69.19    6.20 
   0  -8   1   77.09    7.20 
  -1   8  -1  102.19    7.90 
   1  -8   1   93.99    8.00 
   1  -8   1  105.89    7.60 
   1  -8   1  104.89    8.20 
  -2   8  -1   23.00    4.50 
   2  -8   1   23.60    5.10 
   2  -8   1   18.20    4.00 
   2  -8   1   14.80    3.40 
  -3   8  -1  149.99   10.30 
   3  -8   1  139.69   11.30 
   3  -8   1  162.58   10.10 
   3  -8   1  152.08   10.70 
  -4   8  -1   41.30    6.50 
   4  -8   1   59.09    6.80 
   4  -8   1   59.39    6.70 
  -5   8  -1   51.99    6.80 
   5  -8   1   58.19    7.00 
   5  -8   1   55.89    7.40 
  -6   8  -1   53.19   10.50 
   6  -8   1   59.29    7.80 
   6  -8   1   46.80    8.00 
  -7  -7   1   40.10    5.90 
  -7  -7   1   55.79    7.10 
  -6  -7   1  217.58   13.10 
  -6  -7   1  184.68   12.20 
   5   7  -1   57.29    7.10 
  -5  -7   1   50.09   10.20 
  -5  -7   1   44.60    5.90 
   4   7  -1   20.10    4.30 
  -4  -7   1   24.30    4.30 
  -4  -7   1   27.60    4.90 
   3   7  -1  199.68   12.00 
  -3  -7   1  208.38   11.10 
  -3  -7   1  194.18   11.60 
  -3  -7   1  210.08   12.30 
   2   7  -1  147.19    9.60 
  -2  -7   1  162.78    9.10 
  -2  -7   1  144.29    9.50 
  -2  -7   1  143.19   10.50 
   1   7  -1  256.87   12.90 
  -1  -7   1  252.37   13.20 
  -1  -7   1  247.68   12.80 
  -1  -7   1  240.38   11.90 
   0   7  -1  140.99    9.00 
   0  -7   1  159.58    9.70 
   0  -7   1  161.58    9.80 
   0  -7   1  124.79   12.30 
  -1   7  -1  216.48   11.40 
   1  -7   1  192.08   12.40 
   1  -7   1  211.08   11.50 
   1  -7   1  210.48   11.40 
  -2   7  -1   -2.30    1.20 
   2  -7   1    3.20    2.40 
   2  -7   1    2.20    1.90 
   2  -7   1    1.50    1.40 
  -3   7  -1   26.00    4.80 
   3  -7   1   28.10    4.70 
   3  -7   1   25.00    4.40 
   3  -7   1   24.10    4.60 
  -4   7  -1  206.88   12.90 
   4  -7   1  217.78   12.80 
   4  -7   1  218.28   12.80 
   4  -7   1  225.88   12.60 
  -5   7  -1    0.90    2.20 
   5  -7   1    2.50    2.80 
   5  -7   1    5.10    2.60 
  -6   7  -1  130.99   13.40 
   6  -7   1  125.49   10.90 
   6  -7   1  127.29   11.10 
  -7   7  -1  132.79   11.80 
   7  -7   1  147.29   13.00 
   7  -7   1  158.98   13.00 
   7   6  -1   86.09    9.10 
  -7  -6   1   73.29    7.30 
  -7  -6   1   76.79    7.70 
   6   6  -1  123.59   12.30 
  -6  -6   1  129.49    9.40 
  -6  -6   1  148.89   10.20 
   5   6  -1  421.26   20.30 
  -5  -6   1  389.86   18.00 
  -5  -6   1  393.46   17.90 
   4   6  -1    6.10    2.40 
  -4  -6   1   14.70    3.30 
  -4  -6   1   16.00    3.70 
  -4  -6   1    7.70    2.90 
   3   6  -1   55.69    9.50 
   3   6  -1   41.40    5.20 
  -3  -6   1   50.49    5.40 
  -3  -6   1   54.19    5.50 
  -3  -6   1   43.30    4.80 
   2   6  -1  225.18   11.30 
   2   6  -1  256.87   12.60 
  -2  -6   1  249.08   12.50 
  -2  -6   1  234.68   12.20 
  -2  -6   1  246.78   11.40 
   1   6  -1  224.08   10.30 
   1   6  -1  211.78   11.00 
  -1  -6   1  226.58   10.40 
  -1  -6   1  220.48   11.20 
  -1  -6   1  211.68   11.20 
   0   6  -1  174.18   11.40 
   0   6  -1  162.38    9.30 
   0  -6   1  183.88    9.00 
   0  -6   1  171.78    9.70 
   0  -6   1  176.48    9.60 
  -1   6  -1 2059.69   61.29 
   1  -6   1 1966.70   59.99 
   1  -6   1 2039.00   61.09 
   1  -6   1 1970.50   61.29 
  -2   6  -1   24.50    4.10 
   2  -6   1   21.70    3.60 
   2  -6   1   20.80    3.90 
   2  -6   1   17.50    3.60 
  -3   6  -1  324.07   14.20 
  -3   6  -1  339.87   15.70 
   3  -6   1  337.47   15.50 
   3  -6   1  354.56   15.20 
   3  -6   1  339.47   15.30 
  -4   6  -1 1234.18   41.40 
   4  -6   1 1105.39   39.90 
   4  -6   1 1171.98   40.40 
   4  -6   1 1258.27   41.00 
  -5   6  -1  748.63   29.90 
   5  -6   1  758.32   29.60 
   5  -6   1  761.52   29.60 
  -6   6  -1   86.99    8.80 
   6  -6   1   73.79    8.10 
   6  -6   1   77.79    8.40 
  -7   6  -1   20.60    5.00 
   7  -6   1    3.10    3.70 
   7  -6   1    5.30    4.70 
   8  -6   1    1.10    3.20 
   8  -6   1    5.20    3.80 
   8   5  -1   26.00    6.80 
  -8  -5   1   32.20    7.90 
   7   5  -1   27.20    5.60 
  -7  -5   1   22.40    4.60 
  -7  -5   1   16.90    4.20 
   6   5  -1 1026.10   38.60 
  -6  -5   1 1032.90   36.50 
  -6  -5   1 1022.40   35.60 
   5   5  -1  689.93   27.60 
  -5  -5   1  649.43   25.10 
  -5  -5   1  722.13   25.90 
  -5  -5   1  676.63   27.80 
   4   5  -1    1.30    1.80 
   4   5  -1    2.40    2.30 
  -4  -5   1    4.60    2.10 
  -4  -5   1    5.10    2.30 
   3   5  -1   41.50    4.80 
   3   5  -1   44.60    5.10 
   3   5  -1   46.30    5.20 
  -3  -5   1   38.90    4.60 
  -3  -5   1   51.79    4.90 
  -3  -5   1   46.50    4.30 
   2   5  -1  344.07   15.60 
   2   5  -1  386.16   14.90 
   2   5  -1  401.86   16.10 
  -2  -5   1  374.26   15.50 
  -2  -5   1  368.86   15.70 
  -2  -5   1  377.86   14.60 
   1   5  -1  523.65   18.80 
   1   5  -1  491.95   19.10 
   1   5  -1  478.85   17.40 
  -1  -5   1  468.75   18.50 
  -1  -5   1  517.95   18.90 
  -1  -5   1  490.45   17.50 
   0   5  -1 1626.44   46.50 
   0   5  -1 1624.04   47.70 
   0   5  -1 1482.85   47.90 
   0  -5   1 1491.75   47.70 
   0  -5   1 1583.64   47.90 
   0  -5   1 1518.05   46.40 
  -1   5  -1 2579.84   74.99 
  -1   5  -1 2531.25   76.29 
  -1   5  -1 2618.84   76.29 
   1  -5   1 2643.94   76.09 
   1  -5   1 2631.24   75.29 
   1  -5   1 2618.94   76.29 
  -2   5  -1    2.80    1.40 
  -2   5  -1    1.30    1.60 
  -2   5  -1    2.30    1.50 
   2  -5   1    5.30    1.80 
   2  -5   1    2.90    1.70 
   2  -5   1    3.40    1.50 
  -3   5  -1  875.21   30.30 
  -3   5  -1  857.51   29.10 
  -3   5  -1  846.62   28.80 
   3  -5   1  903.41   29.60 
   3  -5   1  889.61   29.70 
   3  -5   1  861.01   29.80 
  -4   5  -1 2756.22   83.69 
  -4   5  -1 2670.13   81.39 
  -4   5  -1 2784.02   81.69 
   4  -5   1 2811.42   83.09 
   4  -5   1 2790.12   83.29 
   4  -5   1 2842.82   83.09 
  -5   5  -1   38.20    5.90 
   5  -5   1   29.90    5.30 
   5  -5   1   36.20    5.20 
   5  -5   1   33.60    8.80 
  -6   5  -1  279.37   15.90 
   6  -5   1  295.87   16.40 
   6  -5   1  311.07   16.00 
  -7   5  -1  102.59    9.50 
   7  -5   1   97.29    9.50 
   7  -5   1   96.49    8.90 
  -8   5  -1    0.90    3.30 
  -8   5  -1    4.30    3.20 
   8  -5   1    8.80    3.20 
   8  -5   1    7.90    3.80 
   8   4  -1   18.20    4.60 
  -8  -4   1   23.80    4.60 
  -8  -4   1   16.90    4.50 
   7   4  -1   78.69    7.90 
  -7  -4   1   70.69    6.60 
  -7  -4   1   75.29    7.20 
   6   4  -1  360.76   18.20 
  -6  -4   1  342.67   15.60 
  -6  -4   1  342.97   16.40 
   5   4  -1  139.79    9.70 
   5   4  -1  131.49    9.30 
   5   4  -1  133.39    9.80 
  -5  -4   1  132.49    8.60 
  -5  -4   1  133.49    9.50 
  -5  -4   1  152.08    8.80 
   4   4  -1  499.95   19.70 
   4   4  -1  454.05   19.70 
  -4  -4   1  469.55   18.00 
  -4  -4   1  462.85   19.40 
  -4  -4   1  459.45   18.20 
   3   4  -1   74.39    5.80 
   3   4  -1   74.49    6.00 
   3   4  -1   67.89    5.40 
  -3  -4   1   68.49    5.00 
  -3  -4   1   75.39    5.80 
  -3  -4   1   73.19    5.50 
   2   4  -1  917.21   30.90 
   2   4  -1  897.41   29.40 
   2   4  -1  945.71   30.70 
  -2  -4   1  960.90   30.40 
  -2  -4   1  950.50   29.30 
  -2  -4   1  916.61   30.40 
   1   4  -1  349.96   13.50 
   1   4  -1  342.57   12.60 
   1   4  -1  335.57   13.80 
  -1  -4   1  332.17   13.40 
  -1  -4   1  354.46   13.60 
  -1  -4   1  357.76   12.70 
   0   4  -1  648.04   21.40 
   0   4  -1  636.34   20.40 
   0   4  -1  566.74   21.30 
   0  -4   1  632.54   21.50 
   0  -4   1  673.33   20.70 
   0  -4   1  657.13   21.50 
  -1   4  -1 1915.91   55.49 
  -1   4  -1 1824.22   54.29 
  -1   4  -1 1785.52   55.19 
   1  -4   1 1931.81   55.19 
   1  -4   1 1905.31   54.59 
   1  -4   1 1882.01   55.39 
  -2   4  -1 1719.53   51.19 
  -2   4  -1 1737.83   51.89 
  -2   4  -1 1710.03   50.69 
   2  -4   1 1715.13   50.99 
   2  -4   1 1713.93   51.59 
   2  -4   1 1727.43   51.09 
  -3   4  -1    9.80    2.70 
  -3   4  -1   10.10    2.10 
  -3   4  -1   10.60    2.20 
   3  -4   1   11.70    2.50 
   3  -4   1    8.60    2.10 
   3  -4   1   10.00    2.40 
  -4   4  -1  448.86   17.20 
  -4   4  -1  439.86   18.30 
  -4   4  -1  430.56   18.20 
   4  -4   1  430.96   17.80 
   4  -4   1  444.46   17.60 
   4  -4   1  455.35   18.30 
  -5   4  -1  348.87   15.30 
  -5   4  -1  366.06   14.20 
  -5   4  -1  332.17   16.50 
   5  -4   1  357.46   16.90 
   5  -4   1  346.87   16.30 
   5  -4   1  351.66   15.90 
  -6   4  -1  167.38   11.40 
  -6   4  -1  155.68    8.80 
   6  -4   1  166.68   10.60 
   6  -4   1  181.38   14.30 
  -7   4  -1  128.69   10.40 
   7  -4   1  138.09   11.10 
   7  -4   1  127.69    9.50 
  -8   4  -1   44.80    6.50 
  -8   4  -1   52.19    8.20 
   8  -4   1   38.20    6.20 
   8  -4   1   47.40    7.90 
   8   3  -1    4.50    3.10 
  -8  -3   1    1.30    2.50 
  -8  -3   1    2.50    2.30 
   7   3  -1  270.67   15.80 
  -7  -3   1  250.27   14.40 
  -7  -3   1  305.17   14.00 
   6   3  -1   13.70    3.30 
   6   3  -1   18.60    3.90 
  -6  -3   1    7.70    2.50 
  -6  -3   1   14.40    3.10 
  -6  -3   1   19.90    4.00 
   5   3  -1  169.88   10.40 
   5   3  -1  164.38   10.50 
   5   3  -1  173.58   10.90 
  -5  -3   1  193.78    9.70 
  -5  -3   1  180.98    9.90 
   4   3  -1  520.85   20.50 
   4   3  -1  528.25   21.10 
   4   3  -1  536.35   20.70 
  -4  -3   1  532.95   20.80 
  -4  -3   1  511.95   19.30 
  -4  -3   1  559.34   19.90 
   3   3  -1  325.37   13.60 
   3   3  -1  337.17   14.40 
   3   3  -1  332.57   14.00 
  -3  -3   1  336.67   13.10 
  -3  -3   1  329.97   14.00 
  -3  -3   1  370.66   13.80 
   2   3  -1 1112.89   34.30 
   2   3  -1 1078.19   34.60 
   2   3  -1 1127.89   33.70 
  -2  -3   1 1079.19   33.90 
  -2  -3   1 1129.59   34.30 
  -2  -3   1 1056.59   33.10 
   1   3  -1   17.80    2.30 
   1   3  -1   20.10    2.30 
   1   3  -1   20.60    2.30 
  -1  -3   1   20.80    2.40 
  -1  -3   1   15.20    2.00 
  -1  -3   1   18.30    1.90 
   0   3  -1  190.38    8.10 
   0   3  -1  199.18    8.40 
   0   3  -1  193.08    7.50 
   0  -3   1  206.08    8.40 
   0  -3   1  196.38    7.60 
   0  -3   1  210.88    9.50 
  -1   3  -1   14.60    1.90 
  -1   3  -1    7.40    1.50 
   1  -3   1   13.80    1.80 
   1  -3   1   13.20    1.80 
   1  -3   1   11.40    1.80 
  -2   3  -1 1578.44   46.70 
  -2   3  -1 1573.64   45.70 
  -2   3  -1 1497.55   45.40 
   2  -3   1 1528.75   46.30 
   2  -3   1 1550.34   45.90 
   2  -3   1 1609.54   45.70 
  -3   3  -1    3.30    1.20 
  -3   3  -1    5.90    1.40 
  -3   3  -1    5.60    1.90 
   3  -3   1    4.20    1.40 
   3  -3   1    5.60    1.60 
   3  -3   1    7.80    2.00 
  -4   3  -1    2.90    1.30 
  -4   3  -1    5.00    1.70 
  -4   3  -1    2.50    1.50 
   4  -3   1    4.30    2.00 
   4  -3   1    2.70    1.50 
  -5   3  -1  703.83   26.20 
  -5   3  -1  666.33   22.50 
   5  -3   1  694.83   24.80 
   5  -3   1  689.13   25.70 
   5  -3   1  663.83   26.00 
  -6   3  -1    3.40    2.00 
  -6   3  -1    5.40    2.40 
   6  -3   1   -2.00    1.90 
  -7   3  -1    1.90    2.00 
  -7   3  -1    5.70    2.80 
  -7   3  -1    3.00    1.80 
   7  -3   1   -3.50    1.80 
   7  -3   1   -0.40    2.00 
  -8   3  -1  229.58   13.40 
  -8   3  -1  249.18   15.70 
  -9   3  -1   70.19    7.50 
  -9   3  -1   73.99    9.70 
   9  -3   1   58.89    9.00 
   9   2  -1  138.59   13.00 
  -9  -2   1  151.48   11.50 
  -9  -2   1  178.58   10.70 
   8   2  -1   79.89    9.10 
  -8  -2   1  112.59    8.10 
  -8  -2   1   90.99    8.60 
   7   2  -1   89.09    8.20 
  -7  -2   1   89.29    7.10 
  -7  -2   1   96.49   12.50 
   6   2  -1  321.97   16.30 
   6   2  -1  355.66   16.90 
   6   2  -1  310.57   15.90 
  -6  -2   1  322.27   15.70 
  -6  -2   1  361.96   15.20 
  -6  -2   1  326.67   15.60 
   5   2  -1  500.05   20.70 
   5   2  -1  495.65   20.40 
   5   2  -1  511.95   20.70 
  -5  -2   1  530.45   19.50 
  -5  -2   1  490.45   20.10 
  -5  -2   1  482.65   21.60 
  -5  -2   1  512.35   19.90 
   4   2  -1  135.19    8.40 
   4   2  -1  124.69    7.90 
   4   2  -1  156.38    8.60 
  -4  -2   1  129.39    7.60 
  -4  -2   1  156.08    8.10 
   3   2  -1  650.43   22.50 
   3   2  -1  652.83   23.30 
   3   2  -1  675.33   22.90 
  -3  -2   1  704.73   22.60 
  -3  -2   1  656.13   22.00 
  -3  -2   1  646.74   22.70 
   2   2  -1   68.69    4.30 
   2   2  -1   65.39    4.60 
   2   2  -1   62.79    4.00 
  -2  -2   1   64.99    3.80 
  -2  -2   1   70.09    4.40 
  -2  -2   1   65.69    4.30 
  -1   2  -1   15.30    1.70 
  -1   2  -1   14.30    1.50 
  -1   2  -1   13.60    2.00 
   1  -2   1   12.00    1.60 
   1  -2   1   15.80    1.60 
   1  -2   1   15.00    1.60 
  -2   2  -1   70.69    4.00 
  -2   2  -1   70.19    3.60 
  -2   2  -1   73.39    4.40 
   2  -2   1   73.09    3.70 
   2  -2   1   68.49    4.20 
   2  -2   1   67.39    4.10 
  -3   2  -1 1804.92   54.39 
  -3   2  -1 1822.52   52.79 
  -3   2  -1 1937.51   55.39 
   3  -2   1 1866.91   53.79 
   3  -2   1 1829.12   54.89 
   3  -2   1 1865.11   55.19 
  -4   2  -1 3399.86   98.49 
  -4   2  -1 3287.97   94.99 
  -4   2  -1 3343.37   97.49 
   4  -2   1 3393.66   96.79 
   4  -2   1 3387.96   97.99 
   4  -2   1 3532.05   98.89 
  -5   2  -1  805.22   25.30 
  -5   2  -1  817.92   28.30 
  -5   2  -1  793.22   28.90 
   5  -2   1  802.02   27.20 
   5  -2   1  803.92   29.30 
   5  -2   1  788.22   30.40 
  -6   2  -1  146.79    8.70 
  -6   2  -1  144.99   10.00 
  -6   2  -1  141.29    7.00 
  -6   2  -1  143.89    9.40 
   6  -2   1  144.29    8.60 
   6  -2   1  153.28   10.30 
  -7   2  -1    9.30    3.20 
  -7   2  -1    9.00    2.10 
  -8   2  -1   87.59    6.00 
  -8   2  -1   92.09    9.00 
  -8   2  -1   90.39    7.50 
   8  -2   1   98.89    9.70 
  -9   2  -1  214.38   11.90 
  -9   2  -1  228.68   15.70 
   9  -2   1  230.08   16.00 
   9   1  -1    6.10    4.40 
  -9  -1   1    8.90    3.60 
  -9  -1   1    7.70    3.90 
   8   1  -1  337.67   19.10 
  -8  -1   1  320.57   17.80 
  -8  -1   1  380.76   16.90 
   7   1  -1  105.79    9.20 
  -7  -1   1  122.09    8.30 
  -7  -1   1  116.39    9.00 
  -7  -1   1   91.09   10.40 
   6   1  -1  220.08   12.50 
   6   1  -1  232.08   13.40 
  -6  -1   1  208.78   11.40 
  -6  -1   1  207.98   11.80 
  -6  -1   1  207.48   11.40 
   5   1  -1  862.71   29.50 
   5   1  -1  810.02   28.90 
  -5  -1   1  782.42   28.20 
  -5  -1   1  812.32   28.30 
  -5  -1   1  859.01   28.30 
  -5  -1   1  682.53   31.40 
   4   1  -1 1951.30   58.09 
   4   1  -1 1900.11   58.19 
   4   1  -1 1844.02   57.99 
  -4  -1   1 1967.50   57.69 
  -4  -1   1 1900.01   57.89 
  -4  -1   1 1976.50   57.79 
  -4  -1   1 1858.11   57.99 
   3   1  -1 3356.56   97.89 
   3   1  -1 3414.26   97.49 
  -3  -1   1 3319.07   97.49 
  -3  -1   1 3516.45   97.09 
  -3  -1   1 3436.06   97.49 
  -3  -1   1 3444.66   97.59 
   2   1  -1  174.58    8.00 
   2   1  -1  168.18    7.30 
   2   1  -1  174.58    7.50 
  -2  -1   1  212.18    8.20 
  -2  -1   1  178.58    7.20 
  -2  -1   1  162.58    7.40 
   1   1  -1  297.77   10.10 
   1   1  -1  301.27   10.70 
   1   1  -1  307.47    9.70 
  -1  -1   1  315.37   10.10 
  -1  -1   1  295.57    9.60 
   0   1  -1  557.94   17.60 
   0   1  -1  659.43   17.50 
   0  -1   1  578.14   18.60 
   0  -1   1  608.64   17.40 
   0  -1   1  556.54   17.40 
  -1   1  -1  766.12   23.00 
  -1   1  -1  773.32   22.60 
  -1   1  -1  823.82   23.30 
   1  -1   1  783.12   22.50 
   1  -1   1  792.92   23.10 
   1  -1   1  791.62   23.10 
  -2   1  -1  853.31   24.70 
  -2   1  -1  793.92   24.30 
  -2   1  -1  805.82   22.80 
   2  -1   1  807.82   24.50 
   2  -1   1  791.52   24.30 
   2  -1   1  696.23   23.40 
  -4   1  -1 2794.82   80.99 
  -4   1  -1 2697.53   79.19 
  -4   1  -1 2745.23   77.79 
  -4   1  -1 2774.42   81.29 
   4  -1   1 2822.52   81.19 
   4  -1   1 2723.43   79.09 
   4  -1   1 2846.12   81.69 
  -5   1  -1   12.90    2.00 
  -5   1  -1    6.30    2.50 
  -5   1  -1    9.60    2.20 
  -5   1  -1   11.40    2.80 
   5  -1   1    8.60    2.00 
   5  -1   1    9.50    2.50 
   5  -1   1    7.20    2.40 
  -6   1  -1  144.59    7.00 
  -6   1  -1  158.18    8.40 
  -6   1  -1  145.99    9.70 
   6  -1   1  143.69   10.00 
  -7   1  -1   43.00    4.60 
  -7   1  -1   46.20    3.90 
  -7   1  -1   53.69    6.20 
   7  -1   1   55.99    6.40 
  -8   1  -1  178.88    9.50 
  -8   1  -1  163.68    8.10 
  -8   1  -1  153.48   11.90 
   8  -1   1  166.68   12.70 
  -9   1  -1    9.80    3.70 
  -9   1  -1    6.90    4.40 
   9  -1   1    7.50    3.40 
   9   0  -1  107.19   11.60 
  -9   0   1   93.29    8.60 
  -9   0   1  107.59   10.10 
   8   0  -1   12.30    3.80 
  -8   0   1    4.40    3.00 
  -8   0   1    0.70    5.10 
   7   0  -1    1.10    2.20 
  -7   0   1    3.20    2.10 
  -7   0   1    0.70    2.00 
  -7   0   1    0.70    1.80 
   6   0  -1  188.78   17.20 
   6   0  -1  183.18   12.10 
  -6   0   1  210.48   10.80 
  -6   0   1  196.08   11.30 
  -6   0   1  204.58   12.30 
   5   0  -1    3.90    1.90 
   5   0  -1    0.60    1.40 
  -5   0   1    3.40    1.70 
  -5   0   1    2.60    1.60 
  -5   0   1    0.90    1.50 
  -5   0   1   -0.30    1.30 
   4   0  -1 8436.86  234.28 
   4   0  -1 8427.46  234.58 
  -4   0   1 8440.75  233.98 
  -4   0   1 8380.26  233.78 
  -4   0   1 8359.66  234.08 
   3   0  -1  362.56   13.80 
  -3   0   1  369.76   13.90 
  -3   0   1  369.56   14.30 
  -3   0   1  388.66   14.20 
  -3   0   1  352.76   13.90 
   2   0  -1  642.14   20.20 
   2   0  -1  662.83   20.80 
   2   0  -1  632.34   20.00 
  -2   0   1  662.23   20.90 
  -2   0   1  645.64   20.10 
  -2   0   1  540.95   24.20 
  -2   0   1  660.83   20.00 
   0   0  -1    0.00    0.10 
  -2   0  -1  746.33   21.50 
  -2   0  -1  742.33   23.40 
  -2   0  -1  773.42   23.30 
  -2   0  -1  750.82   21.30 
   2   0   1  752.82   23.20 
  -3   0  -1  102.29    6.00 
  -3   0  -1  106.39    6.00 
  -3   0  -1  105.19    4.40 
   3   0   1  112.69    6.10 
   3   0   1  101.59    6.90 
  -4   0  -1 2573.04   72.49 
  -4   0  -1 2574.34   75.89 
  -4   0  -1 2573.24   72.99 
  -4   0  -1 2503.85   75.59 
   4   0   1 2644.94   76.19 
   4   0   1 2570.04   75.59 
  -5   0  -1  610.84   22.90 
  -5   0  -1  585.74   22.60 
  -5   0  -1  580.94   19.70 
  -5   0  -1  589.04   19.20 
   5   0   1  579.24   22.70 
   5   0   1  599.54   22.60 
  -6   0  -1  745.93   31.00 
  -6   0  -1  775.12   24.80 
  -6   0  -1  797.02   25.50 
  -6   0  -1  774.92   29.30 
   6   0   1  771.62   29.30 
  -7   0  -1  111.39    9.10 
  -7   0  -1  110.49    6.20 
  -7   0  -1  117.09    6.70 
   7   0   1  115.29    9.50 
  -8   0  -1  271.77   11.50 
  -8   0  -1  257.47   10.80 
  -8   0  -1  253.37   15.80 
   8   0   1  264.37   16.40 
  -9   0  -1  132.19   11.80 
   9   0   1  112.59   12.10 
   9  -1  -1  207.18   15.40 
  -9   1   1  203.08   13.10 
  -9   1   1  216.88   14.70 
   8  -1  -1   31.40    6.40 
  -8   1   1   39.70    6.50 
  -8   1   1   53.49    6.50 
   7  -1  -1   16.60    4.00 
  -7   1   1   31.70    5.60 
  -7   1   1   21.10    4.40 
   6  -1  -1  363.86   17.90 
   6  -1  -1  374.56   17.40 
  -6   1   1  403.36   17.80 
  -6   1   1  369.66   15.90 
  -6   1   1  382.66   17.40 
   5  -1  -1  234.08   12.10 
   5  -1  -1  238.78   12.00 
   5  -1  -1  236.28   12.40 
  -5   1   1  237.78   11.60 
  -5   1   1  237.88   12.20 
  -5   1   1  226.98   11.00 
  -5   1   1  229.48   11.80 
   4  -1  -1  797.32   27.50 
   4  -1  -1  783.52   27.30 
   4  -1  -1  796.72   27.10 
  -4   1   1  785.32   26.50 
  -4   1   1  766.72   26.50 
  -4   1   1  812.12   27.80 
  -4   1   1  839.52   27.20 
   3  -1  -1    1.70    1.00 
   3  -1  -1    2.40    1.20 
   3  -1  -1    0.80    0.90 
  -3   1   1    2.70    1.10 
  -3   1   1   -0.50    0.80 
  -3   1   1   -0.10    0.70 
   2  -1  -1 3034.70   86.19 
   2  -1  -1 3133.19   85.39 
   2  -1  -1 2917.11   85.29 
  -2   1   1 3067.49   85.39 
  -2   1   1 3080.39   84.99 
  -2   1   1 2997.50   85.79 
   0  -1  -1 1325.97   38.30 
   0  -1  -1 1447.46   38.40 
   0   1   1 1408.36   38.20 
   0   1   1 1355.56   39.00 
   0   1   1 1402.56   38.40 
  -1  -1  -1   57.49    2.80 
  -1  -1  -1   55.49    2.30 
   1   1   1   53.99    2.70 
   1   1   1   57.09    2.80 
   1   1   1   62.69    2.40 
  -2  -1  -1  492.65   16.80 
  -2  -1  -1  509.25   16.90 
   2   1   1  501.75   16.80 
   2   1   1  551.04   15.70 
   2   1   1  520.35   16.90 
  -3  -1  -1 2968.40   86.39 
  -3  -1  -1 2920.01   83.89 
  -3  -1  -1 3366.26   83.59 
   3   1   1 2884.31   84.09 
   3   1   1 2902.11   85.79 
   3   1   1 2975.00   85.99 
  -4  -1  -1    7.10    2.30 
  -4  -1  -1    7.40    2.00 
  -4  -1  -1    9.50    2.30 
  -4  -1  -1   10.60    1.50 
   4   1   1    9.50    2.00 
   4   1   1    4.60    1.90 
  -5  -1  -1   50.59    5.10 
  -5  -1  -1   49.80    5.20 
  -5  -1  -1   52.29    3.80 
  -5  -1  -1   61.09    3.90 
   5   1   1   57.89    5.40 
   5   1   1   50.49    5.00 
  -6  -1  -1  646.04   26.80 
  -6  -1  -1  742.13   22.70 
  -6  -1  -1  703.13   26.90 
  -6  -1  -1  670.93   22.90 
   6   1   1  676.93   26.80 
  -7  -1  -1  114.69    6.80 
  -7  -1  -1  124.49    9.90 
  -7  -1  -1  138.99    7.00 
   7   1   1  125.99   10.10 
  -8  -1  -1   90.19    8.60 
  -8  -1  -1   93.89    6.10 
  -8  -1  -1  115.29    6.30 
   8   1   1   94.49    9.30 
  -9  -1  -1  110.99   10.70 
   9  -2  -1   47.50   10.80 
  -9   2   1   58.49    8.00 
   8  -2  -1   61.79    8.20 
  -8   2   1   58.19    6.80 
  -8   2   1   66.09    7.50 
   7  -2  -1  189.58   12.50 
  -7   2   1  205.78   12.70 
  -7   2   1  175.68   11.70 
   6  -2  -1   42.50    5.60 
   6  -2  -1   50.89    7.20 
   6  -2  -1   37.40    5.40 
  -6   2   1   44.80    5.90 
  -6   2   1   41.80    5.30 
  -6   2   1   36.40    4.30 
   5  -2  -1  961.20   41.20 
   5  -2  -1 1196.68   39.00 
   5  -2  -1 1218.78   38.40 
  -5   2   1 1064.39   39.70 
  -5   2   1 1152.88   39.10 
  -5   2   1 1153.48   37.80 
  -5   2   1 1168.88   37.00 
   4  -2  -1    3.60    1.70 
  -4   2   1    4.00    1.50 
  -4   2   1   -0.10    0.80 
  -4   2   1    1.90    1.20 
   3  -2  -1  252.67   11.30 
   3  -2  -1  261.77   10.80 
   3  -2  -1  255.07   10.70 
  -3   2   1  260.57   10.10 
  -3   2   1  240.48   10.50 
  -3   2   1  250.37   10.50 
   1  -2  -1  496.45   16.50 
   1  -2  -1  489.05   15.30 
  -1   2   1  508.05   15.20 
  -1   2   1  508.65   15.70 
  -1   2   1  505.05   16.10 
   0   2   1 2794.62   78.59 
  -1  -2  -1 3405.66   92.39 
  -1  -2  -1 3253.47   92.29 
   1   2   1 3224.98   92.39 
   1   2   1 3436.96   92.59 
  -2  -2  -1 1391.96   41.50 
  -2  -2  -1 1381.56   40.20 
  -2  -2  -1 1380.76   41.30 
   2   2   1 1523.65   40.60 
   2   2   1 1349.27   41.40 
   2   2   1 1378.26   41.40 
  -3  -2  -1 1197.58   37.90 
  -3  -2  -1 1195.68   37.60 
  -3  -2  -1 1367.06   35.90 
   3   2   1 1162.28   37.10 
   3   2   1 1223.88   37.80 
   3   2   1 1163.18   37.50 
  -4  -2  -1 1137.29   30.60 
  -4  -2  -1  951.90   33.30 
  -4  -2  -1  948.01   32.70 
   4   2   1  964.90   33.00 
   4   2   1  980.50   31.50 
   4   2   1 1021.20   34.90 
  -5  -2  -1  247.18   10.90 
  -5  -2  -1  246.68   12.60 
  -5  -2  -1  288.47   10.30 
  -5  -2  -1  245.38   13.00 
   5   2   1  246.38   12.60 
   5   2   1  244.18   12.60 
   5   2   1  241.68   11.00 
  -6  -2  -1    3.10    2.00 
  -6  -2  -1    0.20    2.30 
  -6  -2  -1   -0.50    1.10 
  -6  -2  -1    0.30    1.30 
   6   2   1    0.90    1.80 
  -7  -2  -1  324.97   16.90 
  -7  -2  -1  354.56   13.00 
  -7  -2  -1  309.37   13.50 
   7   2   1  325.97   17.20 
  -8  -2  -1    8.80    3.70 
  -8  -2  -1   11.90    2.40 
  -8  -2  -1    9.90    3.60 
   8   2   1   17.70    3.90 
  -9  -2  -1    7.90    3.80 
   9  -3  -1   10.60    4.10 
  -9   3   1    2.30    3.80 
   8  -3  -1   84.39    8.70 
   8  -3  -1   84.49    9.50 
  -8   3   1   78.49    8.30 
  -8   3   1   76.99    8.50 
   7  -3  -1  432.66   21.00 
   7  -3  -1  385.96   19.80 
   7  -3  -1  455.25   23.00 
  -7   3   1  407.96   20.30 
  -7   3   1  381.96   19.20 
   6  -3  -1  117.39    9.60 
   6  -3  -1  118.49    9.40 
   6  -3  -1  127.09    9.40 
  -6   3   1  116.79    8.90 
  -6   3   1  121.79    9.90 
   5  -3  -1  981.20   34.70 
   5  -3  -1  955.40   34.10 
   5  -3  -1  975.10   33.80 
  -5   3   1  990.80   32.30 
  -5   3   1  957.00   33.60 
   4  -3  -1 3002.60   86.49 
   4  -3  -1 2981.90   85.19 
   4  -3  -1 2840.02   84.79 
  -4   3   1 2947.31   85.09 
  -4   3   1 2725.53   86.29 
  -4   3   1 2866.31   83.49 
   3  -3  -1  102.79    6.20 
   3  -3  -1  104.19    6.30 
   3  -3  -1  115.99    7.10 
  -3   3   1  110.39    5.80 
  -3   3   1  112.89    6.20 
  -3   3   1  111.19    6.40 
   2  -3  -1 2328.27   66.79 
   2  -3  -1 2250.97   65.69 
   2  -3  -1 2254.87   65.19 
  -2   3   1 2254.67   64.79 
  -2   3   1 2305.67   65.79 
  -2   3   1 2282.57   65.79 
   1  -3  -1 4165.58  113.69 
   1  -3  -1 4007.90  114.29 
  -1   3   1 4084.49  113.49 
  -1   3   1 4032.80  113.79 
   0  -3  -1  537.65   16.80 
   0  -3  -1  534.35   17.50 
   0   3   1  550.54   17.20 
   0   3   1  544.25   16.70 
   0   3   1  536.85   17.50 
  -1  -3  -1  416.66   14.50 
  -1  -3  -1  396.16   14.00 
  -1  -3  -1  441.86   14.00 
   1   3   1  431.16   14.40 
   1   3   1  408.46   14.20 
   1   3   1  434.96   14.10 
  -2  -3  -1 4862.11  131.49 
  -2  -3  -1 4649.33  131.79 
  -2  -3  -1 4457.05  132.39 
   2   3   1 4778.82  132.19 
   2   3   1 4760.22  132.39 
   2   3   1 4837.72  131.79 
  -3  -3  -1  266.07   10.10 
  -3  -3  -1  244.48   10.80 
  -3  -3  -1  241.48   11.40 
   3   3   1  277.27   11.50 
   3   3   1  263.17   11.40 
   3   3   1  263.07   10.70 
  -4  -3  -1    1.70    1.10 
  -4  -3  -1   -0.70    0.90 
  -4  -3  -1    1.30    1.50 
   4   3   1    2.30    1.50 
   4   3   1   -0.30    1.00 
   4   3   1    0.80    1.30 
  -5  -3  -1 3494.65   94.09 
  -5  -3  -1 3227.18   98.49 
  -5  -3  -1 3213.38   97.09 
   5   3   1 3258.07   96.09 
   5   3   1 3302.27   97.79 
  -6  -3  -1  592.24   25.30 
  -6  -3  -1  624.34   20.70 
  -6  -3  -1  611.34   22.20 
  -6  -3  -1  588.24   24.00 
   6   3   1  563.54   22.20 
   6   3   1  596.74   24.60 
  -7  -3  -1  346.67   15.20 
  -7  -3  -1  350.86   17.80 
  -7  -3  -1  362.16   13.90 
   7   3   1  367.76   18.60 
  -8  -3  -1  125.49    6.80 
  -8  -3  -1   92.89    8.80 
   8   3   1   88.39    9.10 
   8  -4  -1   14.50    5.00 
  -8   4   1   11.40    4.60 
  -8   4   1    4.20    2.90 
   7  -4  -1   49.00    8.10 
   7  -4  -1   56.69    7.30 
  -7   4   1   55.59    7.80 
  -7   4   1   54.79    7.40 
   6  -4  -1  178.78   12.00 
   6  -4  -1  172.98   11.90 
   6  -4  -1  160.88   11.10 
  -6   4   1  202.78   11.80 
   5  -4  -1 3979.00  116.19 
   5  -4  -1 4047.00  116.59 
   5  -4  -1 3947.21  117.59 
  -5   4   1 3884.91  115.89 
   4  -4  -1 1958.40   59.89 
   4  -4  -1 1973.50   61.29 
   4  -4  -1 1998.30   59.89 
  -4   4   1 1964.30   59.99 
  -4   4   1 1884.51   58.09 
  -4   4   1 1956.50   58.89 
   3  -4  -1 1214.78   38.40 
   3  -4  -1 1257.97   39.00 
   3  -4  -1 1219.48   40.70 
  -3   4   1 1231.38   38.50 
  -3   4   1 1220.98   38.00 
  -3   4   1 1262.27   39.10 
   2  -4  -1 1694.83   51.19 
   2  -4  -1 1714.03   49.60 
   2  -4  -1 1674.03   50.19 
  -2   4   1 1675.03   50.29 
  -2   4   1 1678.63   50.29 
  -2   4   1 1663.93   49.10 
   1  -4  -1 7254.97  206.68 
   1  -4  -1 7472.35  206.28 
  -1   4   1 7469.05  206.48 
  -1   4   1 7596.74  206.18 
   0  -4  -1 1013.50   30.30 
   0  -4  -1 1036.10   31.40 
   0  -4  -1 1007.50   31.10 
   0   4   1 1003.50   30.00 
   0   4   1  954.40   31.10 
   0   4   1 1004.60   30.70 
  -1  -4  -1  236.38   10.30 
  -1  -4  -1  242.48   10.10 
  -1  -4  -1  250.37    9.70 
   1   4   1  248.78   10.10 
   1   4   1  240.98   10.30 
   1   4   1  263.07    9.80 
  -2  -4  -1   13.20    2.50 
  -2  -4  -1   16.00    2.80 
  -2  -4  -1   13.60    2.30 
   2   4   1    9.40    2.30 
   2   4   1   14.40    2.60 
   2   4   1    9.10    2.10 
  -3  -4  -1  122.89    6.90 
  -3  -4  -1  126.19    6.70 
  -3  -4  -1  105.29   10.30 
   3   4   1  130.09    7.20 
   3   4   1  127.49    7.60 
   3   4   1  118.59    7.30 
  -4  -4  -1  159.98    8.80 
  -4  -4  -1  151.78    9.50 
  -4  -4  -1  157.88    8.00 
   4   4   1  153.38    8.80 
   4   4   1  152.38    9.20 
  -5  -4  -1 2552.74   73.99 
  -5  -4  -1 2454.85   76.29 
  -5  -4  -1 2575.44   78.49 
   5   4   1 2561.84   76.69 
   5   4   1 2542.85   77.69 
  -6  -4  -1  122.29    8.50 
  -6  -4  -1  149.39   10.00 
   6   4   1  146.69   10.30 
  -7  -4  -1   -1.20    2.00 
  -7  -4  -1    2.10    2.10 
  -7  -4  -1    1.60    1.70 
   7   4   1   -2.70    2.10 
   7   4   1   -4.50    2.00 
  -8  -4  -1  340.27   18.20 
  -8  -4  -1  342.57   14.00 
   8  -5  -1  199.18   15.20 
   8  -5  -1  201.78   15.20 
  -8   5   1  203.88   15.40 
   7  -5  -1   71.19    8.80 
   7  -5  -1   53.19   12.40 
  -7   5   1   67.69    7.50 
   6  -5  -1  119.49    9.80 
   6  -5  -1  131.79   10.60 
   6  -5  -1  115.39   10.00 
  -6   5   1  135.99    9.80 
   5  -5  -1   57.79    6.90 
   5  -5  -1   53.79    6.00 
   5  -5  -1   67.09    6.70 
  -5   5   1   57.79    6.20 
   4  -5  -1  205.48   11.90 
   4  -5  -1  193.18   10.80 
   4  -5  -1  201.58   10.90 
  -4   5   1  208.98   11.20 
   3  -5  -1  169.98    9.30 
   3  -5  -1  171.78    8.90 
   3  -5  -1  170.78   10.10 
  -3   5   1  169.78    8.30 
  -3   5   1  165.78    9.20 
   2  -5  -1   90.79    6.10 
   2  -5  -1   89.79    6.50 
   2  -5  -1   96.59    5.90 
  -2   5   1   99.69    6.20 
  -2   5   1  103.89    6.40 
  -2   5   1   98.59    5.60 
   1  -5  -1  198.08    9.50 
   1  -5  -1  183.28    8.90 
   1  -5  -1  182.08    8.40 
  -1   5   1  192.88    8.90 
  -1   5   1  194.58    9.30 
  -1   5   1  166.08    9.70 
   0  -5  -1    8.60    1.80 
   0  -5  -1    9.20    3.40 
   0  -5  -1    7.60    1.90 
   0   5   1    5.80    1.90 
   0   5   1    7.40    1.90 
   0   5   1    9.80    2.80 
  -1  -5  -1 2291.17   64.49 
  -1  -5  -1 2137.79   65.69 
  -1  -5  -1 2231.58   65.59 
   1   5   1 2227.18   64.39 
   1   5   1 2191.28   64.89 
  -2  -5  -1   33.50    3.80 
  -2  -5  -1   24.10    3.50 
  -2  -5  -1   28.50    4.40 
   2   5   1   22.70    3.50 
   2   5   1   24.40    3.20 
  -3  -5  -1  758.92   25.40 
  -3  -5  -1  732.33   26.70 
  -3  -5  -1  693.13   27.70 
   3   5   1  748.43   26.10 
   3   5   1  770.12   26.60 
  -4  -5  -1   13.00    2.90 
  -4  -5  -1   17.70    3.40 
  -4  -5  -1   11.70    3.80 
   4   5   1   10.40    3.20 
   4   5   1   21.00    4.20 
  -5  -5  -1    4.10    3.10 
  -5  -5  -1   11.10    2.90 
  -5  -5  -1   10.00    3.30 
   5   5   1    5.30    2.60 
   5   5   1    7.50    3.00 
  -6  -5  -1  867.31   29.30 
  -6  -5  -1  815.62   31.60 
  -6  -5  -1  840.12   34.20 
   6   5   1  922.11   33.60 
   6   5   1  867.91   33.00 
  -7  -5  -1   29.40    4.00 
  -7  -5  -1   21.20    4.60 
   7   5   1   25.50    5.10 
  -8  -5  -1    2.40    3.20 
  -8  -5  -1    1.20    2.30 
   8  -6  -1  113.89   11.50 
   8  -6  -1  103.39   11.50 
   7  -6  -1  298.77   18.20 
   7  -6  -1  263.37   19.40 
  -7   6   1  274.87   16.30 
   6  -6  -1   -1.60    2.70 
   6  -6  -1    4.40    2.80 
  -6   6   1    4.10    2.70 
   5  -6  -1  464.75   22.40 
   5  -6  -1  467.15   20.70 
   5  -6  -1  467.35   21.00 
  -5   6   1  498.85   21.20 
   4  -6  -1  364.06   17.90 
   4  -6  -1  350.76   16.30 
   4  -6  -1  356.76   16.20 
  -4   6   1  362.56   16.50 
   3  -6  -1   55.09    5.40 
   3  -6  -1   64.19    6.30 
   3  -6  -1   70.09    5.70 
  -3   6   1   63.69    5.70 
   2  -6  -1  621.44   23.40 
   2  -6  -1  574.64   21.30 
   2  -6  -1  618.24   22.50 
  -2   6   1  596.84   22.10 
   1  -6  -1  588.04   21.70 
   1  -6  -1  583.74   22.10 
   1  -6  -1  620.54   21.00 
  -1   6   1  554.64   23.10 
  -1   6   1  604.64   21.40 
   0  -6  -1   85.59    6.30 
   0  -6  -1   80.19    5.50 
   0  -6  -1   81.09    6.20 
   0   6   1   80.59    5.70 
   0   6   1   87.69    5.50 
  -1  -6  -1  354.86   16.20 
  -1  -6  -1  411.46   16.20 
  -1  -6  -1  395.16   15.10 
   1   6   1  370.46   15.30 
  -2  -6  -1   19.20    3.40 
  -2  -6  -1   22.20    3.90 
  -2  -6  -1   20.10    3.20 
   2   6   1   20.30    3.60 
  -3  -6  -1   -1.50    1.10 
  -3  -6  -1   -0.40    1.70 
  -3  -6  -1    1.30    1.20 
   3   6   1   -2.00    1.40 
  -4  -6  -1  134.29    9.60 
  -4  -6  -1  131.59    8.20 
  -4  -6  -1  117.99    8.10 
   4   6   1  132.09    9.00 
  -5  -6  -1    0.00    1.60 
  -5  -6  -1    1.30    2.30 
  -5  -6  -1    5.40    2.70 
   5   6   1   -1.60    1.60 
  -6  -6  -1   40.10    4.70 
  -6  -6  -1   32.40    5.40 
  -6  -6  -1   27.90    6.40 
   6   6   1   45.80    6.90 
  -7  -6  -1    1.60    2.20 
  -7  -6  -1    3.00    2.80 
   7  -7  -1  168.48   14.50 
   7  -7  -1  189.28   14.00 
   6  -7  -1   73.09    9.20 
  -6   7   1   98.09    8.90 
   5  -7  -1   37.60    6.70 
   5  -7  -1   47.80    6.10 
   5  -7  -1   40.90    9.90 
  -5   7   1   54.99    6.10 
   4  -7  -1   81.59    7.10 
   4  -7  -1   74.89    7.20 
   4  -7  -1   79.99    8.10 
  -4   7   1   79.49    7.10 
   3  -7  -1  235.58   12.00 
   3  -7  -1  230.68   13.50 
   3  -7  -1  235.98   12.70 
  -3   7   1  225.58   13.00 
   2  -7  -1   32.60    4.00 
   2  -7  -1   34.60    5.00 
   2  -7  -1   33.10    4.90 
  -2   7   1   35.10    4.30 
   1  -7  -1   30.20    3.80 
   1  -7  -1   32.40    4.50 
   1  -7  -1   42.10    4.70 
  -1   7   1   34.00    4.10 
   0  -7  -1  580.44   21.10 
   0  -7  -1  589.54   22.70 
   0  -7  -1  579.04   22.60 
   0   7   1  551.14   21.40 
  -1  -7  -1   35.20    5.30 
  -1  -7  -1   38.50    4.80 
  -1  -7  -1   33.20    4.00 
   1   7   1   35.10    4.20 
  -2  -7  -1  112.09    7.30 
  -2  -7  -1  100.09    8.00 
  -2  -7  -1  106.39    7.70 
   2   7   1  109.79    7.60 
  -3  -7  -1  289.37   14.00 
  -3  -7  -1  284.77   13.60 
  -3  -7  -1  288.77   15.00 
  -4  -7  -1    3.40    2.50 
  -4  -7  -1   -0.80    1.80 
  -4  -7  -1    1.10    2.70 
   4   7   1    4.60    2.50 
  -5  -7  -1   86.79    7.20 
  -5  -7  -1   69.99    8.60 
  -5  -7  -1   79.19    7.20 
   5   7   1   66.09    7.20 
  -6  -7  -1   89.59    7.90 
  -6  -7  -1   66.99    6.50 
   6   7   1  102.59   15.60 
  -7  -7  -1   37.70    6.20 
  -7  -7  -1   29.10    5.00 
   6  -8  -1   45.60    7.20 
   6  -8  -1   30.10    6.40 
   5  -8  -1   83.89    9.40 
   5  -8  -1   93.19    9.20 
   5  -8  -1  114.59    9.30 
  -5   8   1   84.39    8.50 
   4  -8  -1   -0.90    1.70 
   4  -8  -1    2.30    2.30 
   4  -8  -1    1.90    2.70 
  -4   8   1   -0.10    1.90 
   3  -8  -1  268.17   14.40 
   3  -8  -1  271.47   15.50 
   3  -8  -1  268.87   13.70 
  -3   8   1  211.78   16.20 
   2  -8  -1  495.65   23.10 
   2  -8  -1  489.35   21.10 
   2  -8  -1  487.45   20.20 
  -2   8   1  516.65   21.10 
   1  -8  -1    4.10    2.60 
   1  -8  -1    1.90    2.00 
   1  -8  -1    4.40    2.60 
  -1   8   1    3.10    2.00 
   0  -8  -1  441.76   18.10 
   0  -8  -1  398.06   18.90 
   0  -8  -1  450.65   19.70 
   0   8   1  424.86   18.20 
  -1  -8  -1 1212.88   39.50 
  -1  -8  -1 1169.18   41.20 
  -1  -8  -1 1198.28   40.80 
   1   8   1 1153.68   39.60 
  -2  -8  -1  159.78   11.00 
  -2  -8  -1  186.18   10.50 
  -2  -8  -1  162.98   10.60 
   2   8   1  170.58   10.40 
  -3  -8  -1   57.89    6.80 
  -3  -8  -1   54.39    6.00 
  -3  -8  -1   54.49    5.70 
  -4  -8  -1   74.29    8.30 
  -4  -8  -1   84.09   12.30 
   4   8   1   63.29    6.90 
  -5  -8  -1   37.00    5.20 
  -5  -8  -1   36.80    5.80 
   5   8   1   38.20    8.70 
  -6  -8  -1    3.90    2.80 
  -6  -8  -1   -4.80    2.40 
   6  -9  -1    6.50    4.20 
   6  -9  -1   14.10    4.50 
   5  -9  -1   31.00    5.90 
   5  -9  -1   27.10    6.40 
   4  -9  -1   10.40    4.30 
   4  -9  -1   10.40    3.30 
   4  -9  -1   24.50    5.70 
  -4   9   1    8.20    3.30 
   3  -9  -1  198.48   14.20 
   3  -9  -1  209.08   13.70 
   3  -9  -1  214.88   14.80 
  -3   9   1  239.88   14.60 
   2  -9  -1  179.68   12.00 
   2  -9  -1  170.98   12.40 
   2  -9  -1  171.98   11.00 
  -2   9   1  158.78   10.60 
   1  -9  -1   31.40    5.70 
   1  -9  -1   34.00    5.10 
   1  -9  -1   23.20    5.40 
  -1   9   1   26.40    4.50 
   0  -9  -1 1092.09   40.50 
   0  -9  -1 1110.49   38.60 
   0  -9  -1 1175.78   41.30 
   0   9   1 1128.79   39.30 
  -1  -9  -1 1408.96   46.90 
  -1  -9  -1 1339.17   46.60 
  -1  -9  -1 1276.67   44.00 
   1   9   1 1287.47   44.50 
  -2  -9  -1  106.59    9.00 
  -2  -9  -1  122.89   10.20 
   2   9   1  119.49    8.90 
  -3  -9  -1    0.00    2.20 
  -3  -9  -1   -3.60    3.30 
  -3  -9  -1    2.40    2.00 
   3   9   1    1.80    2.70 
  -4  -9  -1  176.78   11.60 
  -4  -9  -1  170.98   11.60 
  -5  -9  -1   38.70    5.70 
  -5  -9  -1   60.09    6.90 
   4 -10  -1    1.00    2.60 
   4 -10  -1   -2.60    2.80 
   3 -10  -1   12.40    3.90 
   3 -10  -1   20.70    5.10 
   2 -10  -1    2.40    3.00 
   2 -10  -1    1.70    2.50 
   2 -10  -1   -2.70    6.00 
  -2  10   1   -4.60    3.30 
   1 -10  -1    0.10    2.70 
   1 -10  -1   10.30    4.20 
   1 -10  -1    5.50    3.10 
  -1  10   1    2.90    2.90 
   0 -10  -1   30.30    8.50 
   0 -10  -1   25.50    5.40 
   0 -10  -1   17.50    4.10 
   0  10   1   17.50    4.00 
  -1 -10  -1   25.30    6.60 
  -1 -10  -1   33.10    6.20 
  -1 -10  -1   38.60    5.80 
   1  10   1   47.70    6.10 
  -2 -10  -1    5.20    3.40 
  -2 -10  -1    2.30    2.90 
  -3 -10  -1    1.20    2.70 
  -3 -10  -1    3.40    3.10 
  -4 -10  -1   10.50    3.70 
  -4 -10  -1   16.70    4.50 
   2 -11  -1   22.50    6.30 
   2 -11  -1   25.80    5.10 
   1 -11  -1   -2.80    2.30 
   1 -11  -1   -2.00    2.80 
   0 -11  -1  108.79   10.70 
   0 -11  -1  114.29    9.60 
  -1 -11  -1   42.70    7.20 
  -1 -11  -1   36.80    6.20 
  -2 -11  -1    6.50    3.00 
  -2 -11  -1    4.40    3.20 
  -2 -11   2   -3.70    3.60 
  -2 -11   2   -0.50    2.80 
  -1 -11   2   20.10    5.30 
  -1 -11   2   17.30    5.60 
   0 -11   2    6.50    3.50 
   0 -11   2    6.10    4.00 
   1 -11   2    7.10    3.40 
   1 -11   2   11.70    4.80 
   2 -11   2   14.70    4.80 
   2 -11   2   20.80    8.20 
  -4 -10   2   -1.10    2.80 
  -4 -10   2   -1.60    2.70 
   3  10  -2    1.00    2.90 
  -3 -10   2    3.20    2.90 
  -3 -10   2   -1.60    3.00 
   2  10  -2   48.50    7.50 
  -2 -10   2   44.90    7.70 
  -2 -10   2   43.30    6.70 
   1  10  -2   25.40    5.60 
  -1 -10   2   22.00    5.50 
  -1 -10   2   14.70    4.70 
   0 -10   2   56.69    7.10 
   0 -10   2   58.09    6.80 
  -1  10  -2   26.50    6.60 
   1 -10   2   14.60    4.10 
   1 -10   2    9.10    3.70 
  -2  10  -2    1.20    2.90 
   2 -10   2    5.60    3.10 
   2 -10   2    1.30    2.70 
  -3  10  -2   44.80    7.20 
   3 -10   2   42.20    6.60 
   3 -10   2   40.50    7.00 
  -4  10  -2    8.90    4.90 
   4 -10   2   11.30    4.30 
   4 -10   2   16.70    5.20 
   5   9  -2   43.80    7.30 
  -5  -9   2   39.90    7.00 
  -5  -9   2   36.10    6.20 
   4   9  -2   25.30    5.70 
  -4  -9   2   17.90    4.90 
  -4  -9   2   24.50    4.70 
   3   9  -2    8.40    3.40 
  -3  -9   2    7.60    3.20 
  -3  -9   2    6.50    3.00 
   2   9  -2   38.80    7.60 
  -2  -9   2   31.30    5.80 
  -2  -9   2   24.40    4.50 
   1   9  -2  148.39   10.80 
  -1  -9   2  149.59   10.00 
  -1  -9   2  141.09   10.50 
   0   9  -2    2.40    2.30 
   0  -9   2    2.90    2.80 
   0  -9   2    3.80    2.10 
  -1   9  -2   46.90    7.10 
   1  -9   2   54.89    5.80 
   1  -9   2   48.30    6.40 
  -2   9  -2   31.80    5.80 
   2  -9   2   33.00    5.70 
   2  -9   2   26.60    4.70 
  -3   9  -2   -0.10    2.00 
   3  -9   2    1.80    2.20 
   3  -9   2    3.80    2.80 
  -4   9  -2   39.50    6.30 
   4  -9   2   32.00    6.00 
   4  -9   2   39.00    6.20 
  -5   9  -2   22.70    5.50 
   5  -9   2   30.70    6.50 
   5  -9   2   29.20    5.70 
   6   8  -2    3.50    3.90 
  -6  -8   2    5.90    3.40 
   5   8  -2   18.80    5.00 
  -5  -8   2    7.80    4.10 
  -5  -8   2   12.70    3.90 
   4   8  -2    1.10    2.70 
  -4  -8   2    0.70    2.30 
  -4  -8   2   -0.10    2.00 
   3   8  -2  104.19   10.20 
  -3  -8   2   86.99    8.60 
  -3  -8   2   90.99    7.50 
   2   8  -2   17.40    4.10 
  -2  -8   2   17.70    3.70 
  -2  -8   2   17.20    4.30 
   1   8  -2   58.89    6.60 
  -1  -8   2   65.89    6.20 
  -1  -8   2   61.89   10.80 
   0   8  -2   23.60    4.40 
   0  -8   2   23.60    4.10 
   0  -8   2   23.90    5.60 
  -1   8  -2    3.70    2.10 
   1  -8   2    0.00    1.30 
   1  -8   2   11.50    3.30 
  -2   8  -2  149.79   10.40 
   2  -8   2  149.09    9.60 
  -3   8  -2  113.39    9.20 
   3  -8   2  123.89    9.20 
   3  -8   2  134.89    9.70 
  -4   8  -2    0.10    2.30 
   4  -8   2    1.80    2.30 
   4  -8   2    2.70    2.70 
  -5   8  -2    6.10    3.40 
   5  -8   2    9.30    3.60 
   5  -8   2    5.10    3.10 
  -6   8  -2  110.29   10.70 
   6  -8   2  115.69   11.00 
   6  -8   2  124.49   11.00 
  -7  -7   2    1.60    3.00 
  -7  -7   2   -2.10    3.10 
   6   7  -2  437.66   22.50 
  -6  -7   2  409.26   20.30 
  -6  -7   2  434.16   20.40 
   5   7  -2  924.01   36.80 
  -5  -7   2  939.31   35.10 
  -5  -7   2  948.41   34.40 
   4   7  -2   15.70    4.50 
  -4  -7   2    9.30    4.30 
  -4  -7   2   15.50    3.60 
   3   7  -2  379.26   18.40 
  -3  -7   2  394.26   18.30 
   2   7  -2 1605.14   51.49 
  -2  -7   2 1509.05   51.29 
  -2  -7   2 1600.44   49.70 
  -2  -7   2 1559.44   51.29 
   1   7  -2   10.70    3.00 
   1   7  -2   12.00    2.80 
  -1  -7   2   10.60    3.30 
  -1  -7   2   14.30    3.00 
  -1  -7   2    6.60    2.30 
   0   7  -2   51.89    5.50 
   0   7  -2   53.39    4.90 
   0  -7   2   52.19    4.90 
   0  -7   2   44.70    5.00 
   0  -7   2   49.50    5.60 
  -1   7  -2   -0.10    1.40 
  -1   7  -2    0.20    1.50 
   1  -7   2   -1.20    1.50 
   1  -7   2    0.70    1.60 
   1  -7   2   -0.70    1.30 
  -2   7  -2  503.25   19.60 
  -2   7  -2  525.05   21.30 
   2  -7   2  517.85   21.10 
   2  -7   2  479.95   19.80 
   2  -7   2  497.25   20.40 
  -3   7  -2  294.37   15.40 
   3  -7   2  311.97   15.00 
   3  -7   2  297.77   14.50 
  -4   7  -2  608.44   37.50 
   4  -7   2  669.33   26.20 
   4  -7   2  653.23   26.10 
  -5   7  -2   38.80    6.50 
   5  -7   2   35.00    6.00 
   5  -7   2   56.29    6.50 
  -6   7  -2  339.07   18.90 
   6  -7   2  324.47   18.30 
   6  -7   2  336.87   18.80 
  -7   7  -2  261.07   16.90 
   7  -7   2  223.48   15.60 
   7  -7   2  246.08   16.40 
   7   6  -2   21.20    5.50 
  -7  -6   2   10.00    3.80 
  -7  -6   2   13.50    4.20 
   6   6  -2  724.33   30.40 
  -6  -6   2  634.64   27.30 
  -6  -6   2  685.13   27.10 
   5   6  -2  141.99   10.90 
  -5  -6   2  138.09    9.10 
  -5  -6   2  118.39    9.40 
   4   6  -2   29.80    5.20 
  -4  -6   2   33.90    5.00 
  -4  -6   2   31.50    4.20 
   3   6  -2  844.62   29.90 
   3   6  -2  841.12   31.20 
  -3  -6   2  863.51   30.90 
  -3  -6   2  860.41   31.20 
  -3  -6   2  837.42   29.30 
   2   6  -2 1021.10   39.90 
   2   6  -2 1070.19   36.10 
  -2  -6   2 1071.79   34.40 
  -2  -6   2 1055.49   36.00 
  -2  -6   2 1015.60   35.70 
   1   6  -2   21.40    3.70 
   1   6  -2   25.70    3.20 
  -1  -6   2   24.20    4.30 
  -1  -6   2   30.30    4.60 
  -1  -6   2   32.10    3.50 
   0   6  -2   14.30    3.10 
   0   6  -2   17.30    2.90 
   0  -6   2   20.70    4.00 
   0  -6   2   21.00    3.30 
   0  -6   2   20.40    3.60 
  -1   6  -2    4.30    2.10 
  -1   6  -2    7.70    2.10 
   1  -6   2    7.20    2.40 
   1  -6   2    5.50    2.20 
   1  -6   2    8.50    2.30 
  -2   6  -2  550.14   21.20 
  -2   6  -2  533.45   19.80 
   2  -6   2  553.14   20.50 
   2  -6   2  481.05   24.50 
   2  -6   2  530.95   20.00 
  -3   6  -2  157.38    8.80 
  -3   6  -2  161.68   10.10 
   3  -6   2  150.08    9.60 
   3  -6   2  154.98    9.30 
   3  -6   2  162.68    9.50 
  -4   6  -2  184.38   10.90 
  -4   6  -2  184.28   11.90 
   4  -6   2  198.68   11.60 
   4  -6   2  202.18   11.30 
  -5   6  -2  588.24   25.20 
   5  -6   2  579.14   24.20 
   5  -6   2  591.44   28.00 
  -6   6  -2   -3.40    2.10 
   6  -6   2    1.30    2.30 
   6  -6   2    2.50    2.60 
  -7   6  -2  267.77   16.60 
   7  -6   2  256.17   16.50 
   7  -6   2  232.38   14.80 
  -8   6  -2  103.29   11.20 
   8  -6   2   88.89   11.50 
   8   5  -2    1.50    4.50 
  -8  -5   2    6.40    3.50 
  -8  -5   2   11.80    4.00 
   7   5  -2    3.50    3.00 
  -7  -5   2    5.30    4.80 
  -7  -5   2    2.70    2.50 
   6   5  -2  214.68   13.80 
  -6  -5   2  196.58   11.80 
  -6  -5   2  189.48   11.80 
   5   5  -2    5.70    2.70 
  -5  -5   2   10.60    3.10 
  -5  -5   2   12.30    3.10 
   4   5  -2   30.20    4.70 
   4   5  -2   37.30    5.60 
  -4  -5   2   31.30    4.50 
  -4  -5   2   33.10    4.60 
  -4  -5   2   28.10    4.60 
   3   5  -2  221.88   11.80 
   3   5  -2  200.08   10.50 
  -3  -5   2  221.28   11.60 
  -3  -5   2  224.98   10.50 
  -3  -5   2  206.78   11.30 
   2   5  -2   37.80    3.60 
   2   5  -2   31.70    4.30 
   2   5  -2   42.70    4.40 
  -2  -5   2   33.00    4.30 
  -2  -5   2   41.30    4.20 
  -2  -5   2   40.00    3.80 
   1   5  -2   42.20    3.60 
   1   5  -2   42.40    4.30 
   1   5  -2   44.70    4.80 
  -1  -5   2   38.30    4.10 
  -1  -5   2   41.90    4.20 
  -1  -5   2   42.60    3.70 
   0   5  -2  392.86   17.10 
   0   5  -2  458.45   17.10 
   0   5  -2  442.76   15.80 
   0  -5   2  449.46   16.00 
   0  -5   2  449.95   17.20 
   0  -5   2  415.96   16.80 
  -1   5  -2  639.64   23.00 
  -1   5  -2  673.23   22.20 
  -1   5  -2  634.74   23.40 
   1  -5   2  661.03   22.90 
   1  -5   2  678.33   22.40 
   1  -5   2  642.24   23.10 
  -2   5  -2 1419.16   44.10 
  -2   5  -2 1436.96   45.40 
  -2   5  -2 1376.66   44.80 
   2  -5   2 1421.76   45.20 
   2  -5   2 1501.65   44.70 
   2  -5   2 1498.55   44.60 
  -3   5  -2  295.27   12.70 
  -3   5  -2  291.67   13.80 
  -3   5  -2  283.67   12.80 
   3  -5   2  296.67   12.80 
   3  -5   2  295.97   13.20 
  -4   5  -2  208.08   11.90 
  -4   5  -2  201.38   10.30 
  -4   5  -2  212.48   15.00 
   4  -5   2  219.08   11.50 
   4  -5   2  205.68   11.60 
   4  -5   2  215.28   11.00 
  -5   5  -2 1754.02   58.09 
  -5   5  -2 1746.93   55.99 
   5  -5   2 1757.62   57.59 
   5  -5   2 1846.42   56.49 
  -6   5  -2  175.18   12.10 
   6  -5   2  161.18   10.50 
   6  -5   2  167.18   11.80 
  -7   5  -2   26.10    5.40 
   7  -5   2   22.70    5.30 
   7  -5   2   23.90    4.70 
  -8   5  -2   95.29   10.80 
  -8   5  -2  126.19   10.60 
   8  -5   2  124.59   11.70 
   8  -5   2  123.59    9.90 
   8   4  -2  209.48   14.90 
  -8  -4   2  214.28   12.90 
  -8  -4   2  206.88   13.30 
  -7  -4   2   -0.60    2.50 
  -7  -4   2    5.60    2.80 
   6   4  -2  270.77   15.20 
  -6  -4   2  248.28   13.20 
  -6  -4   2  268.87   13.90 
   5   4  -2   65.29    6.70 
   5   4  -2   79.09    8.80 
  -5  -4   2   83.59    6.80 
  -5  -4   2   72.19    6.10 
   4   4  -2   42.60    4.80 
   4   4  -2   42.00    5.40 
   4   4  -2   38.50    4.80 
  -4  -4   2   45.10    4.40 
  -4  -4   2   37.00    4.60 
  -4  -4   2   39.40    4.60 
   3   4  -2 1155.68   37.70 
   3   4  -2 1120.89   39.60 
   3   4  -2 1200.18   38.80 
  -3  -4   2 1167.28   36.90 
  -3  -4   2 1228.98   38.70 
  -3  -4   2 1220.98   38.70 
   2   4  -2    0.20    1.10 
   2   4  -2    1.50    1.00 
  -2  -4   2    2.20    1.40 
  -2  -4   2   -0.10    1.00 
  -2  -4   2    0.30    1.10 
   1   4  -2    0.30    0.90 
   1   4  -2    1.70    0.90 
   1   4  -2    1.60    1.00 
  -1  -4   2    1.00    1.10 
  -1  -4   2   -0.30    0.80 
   0   4  -2 2775.12   78.29 
   0   4  -2 2729.63   77.09 
   0   4  -2 2430.36   78.39 
   0  -4   2 2738.93   78.49 
   0  -4   2 2759.52   78.39 
   0  -4   2 2817.02   77.29 
  -1   4  -2 1709.83   50.39 
  -1   4  -2 1759.42   51.49 
  -1   4  -2 1561.74   51.29 
   1  -4   2 1803.32   50.79 
   1  -4   2 1682.53   51.29 
   1  -4   2 1810.92   51.39 
  -2   4  -2  268.57   11.00 
  -2   4  -2  267.27   11.30 
  -2   4  -2  286.07   12.10 
   2  -4   2  265.07   11.20 
   2  -4   2  264.77   11.60 
   2  -4   2  277.57   11.10 
  -3   4  -2  394.56   16.00 
  -3   4  -2  367.46   14.60 
  -3   4  -2  383.66   15.00 
   3  -4   2  391.46   15.60 
   3  -4   2  402.46   15.70 
   3  -4   2  389.86   14.70 
  -4   4  -2 1415.06   45.50 
  -4   4  -2 1362.96   42.60 
  -4   4  -2 1367.16   43.60 
   4  -4   2 1420.26   44.80 
   4  -4   2 1398.16   43.40 
   4  -4   2 1392.76   44.90 
  -5   4  -2  198.88   17.50 
  -5   4  -2  178.48   10.50 
  -5   4  -2  182.08   10.10 
   5  -4   2  183.68   11.10 
   5  -4   2  140.29   12.80 
  -6   4  -2  127.09    7.40 
  -6   4  -2  106.59    9.00 
   6  -4   2  135.79    8.60 
   6  -4   2  117.19    9.40 
  -7   4  -2   44.80    7.00 
  -7   4  -2   40.60    4.80 
   7  -4   2   51.99    9.30 
   7  -4   2   50.69    5.30 
  -8   4  -2    0.10    2.50 
  -8   4  -2   -0.40    2.70 
   8  -4   2    1.80    2.70 
   8  -4   2    8.70    4.30 
   8   3  -2  511.65   25.70 
  -8  -3   2  576.84   23.30 
  -8  -3   2  510.65   23.70 
   7   3  -2  135.49   11.00 
  -7  -3   2  131.89    9.80 
  -7  -3   2  151.08   10.00 
   6   3  -2  114.09    8.80 
   6   3  -2  127.09    9.50 
  -6  -3   2   91.09    7.50 
  -6  -3   2  113.39    8.40 
   5   3  -2   49.00    5.30 
   5   3  -2   55.79    7.10 
   5   3  -2   51.19    5.90 
  -5  -3   2   56.99    5.60 
  -5  -3   2   51.19    4.90 
   4   3  -2  254.07   12.30 
   4   3  -2  223.48   12.70 
   4   3  -2  229.28   11.70 
  -4  -3   2  239.88   11.90 
  -4  -3   2  233.08   12.80 
  -4  -3   2  246.68   11.10 
   3   3  -2   14.40    2.90 
   3   3  -2   10.10    2.30 
   3   3  -2   15.90    3.40 
  -3  -3   2   11.20    2.40 
  -3  -3   2   18.90    3.30 
  -3  -3   2   11.90    2.30 
   2   3  -2    2.50    1.20 
   2   3  -2    4.50    1.70 
   2   3  -2    6.20    2.00 
  -2  -3   2    3.80    1.60 
  -2  -3   2    5.30    1.30 
  -2  -3   2    4.70    1.50 
   1   3  -2  881.01   26.50 
   1   3  -2  830.22   28.30 
   1   3  -2  917.21   27.80 
  -1  -3   2  852.11   27.80 
  -1  -3   2  902.21   28.10 
  -1  -3   2  840.42   27.30 
   0   3  -2   14.00    1.80 
   0   3  -2   14.00    2.20 
   0   3  -2   14.50    2.50 
   0  -3   2   15.10    2.30 
   0  -3   2   21.80    2.10 
   0  -3   2   18.20    2.40 
  -1   3  -2   23.50    2.50 
  -1   3  -2   19.30    2.30 
  -1   3  -2   20.60    2.10 
   1  -3   2   21.10    2.40 
   1  -3   2   15.80    2.00 
   1  -3   2   22.80    2.40 
  -2   3  -2 1303.27   38.10 
  -2   3  -2 1282.77   39.00 
  -2   3  -2 1268.27   38.10 
   2  -3   2 1230.88   38.40 
   2  -3   2 1256.77   38.30 
  -3   3  -2  407.16   15.20 
  -3   3  -2  404.76   16.10 
  -3   3  -2  393.56   14.30 
   3  -3   2  418.06   14.40 
   3  -3   2  407.16   15.60 
   3  -3   2  412.66   15.80 
  -4   3  -2  527.05   21.00 
  -4   3  -2  550.64   18.40 
  -4   3  -2  565.44   20.30 
   4  -3   2  521.95   25.50 
   4  -3   2  549.65   19.20 
   4  -3   2  572.74   21.30 
  -5   3  -2   63.19    5.60 
  -5   3  -2   68.89    4.50 
  -5   3  -2   58.99    7.30 
   5  -3   2   72.69    5.50 
   5  -3   2   74.09    6.60 
   5  -3   2   73.19    7.60 
  -6   3  -2    3.00    1.80 
  -6   3  -2    3.00    2.20 
  -6   3  -2    2.20    1.50 
   6  -3   2   -1.40    1.40 
   6  -3   2    1.70    1.40 
  -7   3  -2   65.79    4.90 
  -7   3  -2   63.79    5.80 
  -7   3  -2   67.39    7.30 
   7  -3   2   74.39    6.20 
   7  -3   2   68.89    7.80 
  -8   3  -2  379.36   17.40 
  -8   3  -2  395.66   21.00 
   9   2  -2  161.08   19.80 
  -9  -2   2  129.99   10.30 
   8   2  -2   72.39   10.10 
  -8  -2   2   71.19    7.30 
  -8  -2   2   62.29    7.20 
   7   2  -2   60.09    6.90 
  -7  -2   2   62.09    6.50 
  -7  -2   2   53.09    5.90 
   6   2  -2   88.69    7.70 
   6   2  -2   88.09    7.80 
  -6  -2   2   84.69    6.90 
  -6  -2   2   90.59    7.40 
   5   2  -2   12.10    3.20 
   5   2  -2   14.50    3.30 
   5   2  -2   14.70    3.50 
  -5  -2   2   13.40    3.10 
  -5  -2   2   15.30    3.70 
  -5  -2   2   11.60    2.90 
  -5  -2   2   12.70    2.90 
   4   2  -2 6187.68  173.78 
   4   2  -2 6051.59  175.38 
   4   2  -2 6199.88  173.68 
  -4  -2   2 6117.19  174.88 
  -4  -2   2 6180.28  172.38 
  -4  -2   2 6206.68  173.98 
  -4  -2   2 6115.59  173.98 
   3   2  -2 3513.75   97.89 
   3   2  -2 3344.47   99.29 
   3   2  -2 3237.58   97.19 
  -3  -2   2 3379.26   96.39 
  -3  -2   2 3388.76   97.69 
  -3  -2   2 3548.55   98.49 
   2   2  -2  553.84   17.80 
   2   2  -2  518.05   19.50 
   2   2  -2  547.15   18.40 
  -2  -2   2  539.25   17.40 
  -2  -2   2  541.45   19.20 
  -2  -2   2  533.25   18.30 
  -1   2  -2  516.25   16.40 
  -1   2  -2  459.85   16.10 
  -1   2  -2  513.45   15.90 
   1  -2   2  495.95   15.90 
   1  -2   2  489.05   16.10 
   1  -2   2  529.95   16.10 
  -2   2  -2  964.40   30.20 
  -2   2  -2 1024.80   30.90 
  -2   2  -2 1005.00   29.70 
   2  -2   2 1009.50   30.60 
   2  -2   2 1002.20   29.30 
   2  -2   2  978.60   30.40 
  -4   2  -2  105.09    7.00 
  -4   2  -2  107.69    5.00 
  -4   2  -2  101.79    6.60 
   4  -2   2  108.59    6.90 
   4  -2   2  105.19    7.20 
  -5   2  -2  240.38    9.00 
  -5   2  -2  247.68   12.00 
  -5   2  -2  207.68   17.60 
   5  -2   2  228.88   11.80 
   5  -2   2  233.28   10.20 
   5  -2   2  232.68   12.30 
  -6   2  -2  375.76   18.20 
  -6   2  -2  395.46   15.50 
  -6   2  -2  407.56   13.90 
   6  -2   2  406.26   18.80 
   6  -2   2  391.76   15.40 
  -7   2  -2   80.19    4.80 
  -7   2  -2   82.49    5.80 
  -7   2  -2   70.99    7.60 
   7  -2   2   73.99    8.00 
  -8   2  -2  357.66   19.60 
  -8   2  -2  367.56   14.00 
  -8   2  -2  351.46   14.30 
   8  -2   2  340.47   19.30 
  -9   2  -2  396.46   25.20 
   9   1  -2  167.18   19.10 
   8   1  -2  136.69   11.60 
  -8  -1   2  151.68   10.70 
  -8  -1   2  132.79   10.30 
   7   1  -2  169.78   11.80 
   7   1  -2  163.78   11.80 
  -7  -1   2  174.18   11.20 
  -7  -1   2  165.48   10.80 
   6   1  -2  136.39   10.00 
   6   1  -2  153.68   10.10 
  -6  -1   2  156.68    9.60 
  -6  -1   2  159.78   10.30 
   5   1  -2   52.49    5.20 
   5   1  -2   54.69    6.80 
  -5  -1   2   52.89    5.40 
  -5  -1   2   53.99    5.00 
  -5  -1   2   49.90    5.30 
  -5  -1   2   56.79    5.70 
   4   1  -2 3355.56   96.49 
   4   1  -2 3275.97   97.99 
   4   1  -2 3344.47   96.89 
  -4  -1   2 3295.87   96.59 
  -4  -1   2 3222.68   95.49 
  -4  -1   2 3428.76   97.79 
  -4  -1   2 3374.66   97.89 
   3   1  -2  157.38    7.80 
   3   1  -2  147.59    7.50 
   3   1  -2  158.68    8.80 
  -3  -1   2  154.58    7.20 
  -3  -1   2  166.78    8.70 
  -3  -1   2  149.79    8.50 
  -3  -1   2  145.09    7.60 
   2   1  -2 1364.46   40.30 
   2   1  -2 1335.97   42.30 
   2   1  -2 1401.66   40.80 
  -2  -1   2 1341.17   39.80 
  -2  -1   2 1395.16   40.70 
  -2  -1   2 1414.06   42.30 
  -1   1  -2   22.30    1.80 
  -1   1  -2   25.20    1.90 
   1  -1   2   22.50    1.80 
   1  -1   2   23.80    1.80 
   1  -1   2   23.90    1.70 
  -2   1  -2 2839.02   74.99 
  -2   1  -2 2664.33   76.59 
  -2   1  -2 2743.83   76.79 
   2  -1   2 2657.13   74.69 
   2  -1   2 2720.53   76.49 
   2  -1   2 2627.54   76.69 
  -3   1  -2 6424.46  183.78 
   3  -1   2 6636.04  183.68 
   3  -1   2 6772.92  184.28 
  -4   1  -2   10.70    2.30 
  -4   1  -2   14.30    1.40 
  -4   1  -2   12.00    2.60 
   4  -1   2   12.10    2.50 
   4  -1   2   11.40    1.60 
   4  -1   2   11.50    2.40 
  -5   1  -2   43.00    6.80 
  -5   1  -2   37.80    3.00 
  -5   1  -2   34.80    4.30 
   5  -1   2   42.00    4.50 
  -6   1  -2  227.18    8.20 
  -6   1  -2  217.88   12.40 
  -6   1  -2  221.48    9.30 
  -6   1  -2  221.78   12.60 
   6  -1   2  224.78   12.90 
  -7   1  -2  949.71   29.20 
  -7   1  -2  895.01   34.70 
  -7   1  -2  941.91   28.00 
  -7   1  -2  961.60   35.80 
   7  -1   2  929.21   35.50 
  -8   1  -2   25.00    5.20 
  -8   1  -2   26.70    2.60 
  -8   1  -2   19.40    2.40 
   8  -1   2   11.10    4.10 
  -9   1  -2  246.28   16.90 
   9   0  -2   85.49   10.00 
   8   0  -2   53.29    8.20 
  -8   0   2   65.09    7.20 
  -8   0   2   61.29    6.80 
   7   0  -2   14.30    3.70 
   7   0  -2   19.10    4.50 
  -7   0   2    7.70    2.70 
  -7   0   2   15.20    4.00 
   6   0  -2    0.60    2.00 
   6   0  -2    5.20    2.40 
  -6   0   2    2.60    2.90 
  -6   0   2    4.80    1.90 
  -6   0   2    5.30    2.50 
   5   0  -2 1283.57   43.60 
   5   0  -2 1333.17   42.90 
  -5   0   2 1362.76   42.30 
  -5   0   2 1240.18   42.10 
  -5   0   2 1355.86   45.20 
  -5   0   2 1274.17   42.90 
   4   0  -2 1138.99   38.70 
   4   0  -2 1248.58   39.50 
  -4   0   2 1296.87   40.90 
  -4   0   2 1231.78   38.80 
  -4   0   2 1250.47   38.60 
  -4   0   2 1199.58   39.70 
   3   0  -2  435.26   16.00 
  -3   0   2  445.06   15.90 
  -3   0   2  473.75   17.80 
  -3   0   2  443.06   15.70 
  -3   0   2  446.56   17.20 
   2   0  -2 2917.11   83.09 
   2   0  -2 2995.90   84.79 
   2   0  -2 2780.32   84.69 
  -2   0   2 2930.81   82.39 
  -2   0   2 3000.90   82.69 
  -2   0   2 3067.19   85.19 
  -2   0   2 2934.81   84.69 
   0   0  -2  177.78    7.00 
   0   0   2  180.28    7.00 
   0   0   2  180.28    7.10 
  -1   0  -2    1.10    0.40 
  -1   0  -2    1.20    0.60 
   1   0   2    1.80    0.60 
   1   0   2    1.30    0.50 
   1   0   2    1.80    0.50 
   1   0   2    1.10    0.40 
  -2   0  -2 3755.62  106.49 
   2   0   2 3869.11  106.59 
   2   0   2 3819.22  106.19 
  -3   0  -2  257.37   10.90 
  -3   0  -2  251.57   10.60 
   3   0   2  259.77   10.50 
   3   0   2  262.07   10.80 
  -4   0  -2  121.89    4.10 
  -4   0  -2  121.79    7.50 
  -4   0  -2  124.89    7.40 
  -4   0  -2  120.69    4.40 
   4   0   2  113.89    7.20 
   4   0   2  129.19    8.60 
  -5   0  -2  537.85   21.50 
  -5   0  -2  577.54   21.90 
  -5   0  -2  547.45   16.50 
  -5   0  -2  560.94   18.10 
   5   0   2  552.14   22.50 
   5   0   2  550.64   21.60 
  -6   0  -2   81.59    3.70 
  -6   0  -2   80.99    7.30 
  -6   0  -2   83.79    4.10 
  -6   0  -2   70.89    6.90 
   6   0   2   86.99    7.30 
  -7   0  -2 1594.04   55.89 
  -7   0  -2 1585.74   55.49 
  -7   0  -2 1839.92   48.00 
   7   0   2 1645.94   55.79 
  -8   0  -2   55.19    8.20 
   8   0   2   63.79    7.20 
  -9   0  -2   43.00    7.60 
   9  -1  -2   38.60    7.30 
  -9   1   2   37.10    6.80 
   8  -1  -2    5.00    3.40 
  -8   1   2    3.70    2.50 
  -8   1   2    4.80    3.40 
   7  -1  -2  203.38   13.40 
   7  -1  -2  193.08   12.40 
  -7   1   2  203.98   13.20 
  -7   1   2  219.58   12.60 
   6  -1  -2 1217.48   43.30 
   6  -1  -2 1355.66   44.90 
  -6   1   2 1310.97   45.00 
  -6   1   2 1272.77   42.90 
   5  -1  -2  135.79    8.80 
   5  -1  -2  128.89    8.90 
   5  -1  -2  139.49    8.60 
  -5   1   2  116.49    7.70 
  -5   1   2  124.49    9.10 
  -5   1   2  124.19    8.00 
  -5   1   2  107.09    8.40 
   4  -1  -2  864.21   28.30 
   4  -1  -2  835.82   29.30 
   4  -1  -2  794.22   27.70 
  -4   1   2  812.22   28.40 
  -4   1   2  823.42   29.50 
  -4   1   2  799.12   27.30 
   3  -1  -2 2185.78   65.39 
   3  -1  -2 2311.17   63.99 
   3  -1  -2 2165.88   63.49 
  -3   1   2 2155.88   62.69 
  -3   1   2 2117.69   64.59 
  -3   1   2 2142.69   65.59 
  -3   1   2 2177.38   63.19 
   2  -1  -2   -0.30    0.60 
   2  -1  -2    1.90    0.70 
  -2   1   2    1.30    0.70 
  -2   1   2    0.00    0.80 
  -2   1   2    3.80    1.00 
   1  -1  -2 2124.89   59.09 
   1  -1  -2 2144.39   59.39 
   1  -1  -2 2103.19   61.69 
  -1   1   2 2114.49   58.69 
  -1   1   2 2201.28   58.89 
   0  -1  -2   61.69    3.60 
   0   1   2   75.99    3.70 
  -1  -1  -2   43.20    2.30 
  -1  -1  -2   42.70    2.30 
   1   1   2   40.40    2.10 
   1   1   2   42.00    2.10 
   1   1   2   49.20    2.20 
  -2  -1  -2 4563.34  128.09 
  -2  -1  -2 4515.65  125.69 
   2   1   2 4555.84  127.79 
   2   1   2 4792.72  127.89 
  -3  -1  -2  268.77    8.40 
  -3  -1  -2  261.17   11.30 
  -3  -1  -2  281.97   11.30 
   3   1   2  282.07   11.20 
   3   1   2  269.87   11.00 
   3   1   2  272.67    8.50 
  -4  -1  -2  124.69    4.80 
  -4  -1  -2  116.29    7.30 
  -4  -1  -2  121.49    7.60 
  -4  -1  -2  143.49    4.70 
   4   1   2  126.09    7.50 
   4   1   2  124.19    7.30 
  -5  -1  -2 1271.27   41.70 
  -5  -1  -2 1261.47   36.10 
  -5  -1  -2 1206.68   37.10 
  -5  -1  -2 1303.47   42.20 
   5   1   2 1256.37   41.40 
  -6  -1  -2 1000.10   26.60 
  -6  -1  -2  849.52   32.60 
  -6  -1  -2  874.31   26.50 
  -6  -1  -2  868.81   33.00 
   6   1   2  883.41   32.70 
  -7  -1  -2  656.53   20.80 
  -7  -1  -2  685.43   28.20 
  -7  -1  -2  707.63   20.40 
  -7  -1  -2  676.43   27.90 
   7   1   2  661.73   27.50 
  -8  -1  -2   92.29    9.10 
   8   1   2   74.89    7.80 
  -9  -1  -2  148.49   12.50 
   9  -2  -2  195.28   14.80 
  -9   2   2  206.18   14.80 
   8  -2  -2  117.39   10.90 
  -8   2   2  119.39    9.70 
  -8   2   2  107.39   10.40 
   7  -2  -2   61.79    7.00 
  -7   2   2   50.99    6.60 
  -7   2   2   50.19    5.90 
   6  -2  -2 3795.42  113.49 
   6  -2  -2 3838.22  112.09 
   6  -2  -2 3770.22  112.89 
  -6   2   2 3680.63  111.19 
  -6   2   2 3814.12  113.99 
   5  -2  -2  238.38   12.50 
   5  -2  -2  223.18   12.80 
   5  -2  -2  229.98   11.90 
  -5   2   2  217.48   14.00 
  -5   2   2  216.98   11.50 
  -5   2   2  237.68   13.40 
   4  -2  -2  269.77   12.20 
   4  -2  -2  263.47   13.40 
   4  -2  -2  284.57   12.60 
  -4   2   2  276.87   11.30 
  -4   2   2  274.27   11.90 
  -4   2   2  264.27   14.30 
   3  -2  -2 3751.42  107.29 
   3  -2  -2 3645.14  104.99 
   3  -2  -2 3732.03  104.99 
  -3   2   2 3716.13  104.79 
  -3   2   2 3739.63  103.89 
  -3   2   2 3636.24  105.99 
   2  -2  -2 4304.47  120.99 
   2  -2  -2 4184.18  118.19 
  -2   2   2 4281.27  118.49 
  -2   2   2 4246.28  120.19 
  -2   2   2 4267.87  117.69 
   0  -2  -2  188.38    6.30 
   0  -2  -2  189.08    7.80 
   0  -2  -2  202.18    6.70 
   0   2   2  190.78    7.50 
   0   2   2  199.18    6.30 
   0   2   2  200.78    6.30 
  -1  -2  -2 3652.93   98.79 
  -1  -2  -2 3504.25   98.89 
  -1  -2  -2 3467.05   98.89 
   1   2   2 3541.05   98.49 
   1   2   2 3701.93   98.69 
   1   2   2 3520.35   98.69 
  -2  -2  -2   -0.90    0.50 
  -2  -2  -2    0.90    0.50 
   2   2   2    0.60    0.60 
   2   2   2    0.20    0.50 
   2   2   2    1.10    0.70 
  -3  -2  -2   -0.60    0.70 
  -3  -2  -2    2.00    1.00 
  -3  -2  -2    1.60    0.60 
   3   2   2    1.50    0.80 
   3   2   2    1.90    0.90 
   3   2   2   -0.70    0.70 
  -4  -2  -2  649.64   19.40 
  -4  -2  -2  629.64   23.60 
   4   2   2  606.94   22.70 
   4   2   2  691.23   23.20 
   4   2   2  637.54   20.50 
  -5  -2  -2  183.08   11.10 
  -5  -2  -2  185.88   10.80 
  -5  -2  -2  196.48    7.30 
  -6  -2  -2   72.29    7.30 
  -6  -2  -2   74.79    3.90 
  -6  -2  -2   69.09    4.30 
  -6  -2  -2   86.29    7.40 
   6   2   2   66.69    6.50 
  -7  -2  -2   -0.60    0.90 
  -7  -2  -2    0.70    2.60 
  -7  -2  -2    3.60    2.80 
  -7  -2  -2    1.70    1.50 
   7   2   2    0.00    2.10 
  -8  -2  -2  154.78   15.20 
   8   2   2  141.29   11.20 
   9  -3  -2   80.79    9.90 
  -9   3   2   86.19   10.00 
   8  -3  -2  617.84   28.90 
   8  -3  -2  639.84   31.00 
  -8   3   2  525.35   40.20 
  -8   3   2  598.54   26.40 
   7  -3  -2  281.67   15.80 
   7  -3  -2  250.47   15.70 
   7  -3  -2  253.57   16.10 
  -7   3   2  280.37   15.20 
  -7   3   2  279.27   16.80 
   6  -3  -2  162.38   11.00 
   6  -3  -2  185.08   12.40 
   6  -3  -2  178.58   11.80 
  -6   3   2  171.28   10.70 
  -6   3   2  177.88   12.50 
   5  -3  -2  337.87   15.80 
   5  -3  -2  340.57   15.60 
   5  -3  -2  329.37   16.90 
  -5   3   2  322.17   14.90 
   4  -3  -2 1903.21   57.79 
   4  -3  -2 1934.01   57.89 
   4  -3  -2 1905.81   59.99 
  -4   3   2 1894.51   57.79 
  -4   3   2 1814.02   55.79 
  -4   3   2 1919.91   57.49 
   3  -3  -2  175.98    8.40 
   3  -3  -2  191.68   10.20 
   3  -3  -2  170.18    8.50 
  -3   3   2  182.48    8.60 
  -3   3   2  181.98    9.10 
  -3   3   2  186.98   10.20 
   2  -3  -2 1359.16   38.70 
   2  -3  -2 1299.77   41.10 
  -2   3   2 1269.57   37.90 
  -2   3   2 1275.27   38.80 
  -2   3   2 1326.57   40.20 
   1  -3  -2    1.20    0.60 
   1  -3  -2    1.70    1.00 
   1  -3  -2    2.00    0.70 
  -1   3   2    1.10    0.80 
  -1   3   2    1.40    0.60 
  -1   3   2    0.60    0.60 
   0  -3  -2   28.60    2.00 
   0  -3  -2   28.10    2.60 
   0  -3  -2   27.20    2.20 
   0   3   2   23.40    1.90 
   0   3   2   27.00    1.90 
  -3  -3  -2  625.24   22.40 
  -3  -3  -2  632.44   20.10 
  -3  -3  -2  638.64   21.90 
   3   3   2  659.53   22.20 
   3   3   2  623.94   20.60 
   3   3   2  665.53   22.10 
  -4  -3  -2 1665.23   51.59 
  -4  -3  -2 1678.93   48.40 
  -4  -3  -2 1656.33   52.29 
   4   3   2 1639.24   49.70 
   4   3   2 1724.13   51.89 
  -5  -3  -2 7839.72  220.18 
  -5  -3  -2 8218.58  225.38 
   5   3   2 7974.10  225.18 
   5   3   2 7967.70  222.28 
  -6  -3  -2    3.00    1.40 
  -6  -3  -2    6.70    3.20 
  -6  -3  -2    0.00    1.70 
  -6  -3  -2    0.40    1.10 
   6   3   2   -0.70    1.80 
   6   3   2    3.40    1.80 
  -7  -3  -2   20.70    3.00 
  -7  -3  -2   26.10    5.20 
  -7  -3  -2   14.20    5.00 
  -7  -3  -2   15.50    2.20 
   7   3   2   23.90    4.50 
  -8  -3  -2   73.29    4.00 
  -8  -3  -2   81.79    8.70 
   8  -4  -2  245.58   16.80 
   8  -4  -2  235.28   16.30 
  -8   4   2  220.48   16.50 
   7  -4  -2  802.72   34.30 
   7  -4  -2  812.82   33.40 
   7  -4  -2  836.52   32.50 
  -7   4   2  827.92   35.10 
  -7   4   2  793.92   31.60 
   6  -4  -2  119.19    9.50 
   6  -4  -2  116.89    9.10 
   6  -4  -2  113.09   10.00 
  -6   4   2  123.29    8.80 
   5  -4  -2 1620.24   50.59 
   5  -4  -2 1473.35   49.50 
   5  -4  -2 1515.45   52.09 
  -5   4   2 1564.84   49.70 
   4  -4  -2  780.82   27.80 
   4  -4  -2  801.12   30.10 
   4  -4  -2  793.32   27.80 
  -4   4   2  803.02   27.70 
   3  -4  -2 2682.13   75.09 
   3  -4  -2 2541.85   77.59 
   3  -4  -2 2577.24   75.39 
  -3   4   2 2551.24   75.19 
  -3   4   2 2608.24   75.89 
  -3   4   2 2496.35   73.69 
   2  -4  -2   80.09    5.00 
   2  -4  -2   76.79    4.60 
   2  -4  -2   66.99    8.10 
  -2   4   2   80.19    6.20 
  -2   4   2   81.49    4.90 
   1  -4  -2  282.87   10.50 
   1  -4  -2  275.57   12.10 
  -1   4   2  280.27   11.50 
  -1   4   2  288.37   10.10 
  -1   4   2  301.67   10.90 
   0  -4  -2 1380.26   40.80 
   0  -4  -2 1421.06   42.60 
   0   4   2 1411.06   41.10 
   0   4   2 1408.26   40.50 
   0   4   2 1363.36   42.00 
  -1  -4  -2 7054.59  196.08 
   1   4   2 7095.09  196.08 
   1   4   2 7207.98  195.38 
   1   4   2 6917.81  195.18 
  -2  -4  -2  632.94   22.20 
  -2  -4  -2  688.23   21.50 
  -2  -4  -2  652.13   21.80 
   2   4   2  631.94   21.60 
   2   4   2  632.34   21.60 
   2   4   2  644.64   21.80 
  -3  -4  -2  367.56   15.40 
  -3  -4  -2  379.26   14.80 
  -3  -4  -2  363.66   13.70 
   3   4   2  378.46   14.40 
   3   4   2  390.16   15.30 
   3   4   2  389.66   15.20 
  -4  -4  -2 2411.06   69.59 
  -4  -4  -2 2246.38   78.29 
  -4  -4  -2 2509.65   72.29 
   4   4   2 2426.56   71.09 
   4   4   2 2473.05   72.59 
  -5  -4  -2 1092.39   36.60 
  -5  -4  -2 1070.09   38.00 
  -5  -4  -2 1060.39   33.20 
   5   4   2 1069.99   37.00 
   5   4   2 1072.89   35.30 
  -6  -4  -2  125.09    8.90 
  -6  -4  -2  116.59    6.20 
   6   4   2  106.99    7.50 
   6   4   2   96.49    8.50 
  -7  -4  -2    5.50    4.00 
  -7  -4  -2    5.50    3.50 
  -7  -4  -2    4.10    2.40 
   7   4   2    5.50    2.70 
   8  -5  -2   79.49    9.40 
   8  -5  -2   66.99    9.30 
  -8   5   2   57.29    9.50 
   7  -5  -2  219.58   15.60 
   7  -5  -2  240.88   14.40 
   7  -5  -2  213.88   14.90 
  -7   5   2  221.58   13.70 
   6  -5  -2   -0.30    2.10 
   6  -5  -2   -1.00    2.20 
   6  -5  -2    0.30    2.40 
  -6   5   2    1.90    2.60 
   5  -5  -2   94.99    7.70 
   5  -5  -2  100.19    8.10 
   5  -5  -2   83.39    8.60 
  -5   5   2   98.09    7.50 
   4  -5  -2  128.69    9.80 
   4  -5  -2  138.19   13.40 
   4  -5  -2  131.99    8.50 
  -4   5   2  142.59    8.60 
   3  -5  -2  741.43   26.40 
   3  -5  -2  779.22   26.10 
   3  -5  -2  759.62   28.60 
  -3   5   2  769.72   26.30 
   2  -5  -2   22.10    4.00 
   2  -5  -2   21.80    2.70 
   2  -5  -2   21.50    3.20 
  -2   5   2   20.40    2.80 
  -2   5   2   24.10    2.50 
  -2   5   2   19.20    3.00 
   1  -5  -2   73.89    5.10 
   1  -5  -2   77.69    5.90 
   1  -5  -2   83.59    4.90 
  -1   5   2   69.79    4.30 
  -1   5   2   76.19    4.90 
  -1   5   2   79.99    5.50 
   0  -5  -2 2326.17   67.09 
   0  -5  -2 2050.69   65.69 
   0  -5  -2 2280.67   65.09 
   0   5   2 2317.67   65.39 
   0   5   2 2263.97   66.59 
   0   5   2 2284.07   64.69 
  -1  -5  -2  769.82   29.10 
  -1  -5  -2  826.02   26.80 
  -1  -5  -2  817.52   25.50 
   1   5   2  703.13   30.20 
   1   5   2  818.52   25.70 
   1   5   2  796.52   25.50 
  -2  -5  -2  372.86   14.10 
  -2  -5  -2  379.66   14.60 
  -2  -5  -2  359.06   15.10 
   2   5   2  379.86   14.50 
   2   5   2  354.86   15.20 
  -3  -5  -2  334.67   13.50 
  -3  -5  -2  313.57   12.90 
  -3  -5  -2  309.27   14.40 
   3   5   2  314.77   14.10 
   3   5   2  312.57   13.70 
  -4  -5  -2  266.37   12.50 
  -4  -5  -2  255.47   13.50 
  -4  -5  -2  258.77   11.40 
   4   5   2  247.18   12.70 
  -5  -5  -2   19.10    3.80 
  -5  -5  -2   24.60    5.20 
   5   5   2   29.80    4.80 
   5   5   2   19.80    3.80 
  -6  -5  -2    1.00    1.50 
  -6  -5  -2    0.20    1.90 
  -6  -5  -2   -3.50    3.20 
   6   5   2    0.50    2.30 
  -7  -5  -2   45.80    4.60 
  -7  -5  -2   46.10    7.00 
   7   5   2   51.09   11.20 
  -8  -5  -2    0.20    2.60 
   8  -6  -2   67.19   10.40 
   8  -6  -2   83.89   10.10 
  -8   6   2   87.69   11.10 
   7  -6  -2    6.00    3.30 
   7  -6  -2    4.30    3.50 
   6  -6  -2   73.99   11.80 
   6  -6  -2   65.39    8.40 
   6  -6  -2   86.39    8.10 
  -6   6   2   74.89    7.20 
   5  -6  -2  226.18   14.80 
   5  -6  -2  220.58   12.90 
   5  -6  -2  218.88   12.70 
  -5   6   2  226.98   12.50 
   4  -6  -2   35.00    5.10 
   4  -6  -2   32.60    5.00 
   4  -6  -2   42.90    6.90 
  -4   6   2   35.60    4.30 
   3  -6  -2  201.58   10.40 
   3  -6  -2  213.48   11.00 
   3  -6  -2  215.28   12.70 
  -3   6   2  207.18   10.70 
   2  -6  -2  334.07   13.60 
   2  -6  -2  323.37   15.60 
   2  -6  -2  313.17   14.10 
  -2   6   2  332.37   13.90 
   1  -6  -2  421.36   15.70 
   1  -6  -2  404.36   16.40 
   1  -6  -2  415.46   17.60 
  -1   6   2  410.76   15.80 
   0  -6  -2  155.08    8.80 
   0  -6  -2  168.98    9.50 
   0  -6  -2  155.98    8.10 
   0   6   2  163.88    8.30 
  -1  -6  -2  274.67   11.70 
  -1  -6  -2  278.87   12.90 
  -1  -6  -2  274.97   12.80 
   1   6   2  274.57   11.90 
  -2  -6  -2  144.19    8.90 
  -2  -6  -2  152.38    8.10 
  -2  -6  -2  145.29    8.50 
   2   6   2  154.98    8.40 
   2   6   2  133.69   10.20 
  -3  -6  -2   49.99    4.70 
  -3  -6  -2   46.10    4.70 
  -3  -6  -2   48.90    9.10 
   3   6   2   45.40    6.40 
   3   6   2   55.09    5.00 
  -4  -6  -2  180.78    9.90 
  -4  -6  -2  165.18    9.20 
  -4  -6  -2  156.68   10.50 
   4   6   2  165.18   10.20 
  -5  -6  -2   81.59    8.10 
  -5  -6  -2   71.39    6.70 
  -5  -6  -2   86.09    6.20 
   5   6   2   92.09    7.90 
  -6  -6  -2    2.50    2.30 
  -6  -6  -2    0.20    1.80 
  -6  -6  -2   -2.60    5.40 
   6   6   2    2.40    2.20 
  -7  -6  -2   91.09    6.50 
  -7  -6  -2   98.39    8.90 
   7  -7  -2   24.00    5.90 
   7  -7  -2   19.40    5.70 
   6  -7  -2    2.70    3.00 
   6  -7  -2   13.20    5.50 
   6  -7  -2    3.20    3.20 
  -6   7   2    6.80    3.10 
   5  -7  -2   84.29    9.30 
   5  -7  -2   81.49    7.90 
  -5   7   2  100.69    8.10 
   4  -7  -2  350.66   16.80 
   4  -7  -2  368.56   19.50 
   4  -7  -2  371.16   17.30 
  -4   7   2  386.86   17.20 
   3  -7  -2   62.29    6.80 
   3  -7  -2   49.70    5.30 
   3  -7  -2   57.39    6.10 
  -3   7   2   49.00    5.10 
   2  -7  -2   88.79    7.00 
   2  -7  -2   79.79    6.20 
   2  -7  -2   97.49    8.10 
  -2   7   2   82.19    6.30 
   1  -7  -2  979.80   31.80 
   1  -7  -2  936.11   32.70 
   1  -7  -2  989.70   34.50 
  -1   7   2  907.61   31.70 
   0  -7  -2   62.39    5.20 
   0  -7  -2   58.29    6.00 
   0  -7  -2   66.49    6.50 
   0   7   2   57.19    5.20 
  -1  -7  -2  852.31   28.10 
  -1  -7  -2  829.22   29.80 
  -1  -7  -2  790.82   29.40 
   1   7   2  799.32   27.90 
  -2  -7  -2   16.10    3.50 
  -2  -7  -2    0.00    3.30 
  -2  -7  -2   11.60    2.70 
   2   7   2   11.20    2.70 
  -3  -7  -2   68.79    6.20 
  -3  -7  -2   70.39    6.10 
  -3  -7  -2   74.09    7.20 
   3   7   2   72.39    6.20 
  -4  -7  -2  435.06   18.70 
  -4  -7  -2  441.06   20.60 
  -4  -7  -2  429.06   18.30 
   4   7   2  459.65   19.70 
  -5  -7  -2   54.59    5.60 
  -5  -7  -2   72.99    7.80 
  -5  -7  -2   68.19    6.60 
   5   7   2   63.49    6.70 
  -6  -7  -2   16.60    4.00 
  -6  -7  -2   20.00    3.90 
   6  -8  -2    2.20    2.90 
   6  -8  -2    1.40    3.00 
   5  -8  -2    4.60    3.60 
   5  -8  -2    6.60    4.30 
   5  -8  -2    5.50    2.90 
  -5   8   2   11.40    3.60 
   4  -8  -2   94.89    9.80 
   4  -8  -2  100.29    8.60 
   4  -8  -2   90.19    8.10 
  -4   8   2   97.79    7.80 
   3  -8  -2  258.27   13.60 
   3  -8  -2  260.97   16.00 
   3  -8  -2  266.97   14.30 
  -3   8   2  259.77   13.60 
   2  -8  -2  218.88   12.60 
   2  -8  -2  225.38   14.10 
   2  -8  -2  222.38   12.00 
  -2   8   2  245.08   12.30 
   1  -8  -2    1.10    2.10 
   1  -8  -2   -0.10    1.50 
  -1   8   2    0.30    1.50 
   0  -8  -2  410.56   19.10 
   0  -8  -2  432.56   17.90 
   0  -8  -2  460.25   20.40 
   0   8   2  414.56   17.80 
  -1  -8  -2   79.19    7.50 
  -1  -8  -2   64.89    7.00 
  -1  -8  -2   66.29    6.20 
   1   8   2   69.39    6.00 
  -2  -8  -2    2.60    1.90 
  -2  -8  -2    2.50    1.80 
  -2  -8  -2   -0.50    2.30 
   2   8   2    1.00    1.70 
  -3  -8  -2  134.29    9.30 
  -3  -8  -2  116.99   10.10 
  -3  -8  -2  114.19    9.40 
   3   8   2  136.89    9.20 
  -4  -8  -2   55.99    7.70 
  -4  -8  -2   62.19    6.40 
  -4  -8  -2   50.89    6.10 
   4   8   2   53.99    6.40 
  -5  -8  -2   19.00    3.90 
  -6  -8  -2   86.79    7.70 
  -6  -8  -2   98.09    8.90 
   5  -9  -2  115.69   10.30 
   5  -9  -2  131.59   12.60 
   4  -9  -2   -1.70    2.90 
   4  -9  -2    1.30    2.20 
   3  -9  -2  154.28   10.70 
   3  -9  -2  167.98   11.60 
   3  -9  -2  160.68   13.00 
  -3   9   2  145.19   10.10 
   2  -9  -2  141.69    9.80 
   2  -9  -2  146.39   10.80 
   2  -9  -2  136.59   11.30 
  -2   9   2  142.19    9.70 
   1  -9  -2  319.97   17.70 
   1  -9  -2  315.97   16.60 
   1  -9  -2  310.27   15.10 
  -1   9   2  303.47   15.00 
   0  -9  -2   36.10    6.50 
   0  -9  -2   34.80    5.40 
   0  -9  -2   31.50    5.80 
   0   9   2   28.00    4.60 
  -1  -9  -2    2.00    3.10 
  -1  -9  -2   -0.30    1.70 
  -1  -9  -2   -2.20    1.70 
   1   9   2   -2.80    1.50 
  -2  -9  -2   57.89    6.20 
  -2  -9  -2   72.99    8.00 
  -2  -9  -2   62.99    6.90 
   2   9   2   50.39    5.80 
  -3  -9  -2    5.60    4.00 
  -3  -9  -2   12.60    3.50 
  -3  -9  -2    2.30    2.40 
  -4  -9  -2    7.70    3.00 
  -4  -9  -2    3.60    2.60 
  -5  -9  -2    0.70    2.30 
  -5  -9  -2   -2.60    1.80 
   4 -10  -2   13.60    5.30 
   4 -10  -2   10.10    4.20 
   3 -10  -2   27.70    8.00 
   3 -10  -2   29.20    5.70 
   2 -10  -2   25.70    6.20 
   2 -10  -2    9.20    3.60 
   1 -10  -2    4.10    2.70 
   1 -10  -2    4.70    2.50 
   0 -10  -2   26.60    5.50 
   0 -10  -2   27.80    5.10 
   0 -10  -2   16.40    8.20 
  -1 -10  -2   -2.90    2.10 
  -1 -10  -2   -1.80    2.20 
  -2 -10  -2   57.49    7.00 
  -2 -10  -2   60.09    7.50 
  -3 -10  -2    2.00    2.90 
  -3 -10  -2   -1.10    2.10 
   2 -11  -2   -2.30    2.70 
   2 -11  -2    0.60    2.60 
   1 -11  -2   32.00    6.70 
   1 -11  -2   29.60    5.20 
   0 -11  -2    2.00    2.70 
   0 -11  -2    6.40    3.60 
  -1 -11  -2   -2.60    2.30 
  -1 -11  -2   -1.60    3.00 
   1  11  -3   16.40    5.40 
  -1 -11   3   24.50    6.00 
  -1 -11   3   24.40    5.50 
   0  11  -3   -4.90    2.40 
   0 -11   3    4.20    3.40 
   0 -11   3    4.90    3.20 
  -1  11  -3   13.00    4.80 
   1 -11   3   24.60    5.90 
   1 -11   3   30.40    5.80 
  -2  11  -3   12.80    7.90 
   2 -11   3   10.70    3.80 
   2 -11   3    9.40    4.20 
   3  10  -3    4.80    3.50 
  -3 -10   3   -1.80    2.70 
  -3 -10   3   -1.20    2.80 
   2  10  -3   -2.40    2.50 
  -2 -10   3   -1.20    3.10 
  -2 -10   3   -2.20    3.10 
   1  10  -3   18.30    5.00 
  -1 -10   3   13.10    4.30 
  -1 -10   3   18.30    4.20 
   0  10  -3    2.90    2.30 
   0 -10   3   -2.00    2.60 
   0 -10   3   10.00    3.10 
  -1  10  -3    7.70    3.00 
   1 -10   3   -2.80    2.40 
   1 -10   3    2.50    2.20 
  -2  10  -3   -6.20    2.30 
   2 -10   3   10.30    3.50 
   2 -10   3    2.50    2.70 
  -3  10  -3   10.00    3.70 
   3 -10   3   18.90    4.60 
   3 -10   3   25.70    5.40 
  -4  10  -3   -1.50    3.30 
   4 -10   3    0.60    3.00 
   4 -10   3    6.40    3.30 
   5   9  -3   28.40    6.20 
  -5  -9   3   29.60    5.40 
   4   9  -3    6.70    4.00 
  -4  -9   3    8.50    3.20 
  -4  -9   3    2.40    3.60 
   3   9  -3    2.10    2.80 
  -3  -9   3    3.50    3.20 
  -3  -9   3    4.50    3.00 
   2   9  -3   32.40    6.00 
  -2  -9   3   31.70    6.20 
  -2  -9   3   32.00    5.20 
   1   9  -3   -0.20    2.50 
  -1  -9   3    4.80    3.00 
  -1  -9   3    2.80    2.50 
   0   9  -3   70.79    7.30 
   0  -9   3   62.59    6.60 
   0  -9   3   72.49    7.50 
  -1   9  -3   27.30    5.60 
   1  -9   3   36.30    6.00 
   1  -9   3   35.20    5.40 
  -2   9  -3   29.60    5.50 
   2  -9   3   20.60    4.50 
   2  -9   3   20.80    4.60 
   3  -9   3   37.30    6.50 
   3  -9   3   42.50    6.60 
  -4   9  -3   72.19    8.20 
   4  -9   3   48.80    7.10 
   4  -9   3   54.39    7.00 
  -5   9  -3   13.20    4.00 
   5  -9   3    3.10    3.20 
   5  -9   3   12.50    4.30 
   6   8  -3   16.30    6.00 
  -6  -8   3   11.10    4.50 
  -6  -8   3   10.10    4.70 
   5   8  -3   18.80    5.20 
  -5  -8   3   21.80    4.80 
  -5  -8   3   24.20    5.60 
   4   8  -3   17.50    4.40 
  -4  -8   3   10.60    3.60 
  -4  -8   3   13.80    4.20 
   3   8  -3    7.90    3.10 
  -3  -8   3    3.40    3.40 
  -3  -8   3    3.20    2.50 
   2   8  -3  150.38   10.80 
  -2  -8   3  133.39   10.40 
  -2  -8   3  126.09    8.90 
   1   8  -3    3.40    2.50 
  -1  -8   3    4.00    3.00 
  -1  -8   3    6.10    2.50 
   0   8  -3   15.20    3.50 
   0  -8   3   19.90    3.80 
   0  -8   3   24.50    5.00 
  -1   8  -3  146.09    9.90 
   1  -8   3  138.49   10.20 
   1  -8   3  136.09    9.10 
  -2   8  -3   30.00    5.20 
   2  -8   3   26.90    5.10 
   2  -8   3   26.00    4.50 
  -3   8  -3   48.00    6.20 
   3  -8   3   42.30    6.10 
   3  -8   3   29.60    5.30 
  -4   8  -3  315.27   17.50 
   4  -8   3  310.27   16.50 
   4  -8   3  316.17   16.90 
  -5   8  -3  100.79    9.50 
   5  -8   3   94.19    8.80 
   5  -8   3   81.49    8.80 
  -6   8  -3   -4.00    2.90 
   6  -8   3    1.70    4.10 
   6  -8   3   -3.60    2.50 
   6   7  -3  341.07   19.60 
  -6  -7   3  328.77   17.20 
  -6  -7   3  301.17   17.40 
   5   7  -3   64.59    7.70 
  -5  -7   3   45.20    7.30 
  -5  -7   3   52.99    6.00 
   4   7  -3   12.50    3.90 
  -4  -7   3    0.40    2.70 
  -4  -7   3    4.70    2.40 
   3   7  -3   -0.20    1.90 
  -3  -7   3    9.90    4.40 
  -3  -7   3    4.10    2.30 
   2   7  -3    5.70    2.20 
   2   7  -3    5.50    2.80 
  -2  -7   3   10.30    3.80 
  -2  -7   3    5.00    2.20 
   1   7  -3  199.68   10.40 
   1   7  -3  194.68   11.60 
  -1  -7   3  206.38   10.70 
  -1  -7   3  199.88   12.00 
   0   7  -3  918.31   31.00 
   0   7  -3  815.52   35.40 
   0  -7   3  932.11   32.60 
   0  -7   3  905.01   30.90 
  -1   7  -3  190.48   10.00 
  -1   7  -3  182.48   11.40 
   1  -7   3  193.58   11.20 
   1  -7   3  187.18   10.30 
  -2   7  -3   94.09    7.00 
  -2   7  -3   99.49    7.90 
   2  -7   3   91.79    7.10 
   2  -7   3   97.19    7.60 
  -3   7  -3  797.12   30.40 
  -3   7  -3  790.42   28.40 
   3  -7   3  770.82   28.90 
   3  -7   3  787.62   28.80 
  -4   7  -3  782.42   31.00 
   4  -7   3  777.42   30.00 
   4  -7   3  763.22   29.10 
  -5   7  -3   41.10    6.90 
   5  -7   3   35.20    6.00 
   5  -7   3   42.20    6.40 
  -6   7  -3   34.50    6.60 
   6  -7   3   37.90    7.90 
   6  -7   3   41.30    7.40 
  -7   7  -3    3.10    4.70 
   7  -7   3   19.30    4.70 
   7  -7   3   17.40    6.30 
   7   6  -3   22.20    5.50 
  -7  -6   3   18.80    4.90 
  -7  -6   3   11.40    3.90 
   6   6  -3  197.28   14.30 
  -6  -6   3  194.68   13.50 
  -6  -6   3  180.38   12.60 
   5   6  -3   35.50    5.80 
  -5  -6   3   27.10    4.50 
  -5  -6   3   26.30    6.50 
   4   6  -3   27.30    4.80 
   4   6  -3   29.00    5.20 
  -4  -6   3   25.80    4.10 
  -4  -6   3   26.40    5.00 
   3   6  -3  224.18   12.60 
  -3  -6   3  207.18   10.70 
  -3  -6   3  195.88   12.10 
   2   6  -3   44.00   10.00 
   2   6  -3   42.90    4.30 
  -2  -6   3   35.20    5.20 
  -2  -6   3   41.60    7.20 
  -2  -6   3   49.20    4.50 
   1   6  -3    1.10    1.60 
   1   6  -3    0.20    1.20 
  -1  -6   3    2.40    1.40 
  -1  -6   3    3.20    2.00 
  -1  -6   3    0.60    1.50 
   0   6  -3  103.09    6.50 
   0   6  -3  104.09    7.50 
   0  -6   3   99.19    7.60 
   0  -6   3  100.39    7.20 
   0  -6   3   99.09    6.50 
  -1   6  -3  729.03   24.70 
  -1   6  -3  740.83   26.20 
   1  -6   3  741.13   26.10 
   1  -6   3  679.63   24.70 
   1  -6   3  674.83   25.80 
  -2   6  -3   13.50    3.70 
  -2   6  -3   19.00    3.40 
   2  -6   3   19.20    3.70 
   2  -6   3   15.00    3.20 
   2  -6   3   20.80    3.90 
  -3   6  -3  199.08   10.60 
  -3   6  -3  209.98   12.10 
   3  -6   3  197.18   10.60 
   3  -6   3  211.88   11.20 
  -4   6  -3  237.08   13.50 
  -4   6  -3  235.18   12.10 
   4  -6   3  217.98   12.40 
   4  -6   3  223.38   12.00 
  -5   6  -3    4.50    2.60 
   5  -6   3    4.70    2.80 
   5  -6   3    4.30    2.80 
  -6   6  -3  119.19   10.40 
   6  -6   3  130.79   10.60 
   6  -6   3  128.79    9.60 
  -7   6  -3   22.10    5.60 
   7  -6   3   38.70    6.80 
   7  -6   3   32.00    5.80 
   8   5  -3   -3.10    6.20 
  -8  -5   3   18.00    5.10 
   7   5  -3   20.70    5.10 
  -7  -5   3   23.70    4.80 
  -7  -5   3   13.30    4.40 
   6   5  -3   38.40    6.40 
  -6  -5   3   38.90    5.90 
  -6  -5   3   27.20    7.90 
   5   5  -3  161.28   11.00 
   5   5  -3  172.38   11.40 
  -5  -5   3  158.28    9.60 
  -5  -5   3  169.08   11.10 
   4   5  -3  101.49    8.10 
   4   5  -3  109.29    8.00 
  -4  -5   3  115.99    8.50 
  -4  -5   3   98.29    7.00 
   3   5  -3   49.70    4.80 
   3   5  -3   51.49    6.70 
  -3  -5   3   58.29    4.90 
  -3  -5   3   51.39    5.30 
  -3  -5   3   51.79    5.60 
   2   5  -3  220.68   11.40 
   2   5  -3  209.78   10.00 
  -2  -5   3  210.98   10.90 
  -2  -5   3  220.68   11.60 
  -2  -5   3  215.98   10.00 
   1   5  -3  210.38   10.50 
   1   5  -3  197.68    9.10 
   1   5  -3  184.68   11.10 
  -1  -5   3  205.68   10.80 
  -1  -5   3  182.18   10.60 
  -1  -5   3  200.38    9.20 
   0   5  -3   25.70    3.80 
   0   5  -3   32.60    3.30 
   0   5  -3   29.10    3.80 
   0  -5   3   38.40    4.40 
   0  -5   3   29.70    3.30 
   0  -5   3   34.30    4.40 
  -1   5  -3  316.97   14.30 
  -1   5  -3  343.77   14.10 
  -1   5  -3  314.27   12.80 
   1  -5   3  286.07   15.20 
   1  -5   3  330.87   13.10 
   1  -5   3  324.67   13.70 
  -2   5  -3  175.98    8.80 
  -2   5  -3  159.68    9.20 
  -2   5  -3  171.68    9.70 
   2  -5   3  175.08    9.00 
   2  -5   3  185.98    9.20 
   2  -5   3  184.28    9.60 
  -3   5  -3   20.70    3.70 
  -3   5  -3   26.60    3.50 
   3  -5   3   24.10    3.70 
   3  -5   3   22.10    3.80 
   3  -5   3   20.90    3.50 
  -4   5  -3  307.87   13.50 
  -4   5  -3  299.37   15.10 
  -4   5  -3  282.57   13.50 
   4  -5   3  289.77   13.20 
   4  -5   3  313.27   14.80 
  -5   5  -3   24.20    4.00 
  -5   5  -3   23.40    4.10 
  -5   5  -3   29.80    5.30 
   5  -5   3   25.60    4.90 
   5  -5   3   34.50    4.30 
  -6   5  -3   25.90    5.80 
   6  -5   3   33.40    4.50 
   6  -5   3   32.90    5.80 
  -7   5  -3   20.70    4.90 
   7  -5   3   25.70    5.60 
   7  -5   3   22.60    4.50 
  -8   5  -3   88.59    8.50 
   8  -5   3   91.69    7.90 
   8   4  -3    0.60    4.30 
  -8  -4   3    3.90    2.90 
   7   4  -3   52.89    8.00 
  -7  -4   3   63.09    6.50 
  -7  -4   3   65.89    7.50 
   6   4  -3   45.80    6.70 
   6   4  -3   40.10    6.50 
  -6  -4   3   34.80    5.80 
  -6  -4   3   35.00    5.30 
   5   4  -3   51.69    6.10 
   5   4  -3   57.69    6.10 
  -5  -4   3   45.80    5.80 
  -5  -4   3   51.79    4.90 
   4   4  -3   91.79    7.30 
   4   4  -3   72.29    6.20 
  -4  -4   3   84.89    5.90 
  -4  -4   3   71.99    6.70 
   3   4  -3   45.60    5.90 
   3   4  -3   54.89    4.70 
   3   4  -3   59.89    5.40 
  -3  -4   3   45.50    4.90 
  -3  -4   3   45.90    5.00 
  -3  -4   3   54.79    4.40 
   2   4  -3  115.89    7.40 
   2   4  -3  118.59    8.40 
   2   4  -3  109.89    6.40 
  -2  -4   3  116.69    7.10 
  -2  -4   3  126.29    8.00 
  -2  -4   3  125.89    6.50 
   1   4  -3  841.42   27.20 
   1   4  -3  824.62   29.40 
   1   4  -3  805.02   25.60 
  -1  -4   3  747.83   26.40 
   0   4  -3 3380.36   97.19 
   0   4  -3 3606.74   98.69 
   0   4  -3 3193.78   99.39 
   0  -4   3 3485.05   97.39 
   0  -4   3 3586.34   99.19 
   0  -4   3 3395.96   98.29 
  -1   4  -3  185.88    9.70 
  -1   4  -3  199.08    8.70 
  -1   4  -3  197.88    9.50 
   1  -4   3  219.48   10.00 
   1  -4   3  199.88    9.40 
   1  -4   3  213.88    9.70 
  -2   4  -3   24.90    3.30 
  -2   4  -3   19.40    2.90 
  -2   4  -3   24.50    2.80 
   2  -4   3   23.90    3.10 
   2  -4   3   26.20    2.90 
   2  -4   3   22.00    2.80 
  -3   4  -3 1042.70   33.70 
  -3   4  -3  932.41   31.70 
  -3   4  -3  996.00   32.10 
   3  -4   3 1008.30   32.80 
   3  -4   3 1017.20   31.40 
   3  -4   3  960.50   32.60 
  -4   4  -3   18.20    3.10 
  -4   4  -3   13.00    2.90 
  -4   4  -3   18.30    3.80 
   4  -4   3   14.80    3.20 
   4  -4   3   18.30    3.00 
  -5   4  -3  312.57   14.40 
  -5   4  -3  309.37   15.80 
  -5   4  -3  312.47   12.90 
   5  -4   3  313.17   15.60 
   5  -4   3  313.17   13.60 
  -6   4  -3   60.19    7.50 
  -6   4  -3   58.29    6.90 
  -6   4  -3   72.69    6.80 
   6  -4   3   63.99    5.50 
   6  -4   3   64.19    7.00 
  -7   4  -3   39.30    4.90 
  -7   4  -3   51.99    8.40 
   7  -4   3   40.40    6.90 
  -8   4  -3  177.48   13.40 
  -8   4  -3  180.88   17.10 
   8  -4   3  192.58   15.30 
   8   3  -3   28.60    6.50 
  -8  -3   3   42.20    6.90 
  -8  -3   3   36.30    5.80 
   7   3  -3  215.68   14.50 
  -7  -3   3  262.57   14.50 
  -7  -3   3  219.38   12.80 
   6   3  -3  225.58   13.50 
   6   3  -3  231.68   13.60 
  -6  -3   3  222.88   13.20 
  -6  -3   3  210.88   11.70 
   5   3  -3  597.44   24.30 
   5   3  -3  634.84   25.00 
  -5  -3   3  615.94   24.80 
  -5  -3   3  639.04   23.00 
   4   3  -3   66.39    6.90 
   4   3  -3   70.89    6.10 
   4   3  -3   74.19    6.00 
  -4  -3   3   66.39    6.40 
  -4  -3   3   63.19    5.80 
  -4  -3   3   67.09    5.10 
   3   3  -3  450.25   17.60 
   3   3  -3  448.96   19.50 
  -3  -3   3  443.66   17.50 
  -3  -3   3  429.36   18.20 
  -3  -3   3  452.75   17.80 
   2   3  -3 1449.55   44.40 
   2   3  -3 1535.55   45.80 
   2   3  -3 1466.35   47.80 
  -2  -3   3 1505.35   45.30 
  -2  -3   3 1478.85   44.10 
  -2  -3   3 1533.05   47.00 
   1   3  -3 1238.98   37.60 
   1   3  -3 1196.38   36.20 
   1   3  -3 1143.89   38.90 
  -1  -3   3 1268.37   36.40 
  -1  -3   3 1207.18   37.10 
  -1  -3   3 1286.57   38.70 
   0   3  -3  590.24   21.20 
   0   3  -3  592.44   19.20 
   0   3  -3  615.24   20.10 
   0  -3   3  599.14   20.70 
   0  -3   3  623.14   19.30 
   0  -3   3  599.14   20.00 
  -1   3  -3  723.33   25.00 
  -1   3  -3  798.52   25.00 
  -1   3  -3  777.02   24.20 
   1  -3   3  804.52   24.90 
   1  -3   3  746.13   24.60 
   1  -3   3  794.12   24.30 
  -2   3  -3 1055.19   32.40 
  -2   3  -3  995.10   31.30 
  -2   3  -3  938.31   31.40 
   2  -3   3 1041.90   31.80 
   2  -3   3 1075.69   31.20 
   2  -3   3  988.20   31.70 
  -3   3  -3 5380.86  155.48 
  -3   3  -3 5671.63  153.58 
  -3   3  -3 5477.95  155.48 
   3  -3   3 5316.07  155.08 
   3  -3   3 5666.33  152.88 
   3  -3   3 5518.25  155.08 
  -4   3  -3  110.89    5.90 
  -4   3  -3  118.59    7.20 
  -4   3  -3  108.99    7.60 
   4  -3   3  109.59    6.00 
   4  -3   3  117.99    7.70 
   4  -3   3  104.39    7.00 
  -5   3  -3   47.60    5.50 
  -5   3  -3   50.99    3.90 
  -5   3  -3   47.50    4.90 
   5  -3   3   50.49    4.10 
   5  -3   3   53.09    5.50 
  -6   3  -3   18.20    4.20 
  -6   3  -3   18.70    2.60 
   6  -3   3   18.50    3.90 
   6  -3   3   21.50    2.80 
  -7   3  -3   53.29    7.00 
  -7   3  -3   63.69    5.20 
  -7   3  -3   62.49    4.60 
   7  -3   3   61.69    5.00 
   7  -3   3   61.49    7.10 
  -8   3  -3    3.30    1.80 
  -8   3  -3    0.00    3.20 
   8  -3   3   -4.30    2.30 
   8   2  -3    2.80    3.60 
  -8  -2   3    2.40    2.40 
  -8  -2   3   12.20    3.30 
   7   2  -3   18.00    4.70 
   7   2  -3   20.50    4.70 
  -7  -2   3   15.90    4.20 
  -7  -2   3   10.90    3.30 
   6   2  -3   16.90    3.60 
   6   2  -3    9.30    3.40 
  -6  -2   3   15.20    3.20 
  -6  -2   3   12.00    3.50 
   5   2  -3  565.04   22.90 
   5   2  -3  602.64   23.30 
  -5  -2   3  580.84   21.60 
  -5  -2   3  578.54   23.80 
   4   2  -3 2882.81   85.89 
   4   2  -3 2938.21   89.19 
   4   2  -3 2747.72   91.19 
  -4  -2   3 3083.19   88.19 
  -4  -2   3 2922.01   88.59 
  -4  -2   3 2928.81   86.29 
  -4  -2   3 2972.30   84.69 
   3   2  -3   36.10    3.50 
   3   2  -3   43.40    4.80 
   3   2  -3   37.10    3.80 
  -3  -2   3   35.40    3.10 
  -3  -2   3   34.00    3.60 
  -3  -2   3   38.40    4.40 
   2   2  -3   25.50    3.50 
   2   2  -3   20.90    2.50 
   2   2  -3   16.70    2.00 
  -2  -2   3   21.10    3.00 
  -2  -2   3   18.00    2.40 
  -2  -2   3   23.70    2.10 
   1   2  -3  876.61   26.90 
   1   2  -3  855.31   28.90 
  -1  -2   3  868.71   25.90 
  -1  -2   3  854.41   26.50 
  -1  -2   3  891.91   28.60 
   0   2  -3  298.47   10.60 
   0   2  -3  295.07   11.80 
   0  -2   3  285.17   11.30 
   0  -2   3  296.17    9.90 
   0  -2   3  279.97   10.20 
  -1   2  -3  881.31   26.30 
  -1   2  -3  835.82   26.70 
   1  -2   3  864.01   26.30 
   1  -2   3  859.11   25.80 
   1  -2   3  841.92   25.90 
  -2   2  -3  521.75   17.30 
  -2   2  -3  523.65   17.80 
  -2   2  -3  504.05   16.80 
   2  -2   3  513.05   17.50 
   2  -2   3  543.75   16.60 
   2  -2   3  500.95   17.20 
  -3   2  -3 1011.80   32.60 
  -3   2  -3 1033.40   30.20 
  -3   2  -3 1006.90   31.90 
   3  -2   3 1025.60   29.80 
   3  -2   3  985.20   31.80 
   3  -2   3 1000.90   32.40 
  -4   2  -3 1272.37   36.70 
  -4   2  -3 1264.07   40.00 
  -4   2  -3 1287.27   40.60 
   4  -2   3 1242.18   36.80 
   4  -2   3 1242.68   40.30 
   4  -2   3 1177.28   39.30 
  -5   2  -3  483.25   19.90 
  -5   2  -3  460.15   15.10 
  -5   2  -3  470.45   19.10 
   5  -2   3  450.75   15.90 
   5  -2   3  475.65   19.80 
  -6   2  -3  152.58    6.40 
  -6   2  -3  160.58   10.90 
  -6   2  -3  148.89    7.00 
  -6   2  -3  155.48   10.00 
   6  -2   3  148.59    7.00 
  -7   2  -3  544.95   17.60 
  -7   2  -3  542.55   23.60 
  -7   2  -3  555.24   24.70 
   7  -2   3  533.35   24.30 
  -8   2  -3   76.89   13.90 
   8  -2   3   78.39    8.70 
   9   1  -3   67.29    8.60 
  -9  -1   3   60.99    7.80 
   8   1  -3    3.30    2.90 
  -8  -1   3    0.70    1.80 
   7   1  -3   42.20    7.10 
   7   1  -3   63.99    7.40 
  -7  -1   3   49.60    6.60 
  -7  -1   3   50.29    5.70 
   6   1  -3  393.36   18.30 
   6   1  -3  411.16   18.90 
  -6  -1   3  384.46   17.00 
  -6  -1   3  402.06   19.30 
   5   1  -3  355.36   15.90 
   5   1  -3  348.47   16.00 
  -5  -1   3  351.66   17.10 
  -5  -1   3  332.37   18.80 
   4   1  -3  446.06   17.40 
   4   1  -3  419.66   19.10 
  -4  -1   3  469.45   19.40 
  -4  -1   3  438.86   19.10 
  -4  -1   3  436.56   17.30 
  -4  -1   3  438.16   16.30 
   3   1  -3   75.49    5.10 
   3   1  -3   84.29    6.60 
   3   1  -3   77.59    5.00 
  -3  -1   3   72.39    6.00 
  -3  -1   3   76.89    5.00 
  -3  -1   3   74.79    4.40 
  -3  -1   3   79.09    6.30 
   2   1  -3   20.40    2.30 
   2   1  -3   18.00    3.20 
  -2  -1   3   20.80    2.20 
  -2  -1   3   22.50    1.90 
  -2  -1   3   25.00    3.20 
  -2  -1   3   28.20    3.40 
   1   1  -3 3554.64   95.89 
   1   1  -3 3362.96   98.79 
  -1  -1   3 3514.25   94.99 
  -1  -1   3 3332.77   98.49 
  -1  -1   3 3461.65   95.59 
   0   1  -3 5984.40  169.38 
   0  -1   3 6153.58  169.28 
   0  -1   3 6140.59  166.68 
  -1   1  -3   75.29    4.20 
  -1   1  -3   77.79    3.60 
  -1   1  -3   85.69    3.90 
   1  -1   3   71.89    3.90 
   1  -1   3   71.29    3.50 
  -2   1  -3  664.83   20.90 
  -2   1  -3  612.44   19.60 
   2  -1   3  648.84   20.40 
   2  -1   3  691.83   19.20 
   2  -1   3  633.34   20.70 
  -3   1  -3  207.78    7.00 
  -3   1  -3  219.48    9.70 
  -3   1  -3  228.98    9.70 
   3  -1   3  202.28    9.40 
   3  -1   3  213.48    7.00 
   3  -1   3  212.88    9.20 
  -4   1  -3  146.09    8.20 
  -4   1  -3  152.98    8.60 
   4  -1   3  148.79    8.40 
   4  -1   3  140.19    7.80 
  -5   1  -3  121.89    8.30 
  -5   1  -3  136.09    8.50 
   5  -1   3  106.69    7.90 
  -6   1  -3  651.13   26.20 
  -6   1  -3  639.54   25.60 
   6  -1   3  660.13   25.90 
  -7   1  -3   78.99    8.00 
  -7   1  -3   73.39    7.90 
   7  -1   3   83.19    8.00 
  -8   1  -3  128.19   13.10 
   8  -1   3  135.69   11.20 
  -9   1  -3   38.90    7.40 
   9   0  -3   96.79   10.80 
  -9   0   3   86.19    9.40 
  -8   0   3   14.40    6.80 
  -8   0   3   19.00    3.90 
   7   0  -3   39.00    6.10 
   7   0  -3   35.50    6.00 
  -7   0   3   29.40    5.10 
  -7   0   3   29.00    5.60 
   6   0  -3  585.74   23.90 
   6   0  -3  555.34   23.80 
  -6   0   3  591.24   25.40 
  -6   0   3  571.54   22.70 
   5   0  -3  131.19    8.40 
   5   0  -3  132.49    8.90 
  -5   0   3  130.89    7.80 
  -5   0   3  137.89    9.80 
  -5   0   3  126.29    9.50 
   4   0  -3  127.89    8.10 
   4   0  -3  125.39    7.50 
  -4   0   3  125.89    7.00 
  -4   0   3  136.09    7.40 
  -4   0   3  141.39    9.90 
  -4   0   3  129.69    8.70 
   3   0  -3 1644.74   48.10 
  -3   0   3 1536.95   49.90 
  -3   0   3 1556.54   47.00 
  -3   0   3 1596.34   50.59 
  -3   0   3 1632.74   46.70 
   2   0  -3 3077.69   90.99 
   2   0  -3 3072.09   87.59 
  -2   0   3 3071.09   87.19 
  -2   0   3 3169.58   86.79 
  -2   0   3 3226.88   91.39 
  -2   0   3 3151.18   90.99 
   1   0  -3 4929.11  140.99 
  -1   0   3 4940.11  141.19 
  -1   0   3 5174.18  141.19 
   0   0  -3 1112.29   35.30 
   0   0   3 1181.28   35.10 
   0   0   3 1166.08   35.50 
  -1   0  -3 4495.05  130.19 
   1   0   3 4795.22  130.29 
   1   0   3 4824.52  128.59 
   1   0   3 4716.03  130.19 
  -2   0  -3  542.35   18.10 
  -2   0  -3  552.64   18.00 
   2   0   3  561.64   15.90 
   2   0   3  553.94   16.00 
   2   0   3  573.14   17.50 
   2   0   3  554.24   17.70 
  -3   0  -3 1456.65   47.70 
  -3   0  -3 1646.34   48.10 
   3   0   3 1633.44   47.30 
   3   0   3 1656.33   47.70 
  -4   0  -3  771.22   26.80 
  -4   0  -3  758.12   26.70 
   4   0   3  777.52   26.20 
   4   0   3  796.82   26.50 
  -5   0  -3    8.70    2.70 
  -5   0  -3   10.00    2.70 
   5   0   3    9.80    2.60 
  -6   0  -3  383.16   18.00 
  -6   0  -3  418.66   18.60 
   6   0   3  373.86   21.20 
  -7   0  -3   26.70    5.30 
  -7   0  -3   48.50    9.50 
   7   0   3   29.30    5.30 
  -8   0  -3   92.59    9.50 
   8   0   3   95.39    9.20 
  -9   0  -3   42.70    7.60 
   9  -1  -3    9.00    4.80 
  -9   1   3   12.00    4.90 
   8  -1  -3  178.68   13.20 
  -8   1   3  151.58   11.30 
  -8   1   3  158.48   14.30 
   7  -1  -3  293.07   16.00 
   7  -1  -3  284.37   16.40 
  -7   1   3  302.87   17.30 
  -7   1   3  278.97   14.70 
   6  -1  -3  202.28   12.40 
   6  -1  -3  188.78   11.70 
  -6   1   3  190.58   13.30 
  -6   1   3  202.58   11.30 
   5  -1  -3  782.32   28.90 
   5  -1  -3  779.32   30.40 
   5  -1  -3  796.72   28.70 
  -5   1   3  775.42   27.40 
  -5   1   3  837.02   31.40 
   4  -1  -3 1082.39   35.60 
   4  -1  -3 1082.39   37.80 
   4  -1  -3 1119.39   35.50 
  -4   1   3 1094.29   37.20 
  -4   1   3 1065.79   34.40 
  -4   1   3 1086.59   34.10 
  -4   1   3 1123.19   38.40 
   3  -1  -3 1500.05   48.00 
   3  -1  -3 1563.44   45.50 
  -3   1   3 1539.15   44.40 
  -3   1   3 1445.86   47.20 
  -3   1   3 1486.65   48.30 
  -3   1   3 1474.65   43.80 
   2  -1  -3 2638.44   74.09 
   2  -1  -3 2633.54   74.09 
   2  -1  -3 2607.24   77.49 
  -2   1   3 2630.74   77.99 
  -2   1   3 2578.94   72.89 
  -2   1   3 2690.63   73.19 
  -2   1   3 2607.74   76.99 
   1  -1  -3   25.10    2.80 
   1  -1  -3   24.20    1.50 
   1  -1  -3   24.70    1.40 
  -1   1   3   26.00    2.80 
   0  -1  -3   29.00    2.80 
   0   1   3   42.10    3.10 
  -1  -1  -3  751.52   21.90 
  -1  -1  -3  746.53   23.00 
  -1  -1  -3  752.82   21.90 
   1   1   3  759.32   22.60 
  -2  -1  -3 2972.30   82.19 
  -2  -1  -3 2907.41   80.49 
  -2  -1  -3 2908.11   81.99 
   2   1   3 2886.11   79.89 
   2   1   3 2963.50   81.39 
   2   1   3 2817.12   81.19 
  -3  -1  -3 1210.68   37.90 
   3   1   3 1213.08   37.40 
   3   1   3 1281.47   37.60 
  -4  -1  -3   84.09    6.10 
  -4  -1  -3   87.59    6.10 
   4   1   3   79.39    5.60 
   4   1   3   94.79    6.10 
  -5  -1  -3 3756.52  111.59 
   5   1   3 3883.51  111.09 
  -6  -1  -3   62.69    6.50 
  -6  -1  -3   53.39    6.10 
   6   1   3   65.89    6.10 
  -7  -1  -3  260.67   14.90 
  -7  -1  -3  250.17   14.70 
   7   1   3  244.88   14.00 
  -8  -1  -3  114.19   10.60 
   8   1   3  134.79   13.20 
   9  -2  -3    2.30    3.50 
  -9   2   3    5.40    4.20 
   8  -2  -3   68.09   10.10 
   8  -2  -3   65.89    9.80 
  -8   2   3   81.29    9.80 
  -8   2   3   71.39    7.40 
   7  -2  -3  269.77   15.20 
  -7   2   3  245.78   19.40 
  -7   2   3  248.08   16.10 
   6  -2  -3   69.19    7.20 
   6  -2  -3   73.89    7.20 
   6  -2  -3   73.69    7.90 
  -6   2   3   65.39    6.20 
  -6   2   3   82.49    8.40 
   5  -2  -3 5937.01  171.58 
   5  -2  -3 6058.29  174.98 
   5  -2  -3 5933.51  172.08 
  -5   2   3 6008.80  170.68 
  -5   2   3 6258.47  175.88 
   4  -2  -3 1506.45   48.80 
   4  -2  -3 1512.85   46.10 
   4  -2  -3 1398.66   45.30 
  -4   2   3 1526.65   49.50 
  -4   2   3 1414.26   43.80 
  -4   2   3 1447.36   47.10 
  -4   2   3 1443.56   44.80 
   3  -2  -3  259.97   10.70 
   3  -2  -3  259.07   12.90 
  -3   2   3  260.37   10.20 
  -3   2   3  242.68   11.90 
   1  -2  -3 4728.03  132.49 
   1  -2  -3 4918.91  136.39 
  -1   2   3 4811.12  135.39 
   0  -2  -3 4066.09  110.59 
   0  -2  -3 4025.20  113.89 
   0  -2  -3 3995.20  110.69 
   0   2   3 4068.49  113.19 
  -1  -2  -3 1617.14   48.30 
  -1  -2  -3 1712.23   47.20 
  -1  -2  -3 1594.84   47.10 
   1   2   3 1678.33   46.10 
   1   2   3 1685.33   46.00 
   1   2   3 1695.23   47.70 
  -2  -2  -3   44.70    3.30 
  -2  -2  -3   38.80    2.60 
  -2  -2  -3   43.30    3.20 
   2   2   3   40.90    2.50 
   2   2   3   42.50    2.80 
   2   2   3   46.70    3.00 
  -3  -2  -3   57.09    5.20 
  -3  -2  -3   63.29    3.20 
   3   2   3   61.49    4.20 
   3   2   3   58.89    4.10 
   3   2   3   61.59    3.10 
  -4  -2  -3 2297.77   68.09 
   4   2   3 2356.46   67.59 
   4   2   3 2174.48   63.39 
  -5  -2  -3 4626.64  136.09 
  -5  -2  -3 4594.24  132.89 
   5   2   3 4584.24  132.19 
  -6  -2  -3  108.29    8.80 
  -6  -2  -3  123.09    9.10 
   6   2   3  109.49    8.30 
  -7  -2  -3  139.19   10.60 
  -7  -2  -3  141.79   10.90 
   7   2   3  138.69   10.50 
  -8  -2  -3  903.51   36.00 
  -8   3   3  196.08   15.30 
   7  -3  -3   25.30    6.40 
   7  -3  -3   44.20    7.30 
   7  -3  -3   29.80    6.00 
  -7   3   3   38.70    7.60 
  -7   3   3   34.10    5.40 
   6  -3  -3  625.94   25.30 
   6  -3  -3  630.54   26.00 
   6  -3  -3  620.04   27.60 
  -6   3   3  630.24   24.50 
  -6   3   3  622.94   28.10 
   5  -3  -3  262.67   13.50 
   5  -3  -3  257.77   15.10 
   5  -3  -3  250.47   12.90 
  -5   3   3  260.17   12.50 
   4  -3  -3   23.10    3.80 
   4  -3  -3   21.20    4.30 
   4  -3  -3   23.60    3.80 
  -4   3   3   19.00    3.00 
   3  -3  -3  369.86   13.60 
   3  -3  -3  344.77   16.00 
  -3   3   3  332.47   14.80 
  -3   3   3  357.66   13.10 
  -3   3   3  327.97   12.10 
   2  -3  -3 2169.38   60.09 
   2  -3  -3 2121.19   64.09 
   2  -3  -3 2033.40   60.39 
  -2   3   3 2152.88   59.89 
  -2   3   3 2046.80   58.99 
  -2   3   3 2069.09   62.49 
   1  -3  -3   45.10    4.00 
   1  -3  -3   38.30    2.40 
  -1   3   3   40.20    2.00 
  -1   3   3   36.00    2.20 
  -1   3   3   36.30    3.40 
   0  -3  -3  806.22   26.40 
   0  -3  -3  815.52   23.80 
   0  -3  -3  790.62   24.20 
   0   3   3  844.12   23.30 
   0   3   3  791.02   23.20 
   0   3   3  797.42   25.50 
  -1  -3  -3 2333.27   68.49 
  -1  -3  -3 2326.97   67.59 
  -1  -3  -3 2437.06   67.09 
   1   3   3 2358.06   67.79 
   1   3   3 2442.66   66.79 
  -2  -3  -3 1304.77   39.00 
  -2  -3  -3 1300.47   39.30 
  -2  -3  -3 1296.47   38.50 
   2   3   3 1281.87   38.40 
   2   3   3 1330.87   38.50 
  -3  -3  -3  383.06   13.00 
  -3  -3  -3  385.66   14.90 
   3   3   3  403.16   14.70 
   3   3   3  375.16   13.20 
   3   3   3  388.96   14.50 
  -4  -3  -3  126.99    8.00 
  -4  -3  -3  128.19    8.30 
  -4  -3  -3  121.29    5.40 
   4   3   3  120.69    7.50 
   4   3   3  121.49    6.10 
  -5  -3  -3  733.13   22.60 
  -5  -3  -3  742.63   27.70 
   5   3   3  799.32   27.70 
  -6  -3  -3  808.42   30.50 
  -6  -3  -3  794.22   31.40 
   6   3   3  820.12   30.20 
  -7  -3  -3    0.50    3.60 
  -7  -3  -3    3.40    2.30 
   7   3   3    6.40    3.00 
  -8  -3  -3  117.49   10.30 
   8  -4  -3  309.77   19.10 
   8  -4  -3  300.27   19.80 
  -8   4   3  328.67   21.00 
   7  -4  -3  140.99   10.80 
   7  -4  -3  110.39   11.10 
   7  -4  -3  125.79   10.70 
  -7   4   3  126.29    9.60 
  -7   4   3  124.09   12.10 
   6  -4  -3   96.09    9.40 
   6  -4  -3   89.29    7.90 
   6  -4  -3   75.09    7.80 
  -6   4   3   85.99    7.30 
   5  -4  -3 1010.40   35.20 
   5  -4  -3  995.20   34.60 
   5  -4  -3 1027.30   38.20 
  -5   4   3  954.80   33.70 
   4  -4  -3  227.48   11.50 
   4  -4  -3  230.78   13.80 
   4  -4  -3  262.07   12.00 
  -4   4   3  239.18   11.20 
   3  -4  -3  252.87   10.90 
   3  -4  -3  249.88   13.50 
  -3   4   3  262.37   10.90 
   2  -4  -3 1282.77   38.70 
   2  -4  -3 1286.67   38.10 
   2  -4  -3 1285.47   41.80 
  -2   4   3 1244.38   37.00 
  -2   4   3 1238.58   40.10 
  -2   4   3 1284.87   38.10 
   1  -4  -3 1381.66   39.80 
   1  -4  -3 1313.57   42.60 
  -1   4   3 1312.77   41.70 
  -1   4   3 1289.67   39.30 
  -1   4   3 1369.96   48.40 
   0  -4  -3  640.54   21.30 
   0  -4  -3  662.23   23.20 
   0  -4  -3  662.03   21.00 
   0   4   3  668.33   22.30 
   0   4   3  688.23   20.60 
  -1  -4  -3  412.36   13.80 
  -1  -4  -3  396.76   15.10 
  -1  -4  -3  409.16   14.70 
   1   4   3  385.56   13.50 
   1   4   3  393.76   14.60 
   1   4   3  412.46   13.80 
  -2  -4  -3  800.02   24.90 
  -2  -4  -3  742.33   25.50 
  -2  -4  -3  767.32   25.00 
   2   4   3  800.82   25.00 
   2   4   3  781.32   25.10 
   2   4   3  746.73   24.40 
  -3  -4  -3   82.19    5.90 
  -3  -4  -3   94.39    6.00 
  -3  -4  -3   86.79    5.10 
   3   4   3   89.39    5.40 
   3   4   3  100.49    6.00 
  -4  -4  -3  373.26   13.50 
  -4  -4  -3  386.96   16.80 
  -4  -4  -3  354.26   15.50 
   4   4   3  390.36   15.80 
   4   4   3  379.06   14.50 
  -5  -4  -3  322.47   12.00 
  -5  -4  -3  329.37   16.50 
  -5  -4  -3  333.87   15.30 
   5   4   3  340.57   15.30 
   5   4   3  323.97   13.50 
  -6  -4  -3  136.99    9.60 
  -6  -4  -3  124.89   10.20 
  -6  -4  -3  135.89    6.20 
  -6  -4  -3  129.99    7.10 
   6   4   3  136.59    9.60 
   6   4   3  132.39    7.40 
  -7  -4  -3   12.30    1.70 
  -7  -4  -3   20.20    5.20 
  -7  -4  -3   13.20    3.60 
   7   4   3   13.80    4.40 
  -8  -4  -3   23.30    4.70 
   8  -5  -3  117.19   11.40 
   8  -5  -3  129.29   12.90 
  -8   5   3  120.29   13.20 
   7  -5  -3  263.97   16.90 
   7  -5  -3  264.57   18.10 
   7  -5  -3  271.27   16.60 
  -7   5   3  286.37   19.00 
  -7   5   3  264.77   15.30 
   6  -5  -3   -1.80    2.60 
   6  -5  -3    4.10    2.90 
  -6   5   3   -0.10    2.00 
   5  -5  -3   17.90    4.00 
   5  -5  -3   16.20    5.20 
   5  -5  -3   14.60    4.30 
  -5   5   3   14.30    3.00 
   4  -5  -3  535.05   20.90 
   4  -5  -3  543.65   24.20 
   4  -5  -3  554.14   21.20 
  -4   5   3  527.85   20.30 
   3  -5  -3   27.00    3.30 
   3  -5  -3   27.80    3.30 
   3  -5  -3   22.20    4.40 
  -3   5   3   25.70    3.20 
   2  -5  -3   52.09    4.00 
   2  -5  -3   52.49    5.50 
  -2   5   3   45.20    3.90 
   1  -5  -3  728.33   24.40 
   1  -5  -3  726.53   23.60 
   1  -5  -3  761.42   27.00 
  -1   5   3  731.93   25.40 
  -1   5   3  732.13   23.60 
  -1   5   3  733.63   23.00 
   0  -5  -3  225.08   11.10 
   0  -5  -3  236.48   10.10 
   0  -5  -3  228.58    9.30 
   0   5   3  221.78   10.50 
   0   5   3  221.38    9.50 
   0   5   3  218.68    8.80 
  -1  -5  -3  994.40   32.40 
  -1  -5  -3 1017.30   30.50 
  -1  -5  -3  937.71   31.40 
   1   5   3  982.70   31.70 
   1   5   3  944.11   29.90 
  -2  -5  -3  261.67   11.50 
  -2  -5  -3  271.07   11.10 
   2   5   3  266.87   10.90 
   2   5   3  258.97   13.30 
  -3  -5  -3  556.34   20.00 
  -3  -5  -3  580.24   21.90 
  -3  -5  -3  571.74   20.50 
   3   5   3  569.54   20.50 
   3   5   3  558.24   20.50 
  -4  -5  -3  377.86   17.10 
  -4  -5  -3  376.76   15.80 
  -4  -5  -3  373.66   14.40 
   4   5   3  343.27   14.90 
   4   5   3  369.86   15.80 
  -5  -5  -3  181.58   10.70 
  -5  -5  -3  187.08   11.80 
  -5  -5  -3  178.18    8.60 
   5   5   3  170.38    9.70 
   5   5   3  178.28   10.50 
  -6  -5  -3  224.88    9.80 
  -6  -5  -3  213.98   14.40 
  -6  -5  -3  242.18   13.20 
   6   5   3  230.28   13.30 
   6   5   3  216.58   11.40 
  -7  -5  -3    0.70    2.20 
  -7  -5  -3    2.60    1.50 
   7  -6  -3  203.28   14.40 
   7  -6  -3  177.88   15.00 
   6  -6  -3  129.09   10.00 
   6  -6  -3  142.89   12.40 
   6  -6  -3  117.89   10.40 
  -6   6   3  120.39    9.20 
   5  -6  -3   91.69    9.60 
   5  -6  -3  100.79    8.40 
   5  -6  -3   98.39    8.00 
  -5   6   3   94.69    7.60 
   4  -6  -3  321.37   15.10 
   4  -6  -3  318.97   17.90 
   4  -6  -3  340.37   15.70 
  -4   6   3  338.07   14.90 
   3  -6  -3  612.44   22.40 
   3  -6  -3  595.84   25.80 
   3  -6  -3  610.84   22.90 
  -3   6   3  629.14   22.40 
   2  -6  -3  475.45   17.80 
   2  -6  -3  478.45   21.10 
  -2   6   3  484.95   17.80 
   1  -6  -3  915.11   32.00 
   1  -6  -3  847.12   28.20 
  -1   6   3  849.61   28.10 
   0  -6  -3  686.03   25.40 
   0  -6  -3  669.33   22.90 
   0   6   3  677.83   22.70 
  -1  -6  -3  725.73   24.20 
  -1  -6  -3  727.93   26.30 
   1   6   3  715.93   24.00 
  -2  -6  -3  109.59    7.30 
  -2  -6  -3   97.29    6.80 
  -2  -6  -3  100.29    6.30 
   2   6   3   89.49    6.00 
  -3  -6  -3  287.07   14.00 
  -3  -6  -3  281.87   12.80 
  -3  -6  -3  284.97   12.70 
   3   6   3  272.57   12.60 
   3   6   3  272.07   13.10 
  -4  -6  -3    3.60    2.00 
  -4  -6  -3    4.00    2.10 
  -4  -6  -3    6.80    2.90 
   4   6   3    6.70    2.30 
   4   6   3    9.20    2.70 
  -5  -6  -3   -1.60    2.70 
  -5  -6  -3   -2.90    1.30 
  -5  -6  -3    2.00    1.70 
   5   6   3    0.70    1.90 
   5   6   3    3.30    2.20 
  -6  -6  -3  124.59   13.80 
  -6  -6  -3  115.09    7.20 
  -6  -6  -3  121.19    9.30 
  -7  -6  -3  123.49    7.40 
  -7  -6  -3  115.89    9.50 
   7  -7  -3   52.59    9.60 
   7  -7  -3   49.80    7.80 
   6  -7  -3    8.50    4.10 
   6  -7  -3    4.00    3.00 
   5  -7  -3  176.78   11.80 
   5  -7  -3  159.98   11.10 
   5  -7  -3  173.28   13.90 
  -5   7   3  197.58   11.50 
   4  -7  -3   48.40    7.10 
  -4   7   3   46.80    5.40 
   3  -7  -3  907.11   31.40 
   3  -7  -3  910.61   32.10 
  -3   7   3  897.11   31.20 
   2  -7  -3  290.07   14.10 
   2  -7  -3  304.77   16.40 
   2  -7  -3  305.27   13.60 
  -2   7   3  321.97   13.70 
   1  -7  -3   76.99    6.40 
   1  -7  -3   90.59    7.80 
   1  -7  -3   65.39    5.40 
  -1   7   3   68.59    5.50 
   0  -7  -3 5301.57  147.29 
   0  -7  -3 5396.76  150.98 
   0  -7  -3 5161.98  148.79 
   0   7   3 4953.40  147.69 
  -1  -7  -3 2162.48   66.29 
  -1  -7  -3 2119.19   64.29 
  -1  -7  -3 2207.58   67.19 
   1   7   3 2126.89   64.09 
  -2  -7  -3   94.49    7.50 
  -2  -7  -3   99.39    7.70 
  -2  -7  -3   99.49    6.80 
   2   7   3  103.29    6.80 
  -3  -7  -3  145.59    9.00 
  -3  -7  -3  147.89   10.20 
  -3  -7  -3  154.58    9.50 
   3   7   3  158.28    9.20 
  -4  -7  -3  565.84   24.30 
  -4  -7  -3  564.34   22.30 
  -4  -7  -3  572.84   22.20 
   4   7   3  537.25   22.10 
  -5  -7  -3   81.99    6.60 
  -5  -7  -3   83.09    7.20 
  -5  -7  -3   76.89    8.60 
   5   7   3   69.99    9.20 
  -6  -7  -3   73.69    7.40 
  -6  -7  -3   65.49    6.10 
   6  -8  -3   -1.30    2.60 
   6  -8  -3    3.00    3.60 
   5  -8  -3   43.30    7.00 
   5  -8  -3   35.50    7.60 
   4  -8  -3    8.20    3.30 
   4  -8  -3    0.80    2.20 
   4  -8  -3   -0.20    2.00 
  -4   8   3    3.00    2.10 
   3  -8  -3    0.20    2.50 
   3  -8  -3    1.20    2.10 
   3  -8  -3    4.90    3.20 
  -3   8   3   -0.60    1.70 
   2  -8  -3  119.89    9.00 
   2  -8  -3  130.89    9.90 
   2  -8  -3  115.39   10.40 
  -2   8   3  127.99    8.80 
   1  -8  -3   98.19    7.90 
   1  -8  -3   94.59    7.30 
   1  -8  -3  117.39    9.50 
  -1   8   3   90.79   10.10 
   0  -8  -3  432.16   17.80 
   0  -8  -3  424.76   18.90 
   0  -8  -3  409.86   26.20 
  -1  -8  -3    6.50    2.60 
  -1  -8  -3    3.10    2.50 
  -2  -8  -3  151.78   10.20 
  -2  -8  -3  164.58    9.50 
  -2  -8  -3  139.09   10.10 
   2   8   3  127.49    9.60 
  -3  -8  -3    3.30    2.80 
  -3  -8  -3    5.60    2.60 
  -3  -8  -3    0.30    1.70 
   3   8   3    4.20    2.10 
  -4  -8  -3    5.70    3.80 
  -4  -8  -3    2.60    2.50 
  -4  -8  -3    3.30    2.30 
  -5  -8  -3   14.60    3.50 
  -5  -8  -3   19.70    4.20 
   5  -9  -3    1.50    2.80 
   5  -9  -3    1.80    2.90 
   4  -9  -3  129.99   10.00 
   4  -9  -3  121.99   12.10 
   3  -9  -3  128.59    9.80 
   3  -9  -3  128.49   10.20 
   3  -9  -3  146.09   12.60 
   2  -9  -3    3.30    2.40 
   2  -9  -3    1.00    2.80 
   2  -9  -3    2.40    2.80 
  -2   9   3    1.70    2.20 
   1  -9  -3  111.29   11.10 
   1  -9  -3  127.39    8.80 
   1  -9  -3  108.49   10.10 
  -1   9   3  111.99    8.50 
   0  -9  -3  504.35   23.60 
   0  -9  -3  552.14   21.80 
   0  -9  -3  570.64   25.20 
   0   9   3  505.15   21.00 
  -1  -9  -3   67.69   12.50 
  -1  -9  -3   68.89    7.90 
  -1  -9  -3   83.39    7.20 
   1   9   3   72.19    6.30 
  -2  -9  -3   36.00    6.20 
  -2  -9  -3   48.30    6.60 
  -2  -9  -3   31.90    5.10 
   2   9   3   43.60    6.40 
  -3  -9  -3  155.08   11.00 
  -3  -9  -3  138.59   10.00 
  -4  -9  -3   50.99    6.40 
  -4  -9  -3   54.29    6.20 
   4 -10  -3    4.90    3.40 
   4 -10  -3   -2.80    2.70 
   3 -10  -3   33.90    7.10 
   3 -10  -3   37.90    6.20 
   2 -10  -3   50.19    6.40 
   2 -10  -3   67.89    9.00 
   1 -10  -3    6.10    3.20 
   1 -10  -3    4.30    2.40 
   0 -10  -3    9.80    4.10 
   0 -10  -3    9.10    2.90 
  -1 -10  -3   27.60    5.00 
  -1 -10  -3   29.20    6.10 
  -2 -10  -3    2.90    2.60 
  -2 -10  -3   -1.60    2.50 
  -3 -10  -3   29.90    6.00 
  -3 -10  -3   29.60    5.10 
   1 -11  -3   16.40    4.80 
   0 -11  -3   -3.70    3.00 
   0 -11   4    2.50    3.50 
   3  10  -4    2.60    3.80 
  -3 -10   4    1.60    3.60 
   2  10  -4   31.00    6.20 
  -2 -10   4   25.70    5.30 
  -2 -10   4   33.60    6.40 
   1  10  -4   15.70    4.90 
  -1 -10   4    5.90    3.70 
  -1 -10   4    7.10    3.30 
   0  10  -4    1.90    2.60 
   0 -10   4    4.30    3.20 
   0 -10   4    9.70    3.20 
  -1  10  -4   14.50    4.30 
   1 -10   4   15.90    3.70 
   1 -10   4    6.50    3.60 
  -2  10  -4   15.10    4.80 
   2 -10   4   18.70    5.00 
   2 -10   4   17.90    4.60 
  -3  10  -4    4.70    3.50 
   3 -10   4   -0.50    3.10 
   3 -10   4   -3.10    2.70 
   4   9  -4   44.40    8.00 
  -4  -9   4   23.70    7.50 
  -4  -9   4   25.30    5.00 
   3   9  -4  104.59   10.00 
  -3  -9   4   81.19    9.30 
  -3  -9   4   84.39    8.30 
   2   9  -4   88.89    9.20 
  -2  -9   4   70.99    9.00 
  -2  -9   4   90.49    7.90 
   1   9  -4    2.50    2.30 
  -1  -9   4    4.80    2.60 
  -1  -9   4    2.60    3.20 
   0   9  -4    8.70    3.20 
   0  -9   4    1.60    2.10 
   0  -9   4    5.70    3.50 
  -1   9  -4   34.00    5.90 
   1  -9   4   29.10    5.60 
   1  -9   4   22.60    4.50 
  -2   9  -4  124.79   10.50 
   2  -9   4  138.29   10.60 
   2  -9   4  122.99    9.80 
  -3   9  -4   66.79    8.30 
   3  -9   4   72.29    7.70 
   3  -9   4   68.59   10.90 
  -4   9  -4   61.99    9.20 
   4  -9   4   68.09    8.50 
   4  -9   4   56.89    7.50 
  -5   9  -4   78.39   10.00 
   5  -9   4   85.89    9.10 
   5   8  -4   11.10    4.70 
  -5  -8   4   10.30    6.10 
  -5  -8   4    8.10    4.40 
   4   8  -4   30.30    5.90 
  -4  -8   4   19.30    5.20 
  -4  -8   4   29.40    4.70 
   3   8  -4  431.26   21.50 
  -3  -8   4  434.36   19.30 
  -3  -8   4  423.96   21.30 
   2   8  -4  115.69    9.50 
  -2  -8   4   88.99    9.30 
  -2  -8   4  111.29    8.20 
   1   8  -4   -1.40    1.70 
  -1  -8   4    1.80    1.70 
  -1  -8   4   -1.40    2.00 
   0   8  -4    5.80    2.60 
   0   8  -4    3.50    2.20 
   0  -8   4    2.10    2.50 
   0  -8   4   -0.20    1.70 
  -1   8  -4    2.40    2.50 
  -1   8  -4    0.50    2.20 
   1  -8   4    4.70    2.00 
   1  -8   4    1.80    2.60 
  -2   8  -4   -1.70    1.50 
   2  -8   4    0.20    2.40 
   2  -8   4    0.20    2.30 
  -3   8  -4  206.98   13.40 
   3  -8   4  188.08   11.90 
   3  -8   4  196.68   12.20 
  -4   8  -4   49.90    8.00 
   4  -8   4   46.70    6.40 
   4  -8   4   62.49    7.10 
  -5   8  -4    9.60    3.80 
   5  -8   4    6.50    3.10 
   5  -8   4    5.80    3.60 
  -6   8  -4   84.99   10.30 
   6  -8   4   84.69    8.80 
   6   7  -4    1.10    3.50 
  -6  -7   4    3.70    2.70 
  -6  -7   4    2.20    3.30 
   5   7  -4   21.10    4.80 
  -5  -7   4    6.90    3.10 
  -5  -7   4    5.70    3.70 
   4   7  -4    1.00    2.70 
  -4  -7   4    0.80    1.90 
  -4  -7   4    0.10    2.80 
   3   7  -4    3.60    3.10 
   3   7  -4    8.30    2.70 
  -3  -7   4   -0.30    2.40 
  -3  -7   4    4.50    2.30 
   2   7  -4   18.90    4.20 
   2   7  -4   19.30    3.50 
  -2  -7   4   19.80    7.40 
  -2  -7   4   24.00    3.80 
   1   7  -4   29.00    5.00 
   1   7  -4   39.40    4.40 
  -1  -7   4   44.50    4.50 
  -1  -7   4   35.20    6.10 
   0   7  -4    4.30    2.10 
   0   7  -4    6.30    2.70 
   0  -7   4    1.10    1.90 
   0  -7   4    6.30    3.00 
  -1   7  -4  433.66   19.30 
  -1   7  -4  443.36   17.90 
   1  -7   4  436.96   19.40 
   1  -7   4  442.16   18.20 
  -2   7  -4  108.19    8.50 
   2  -7   4  102.89    7.60 
   2  -7   4  102.99    8.00 
  -3   7  -4    2.10    1.90 
  -3   7  -4    1.60    2.20 
   3  -7   4   -0.10    1.80 
   3  -7   4   -1.80    1.80 
  -4   7  -4  509.25   23.70 
   4  -7   4  550.04   23.20 
   4  -7   4  523.35   21.90 
  -5   7  -4  332.47   18.20 
   5  -7   4  284.57   15.50 
   5  -7   4  304.67   16.90 
  -6   7  -4    8.20    3.80 
   6  -7   4    4.80    3.00 
   6  -7   4    3.10    2.90 
  -7   7  -4   36.80    7.60 
   7  -7   4   43.80    8.50 
   7   6  -4   35.20    6.70 
  -7  -6   4   32.20    6.60 
   6   6  -4   31.10    6.60 
  -6  -6   4   25.90    4.60 
  -6  -6   4   30.30    6.20 
   5   6  -4    0.40    2.40 
  -5  -6   4   -2.00    1.60 
  -5  -6   4    1.00    2.60 
   4   6  -4  126.59    9.00 
   4   6  -4  127.59    9.70 
  -4  -6   4  113.49    7.90 
  -4  -6   4  103.89   13.20 
   3   6  -4  124.29    9.20 
   3   6  -4  122.89    8.20 
  -3  -6   4  117.09    7.60 
  -3  -6   4  120.89    9.50 
   2   6  -4   17.80    3.80 
   2   6  -4   21.70    3.60 
  -2  -6   4   19.30    3.40 
   1   6  -4   77.79    6.70 
   1   6  -4   84.29    5.90 
  -1  -6   4   89.99    6.20 
  -1  -6   4   71.49    6.90 
   0   6  -4  437.06   18.20 
   0   6  -4  391.26   16.30 
   0  -6   4  438.46   18.50 
   0  -6   4  420.26   16.70 
  -1   6  -4   -0.70    1.30 
  -1   6  -4    1.90    1.40 
   1  -6   4    2.30    1.50 
   1  -6   4    0.50    2.10 
  -2   6  -4  238.78   11.40 
  -2   6  -4  241.88   12.80 
   2  -6   4  248.38   11.90 
   2  -6   4  228.48   11.90 
  -3   6  -4  133.59    8.40 
  -3   6  -4  123.89    9.10 
   3  -6   4  124.39    8.10 
   3  -6   4  120.99    8.40 
  -4   6  -4    1.30    1.80 
   4  -6   4    0.50    1.50 
   4  -6   4    4.10    2.30 
  -5   6  -4  173.98   10.80 
  -5   6  -4  178.28   12.30 
   5  -6   4  179.88   11.80 
   5  -6   4  174.08   10.50 
  -6   6  -4   22.20    5.10 
   6  -6   4   31.40    5.40 
   6  -6   4   20.70    4.30 
  -7   6  -4    5.40    3.30 
   7  -6   4   -1.20    2.20 
   7   5  -4    2.40    4.20 
  -7  -5   4    5.30    3.20 
  -7  -5   4    0.90    2.40 
   6   5  -4   59.59    7.40 
  -6  -5   4   66.99    7.70 
  -6  -5   4   62.49    5.90 
   5   5  -4   21.30    4.70 
   5   5  -4   17.70    3.90 
  -5  -5   4   21.50    5.10 
  -5  -5   4   23.00    3.80 
   4   5  -4   18.70    4.40 
   4   5  -4   18.90    3.70 
  -4  -5   4   15.80    3.00 
  -4  -5   4   22.00    4.90 
   3   5  -4    3.60    1.80 
   3   5  -4    1.40    2.00 
  -3  -5   4    2.10    1.20 
  -3  -5   4    0.00    2.10 
   2   5  -4   54.29    5.40 
   2   5  -4   64.19    5.00 
  -2  -5   4   52.19    6.00 
  -2  -5   4   50.89    4.50 
   1   5  -4    2.40    1.40 
   1   5  -4    3.60    2.10 
  -1  -5   4   -0.60    1.40 
  -1  -5   4    5.10    2.00 
  -1  -5   4    4.60    2.70 
   0   5  -4  498.05   18.20 
   0   5  -4  527.45   19.80 
   0  -5   4  510.55   18.40 
   0  -5   4  481.15   19.10 
   0  -5   4  532.15   20.40 
  -1   5  -4    0.90    1.50 
  -1   5  -4    1.10    1.60 
  -1   5  -4    0.50    1.00 
   1  -5   4    3.70    2.10 
   1  -5   4    1.60    1.50 
   1  -5   4    2.30    1.40 
  -2   5  -4   21.90    3.80 
  -2   5  -4   27.00    3.30 
  -2   5  -4   20.20    3.70 
   2  -5   4   24.90    3.90 
   2  -5   4   21.00    4.10 
  -3   5  -4  892.61   30.30 
  -3   5  -4  856.31   30.80 
  -3   5  -4  878.41   31.80 
   3  -5   4  947.51   31.30 
   3  -5   4  907.41   29.90 
  -4   5  -4  112.39    8.60 
  -4   5  -4  112.29    7.60 
  -4   5  -4  112.89    7.70 
   4  -5   4  113.59    7.20 
   4  -5   4  116.29    8.40 
  -5   5  -4    1.90    2.10 
  -5   5  -4    1.70    2.70 
  -5   5  -4    5.60    2.50 
   5  -5   4    5.70    2.00 
   5  -5   4    9.50    3.00 
  -6   5  -4    7.30    3.30 
  -6   5  -4   -1.30    3.30 
  -6   5  -4    9.30    2.80 
   6  -5   4   12.10    2.80 
   6  -5   4   12.70    3.90 
  -7   5  -4   70.69   11.70 
   7  -5   4   77.69    6.80 
   7  -5   4   82.59    8.60 
   8   4  -4   75.69    9.20 
  -8  -4   4   51.99    7.50 
   7   4  -4    1.60    2.70 
  -7  -4   4    1.20    1.90 
  -7  -4   4    4.80    3.30 
   6   4  -4    4.60    3.00 
   6   4  -4    6.10    3.30 
  -6  -4   4    7.00    2.50 
  -6  -4   4   10.50    6.00 
   5   4  -4  185.08   12.00 
   5   4  -4  198.78   12.40 
  -5  -4   4  216.38   13.10 
  -5  -4   4  203.98   10.70 
   4   4  -4 1350.96   44.90 
   4   4  -4 1360.46   44.20 
  -4  -4   4 1342.97   42.50 
  -4  -4   4 1338.77   45.80 
   3   4  -4  131.29    7.90 
   3   4  -4  145.59    8.90 
  -3  -4   4  141.39    7.60 
  -3  -4   4  144.79    9.60 
   2   4  -4 1160.68   36.20 
   2   4  -4 1201.28   38.00 
  -2  -4   4 1165.68   35.90 
  -2  -4   4 1097.89   38.60 
  -2  -4   4 1171.58   37.20 
   1   4  -4 8662.03  257.77 
  -1  -4   4 9111.59  254.87 
  -1  -4   4 9567.44  253.97 
  -1  -4   4 9452.05  257.17 
   0   4  -4 7819.12  218.98 
   0   4  -4 7563.04  215.28 
   0   4  -4 7931.61  216.98 
   0  -4   4 8011.00  217.98 
   0  -4   4 7412.06  216.18 
   0  -4   4 7981.10  215.38 
  -1   4  -4  730.33   24.30 
  -1   4  -4  718.23   27.60 
  -1   4  -4  757.42   26.80 
   1  -4   4  730.53   25.10 
   1  -4   4  778.42   24.50 
   1  -4   4  763.72   25.60 
  -2   4  -4  769.92   25.90 
  -2   4  -4  727.23   24.50 
  -2   4  -4  669.93   25.20 
   2  -4   4  782.72   25.00 
   2  -4   4  739.43   24.80 
   2  -4   4  727.23   25.00 
  -3   4  -4  943.81   31.30 
  -3   4  -4  922.71   31.30 
  -3   4  -4  931.01   32.60 
   3  -4   4  997.80   32.20 
   3  -4   4  969.00   30.30 
  -4   4  -4   63.19    6.10 
  -4   4  -4   73.59    5.70 
  -4   4  -4   58.69    4.80 
   4  -4   4   66.69    4.80 
  -5   4  -4   95.39    6.30 
  -5   4  -4   98.69    8.10 
  -5   4  -4   84.49    6.90 
   5  -4   4   88.69    7.70 
   5  -4   4   92.99    6.30 
  -6   4  -4   57.59    7.20 
  -6   4  -4   63.69    5.00 
  -6   4  -4   62.59    6.50 
   6  -4   4   62.19    6.70 
   6  -4   4   63.79    5.20 
  -7   4  -4  373.76   23.80 
  -7   4  -4  367.76   14.50 
   7  -4   4  372.06   15.40 
   7  -4   4  387.86   20.10 
  -8   4  -4  175.88   13.90 
   8   3  -4   -6.90    2.80 
  -8  -3   4   -3.70    2.40 
   7   3  -4   73.59    8.90 
   7   3  -4   62.19    7.90 
  -7  -3   4   80.49    7.20 
  -7  -3   4   83.69    8.50 
   6   3  -4   71.89    7.50 
   6   3  -4   63.49    7.20 
  -6  -3   4   74.69    7.70 
  -6  -3   4   56.19    5.60 
   5   3  -4  380.96   17.60 
   5   3  -4  389.86   18.00 
  -5  -3   4  379.56   18.70 
   4   3  -4 1677.13   52.49 
   4   3  -4 1678.53   53.09 
  -4  -3   4 1727.23   54.99 
  -4  -3   4 1619.54   50.59 
   3   3  -4   31.70    3.80 
   3   3  -4   32.90    4.90 
   3   3  -4   33.30    3.50 
  -3  -3   4   28.00    3.00 
  -3  -3   4   32.40    3.70 
  -3  -3   4   21.60    4.10 
   2   3  -4 1532.65   46.90 
   2   3  -4 1541.85   44.90 
   2   3  -4 1458.95   49.20 
  -2  -3   4 1468.45   45.70 
  -2  -3   4 1464.95   44.40 
  -2  -3   4 1560.54   48.50 
   0   3  -4 1080.39   32.10 
   0   3  -4  987.10   33.70 
   0  -3   4  990.50   31.30 
   0  -3   4  971.80   32.80 
   0  -3   4 1072.69   30.90 
  -1   3  -4  143.19    6.80 
  -1   3  -4  166.98    7.70 
  -1   3  -4  152.18    8.20 
   1  -3   4  142.79    7.10 
   1  -3   4  149.49    7.70 
   1  -3   4  157.48    7.00 
  -2   3  -4 3700.53  105.59 
  -2   3  -4 3614.74  106.29 
  -2   3  -4 3681.33  107.19 
   2  -3   4 3920.81  105.59 
   2  -3   4 3781.32  105.89 
   2  -3   4 3701.33  105.79 
  -3   3  -4 1544.65   46.80 
  -3   3  -4 1506.85   46.10 
  -3   3  -4 1558.84   48.00 
   3  -3   4 1493.45   46.90 
   3  -3   4 1577.04   45.30 
   3  -3   4 1558.14   47.50 
  -4   3  -4   88.99    6.30 
  -4   3  -4   81.09    6.70 
  -4   3  -4   79.69    4.90 
   4  -3   4   85.39    4.80 
   4  -3   4   90.39    6.80 
  -5   3  -4  117.39    6.10 
  -5   3  -4  121.29    8.00 
  -5   3  -4  119.19    8.80 
   5  -3   4  112.99    6.20 
   5  -3   4  124.99    8.80 
  -6   3  -4  246.98    9.90 
  -6   3  -4  272.07   13.90 
  -6   3  -4  263.47   15.00 
   6  -3   4  262.27   14.60 
   6  -3   4  252.47   10.60 
  -7   3  -4   20.60    5.10 
  -7   3  -4   26.90    2.60 
  -7   3  -4   23.20    4.80 
  -8   3  -4  203.88   14.70 
  -8  -2   4    0.10    3.00 
   7   2  -4   -3.20    2.60 
   7   2  -4    4.30    3.40 
  -7  -2   4   -1.20    1.80 
  -7  -2   4   -1.50    2.80 
   6   2  -4  151.28   10.60 
   6   2  -4  174.08   11.40 
  -6  -2   4  168.98   11.80 
  -6  -2   4  155.98   11.80 
   5   2  -4  169.18   10.40 
   5   2  -4  176.28   10.60 
  -5  -2   4  172.78    9.10 
  -5  -2   4  161.28   11.40 
   4   2  -4    9.20    2.50 
   4   2  -4    6.40    2.10 
  -4  -2   4    7.30    2.90 
  -4  -2   4    6.10    1.80 
   3   2  -4  845.12   27.60 
   3   2  -4  800.12   26.80 
   3   2  -4  798.82   30.50 
  -3  -2   4  817.02   29.90 
  -3  -2   4  803.62   25.60 
   2   2  -4  187.98    8.60 
   2   2  -4  159.18   10.10 
  -2  -2   4  191.68    8.30 
  -2  -2   4  189.98   10.30 
  -2  -2   4  180.08    7.40 
   1   2  -4   35.60    3.10 
   1   2  -4   32.90    2.50 
  -1  -2   4   43.60    2.70 
  -1  -2   4   30.50    3.90 
  -1  -2   4   30.30    2.70 
   0   2  -4   83.99    5.80 
   0   2  -4   83.69    4.10 
   0   2  -4   91.99    4.80 
   0  -2   4   80.29    4.20 
   0  -2   4   93.89    5.90 
   0  -2   4   82.79    4.00 
  -1   2  -4  196.48    7.80 
  -1   2  -4  172.18    7.20 
  -1   2  -4  160.78    8.30 
   1  -2   4  181.78    7.30 
   1  -2   4  179.98    7.20 
   1  -2   4  193.08    8.30 
  -2   2  -4   17.50    2.10 
  -2   2  -4   16.20    2.50 
   2  -2   4   16.70    2.20 
   2  -2   4   18.10    2.20 
   2  -2   4   14.50    1.90 
  -3   2  -4  353.06   13.70 
  -3   2  -4  340.97   12.50 
  -3   2  -4  362.66   14.50 
   3  -2   4  361.26   14.20 
   3  -2   4  370.56   11.90 
   3  -2   4  340.77   13.40 
  -4   2  -4   50.79    4.50 
  -4   2  -4   42.70    4.50 
  -4   2  -4   38.30    2.90 
   4  -2   4   46.40    4.50 
   4  -2   4   42.40    2.80 
  -5   2  -4   57.79    6.00 
  -5   2  -4   58.39    5.60 
  -5   2  -4   54.29    3.00 
   5  -2   4   65.39    5.70 
   5  -2   4   53.89    3.20 
  -6   2  -4 1130.69   41.10 
  -6   2  -4 1204.28   40.40 
   6  -2   4 1151.78   40.70 
  -7   2  -4  547.55   24.50 
   7  -2   4  491.05   23.00 
  -8   2  -4   29.90    6.00 
   8   1  -4   15.40    4.70 
  -8  -1   4   20.20    5.00 
   7   1  -4  217.98   14.20 
   7   1  -4  231.68   14.20 
  -7  -1   4  185.98   15.10 
  -7  -1   4  235.78   15.30 
   6   1  -4   34.10    5.80 
   6   1  -4   34.90    6.10 
  -6  -1   4   37.60    4.50 
  -6  -1   4   38.00    6.60 
   5   1  -4  566.24   22.10 
   5   1  -4  502.05   21.70 
  -5  -1   4  552.94   20.00 
  -5  -1   4  543.05   23.90 
   4   1  -4  317.77   17.30 
   4   1  -4  332.27   14.50 
   4   1  -4  345.47   14.40 
  -4  -1   4  302.27   19.10 
  -4  -1   4  332.77   16.60 
  -4  -1   4  341.67   12.90 
   3   1  -4   88.59    6.00 
   3   1  -4  101.29    7.80 
  -3  -1   4   91.69    7.40 
  -3  -1   4   89.39    4.80 
  -3  -1   4   87.89    7.40 
  -3  -1   4   88.79    5.50 
   2   1  -4 2094.29   58.99 
   2   1  -4 2114.09   59.69 
   2   1  -4 1997.30   63.29 
  -2  -1   4 2080.39   58.99 
  -2  -1   4 2013.50   63.29 
  -2  -1   4 2090.39   63.49 
  -2  -1   4 2039.20   57.99 
   1   1  -4  151.58    8.70 
   1   1  -4  158.08    6.40 
  -1  -1   4  162.28    5.90 
  -1  -1   4  152.78    8.70 
  -1  -1   4  173.48    9.10 
   0   1  -4    0.90    0.50 
   0   1  -4    3.80    0.90 
   0   1  -4    4.40    1.50 
   0  -1   4    2.20    0.50 
   0  -1   4    1.30    1.00 
   0  -1   4    1.00    0.40 
  -1   1  -4 1165.38   31.80 
  -1   1  -4 1036.50   32.00 
  -1   1  -4 1034.80   33.10 
   1  -1   4 1071.29   30.80 
   1  -1   4 1073.99   32.80 
  -2   1  -4 1881.01   55.09 
  -2   1  -4 1795.42   54.69 
  -2   1  -4 1948.71   55.49 
   2  -1   4 2027.10   54.59 
   2  -1   4 1864.51   54.89 
   2  -1   4 1936.21   54.09 
  -3   1  -4  138.39    5.40 
  -3   1  -4  143.09    7.50 
   3  -1   4  144.59    5.20 
   3  -1   4  138.39    6.80 
  -4   1  -4  235.78   11.50 
  -4   1  -4  258.47   12.10 
   4  -1   4  265.57   11.80 
  -5   1  -4 1059.19   41.70 
  -5   1  -4 1232.58   40.20 
   5  -1   4 1245.08   39.60 
  -6   1  -4   44.30    5.50 
  -6   1  -4   49.70    5.50 
   6  -1   4   47.80    5.40 
  -7   1  -4  541.05   23.40 
  -7   1  -4  544.55   27.90 
   7  -1   4  496.15   22.80 
  -8   1  -4   21.40    5.00 
   8   0  -4    0.20    3.00 
  -8   0   4    2.00    3.10 
   7   0  -4  632.94   27.20 
   7   0  -4  636.34   26.90 
  -7   0   4  626.74   28.70 
  -7   0   4  612.84   24.40 
   6   0  -4 1549.45   52.39 
   6   0  -4 1594.44   53.09 
  -6   0   4 1706.83   56.49 
  -6   0   4 1557.24   50.29 
   5   0  -4  203.38   11.20 
   5   0  -4  202.38   11.30 
  -5   0   4  195.78   13.10 
  -5   0   4  202.38    9.90 
   4   0  -4  942.21   31.40 
   4   0  -4  943.51   31.80 
  -4   0   4  969.10   35.30 
  -4   0   4  952.40   29.80 
  -4   0   4  930.81   34.40 
   3   0  -4 3274.27   90.89 
   3   0  -4 3224.78   93.09 
  -3   0   4 3140.39   89.69 
  -3   0   4 3304.77   95.09 
  -3   0   4 2863.41   98.89 
  -3   0   4 3260.57   89.19 
   2   0  -4   23.60    2.30 
  -2   0   4   22.80    1.70 
  -2   0   4   25.50    3.50 
  -2   0   4   18.70    3.50 
  -2   0   4   20.30    1.50 
   1   0  -4 1638.94   45.70 
   1   0  -4 1590.64   49.99 
   1   0  -4 1571.64   45.10 
  -1   0   4 1643.64   49.99 
  -1   0   4 1665.63   50.39 
   0   0  -4  135.09    4.40 
   0   0  -4  139.49    4.50 
   0   0  -4  149.49    7.50 
   0   0   4  142.59    7.40 
   0   0   4  143.69    7.60 
  -1   0  -4   23.10    1.70 
  -1   0  -4   19.30    1.60 
   1   0   4   19.30    2.40 
   1   0   4   23.70    2.50 
  -2   0  -4  702.13   22.40 
  -2   0  -4  688.63   22.20 
   2   0   4  704.93   21.40 
   2   0   4  731.53   22.70 
   2   0   4  727.13   21.20 
   2   0   4  711.73   21.30 
  -3   0  -4    2.10    1.20 
  -3   0  -4    0.60    0.80 
   3   0   4    0.10    0.80 
   3   0   4    0.80    0.80 
  -4   0  -4   16.60    3.30 
  -4   0  -4   17.90    3.30 
   4   0   4   16.10    3.00 
  -5   0  -4 1644.64   53.09 
  -5   0  -4 1633.14   52.99 
   5   0   4 1736.53   52.49 
  -6   0  -4  181.78   11.40 
  -6   0  -4  189.38   11.60 
   6   0   4  204.28   11.20 
  -7   0  -4   37.00    6.90 
  -7   0  -4   57.39    6.70 
   7   0   4   44.30    5.60 
  -8   0  -4  356.96   19.70 
   8  -1  -4  383.66   20.70 
  -8   1   4  375.06   22.00 
   7  -1  -4  151.38   10.90 
  -7   1   4  120.99    8.60 
  -7   1   4  145.09   14.50 
   6  -1  -4  388.26   18.40 
   6  -1  -4  374.46   17.90 
  -6   1   4  384.46   20.60 
  -6   1   4  378.06   16.40 
   5  -1  -4   74.49    6.60 
  -5   1   4   82.19    6.00 
  -5   1   4   87.59    8.90 
   4  -1  -4  242.18   11.40 
   4  -1  -4  234.78   13.50 
  -4   1   4  207.58   18.20 
  -4   1   4  232.98    9.90 
  -4   1   4  223.88   13.50 
   3  -1  -4 1385.36   42.00 
   3  -1  -4 1397.86   41.80 
   3  -1  -4 1370.56   45.70 
  -3   1   4 1423.16   40.40 
  -3   1   4 1385.96   46.30 
  -3   1   4 1316.47   39.90 
  -3   1   4 1379.66   45.30 
   2  -1  -4 2944.11   81.39 
   2  -1  -4 3006.70   81.39 
   2  -1  -4 2869.31   85.99 
  -2   1   4 2784.22   79.29 
  -2   1   4 2851.11   79.29 
  -2   1   4 2876.81   86.49 
  -2   1   4 2925.11   85.69 
   1  -1  -4   69.29    2.70 
   1  -1  -4   67.39    2.60 
   1  -1  -4   63.49    5.20 
  -1   1   4   72.69    5.30 
  -1   1   4   66.59    5.40 
   0  -1  -4 2391.26   69.99 
   0   1   4 2392.36   70.39 
   0   1   4 2393.46   69.59 
  -2  -1  -4 2131.79   61.29 
   2   1   4 2085.09   59.79 
   2   1   4 2184.98   60.89 
   2   1   4 2147.19   59.89 
   2   1   4 2174.18   59.69 
  -3  -1  -4 1777.12   54.09 
  -3  -1  -4 1868.91   54.09 
   3   1   4 1837.52   52.89 
   3   1   4 1779.12   52.49 
  -4  -1  -4 2581.94   77.79 
   4   1   4 2700.33   76.99 
  -5  -1  -4 2906.91   90.59 
  -5  -1  -4 3095.69   91.39 
   5   1   4 3164.98   89.89 
  -6  -1  -4   84.49    7.70 
  -6  -1  -4  104.19    8.50 
   6   1   4   95.69    7.40 
  -7  -1  -4    6.40    3.10 
  -7  -1  -4   -3.10    2.30 
   7   1   4   -0.70    1.80 
  -8  -1  -4   24.50    5.80 
   8  -2  -4  565.04   26.60 
  -8   2   4  515.15   27.60 
   7  -2  -4  335.27   18.00 
  -7   2   4  332.47   16.30 
  -7   2   4  395.66   21.50 
   6  -2  -4   71.19    8.40 
   6  -2  -4   74.59    7.70 
   6  -2  -4   65.19    7.20 
  -6   2   4   84.99    6.70 
  -6   2   4   78.49    9.00 
   5  -2  -4 2032.00   62.79 
   5  -2  -4 1974.80   66.19 
   5  -2  -4 1990.50   62.19 
  -5   2   4 2111.19   67.59 
  -5   2   4 1976.40   60.59 
   4  -2  -4  943.61   31.90 
   4  -2  -4  966.40   35.60 
  -4   2   4  970.20   36.20 
  -4   2   4  939.01   30.20 
   3  -2  -4  815.32   30.40 
   3  -2  -4  811.42   26.40 
   3  -2  -4  853.51   26.60 
  -3   2   4  777.02   24.30 
  -3   2   4  782.52   29.00 
  -3   2   4  843.02   31.20 
  -3   2   4  829.12   25.00 
   2  -2  -4  128.99    5.90 
   2  -2  -4  145.09    9.00 
   2  -2  -4  131.19    5.80 
  -2   2   4  129.79    8.10 
  -2   2   4  138.29    4.40 
  -2   2   4  134.69    4.30 
   1  -2  -4  939.71   31.50 
   1  -2  -4  916.41   26.80 
   1  -2  -4  939.61   26.40 
  -1   2   4  923.41   30.50 
   0  -2  -4  609.74   17.10 
   0  -2  -4  594.94   17.10 
   0  -2  -4  594.54   21.20 
   0   2   4  594.14   20.40 
  -2  -2  -4    2.80    1.10 
  -2  -2  -4    6.70    1.30 
   2   2   4    1.80    1.00 
   2   2   4    3.90    0.90 
  -3  -2  -4   39.10    3.70 
  -3  -2  -4   39.50    3.70 
  -3  -2  -4   43.60    3.20 
   3   2   4   31.70    2.90 
   3   2   4   39.10    3.30 
   3   2   4   38.40    2.30 
  -4  -2  -4 8800.72  243.98 
   4   2   4 8690.23  242.58 
  -5  -2  -4  306.57   14.90 
  -5  -2  -4  296.57   14.50 
   5   2   4  304.17   13.80 
  -6  -2  -4  219.48   13.00 
  -6  -2  -4  242.48   14.00 
   6   2   4  241.78   12.60 
  -7  -2  -4   65.79    8.10 
  -7  -2  -4   63.99    7.40 
   7   2   4   74.29    7.10 
  -8  -2  -4  193.98   13.50 
  -8   3   4   30.40    7.20 
   7  -3  -4  378.76   19.50 
   7  -3  -4  397.86   22.30 
   7  -3  -4  425.46   21.00 
  -7   3   4  398.16   18.20 
  -7   3   4  407.16   23.00 
   6  -3  -4  142.79   12.20 
   6  -3  -4  154.68   10.80 
  -6   3   4  139.19    9.10 
  -6   3   4  175.58   13.40 
   5  -3  -4    0.40    1.80 
   5  -3  -4    2.60    2.30 
   5  -3  -4    0.30    1.90 
  -5   3   4    1.70    2.40 
  -5   3   4   -0.20    1.40 
   4  -3  -4 1288.67   40.80 
   4  -3  -4 1272.87   44.90 
  -4   3   4 1257.17   39.50 
   3  -3  -4  184.68   11.40 
   3  -3  -4  191.48    8.70 
   3  -3  -4  185.88    8.70 
  -3   3   4  177.88    7.10 
  -3   3   4  172.98   15.20 
  -3   3   4  182.08    7.70 
   2  -3  -4   54.09    3.40 
   2  -3  -4   46.80    3.50 
   2  -3  -4   52.29    5.40 
  -2   3   4   54.69    2.70 
  -2   3   4   57.79    5.00 
   1  -3  -4 1722.93   49.60 
   1  -3  -4 1752.62   54.29 
   1  -3  -4 1752.22   49.10 
  -1   3   4 1725.53   52.69 
   0  -3  -4 1465.85   45.30 
   0  -3  -4 1472.85   41.00 
   0  -3  -4 1416.86   41.40 
   0   3   4 1443.26   43.90 
  -1  -3  -4   73.09    4.00 
  -1  -3  -4   71.89    5.10 
   1   3   4   76.59    4.50 
  -2  -3  -4  857.51   27.70 
  -2  -3  -4  859.81   27.80 
  -2  -3  -4  912.51   27.60 
   2   3   4  887.51   26.10 
   2   3   4  868.71   25.90 
   2   3   4  895.61   27.00 
  -3  -3  -4  361.26   13.00 
  -3  -3  -4  368.46   14.60 
  -3  -3  -4  387.76   14.60 
   3   3   4  360.26   12.60 
   3   3   4  360.86   13.30 
  -4  -3  -4   18.70    3.40 
  -4  -3  -4   20.00    2.00 
   4   3   4   22.00    3.40 
   4   3   4   20.20    2.30 
  -5  -3  -4   20.20    4.00 
  -5  -3  -4   21.50    4.20 
   5   3   4   23.70    3.90 
  -6  -3  -4    6.70    3.10 
  -6  -3  -4    7.10    2.70 
   6   3   4    8.10    2.80 
  -7  -3  -4   31.90    6.30 
  -7  -3  -4   26.10    5.50 
  -8  -3  -4   27.70    5.80 
   8  -4  -4    2.80    4.00 
   8  -4  -4    4.20    3.80 
  -8   4   4    5.60    4.70 
   7  -4  -4   62.09    7.80 
   7  -4  -4   73.29    9.40 
   7  -4  -4   73.89    8.20 
  -7   4   4   60.49    6.50 
  -7   4   4   80.59   10.10 
   6  -4  -4  133.19   10.10 
   6  -4  -4  119.79   10.30 
   6  -4  -4  119.19   11.00 
  -6   4   4  134.59    8.70 
  -6   4   4  112.49   11.30 
   5  -4  -4  237.38   15.40 
   5  -4  -4  231.68   12.60 
   5  -4  -4  239.98   12.90 
  -5   4   4  269.67   12.20 
   4  -4  -4  296.87   16.50 
   4  -4  -4  289.47   13.30 
  -4   4   4  299.27   13.00 
   3  -4  -4  385.76   14.80 
   3  -4  -4  401.86   18.80 
   3  -4  -4  362.96   14.90 
  -3   4   4  393.96   14.00 
   2  -4  -4  490.55   18.90 
   2  -4  -4  531.55   21.60 
   2  -4  -4  527.55   17.10 
  -2   4   4  501.75   15.50 
  -2   4   4  448.66   22.10 
  -2   4   4  522.85   16.20 
   1  -4  -4   53.49    3.30 
   1  -4  -4   51.29    3.60 
   1  -4  -4   52.89    5.30 
  -1   4   4   54.69    4.70 
  -1   4   4   54.89    2.50 
  -1   4   4   56.89    2.60 
   0  -4  -4 1510.55   44.30 
   0  -4  -4 1533.45   47.70 
   0  -4  -4 1595.54   43.70 
   0   4   4 1403.46   47.20 
  -1  -4  -4   58.99    4.80 
  -1  -4  -4   65.49    3.80 
  -1  -4  -4   56.29    4.10 
   1   4   4   62.09    2.90 
   1   4   4   50.79    4.10 
   1   4   4   59.59    3.00 
  -2  -4  -4    1.60    1.00 
  -2  -4  -4    3.40    1.40 
  -2  -4  -4   -0.60    0.70 
   2   4   4   -0.40    0.70 
   2   4   4    1.00    1.00 
  -3  -4  -4  732.23   25.90 
  -3  -4  -4  748.33   24.60 
  -3  -4  -4  786.12   25.40 
   3   4   4  726.13   24.20 
   3   4   4  742.63   24.20 
  -4  -4  -4  110.29    7.20 
  -4  -4  -4  104.09    5.70 
   4   4   4  107.89    8.30 
   4   4   4  100.49    5.90 
  -5  -4  -4   22.00    5.00 
  -5  -4  -4   17.90    3.70 
  -5  -4  -4   17.80    2.20 
   5   4   4   15.90    2.60 
   5   4   4   16.20    3.20 
  -6  -4  -4   93.99    9.20 
  -6  -4  -4  117.39    8.80 
   6   4   4  110.39    8.20 
  -7  -4  -4  202.18   13.00 
   8  -5  -4   18.10    5.60 
   8  -5  -4   13.60    4.80 
  -8   5   4   13.80    6.00 
   7  -5  -4   12.40    4.30 
   7  -5  -4    6.10    4.10 
  -7   5   4   13.10    5.90 
   6  -5  -4   12.90    4.50 
   6  -5  -4    5.00    3.30 
   6  -5  -4   13.40    3.80 
  -6   5   4   19.60    3.70 
   5  -5  -4  417.16   23.10 
   5  -5  -4  407.36   18.40 
   5  -5  -4  433.06   19.50 
   4  -5  -4  133.09   10.90 
   4  -5  -4  128.29    8.30 
  -4   5   4  133.39    7.60 
   3  -5  -4   53.69    4.70 
   3  -5  -4   49.10    4.40 
   3  -5  -4   53.09    6.50 
  -3   5   4   54.69    4.10 
   2  -5  -4  929.41   29.80 
   2  -5  -4  925.71   33.90 
   2  -5  -4  910.41   29.20 
  -2   5   4  918.11   28.40 
   1  -5  -4 1437.06   46.40 
   1  -5  -4 1442.56   41.80 
   1  -5  -4 1339.47   44.30 
  -1   5   4 1373.46   40.60 
   0  -5  -4  404.56   15.60 
   0  -5  -4  443.56   18.30 
   0  -5  -4  454.15   15.20 
   0   5   4  432.26   16.90 
   0   5   4  432.46   14.10 
  -1  -5  -4 1192.28   34.80 
  -1  -5  -4 1046.20   37.90 
  -1  -5  -4 1167.68   37.60 
   1   5   4 1129.89   36.20 
   1   5   4 1144.69   33.60 
  -2  -5  -4   73.79    7.00 
  -2  -5  -4   73.29    4.90 
  -2  -5  -4   72.89    5.50 
   2   5   4   75.09    4.50 
   2   5   4   77.29    5.60 
  -3  -5  -4    7.60    2.10 
  -3  -5  -4   15.20    2.80 
  -3  -5  -4   11.30    3.90 
   3   5   4    8.90    2.50 
   3   5   4   14.10    2.60 
  -4  -5  -4  834.82   27.00 
  -4  -5  -4  842.72   28.70 
  -4  -5  -4  813.52   29.80 
   4   5   4  806.52   27.80 
   4   5   4  759.82   27.00 
  -5  -5  -4   34.20    5.70 
  -5  -5  -4   22.80    3.00 
  -5  -5  -4   19.00    3.80 
   5   5   4   28.80    3.80 
  -6  -5  -4    2.50    1.30 
  -6  -5  -4    2.10    2.30 
  -6  -5  -4   -1.20    3.40 
   6   5   4    3.20    2.50 
   6   5   4    6.40    3.10 
  -7  -5  -4  120.89    9.60 
   7  -6  -4   25.50    5.90 
   7  -6  -4   35.20    7.90 
   6  -6  -4    0.90    2.80 
   6  -6  -4   -0.50    2.30 
   6  -6  -4    4.30    3.40 
   5  -6  -4  123.19    9.60 
   5  -6  -4  147.49   12.80 
   5  -6  -4  123.99    9.30 
  -5   6   4  155.28    9.30 
   4  -6  -4  340.67   15.90 
   4  -6  -4  365.36   19.90 
   4  -6  -4  338.17   16.10 
  -4   6   4  351.26   14.90 
   3  -6  -4  259.67   12.20 
   3  -6  -4  262.47   15.60 
  -3   6   4  259.47   11.50 
   2  -6  -4    9.60    2.40 
   2  -6  -4   20.00    4.60 
   2  -6  -4    5.90    1.90 
  -2   6   4   15.40    2.40 
   1  -6  -4   82.29    6.10 
   1  -6  -4   91.79    5.80 
   1  -6  -4   97.89    8.30 
  -1   6   4   79.89    4.90 
   0  -6  -4 1285.17   43.50 
   0  -6  -4 1281.07   40.80 
   0  -6  -4 1289.47   39.70 
   0   6   4 1305.77   38.70 
  -1  -6  -4  173.98   10.40 
  -1  -6  -4  175.08    9.50 
  -1  -6  -4  169.98    8.50 
   1   6   4  177.68    7.90 
  -2  -6  -4  124.69    8.00 
  -2  -6  -4  130.79    8.30 
  -2  -6  -4  124.19    7.20 
   2   6   4  131.79    6.70 
  -3  -6  -4  431.86   17.50 
  -3  -6  -4  462.75   18.30 
   3   6   4  452.75   18.50 
   3   6   4  449.36   17.00 
  -4  -6  -4  132.39    8.10 
  -4  -6  -4  129.29    9.70 
  -4  -6  -4  138.09    8.60 
   4   6   4  136.19    8.30 
   4   6   4  117.99    8.10 
  -5  -6  -4  137.49    9.10 
  -5  -6  -4  121.59    7.50 
  -5  -6  -4  110.79   10.80 
   5   6   4  121.19    8.40 
   5   6   4  106.79    8.20 
  -6  -6  -4  189.38   12.00 
  -7  -6  -4   41.30    7.30 
   7  -7  -4   21.40    6.10 
   7  -7  -4   23.00    6.60 
   6  -7  -4  135.29   11.00 
   6  -7  -4  131.09   13.00 
   5  -7  -4   80.09    7.70 
   5  -7  -4   65.99    7.10 
   5  -7  -4   85.19   10.00 
  -5   7   4   73.19    6.50 
   4  -7  -4  137.39    9.40 
   4  -7  -4  131.29   11.80 
   4  -7  -4  136.29    9.50 
  -4   7   4  145.09    8.60 
   3  -7  -4  633.54   28.40 
   3  -7  -4  644.74   23.90 
  -3   7   4  623.04   22.80 
   2  -7  -4  255.97   12.10 
   2  -7  -4  244.58   17.20 
  -2   7   4  268.87   11.50 
   1  -7  -4  430.06   20.60 
   1  -7  -4  409.26   17.40 
   1  -7  -4  425.66   16.70 
  -1   7   4  442.36   16.00 
   0  -7  -4  205.28   12.60 
   0  -7  -4  192.58    9.80 
   0  -7  -4  199.78   10.90 
   0   7   4  206.18    9.20 
  -1  -7  -4   19.00    3.60 
  -1  -7  -4    9.00    3.20 
  -1  -7  -4   17.00    3.00 
   1   7   4   11.60    2.20 
  -2  -7  -4  101.19    7.80 
  -2  -7  -4   93.69    9.60 
   2   7   4   97.29    6.20 
  -3  -7  -4    4.10    2.50 
  -3  -7  -4    3.60    1.90 
  -3  -7  -4    3.10    1.80 
   3   7   4    2.20    1.50 
  -4  -7  -4    5.80    2.40 
  -4  -7  -4    5.30    2.40 
  -4  -7  -4    4.40    3.30 
   4   7   4    7.50    2.50 
  -5  -7  -4   42.80    5.30 
  -5  -7  -4   49.00    5.20 
  -6  -7  -4  349.87   17.50 
  -6  -7  -4  337.27   15.50 
   6  -8  -4   46.20    7.40 
   6  -8  -4   52.09    9.90 
   5  -8  -4   91.39   11.20 
   5  -8  -4   74.39    7.80 
   4  -8  -4    2.40    2.80 
   4  -8  -4    2.70    2.40 
   4  -8  -4    1.30    2.80 
  -4   8   4   -3.60    2.30 
   3  -8  -4    0.60    1.90 
   3  -8  -4    6.70    3.60 
   3  -8  -4    1.50    2.50 
  -3   8   4    2.60    1.80 
   2  -8  -4  218.48   11.50 
   2  -8  -4  213.38   11.90 
   2  -8  -4  219.08   15.00 
  -2   8   4  220.48   10.90 
   1  -8  -4   -3.00    1.70 
   1  -8  -4    2.60    2.60 
   1  -8  -4    9.90    2.70 
  -1   8   4    6.20    2.10 
   0  -8  -4   32.60    5.90 
   0  -8  -4   29.80    4.30 
   0   8   4   30.10    3.70 
  -1  -8  -4   72.79    6.00 
   1   8   4   52.69    5.00 
  -2  -8  -4   80.49    7.90 
  -2  -8  -4   91.29    8.00 
  -2  -8  -4   96.69    7.20 
   2   8   4   89.09    6.40 
  -3  -8  -4   32.50    5.50 
  -3  -8  -4   20.60    4.70 
  -3  -8  -4   23.00    3.80 
   3   8   4   32.80    4.30 
  -4  -8  -4   93.49    7.60 
  -4  -8  -4   89.29    7.90 
  -5  -8  -4   13.50    4.00 
  -5  -8  -4   13.80    4.00 
   5  -9  -4   31.80    7.30 
   4  -9  -4   73.99    7.60 
   3  -9  -4    1.40    2.70 
   3  -9  -4    3.10    2.30 
   2  -9  -4   56.69    8.10 
   2  -9  -4   68.49    6.50 
   2  -9  -4   52.19    6.90 
   1  -9  -4   75.29    7.90 
   1  -9  -4   78.19    8.90 
   1  -9  -4   74.59    6.80 
  -1   9   4   65.39    6.10 
   0  -9  -4    2.10    2.00 
   0  -9  -4    7.20    3.50 
   0  -9  -4    0.70    3.20 
   0   9   4    5.40    2.30 
  -1  -9  -4   83.29    8.80 
  -1  -9  -4   89.49    7.30 
  -1  -9  -4   72.59    7.80 
   1   9   4   82.39    7.70 
  -2  -9  -4   91.59    7.60 
  -2  -9  -4   94.69    9.00 
  -2  -9  -4   91.19    8.90 
  -3  -9  -4    3.10    2.20 
  -3  -9  -4    4.20    2.50 
  -4  -9  -4   14.20    4.70 
  -4  -9  -4   10.20    3.90 
   3 -10  -4    0.30    2.90 
   2 -10  -4   11.30    5.40 
   2 -10  -4    7.00    3.20 
   1 -10  -4    2.70    2.70 
   1 -10  -4    3.70    2.60 
   0 -10  -4   99.69   10.30 
   0 -10  -4   67.19    7.10 
  -1 -10  -4   17.40    5.10 
  -1 -10  -4   12.20    3.40 
  -2 -10  -4   18.40    5.60 
   2  10  -5    8.60    3.60 
  -2 -10   5    6.10    3.80 
   1  10  -5   -4.70    2.80 
  -1 -10   5    3.80    3.50 
   0 -10   5    3.80    3.90 
   0 -10   5    5.50    4.10 
  -1  10  -5    4.90    5.60 
  -2  10  -5   -4.50    2.70 
  -3  10  -5   -0.40    3.60 
   3 -10   5    4.50    4.20 
   4   9  -5   -1.80    3.20 
  -4  -9   5    1.80    3.60 
   3   9  -5    5.00    6.10 
  -3  -9   5    2.20    2.60 
  -3  -9   5    5.60    4.20 
   2   9  -5    6.90    3.40 
  -2  -9   5    7.00    4.00 
  -2  -9   5    7.90    3.20 
   1   9  -5   52.79    7.90 
  -1  -9   5   49.20    7.40 
  -1  -9   5   68.29    6.80 
   0   9  -5  155.28   11.60 
   0  -9   5  135.79   11.60 
   0  -9   5  162.78   10.80 
  -1   9  -5    0.40    2.40 
   1  -9   5   -1.90    2.50 
   1  -9   5    1.70    2.00 
  -2   9  -5   39.40    7.00 
   2  -9   5   42.90    6.10 
   2  -9   5   32.20    6.20 
   3  -9   5  257.87   15.20 
   3  -9   5  242.18   15.00 
  -4   9  -5   72.59    9.20 
   4  -9   5   77.19    8.30 
   5   8  -5    3.40    4.00 
  -5  -8   5    6.40    5.60 
  -4  -8   5   -0.10    2.30 
  -4  -8   5   -0.10    3.20 
   3   8  -5   20.10    5.10 
  -3  -8   5   20.00    5.60 
  -3  -8   5   24.90    4.30 
   2   8  -5   -5.40    1.90 
   2   8  -5   -1.40    2.40 
  -2  -8   5    2.70    2.30 
  -2  -8   5    4.40    3.50 
   1   8  -5   43.60    6.80 
   1   8  -5   42.80    5.40 
  -1  -8   5   33.20    6.20 
  -1  -8   5   44.90    5.20 
   0   8  -5   81.99    8.10 
   0   8  -5   70.99    6.60 
   0  -8   5   80.89    6.90 
   0  -8   5   78.79    8.30 
  -1   8  -5   45.00    6.80 
  -1   8  -5   49.30    5.60 
   1  -8   5   48.90    6.00 
   1  -8   5   47.80    5.50 
  -2   8  -5   53.19    6.70 
  -2   8  -5   43.20    5.40 
   2  -8   5   44.30    5.60 
   2  -8   5   47.40    6.20 
  -3   8  -5  132.99   11.10 
   3  -8   5  135.49   10.20 
   3  -8   5  140.89   10.30 
  -4   8  -5    2.10    2.90 
   4  -8   5    0.50    2.50 
   4  -8   5    4.70    2.90 
  -5   8  -5   17.50    5.90 
   5  -8   5   20.20    4.90 
   6   7  -5   18.00    5.30 
  -6  -7   5   24.30    6.30 
   5   7  -5   30.50    6.50 
  -5  -7   5   27.80    6.60 
  -5  -7   5   32.60    5.00 
   4   7  -5   -3.10    2.10 
   4   7  -5    3.00    2.90 
  -4  -7   5    3.20    3.30 
  -4  -7   5    1.50    2.10 
   3   7  -5   27.20    5.30 
   3   7  -5   29.00    4.80 
  -3  -7   5   34.40    4.10 
  -3  -7   5   26.70    5.60 
   2   7  -5   22.90    4.20 
   2   7  -5   27.30    5.40 
  -2  -7   5   26.50    4.30 
  -2  -7   5   22.10    5.10 
   1   7  -5   12.10    3.00 
   1   7  -5    5.90    3.00 
  -1  -7   5    8.60    2.60 
  -1  -7   5    9.70    3.80 
   0   7  -5  150.58    9.10 
   0   7  -5  140.49   10.00 
   0  -7   5  143.39    8.80 
   0  -7   5  133.69   10.30 
  -1   7  -5   37.00    4.70 
  -1   7  -5   30.30    5.20 
   1  -7   5   36.80    5.30 
   1  -7   5   32.20    4.80 
  -2   7  -5    2.60    2.10 
  -2   7  -5    2.00    2.20 
   2  -7   5    0.20    2.00 
   2  -7   5   -0.20    1.40 
  -3   7  -5   69.19    7.40 
   3  -7   5   53.49    6.10 
   3  -7   5   63.19    6.40 
  -4   7  -5   33.10    5.50 
  -4   7  -5   51.59    6.70 
   4  -7   5   37.90    5.20 
   4  -7   5   34.50    5.80 
  -5   7  -5   18.50    5.30 
   5  -7   5   21.70    4.50 
   5  -7   5   14.80    4.30 
  -6   7  -5   17.70    5.00 
   6  -7   5   12.30    3.80 
   7   6  -5   -0.50    3.40 
  -7  -6   5   -2.10    4.00 
   6   6  -5    8.10    3.60 
  -6  -6   5    0.70    2.60 
   5   6  -5    0.70    2.90 
   5   6  -5    0.00    2.10 
  -5  -6   5    4.50    3.30 
  -5  -6   5   -0.20    1.80 
   4   6  -5   10.10    3.60 
   4   6  -5   13.30    3.90 
  -4  -6   5   10.50    2.90 
  -4  -6   5   16.20    4.80 
   3   6  -5    6.40    2.50 
   3   6  -5    1.40    2.30 
  -3  -6   5    4.50    4.10 
  -3  -6   5    7.60    2.40 
   2   6  -5    9.70    2.70 
   2   6  -5   11.60    3.40 
  -2  -6   5   12.80    3.30 
  -2  -6   5    9.30    3.50 
   1   6  -5    0.30    1.90 
   1   6  -5    3.50    1.80 
  -1  -6   5    1.10    1.60 
  -1  -6   5   -0.80    2.60 
   0   6  -5  207.98   11.70 
   0   6  -5  206.68   10.50 
   0  -6   5  204.68   12.20 
   0  -6   5  211.98   10.50 
  -1   6  -5   59.79    6.00 
  -1   6  -5   59.49    5.20 
   1  -6   5   54.19    6.00 
   1  -6   5   55.09    4.90 
  -2   6  -5   27.90    4.30 
  -2   6  -5   29.00    5.20 
   2  -6   5   24.10    4.00 
   2  -6   5   20.70    4.10 
  -3   6  -5   39.30    4.60 
  -3   6  -5   24.20    5.00 
   3  -6   5   33.80    5.30 
   3  -6   5   30.90    4.20 
  -4   6  -5   29.00    5.10 
  -4   6  -5   25.80    5.30 
   4  -6   5   30.90    4.90 
   4  -6   5   29.40    4.10 
  -5   6  -5   25.60    5.50 
  -5   6  -5   27.20    4.60 
   5  -6   5   22.50    4.90 
   5  -6   5   14.70    3.70 
  -6   6  -5    0.70    2.60 
   6  -6   5    0.70    3.20 
   6  -6   5    3.00    2.00 
  -7   6  -5   87.89   10.50 
   7  -6   5   75.89    7.40 
   7   5  -5   80.39    9.10 
  -7  -5   5   68.29    8.70 
   6   5  -5   93.59    9.40 
   6   5  -5   91.29    9.30 
  -6  -5   5   99.69    9.80 
  -6  -5   5   92.19    7.60 
   5   5  -5   48.00    7.10 
   5   5  -5   51.99    6.50 
  -5  -5   5   49.90    7.10 
  -5  -5   5   49.90    5.40 
   4   5  -5   -1.30    1.90 
   4   5  -5    5.60    2.30 
  -4  -5   5   -0.80    2.50 
   3   5  -5    2.10    1.80 
   3   5  -5    2.90    1.90 
  -3  -5   5    0.60    1.90 
  -3  -5   5    1.00    1.40 
   2   5  -5  289.87   13.10 
   2   5  -5  324.37   15.10 
  -2  -5   5  328.67   16.30 
  -2  -5   5  294.67   12.90 
   1   5  -5  979.60   32.20 
   1   5  -5  993.30   34.00 
  -1  -5   5  990.00   32.10 
  -1  -5   5 1026.50   35.60 
   0   5  -5   13.70    2.60 
   0   5  -5   24.40    4.10 
   0  -5   5   18.10    2.90 
   0  -5   5   11.90    3.60 
  -1   5  -5  208.28   10.80 
  -1   5  -5  209.08    9.90 
   1  -5   5  181.58   10.60 
   1  -5   5  202.38    9.80 
  -2   5  -5  834.52   29.40 
  -2   5  -5  864.41   29.90 
   2  -5   5  840.82   28.90 
   2  -5   5  800.32   28.30 
  -3   5  -5  839.02   29.80 
  -3   5  -5  814.32   28.20 
  -3   5  -5  764.22   29.00 
   3  -5   5  799.82   28.70 
   3  -5   5  813.92   27.50 
  -4   5  -5   50.69    5.80 
  -4   5  -5   34.10    4.40 
  -4   5  -5   51.39    5.20 
   4  -5   5   48.70    4.50 
   4  -5   5   40.90    5.00 
  -5   5  -5   28.60    4.70 
  -5   5  -5   24.50    4.00 
  -5   5  -5   16.80    4.10 
   5  -5   5   28.40    3.60 
  -6   5  -5    6.00    2.70 
  -6   5  -5    3.30    2.70 
  -6   5  -5    7.40    2.90 
   6  -5   5    8.00    3.40 
  -7   5  -5    8.30    4.00 
   7   4  -5   26.10    6.10 
  -7  -4   5   28.90    6.10 
   6   4  -5   36.70    7.40 
   6   4  -5   50.29    7.20 
  -6  -4   5   30.40    6.40 
  -6  -4   5   30.80    6.10 
   5   4  -5  289.07   15.00 
   5   4  -5  288.17   15.60 
  -5  -4   5  273.77   13.10 
   4   4  -5  457.35   19.60 
   4   4  -5  440.76   18.70 
  -4  -4   5  454.45   17.30 
  -4  -4   5  393.16   20.00 
   3   4  -5   25.80    4.50 
   3   4  -5   26.40    3.50 
  -3  -4   5   30.50    3.20 
  -3  -4   5   21.40    4.50 
   2   4  -5    0.30    1.30 
   2   4  -5    1.00    1.40 
  -2  -4   5    2.80    2.40 
  -2  -4   5    1.00    1.10 
   1   4  -5    7.40    2.50 
   1   4  -5    8.60    2.10 
  -1  -4   5   11.60    3.50 
  -1  -4   5   10.60    2.20 
   0   4  -5   43.00    5.30 
   0   4  -5   40.10    3.70 
   0   4  -5   40.00    4.30 
   0  -4   5   41.80    3.60 
   0  -4   5   45.30    5.10 
  -1   4  -5    0.90    1.30 
  -1   4  -5    4.10    2.10 
  -1   4  -5    2.20    1.10 
   1  -4   5    1.80    1.70 
   1  -4   5    0.50    0.90 
  -2   4  -5  746.93   24.80 
  -2   4  -5  665.43   26.60 
  -2   4  -5  763.02   26.00 
   2  -4   5  734.73   24.90 
  -3   4  -5  554.04   22.10 
  -3   4  -5  597.54   21.90 
  -3   4  -5  632.44   23.50 
   3  -4   5  625.64   21.20 
   3  -4   5  639.64   22.70 
  -4   4  -5  119.09    8.00 
  -4   4  -5  118.29    7.40 
  -4   4  -5  129.79    9.10 
   4  -4   5  127.69    8.30 
   4  -4   5  130.19    6.90 
  -5   4  -5  223.68   12.00 
  -5   4  -5  206.28   10.20 
  -5   4  -5  206.58   12.90 
   5  -4   5  214.28   12.50 
   5  -4   5  230.28   10.10 
  -6   4  -5   19.80    3.20 
  -6   4  -5   25.10    4.70 
   6  -4   5   24.70    3.20 
   6  -4   5   19.00    4.20 
  -7   4  -5  161.58   12.60 
   7  -4   5  143.39    8.10 
   8   3  -5   -5.00    2.60 
  -8  -3   5    2.90    3.50 
   7   3  -5   37.50    6.40 
   7   3  -5   41.90    7.10 
  -7  -3   5   36.20    4.80 
  -7  -3   5   40.40    7.50 
   6   3  -5    2.50    2.70 
   6   3  -5   12.60    4.00 
  -6  -3   5    8.20    2.10 
  -6  -3   5    9.90    3.60 
   5   3  -5  468.15   20.50 
   5   3  -5  464.75   20.20 
  -5  -3   5  470.75   18.00 
  -5  -3   5  439.66   21.90 
   4   3  -5   77.99    6.30 
   4   3  -5   67.49    6.30 
  -4  -3   5   62.19    4.90 
  -4  -3   5   71.89    7.70 
   3   3  -5   30.20    4.00 
   3   3  -5   31.60    3.70 
  -3  -3   5   27.40    3.00 
  -3  -3   5   23.70    4.40 
   2   3  -5  340.87   14.10 
  -2  -3   5  336.57   16.20 
  -2  -3   5  339.07   12.50 
   1   3  -5   13.30    3.30 
   1   3  -5   16.00    2.80 
  -1  -3   5   17.90    2.80 
  -1  -3   5   16.90    2.40 
  -1  -3   5   18.60    3.90 
   0   3  -5 1311.57   39.00 
   0  -3   5 1238.28   38.00 
   0  -3   5 1292.27   37.50 
   0  -3   5 1225.08   40.80 
  -1   3  -5    0.30    0.90 
  -1   3  -5    0.80    1.40 
   1  -3   5    1.20    1.30 
   1  -3   5   -0.90    0.70 
   1  -3   5    0.10    0.80 
  -2   3  -5  170.98    9.20 
  -2   3  -5  185.88    9.20 
   2  -3   5  182.68    8.60 
   2  -3   5  190.48    8.70 
  -3   3  -5  162.98    8.30 
  -3   3  -5  158.08    9.00 
  -3   3  -5  151.88    8.00 
   3  -3   5  147.99    8.30 
   3  -3   5  164.88    7.50 
  -4   3  -5  139.39    8.20 
  -4   3  -5  142.19    9.10 
  -4   3  -5  127.89    6.90 
   4  -3   5  130.99    6.30 
   4  -3   5  141.89    8.60 
  -5   3  -5  309.77   14.40 
  -5   3  -5  275.17   11.10 
  -5   3  -5  283.07   15.00 
   5  -3   5  292.67   11.10 
   5  -3   5  316.97   14.90 
  -6   3  -5    5.10    2.80 
  -6   3  -5   11.20    3.40 
   6  -3   5    3.40    2.50 
  -7   3  -5  153.28   11.90 
  -7   3  -5  144.59   11.00 
   7  -3   5  145.89   12.20 
  -8   3  -5   64.59    8.20 
   8   2  -5    0.00    2.70 
  -8  -2   5   -1.90    2.80 
   7   2  -5   18.90    4.90 
   7   2  -5   23.00    4.90 
  -7  -2   5   15.00    3.50 
  -7  -2   5   16.90    5.00 
   6   2  -5  170.28   11.60 
   6   2  -5  162.28   11.20 
  -6  -2   5  163.78    9.40 
  -6  -2   5  191.38   19.40 
   5   2  -5   33.70    5.30 
   5   2  -5   35.00    5.50 
  -5  -2   5   37.00    6.90 
  -5  -2   5   30.90    3.70 
   4   2  -5  156.78    9.00 
   4   2  -5  165.78    9.50 
  -4  -2   5  146.39   10.80 
  -4  -2   5  162.88    7.80 
   3   2  -5  741.63   25.50 
  -3  -2   5  772.82   29.10 
  -3  -2   5  691.03   23.20 
   2   2  -5   63.89    6.50 
   2   2  -5   54.99    4.30 
   2   2  -5   53.89    3.80 
  -2  -2   5   56.79    5.90 
  -2  -2   5   57.29    3.50 
   1   2  -5  548.15   28.70 
   1   2  -5  654.13   20.90 
   1   2  -5  632.04   19.70 
  -1  -2   5  629.14   19.80 
  -1  -2   5  620.04   19.10 
  -1  -2   5  651.33   23.90 
   0   2  -5  427.06   13.90 
   0   2  -5  401.56   18.00 
   0   2  -5  413.46   17.30 
   0  -2   5  439.36   17.00 
   0  -2   5  432.96   13.90 
   0  -2   5  407.26   13.30 
  -1   2  -5  193.18    7.90 
  -1   2  -5  192.48    9.80 
  -1   2  -5  212.78    8.50 
   1  -2   5  199.88    7.70 
   1  -2   5  195.98    7.60 
   1  -2   5  185.98    9.00 
  -2   2  -5 1028.40   34.10 
  -2   2  -5 1073.09   33.20 
  -2   2  -5 1109.59   34.10 
   2  -2   5 1114.79   33.30 
   2  -2   5 1091.59   33.20 
   2  -2   5 1110.69   32.90 
  -3   2  -5  223.28    9.60 
  -3   2  -5  243.98   11.10 
   3  -2   5  231.08   10.30 
   3  -2   5  234.78    8.80 
  -4   2  -5  153.28    6.80 
  -4   2  -5  167.08    9.10 
  -4   2  -5  166.48    9.60 
   4  -2   5  164.38    9.10 
   4  -2   5  175.48    6.40 
  -5   2  -5  530.55   22.30 
  -5   2  -5  556.44   21.50 
  -6   2  -5   75.29    7.60 
  -6   2  -5   65.69    6.60 
   6  -2   5   67.09    6.70 
  -7   2  -5   45.20    6.40 
  -7   2  -5   43.50    7.00 
   7  -2   5   30.70    5.40 
  -8   2  -5  119.79   10.90 
   8   1  -5  123.49   11.50 
  -8  -1   5  133.19   12.20 
   7   1  -5    0.40    3.20 
   7   1  -5    0.50    2.80 
  -7  -1   5   -1.20    3.10 
  -7  -1   5    0.90    2.10 
   6   1  -5  327.17   16.70 
   6   1  -5  292.87   15.80 
  -6  -1   5  298.77   13.70 
  -6  -1   5  321.07   18.70 
   5   1  -5   85.29    7.50 
   5   1  -5   84.29    7.20 
  -5  -1   5   73.19    5.50 
  -5  -1   5   85.49    8.70 
   4   1  -5   15.10    3.10 
  -4  -1   5   16.10    2.40 
  -4  -1   5   11.60    3.70 
   3   1  -5 2365.16   66.09 
   3   1  -5 2135.19   74.19 
   3   1  -5 2311.37   65.39 
  -3  -1   5 2159.68   64.59 
  -3  -1   5 2137.09   76.19 
  -3  -1   5 2253.47   70.59 
   2   1  -5    5.30    2.30 
   2   1  -5    0.60    0.80 
  -2  -1   5    1.40    0.70 
  -2  -1   5   11.30    3.10 
  -2  -1   5    1.40    1.80 
  -2  -1   5   -0.40    0.70 
   1   1  -5  304.27   14.30 
   1   1  -5  303.37   10.90 
   1   1  -5  292.97   10.10 
  -1  -1   5  326.47   14.50 
  -1  -1   5  307.37   14.30 
   0   1  -5  147.29    5.50 
   0   1  -5  141.29    5.90 
   0   1  -5  137.39    8.20 
   0  -1   5  146.49    8.40 
   0  -1   5  133.59    8.00 
  -1   1  -5  885.21   30.10 
  -1   1  -5  926.91   27.60 
  -1   1  -5  926.61   27.80 
   1  -1   5  916.21   30.20 
   1  -1   5  994.20   30.10 
  -2   1  -5    3.90    1.30 
  -2   1  -5    1.30    0.90 
  -2   1  -5    0.40    0.80 
   2  -1   5    2.30    0.80 
   2  -1   5    2.50    0.80 
   2  -1   5    1.50    1.00 
   2  -1   5    5.30    1.50 
  -3   1  -5  583.54   19.00 
  -3   1  -5  618.94   21.40 
  -3   1  -5  608.04   21.00 
   3  -1   5  612.34   18.30 
   3  -1   5  621.74   19.20 
  -4   1  -5  296.57   13.70 
   4  -1   5  318.97   13.10 
  -5   1  -5  539.45   21.10 
  -5   1  -5  496.15   21.20 
   5  -1   5  515.45   20.20 
  -6   1  -5  259.47   14.00 
  -6   1  -5  264.37   14.50 
   6  -1   5  248.28   13.20 
  -7   1  -5   18.70    4.60 
  -7   1  -5   18.50    4.70 
   7  -1   5   18.60    4.10 
  -8   1  -5   16.10    4.60 
   8   0  -5  144.69   12.00 
  -8   0   5  138.39   13.20 
   7   0  -5   41.00    6.90 
   7   0  -5   41.90    6.80 
  -7   0   5   43.50    5.10 
  -7   0   5   39.50    7.80 
   6   0  -5  614.34   25.70 
   6   0  -5  639.14   26.10 
  -6   0   5  630.24   29.10 
  -6   0   5  637.94   23.10 
   5   0  -5 3004.00   91.99 
   5   0  -5 3222.38   92.89 
  -5   0   5 3147.59   89.39 
  -5   0   5 3038.80   97.19 
   4   0  -5  253.57   11.70 
   4   0  -5  218.18   10.90 
  -4   0   5  236.88   14.30 
  -4   0   5  206.58   12.10 
   3   0  -5  534.75   19.00 
   3   0  -5  549.54   18.80 
  -3   0   5  553.84   23.50 
  -3   0   5  537.85   22.80 
  -3   0   5  532.75   16.70 
  -3   0   5  520.05   16.90 
   2   0  -5 4014.90  110.69 
   2   0  -5 3986.30  111.19 
  -2   0   5 3930.41  116.49 
  -2   0   5 3968.40  117.29 
   1   0  -5 1668.13   46.50 
   1   0  -5 1617.44   45.90 
  -1   0   5 1619.64   52.19 
  -1   0   5 1679.83   51.99 
   0   0  -5  744.63   21.50 
   0   0  -5  768.12   21.70 
   0   0   5  759.32   26.20 
   0   0   5  758.72   26.50 
  -1   0  -5 3626.54   98.19 
  -1   0  -5 3499.35   98.19 
   1   0   5 3474.55  100.99 
   1   0   5 3582.64  101.29 
  -2   0  -5  301.67   11.10 
  -2   0  -5  302.27   11.00 
   2   0   5  260.27   13.70 
   2   0   5  294.57    9.00 
   2   0   5  302.17   10.90 
   2   0   5  310.27    9.10 
  -3   0  -5    1.10    1.00 
  -3   0  -5   -1.20    1.00 
   3   0   5    1.40    1.00 
   3   0   5    1.00    0.90 
  -4   0  -5 5154.18  146.59 
  -5   0  -5 1210.28   41.10 
  -5   0  -5 1248.38   41.10 
   5   0   5 1221.08   39.80 
  -6   0  -5  640.44   32.50 
   6   0   5  602.84   23.80 
  -7   0  -5  309.77   17.00 
  -7   0  -5  301.97   16.50 
   7   0   5  285.37   15.00 
  -8   0  -5  676.73   30.00 
   8  -1  -5    6.30    3.90 
  -8   1   5   16.80    5.70 
   7  -1  -5   34.00    6.20 
   7  -1  -5   29.50    6.20 
  -7   1   5   35.60    4.70 
  -7   1   5   32.70    7.60 
   6  -1  -5 1514.75   50.79 
   6  -1  -5 1477.45   49.99 
  -6   1   5 1446.66   46.90 
  -6   1   5 1578.94   55.59 
   5  -1  -5  285.57   13.90 
  -5   1   5  317.97   18.00 
   4  -1  -5  336.87   17.60 
   4  -1  -5  345.97   14.60 
   4  -1  -5  325.77   14.10 
  -4   1   5  324.77   12.10 
  -4   1   5  353.56   18.40 
   3  -1  -5  199.98    9.30 
   3  -1  -5  211.98   12.60 
   3  -1  -5  216.28    9.30 
  -3   1   5  210.38    7.20 
  -3   1   5  206.08    7.20 
  -3   1   5  195.18   12.70 
  -3   1   5  218.88   13.10 
   2  -1  -5 2206.98   62.29 
   2  -1  -5 2122.79   67.69 
   2  -1  -5 2249.87   62.09 
  -2   1   5 2128.29   67.29 
  -2   1   5 2211.58   68.59 
   1  -1  -5  230.28    7.20 
   1  -1  -5  233.88    7.40 
   1  -1  -5  260.37   12.40 
  -1   1   5  222.18   12.00 
  -1   1   5  238.18   11.70 
   0  -1  -5  835.52   28.40 
   0   1   5  827.62   28.00 
   0   1   5  835.52   28.90 
  -1  -1  -5   29.70    2.00 
  -1  -1  -5   32.60    2.10 
  -1  -1  -5   30.90    3.40 
   1   1   5   44.20    3.60 
   1   1   5   32.00    3.60 
  -2  -1  -5  720.93   22.80 
  -2  -1  -5  716.63   22.90 
   2   1   5  742.23   23.40 
   2   1   5  720.93   24.50 
  -3  -1  -5    2.00    1.10 
   3   1   5    2.00    0.80 
  -4  -1  -5 1821.42   56.19 
  -4  -1  -5 1796.12   55.79 
   4   1   5 1841.52   54.09 
  -5  -1  -5  703.33   26.60 
  -5  -1  -5  723.93   26.90 
  -6  -1  -5   84.89    7.70 
  -6  -1  -5   85.19    7.70 
   6   1   5   80.29    6.70 
  -7  -1  -5  193.58   12.80 
  -7  -1  -5  183.88   12.80 
   7   1   5  173.28   13.40 
  -8  -1  -5  318.07   18.10 
   8  -2  -5  138.69   11.70 
  -8   2   5  112.79   12.30 
   7  -2  -5    3.00    3.40 
   7  -2  -5    7.90    3.20 
  -7   2   5    8.60    4.60 
  -7   2   5    3.10    2.00 
   6  -2  -5   68.09    6.80 
   6  -2  -5   74.89    8.70 
   6  -2  -5   65.59   11.20 
   5  -2  -5  675.43   25.50 
   5  -2  -5  643.14   28.80 
  -5   2   5  669.43   29.90 
  -5   2   5  671.33   22.70 
   4  -2  -5   66.89    7.60 
   4  -2  -5   71.79    5.50 
   4  -2  -5   71.99    5.80 
  -4   2   5   71.59    4.30 
  -4   2   5   63.09    7.70 
   3  -2  -5  272.37   11.10 
   3  -2  -5  275.77   11.20 
   3  -2  -5  287.67   15.30 
  -3   2   5  270.07   15.40 
  -3   2   5  263.17    8.60 
  -3   2   5  270.07    8.70 
   2  -2  -5  881.81   27.30 
   2  -2  -5  903.71   27.10 
   2  -2  -5  921.81   33.00 
  -2   2   5  923.01   33.70 
  -2   2   5  883.31   31.70 
   1  -2  -5  186.38    6.10 
   1  -2  -5  191.38    6.40 
   1  -2  -5  187.88   10.70 
  -1   2   5  191.68   10.10 
   0  -2  -5 2746.03   81.19 
   0   2   5 2740.23   79.99 
  -1  -2  -5  301.27   12.70 
  -1  -2  -5  293.17    9.70 
   1   2   5  286.07   11.50 
  -2  -2  -5  995.40   31.10 
  -2  -2  -5 1011.10   30.30 
  -2  -2  -5  973.40   30.10 
   2   2   5  977.50   29.60 
  -3  -2  -5  354.26   12.10 
  -3  -2  -5  351.66   14.10 
  -3  -2  -5  344.47   13.80 
   3   2   5  356.06   11.90 
   3   2   5  352.96   11.40 
   3   2   5  364.46   12.40 
  -4  -2  -5    3.60    2.00 
  -4  -2  -5   -0.70    1.40 
   4   2   5    1.60    1.30 
  -5  -2  -5 1197.88   40.30 
  -5  -2  -5 1158.88   40.40 
   5   2   5 1220.88   38.40 
  -6  -2  -5   95.59    8.40 
  -6  -2  -5  111.09    8.50 
   6   2   5  103.79    8.00 
  -7  -2  -5   29.00    5.60 
  -7  -2  -5   12.50    5.10 
  -8  -2  -5   18.70    5.20 
   8  -3  -5  204.78   15.00 
  -8   3   5  231.38   17.90 
   7  -3  -5   49.60    9.00 
   7  -3  -5   44.40    6.90 
   7  -3  -5   42.20    6.90 
  -7   3   5   50.09    9.40 
   6  -3  -5   84.39    7.40 
   6  -3  -5   90.39    7.90 
   6  -3  -5   66.09    8.80 
  -6   3   5   76.19    6.10 
  -6   3   5   83.39    9.70 
   5  -3  -5  303.37   14.90 
   5  -3  -5  286.47   17.60 
  -5   3   5  284.97   12.30 
  -5   3   5  326.97   19.00 
   4  -3  -5  166.98   11.90 
   4  -3  -5  150.58    8.70 
   4  -3  -5  143.59    8.40 
  -4   3   5  152.68    7.00 
  -4   3   5  155.58   12.00 
   3  -3  -5  160.88    8.20 
   3  -3  -5  185.48    8.50 
   3  -3  -5  186.98   12.00 
  -3   3   5  175.08    6.20 
   2  -3  -5  515.85   16.60 
   2  -3  -5  519.85   22.00 
   2  -3  -5  497.65   16.90 
  -2   3   5  505.15   22.70 
   1  -3  -5  726.43   26.90 
   1  -3  -5  704.93   21.10 
   1  -3  -5  707.73   21.50 
  -1   3   5  709.53   25.40 
   0  -3  -5  446.26   18.30 
   0  -3  -5  432.96   13.60 
   0  -3  -5  453.85   14.00 
   0   3   5  459.45   17.00 
  -1  -3  -5  716.93   25.40 
  -1  -3  -5  756.52   22.10 
  -1  -3  -5  699.63   22.20 
   1   3   5  725.73   23.70 
  -2  -3  -5  227.88    9.30 
  -2  -3  -5  240.58   10.50 
  -2  -3  -5  220.28    9.40 
   2   3   5  222.38    9.00 
  -3  -3  -5   15.40    2.80 
  -3  -3  -5   13.00    2.30 
  -3  -3  -5   12.50    2.40 
   3   3   5   13.90    1.90 
   3   3   5   12.60    2.00 
  -4  -3  -5  740.13   26.20 
  -4  -3  -5  763.12   26.90 
  -4  -3  -5  749.53   22.60 
   4   3   5  718.83   22.20 
   4   3   5  729.83   24.30 
  -5  -3  -5   40.80    5.00 
   5   3   5   40.20    4.40 
  -6  -3  -5  132.79    9.60 
  -6  -3  -5  133.59   10.20 
   6   3   5  119.79    8.40 
  -7  -3  -5  182.98   12.50 
   8  -4  -5  176.78   15.70 
   8  -4  -5  177.98   14.10 
  -8   4   5  188.48   16.70 
   7  -4  -5  196.68   13.40 
   7  -4  -5  195.68   15.60 
  -7   4   5  190.78   16.10 
   6  -4  -5  105.49   11.10 
   6  -4  -5   95.59    8.60 
   6  -4  -5   86.29    8.30 
  -6   4   5   99.79    7.10 
  -6   4   5  104.09   11.00 
   5  -4  -5   32.90    6.40 
  -5   4   5   30.60    7.50 
  -5   4   5   42.00    4.10 
   4  -4  -5  785.52   32.20 
   4  -4  -5  779.92   26.90 
   4  -4  -5  738.83   26.60 
  -4   4   5  733.03   24.20 
   3  -4  -5  382.96   14.50 
   3  -4  -5  372.26   18.90 
   3  -4  -5  357.56   14.50 
  -3   4   5  373.76   12.20 
   2  -4  -5    6.30    1.60 
   2  -4  -5    2.90    1.10 
   2  -4  -5    1.30    2.10 
   1  -4  -5 2764.62   76.99 
   1  -4  -5 2804.72   83.59 
   1  -4  -5 2752.02   77.49 
  -1   4   5 2619.84   81.99 
   0  -4  -5   34.20    2.60 
   0  -4  -5   33.70    4.50 
   0  -4  -5   36.60    2.90 
   0   4   5   34.40    3.80 
  -1  -4  -5   60.79    3.70 
  -1  -4  -5   63.09    4.20 
  -1  -4  -5   68.49    5.70 
   1   4   5   61.29    4.70 
  -2  -4  -5 1430.66   41.90 
  -2  -4  -5 1356.06   42.50 
  -2  -4  -5 1386.76   43.80 
   2   4   5 1403.06   42.30 
  -3  -4  -5   17.20    2.90 
  -3  -4  -5   18.80    3.10 
   3   4   5   18.20    2.10 
   3   4   5   16.90    2.70 
  -4  -4  -5  156.68    7.80 
  -4  -4  -5  171.88   10.00 
  -4  -4  -5  177.88    9.50 
   4   4   5  160.98    7.50 
   4   4   5  151.68    7.80 
  -5  -4  -5  148.79   10.20 
  -5  -4  -5  152.28    6.30 
  -5  -4  -5  151.28    9.70 
   5   4   5  144.49    6.50 
   5   4   5  152.48    8.60 
  -6  -4  -5  242.48   13.80 
  -6  -4  -5  262.07   15.30 
   6   4   5  250.37   12.90 
  -7  -4  -5   -1.60    2.00 
   7  -5  -5    9.50    3.90 
   7  -5  -5    6.90    4.60 
  -7   5   5    7.60    4.70 
   6  -5  -5  171.78   11.80 
   6  -5  -5  170.28   14.50 
   6  -5  -5  155.78   11.10 
  -6   5   5  187.68   10.00 
  -6   5   5  178.78   15.10 
   5  -5  -5   31.60    5.00 
   5  -5  -5   32.30    7.00 
  -5   5   5   37.40    4.20 
   4  -5  -5  520.35   34.60 
   4  -5  -5  518.95   20.80 
   4  -5  -5  538.35   20.70 
  -4   5   5  538.75   18.60 
   3  -5  -5 1410.76   49.50 
   3  -5  -5 1287.17   43.40 
   3  -5  -5 1416.36   43.00 
  -3   5   5 1407.96   41.00 
   2  -5  -5   15.30    2.70 
   2  -5  -5   18.00    2.80 
   2  -5  -5   21.10    5.00 
   1  -5  -5 1610.54   52.89 
   1  -5  -5 1555.14   47.40 
   1  -5  -5 1605.24   46.80 
   0  -5  -5 7348.66  205.88 
   0  -5  -5 7387.56  200.18 
   0  -5  -5 7007.50  201.08 
  -1  -5  -5 1065.89   31.60 
  -1  -5  -5 1030.80   35.30 
  -1  -5  -5  969.80   32.40 
   1   5   5 1033.70   33.40 
  -2  -5  -5   16.40    2.70 
  -2  -5  -5   15.70    2.80 
  -2  -5  -5   15.80    3.30 
   2   5   5   23.30    3.10 
   2   5   5   14.80    1.80 
  -3  -5  -5  784.22   25.60 
  -3  -5  -5  742.53   26.10 
  -3  -5  -5  721.53   26.40 
   3   5   5  748.03   23.40 
   3   5   5  697.03   26.60 
  -4  -5  -5  459.75   17.30 
  -4  -5  -5  450.25   18.20 
  -4  -5  -5  460.85   19.40 
   4   5   5  442.16   16.50 
   4   5   5  430.16   16.80 
  -5  -5  -5    7.90    2.50 
  -5  -5  -5   13.30    2.50 
  -5  -5  -5    8.30    3.80 
   5   5   5    7.40    2.20 
   5   5   5   13.50    3.10 
  -6  -5  -5  511.25   22.30 
   7  -6  -5   63.59   10.40 
   7  -6  -5   40.10    9.60 
  -7   6   5   49.80   14.50 
   6  -6  -5   76.29    8.10 
   6  -6  -5   71.69    9.90 
   5  -6  -5   80.99    7.50 
   5  -6  -5   77.59    9.70 
   5  -6  -5  107.79    8.20 
  -5   6   5   92.39    6.50 
   4  -6  -5  174.88   13.90 
   4  -6  -5  159.38    9.90 
   4  -6  -5  182.38   10.40 
  -4   6   5  174.38    8.60 
   3  -6  -5   79.29   10.90 
   3  -6  -5   93.09    6.70 
   2  -6  -5  333.17   17.90 
   2  -6  -5  322.77   13.40 
   2  -6  -5  329.27   13.90 
  -2   6   5  327.47   11.30 
   1  -6  -5 1834.42   59.99 
   1  -6  -5 1782.02   54.69 
   1  -6  -5 1852.31   53.99 
  -1   6   5 1791.12   51.49 
   0  -6  -5 1425.16   42.80 
   0  -6  -5 1386.06   43.80 
   0  -6  -5 1411.26   47.80 
  -1  -6  -5  109.09    7.10 
  -1  -6  -5  115.69    8.50 
  -1  -6  -5  115.59    6.50 
   1   6   5  109.69    4.60 
  -2  -6  -5   85.19    5.70 
  -2  -6  -5   70.89    9.10 
  -2  -6  -5   82.89    7.00 
   2   6   5   85.29    4.40 
  -3  -6  -5  278.67   12.50 
  -3  -6  -5  274.07   13.70 
  -3  -6  -5  282.37   13.70 
  -4  -6  -5  122.99    8.10 
  -4  -6  -5  117.59    7.90 
   4   6   5  124.29    7.70 
   4   6   5  117.99    8.00 
  -5  -6  -5   15.80    4.90 
  -5  -6  -5   22.90    4.20 
  -6  -6  -5   60.39    6.80 
  -6  -6  -5   64.29    5.30 
   6  -7  -5   18.30    4.90 
   5  -7  -5   42.10    6.10 
   5  -7  -5   29.30    6.40 
   5  -7  -5   30.30    5.40 
   4  -7  -5  286.97   14.70 
   4  -7  -5  318.77   19.80 
  -4   7   5  300.37   14.20 
   3  -7  -5   63.89    5.60 
   3  -7  -5   50.99    5.30 
   3  -7  -5   52.09    7.80 
  -3   7   5   60.39    4.60 
   2  -7  -5  110.99    7.20 
   2  -7  -5   92.69    9.50 
   2  -7  -5   85.69    6.90 
  -2   7   5  105.99    5.50 
   1  -7  -5  240.18   16.70 
   1  -7  -5  223.08   11.90 
   1  -7  -5  235.78   10.90 
  -1   7   5  225.38    9.20 
   0  -7  -5  841.82   28.20 
   0  -7  -5  824.02   29.50 
   0  -7  -5  855.91   33.00 
   0   7   5  844.92   27.50 
  -1  -7  -5   10.30    2.50 
  -1  -7  -5   10.50    3.10 
  -1  -7  -5    5.20    2.70 
   1   7   5   11.10    1.80 
  -2  -7  -5  354.46   14.70 
  -2  -7  -5  343.07   17.00 
  -2  -7  -5  343.07   16.00 
   2   7   5  333.97   12.70 
  -3  -7  -5  151.68    9.00 
  -3  -7  -5  153.88   10.30 
  -3  -7  -5  136.19    9.50 
   3   7   5  146.59    7.70 
  -4  -7  -5    6.80    2.50 
  -4  -7  -5    6.50    2.50 
  -4  -7  -5    0.50    2.50 
   4   7   5    2.90    2.80 
  -5  -7  -5  155.28   10.20 
  -5  -7  -5  158.58   10.00 
   5  -8  -5    6.40    5.10 
   5  -8  -5    2.70    2.50 
   4  -8  -5   51.79    6.70 
   4  -8  -5   66.69    6.80 
   4  -8  -5   50.19    9.20 
   3  -8  -5  140.19   12.80 
   3  -8  -5  151.18    9.90 
  -3   8   5  147.29   10.80 
   2  -8  -5    3.60    2.70 
   2  -8  -5    7.20    2.50 
   2  -8  -5    5.00    2.90 
   1  -8  -5   80.99    6.30 
   1  -8  -5   80.09    7.00 
   1  -8  -5   88.79    9.20 
   0  -8  -5  121.99    8.90 
   0  -8  -5  137.59    8.40 
   0  -8  -5  149.88   11.50 
  -1  -8  -5    9.30    3.50 
  -1  -8  -5   11.10    2.80 
  -1  -8  -5    4.90    2.30 
  -2  -8  -5   59.39   10.60 
  -2  -8  -5   73.49    6.40 
  -2  -8  -5   83.49    7.60 
  -3  -8  -5  146.29    9.20 
  -3  -8  -5  131.39   10.40 
  -4  -8  -5   -0.90    2.60 
  -4  -8  -5    0.30    1.90 
  -5  -8  -5   25.70    4.80 
  -5  -8  -5   32.20    5.40 
   4  -9  -5    0.90    3.00 
   4  -9  -5    1.20    2.60 
   3  -9  -5   44.60    5.70 
   3  -9  -5   34.50    7.70 
   2  -9  -5  194.18   15.10 
   2  -9  -5  183.78   11.20 
   1  -9  -5   18.90    4.20 
   1  -9  -5   23.00    4.10 
   1  -9  -5   21.70    5.90 
   0  -9  -5    5.30    2.60 
   0  -9  -5   13.70    3.40 
   0  -9  -5    7.70    3.50 
  -1  -9  -5  141.19   11.80 
  -1  -9  -5  145.09    9.50 
  -2  -9  -5   21.60    3.90 
  -2  -9  -5   24.70    5.80 
  -3  -9  -5   18.20    5.10 
   2 -10  -5   28.20    5.20 
   2 -10  -5   25.40    6.80 
   1 -10  -5    1.30    2.30 
   1 -10  -5    2.70    3.50 
   0 -10  -5    3.40    2.50 
   0 -10  -5    3.60    3.30 
  -1 -10  -5   84.89    7.70 
  -1 -10  -5   78.69    9.90 
  -2 -10  -5  317.17   16.50 
  -2 -10  -5  312.77   19.60 
   1  10  -6    8.80    3.50 
  -1 -10   6   -1.80    3.30 
   0  10  -6    4.20    3.40 
   0 -10   6    1.10    3.60 
  -1  10  -6   12.20    3.90 
   1 -10   6    7.10    3.80 
  -2  10  -6    9.90    4.10 
   2 -10   6    8.60    4.40 
   3   9  -6    5.80    3.70 
  -3  -9   6   14.20    4.90 
   2   9  -6    3.50    3.00 
   1   9  -6    4.20    3.00 
  -1  -9   6    4.60    3.70 
   0   9  -6    4.60    3.00 
   0  -9   6   11.10    3.50 
   0  -9   6    2.50    3.30 
  -1   9  -6   24.30    5.30 
   1  -9   6   34.90    6.80 
   1  -9   6   27.60    6.70 
  -2   9  -6    2.20    2.90 
   2  -9   6    6.50    3.60 
  -3   9  -6   23.60    5.50 
   3  -9   6   20.80    5.30 
  -4   9  -6  108.39   11.00 
   4  -9   6  112.09   10.00 
   5   8  -6    2.70    3.60 
  -5  -8   6    0.80    3.30 
   4   8  -6   11.30    4.30 
   3   8  -6    3.30    3.20 
  -3  -8   6    3.50    3.70 
  -3  -8   6   -1.40    2.30 
   2   8  -6   17.50    4.10 
   2   8  -6   26.10    5.00 
  -2  -8   6   11.60    4.60 
  -2  -8   6   15.20    3.70 
   1   8  -6   27.50    4.90 
  -1  -8   6   18.70    3.80 
  -1  -8   6   23.00    5.50 
   0   8  -6    5.20    4.40 
   0   8  -6    3.90    3.10 
   0  -8   6    3.60    3.00 
   0  -8   6   -2.70    1.90 
  -1   8  -6   22.50    4.40 
  -1   8  -6   14.80    6.30 
   1  -8   6   13.40    3.30 
   1  -8   6   17.00    5.00 
  -2   8  -6   39.90    5.90 
  -2   8  -6   52.39    7.60 
   2  -8   6   45.40    6.30 
   2  -8   6   54.79    6.10 
  -3   8  -6    3.20    3.30 
  -3   8  -6    1.40    3.60 
   3  -8   6    7.70    3.20 
   3  -8   6   13.10    3.80 
  -4   8  -6   44.90    7.40 
   4  -8   6   50.89    6.60 
  -5   8  -6   25.70    5.50 
   5  -8   6   14.80    4.10 
   5   7  -6    2.70    2.50 
  -5  -7   6   -0.90    2.80 
   4   7  -6    8.30    3.50 
   4   7  -6   19.40    4.40 
  -4  -7   6   19.60    5.70 
   3   7  -6    4.20    2.90 
  -3  -7   6    1.60    1.80 
  -3  -7   6    3.10    3.20 
   2   7  -6    5.40    2.60 
   2   7  -6    0.60    2.10 
  -2  -7   6   -2.20    1.60 
  -2  -7   6    0.50    2.90 
   1   7  -6   96.59    8.40 
   1   7  -6   68.99    6.40 
  -1  -7   6   67.69    6.20 
  -1  -7   6   70.59    8.50 
   0   7  -6   77.09    7.60 
   0   7  -6   73.89    6.60 
   0  -7   6   82.39    6.50 
   0  -7   6   72.69    7.90 
  -1   7  -6   21.90    4.60 
  -1   7  -6   12.80    3.30 
   1  -7   6   19.00    3.70 
   1  -7   6   10.20    4.30 
  -2   7  -6   37.50    6.00 
  -2   7  -6   31.60    4.90 
   2  -7   6   39.40    5.50 
   2  -7   6   36.40    6.40 
  -3   7  -6  177.88   10.60 
   3  -7   6  161.88   10.80 
   3  -7   6  159.18   10.60 
  -4   7  -6   -6.50    2.50 
  -4   7  -6    3.70    2.70 
   4  -7   6    0.20    1.80 
   4  -7   6    0.00    2.50 
  -5   7  -6   19.70    4.80 
   5  -7   6   13.40    3.60 
  -6   7  -6    4.40    3.50 
   6  -7   6    6.60    3.30 
   6   6  -6    3.10    3.10 
  -6  -6   6    2.70    3.60 
   5   6  -6   53.49    8.70 
   5   6  -6   65.99    8.10 
  -5  -6   6   50.19    5.60 
  -5  -6   6   49.10    8.40 
   4   6  -6  139.19    9.90 
   4   6  -6  122.79   11.00 
  -4  -6   6  125.69    8.70 
  -4  -6   6  127.49   11.40 
   3   6  -6    5.90    2.90 
   3   6  -6   17.80    4.20 
  -3  -6   6   11.40    4.10 
  -3  -6   6   12.80    2.80 
   2   6  -6  458.85   20.40 
   2   6  -6  440.56   18.50 
  -2  -6   6  454.65   21.80 
  -2  -6   6  448.76   18.10 
   1   6  -6  810.22   30.00 
   1   6  -6  783.32   27.80 
  -1  -6   6  803.32   31.70 
  -1  -6   6  805.62   27.80 
   0   6  -6  311.97   15.00 
   0   6  -6  292.77   13.40 
   0  -6   6  287.97   15.70 
   0  -6   6  275.97   13.00 
  -1   6  -6  196.08   10.40 
  -1   6  -6  208.48   11.80 
   1  -6   6  199.48   11.90 
   1  -6   6  202.98   10.60 
  -2   6  -6   32.80    5.40 
  -2   6  -6   33.80    5.00 
   2  -6   6   29.50    5.10 
   2  -6   6   32.40    4.10 
  -3   6  -6    0.10    1.80 
  -3   6  -6    1.90    2.30 
   3  -6   6    6.40    2.40 
   3  -6   6    6.70    2.70 
  -4   6  -6    5.00    2.70 
  -4   6  -6    8.70    3.60 
   4  -6   6    9.90    2.90 
   4  -6   6    3.90    2.40 
  -5   6  -6   14.40    4.50 
   5  -6   6   20.50    3.90 
   5  -6   6   14.80    4.00 
  -6   6  -6   11.50    4.80 
   6  -6   6   12.80    3.20 
   7   5  -6    9.40    4.00 
   6   5  -6   -0.70    2.80 
  -6  -5   6    3.00    2.70 
   5   5  -6  333.17   18.00 
   5   5  -6  346.17   17.70 
  -5  -5   6  345.77   19.30 
  -5  -5   6  321.87   15.10 
   4   5  -6  255.87   13.60 
   4   5  -6  248.48   14.30 
  -4  -5   6  236.18   11.80 
  -4  -5   6  227.08   15.00 
   3   5  -6   62.39    5.70 
   3   5  -6   58.79    6.50 
  -3  -5   6   49.90   11.20 
  -3  -5   6   53.89    5.00 
   2   5  -6 2367.86   69.69 
   2   5  -6 2289.37   67.09 
  -2  -5   6 2239.78   66.29 
  -2  -5   6 2041.20   70.39 
   1   5  -6 5003.90  139.99 
   1   5  -6 4759.22  137.59 
  -1  -5   6 4894.21  142.09 
  -1  -5   6 4781.92  137.19 
   0   5  -6   -1.80    1.30 
   0   5  -6    0.50    1.70 
   0  -5   6    0.30    2.50 
   0  -5   6   -0.10    1.40 
  -1   5  -6  291.77   13.80 
  -1   5  -6  294.17   12.70 
   1  -5   6  273.37   14.00 
   1  -5   6  290.67   12.40 
  -2   5  -6 1093.99   37.00 
  -2   5  -6 1153.98   38.80 
   2  -5   6 1185.48   38.30 
   2  -5   6 1144.29   37.30 
  -3   5  -6   37.90    5.80 
  -3   5  -6   37.60    5.70 
   3  -5   6   39.60    4.60 
   3  -5   6   34.90    4.90 
  -4   5  -6   53.39    5.60 
  -4   5  -6   49.90    6.10 
  -4   5  -6   44.90    6.00 
   4  -5   6   45.20    5.20 
   4  -5   6   46.80    4.60 
  -5   5  -6   96.19    8.20 
  -5   5  -6   91.99    7.50 
  -5   5  -6  124.29    9.80 
   5  -5   6  113.09    7.10 
   5  -5   6  102.79    8.60 
  -6   5  -6    0.40    2.40 
   6  -5   6    7.40    2.30 
  -7   5  -6   40.70    7.40 
   7   4  -6    5.10    3.50 
  -7  -4   6    6.50    3.90 
   6   4  -6   16.10    4.50 
   6   4  -6   21.60    5.00 
  -6  -4   6   11.60    3.40 
  -6  -4   6   22.50    5.60 
   5   4  -6    9.20    4.60 
   5   4  -6   16.00    4.00 
  -5  -4   6   15.70    5.00 
  -5  -4   6   10.40    2.70 
   4   4  -6   42.10    5.00 
   4   4  -6   39.40    6.00 
  -4  -4   6   45.90    4.40 
   3   4  -6   95.39    6.90 
   3   4  -6   96.39    7.60 
  -3  -4   6  102.99    6.40 
  -3  -4   6  107.79    9.50 
   2   4  -6  572.04   22.00 
  -2  -4   6  585.04   24.50 
  -2  -4   6  558.04   19.70 
   1   4  -6  205.38   10.40 
  -1  -4   6  190.38    8.60 
  -1  -4   6  174.38   11.20 
   0   4  -6   34.30    4.10 
   0  -4   6   35.40    3.40 
   0  -4   6   38.70    5.00 
  -1   4  -6    7.20    2.10 
  -1   4  -6   10.10    3.10 
   1  -4   6   10.20    3.10 
   1  -4   6   10.90    2.20 
  -2   4  -6  205.38   10.60 
  -2   4  -6  191.08    9.50 
  -2   4  -6  176.18   10.70 
   2  -4   6  196.98    9.60 
   2  -4   6  197.18   10.10 
  -3   4  -6   20.30    3.80 
  -3   4  -6   24.20    3.60 
  -3   4  -6   18.10    3.70 
   3  -4   6   15.40    3.00 
   3  -4   6   22.10    3.20 
  -4   4  -6    3.30    2.20 
  -4   4  -6    2.60    1.80 
  -4   4  -6    1.00    1.70 
   4  -4   6    1.50    1.90 
   4  -4   6    4.70    1.80 
  -5   4  -6  123.49    9.50 
  -5   4  -6  105.29    8.20 
  -5   4  -6   99.39    6.80 
   5  -4   6  109.99    8.40 
   5  -4   6  110.89    6.30 
  -6   4  -6  504.25   23.70 
  -6   4  -6  501.95   22.00 
  -6   4  -6  470.45   17.60 
   6  -4   6  511.25   17.70 
   6  -4   6  516.55   22.70 
  -7   4  -6    4.70    3.50 
   7   3  -6   31.20    6.00 
  -7  -3   6   23.30    5.50 
   6   3  -6   35.30    6.30 
   6   3  -6   28.50    5.60 
  -6  -3   6   30.40    4.40 
  -6  -3   6   27.90    6.30 
   5   3  -6  101.29    9.70 
   5   3  -6  123.29    9.30 
  -5  -3   6  103.59    7.00 
  -5  -3   6  109.89   10.60 
   4   3  -6   16.60    3.70 
   4   3  -6   11.90    3.10 
  -4  -3   6   13.80    4.10 
  -4  -3   6   13.40    2.50 
   3   3  -6  154.48    9.00 
  -3  -3   6  163.08   11.30 
  -3  -3   6  119.09    7.00 
   2   3  -6  449.16   16.50 
   2   3  -6  491.05   18.20 
  -2  -3   6  450.95   15.70 
  -2  -3   6  437.66   20.40 
   1   3  -6   14.40    2.40 
   1   3  -6   13.00    2.60 
  -1  -3   6    9.50    3.30 
  -1  -3   6   13.80    2.00 
   0   3  -6   36.80    4.80 
   0   3  -6   39.20    3.80 
   0   3  -6   35.00    3.10 
   0  -3   6   36.90    2.90 
   0  -3   6   43.30    4.70 
  -1   3  -6  563.74   19.70 
  -1   3  -6  516.55   21.60 
  -1   3  -6  543.75   18.80 
   1  -3   6  562.44   18.40 
   1  -3   6  570.24   23.30 
  -2   3  -6   35.00    3.50 
  -2   3  -6   36.70    4.00 
  -2   3  -6   38.30    4.30 
   2  -3   6   40.90    3.70 
   2  -3   6   42.70    4.20 
  -3   3  -6  112.89    7.10 
  -3   3  -6  117.29    7.70 
   3  -3   6  110.79    6.30 
   3  -3   6  115.19    8.80 
  -4   3  -6  231.38   10.70 
  -4   3  -6  257.77   12.10 
  -4   3  -6  264.37   13.20 
   4  -3   6  236.68    9.60 
   4  -3   6  247.78   12.00 
  -5   3  -6   15.80    2.50 
  -5   3  -6   14.40    3.70 
   5  -3   6   24.80    2.40 
   5  -3   6   23.00    4.20 
  -6   3  -6  309.37   16.00 
  -6   3  -6  306.17   17.10 
   6  -3   6  324.97   16.10 
  -7   3  -6   77.39    9.00 
   8   2  -6   31.90    6.60 
  -8  -2   6   35.80    7.60 
   7   2  -6  383.16   20.20 
  -7  -2   6  371.66   21.80 
   6   2  -6  102.49    9.10 
   6   2  -6   96.89    8.80 
  -6  -2   6   91.99    6.70 
  -6  -2   6  101.29   10.70 
   5   2  -6  345.37   16.70 
   5   2  -6  364.16   17.10 
  -5  -2   6  335.57   20.10 
  -5  -2   6  354.96   14.20 
   4   2  -6  621.24   23.60 
  -4  -2   6  634.34   27.50 
  -4  -2   6  599.94   20.80 
   3   2  -6  124.89    7.30 
   3   2  -6  134.29    8.00 
  -3  -2   6  134.49   10.40 
  -3  -2   6  142.69    6.40 
   2   2  -6  245.48   10.80 
   2   2  -6  238.48    9.80 
  -2  -2   6  247.78    8.90 
  -2  -2   6  253.67   14.00 
   1   2  -6  201.78    9.10 
   1   2  -6  211.38    8.30 
   1   2  -6  204.18   12.10 
  -1  -2   6  194.28    7.00 
  -1  -2   6  213.38   11.90 
   0   2  -6   37.70    3.20 
   0   2  -6   34.50    4.50 
   0   2  -6   34.30    2.70 
   0  -2   6   36.50    2.20 
   0  -2   6   33.90    2.00 
  -1   2  -6  581.24   19.00 
  -1   2  -6  601.84   19.70 
  -1   2  -6  566.54   22.10 
   1  -2   6  575.74   18.00 
   1  -2   6  605.64   21.60 
   1  -2   6  585.14   17.90 
  -2   2  -6   44.10    3.80 
  -2   2  -6   41.40    3.40 
  -2   2  -6   38.60    4.10 
   2  -2   6   43.40    3.20 
   2  -2   6   44.70    3.90 
  -3   2  -6    8.70    2.00 
  -3   2  -6    7.70    2.30 
  -3   2  -6    8.80    1.90 
   3  -2   6    7.60    1.90 
   3  -2   6    5.50    1.60 
  -4   2  -6  457.35   18.80 
   4  -2   6  445.06   14.20 
  -5   2  -6  615.44   24.70 
  -5   2  -6  602.44   23.30 
   5  -2   6  580.14   28.80 
  -6   2  -6  341.67   16.50 
  -6   2  -6  322.37   17.30 
   6  -2   6  326.87   15.70 
  -7   2  -6   73.79    7.90 
  -8   2  -6  209.18   14.80 
   8   1  -6   18.10    5.10 
  -8  -1   6   23.70    6.40 
   7   1  -6  398.76   20.90 
   7   1  -6  412.16   21.00 
  -7  -1   6  449.16   24.20 
   6   1  -6   24.00    4.80 
   6   1  -6   26.80    5.10 
  -6  -1   6   19.20    5.80 
   5   1  -6    7.00    2.80 
   5   1  -6    6.60    2.70 
  -5  -1   6    6.50    2.20 
  -5  -1   6    3.70    3.30 
   4   1  -6  125.89    8.00 
   4   1  -6  108.89    7.40 
  -4  -1   6  119.79   10.40 
  -4  -1   6  120.09    6.00 
   3   1  -6  148.59    9.30 
   3   1  -6  173.78    8.60 
  -3  -1   6  159.58    6.40 
  -3  -1   6  167.18   11.80 
   2   1  -6 1278.77   37.80 
   2   1  -6 1261.57   38.60 
  -2  -1   6 1280.67   44.20 
   1   1  -6    7.60    1.50 
   1   1  -6    6.60    2.50 
   1   1  -6    8.70    1.40 
  -1  -1   6    3.30    2.40 
  -1  -1   6    5.80    2.50 
   0   1  -6 1910.41   53.19 
   0   1  -6 1760.52   57.59 
   0   1  -6 1841.32   52.49 
   0  -1   6 1857.91   57.99 
   0  -1   6 1911.81   57.89 
  -1   1  -6 1433.06   41.20 
  -1   1  -6 1398.26   40.80 
  -1   1  -6 1335.57   44.20 
   1  -1   6 1440.36   44.70 
   1  -1   6 1432.96   44.10 
  -2   1  -6   12.80    2.60 
  -2   1  -6   14.20    2.30 
  -2   1  -6   13.40    2.20 
   2  -1   6   15.80    1.20 
   2  -1   6   14.20    1.30 
   2  -1   6   12.30    2.50 
   2  -1   6   13.20    2.50 
  -3   1  -6 1284.07   39.70 
  -3   1  -6 1216.48   38.90 
   3  -1   6 1243.78   37.50 
   3  -1   6 1224.08   36.60 
   3  -1   6 1329.37   39.60 
  -4   1  -6  368.06   15.80 
  -4   1  -6  398.46   16.60 
   4  -1   6  380.86   14.80 
  -5   1  -6  424.56   18.80 
  -5   1  -6  430.46   18.30 
   5  -1   6  421.36   17.10 
  -6   1  -6    9.90    3.60 
  -6   1  -6   13.30    3.80 
   6  -1   6    7.20    2.90 
  -7   1  -6   13.60    4.00 
  -8   1  -6   21.00    5.50 
   8   0  -6  226.18   15.30 
  -8   0   6  188.08   16.00 
   7   0  -6    6.00    3.70 
   7   0  -6   -1.90    2.20 
  -7   0   6    3.00    3.30 
   6   0  -6  156.68   11.00 
   6   0  -6  170.08   11.50 
  -6   0   6  171.68   14.30 
  -6   0   6  156.88    8.70 
   5   0  -6 1134.39   38.00 
  -5   0   6 1060.39   33.80 
  -5   0   6 1098.29   43.00 
   4   0  -6   72.59    5.70 
   4   0  -6   78.39    6.20 
  -4   0   6   75.49    8.30 
  -4   0   6   68.39    4.00 
   3   0  -6  171.78    8.20 
   3   0  -6  164.98    8.40 
  -3   0   6  163.98    5.60 
  -3   0   6  180.58   12.30 
   2   0  -6   83.69    4.40 
   2   0  -6   87.39    4.80 
  -2   0   6   85.99    7.70 
  -2   0   6   80.79    7.20 
   1   0  -6   81.99    3.40 
   1   0  -6   74.99    3.70 
  -1   0   6   81.89    6.90 
  -1   0   6   74.19    6.90 
   0   0  -6 5336.67  147.19 
   0   0  -6 5276.87  146.69 
   0   0   6 5400.26  153.48 
   0   0   6 5438.56  153.08 
  -1   0  -6 5712.03  157.18 
  -1   0  -6 5663.13  157.18 
   1   0   6 5771.32  161.38 
   1   0   6 5707.53  161.18 
  -2   0  -6  385.06   13.70 
  -2   0  -6  371.96   13.50 
   2   0   6  385.56   14.40 
   2   0   6  391.86   14.40 
  -3   0  -6 1594.54   47.60 
  -3   0  -6 1538.05   47.40 
   3   0   6 1579.94   44.60 
   3   0   6 1538.65   44.40 
   3   0   6 1573.44   44.60 
  -4   0  -6 5969.60  166.48 
  -4   0  -6 5828.22  165.98 
   4   0   6 5815.52  163.58 
  -5   0  -6   53.79    6.50 
   5   0   6   41.00    4.30 
  -6   0  -6   91.59    8.30 
  -6   0  -6   86.09    8.00 
   6   0   6  103.39    7.20 
  -7   0  -6  178.78   12.40 
  -8   0  -6    8.10    4.00 
   8  -1  -6  157.38   12.90 
  -8   1   6  173.68   15.30 
   7  -1  -6   49.99    7.40 
  -7   1   6   54.59    9.50 
   6  -1  -6  305.17   15.50 
   6  -1  -6  284.27   15.60 
  -6   1   6  275.37   12.30 
  -6   1   6  310.87   19.60 
   5  -1  -6  157.08    9.70 
   5  -1  -6  169.28   10.30 
  -5   1   6  163.08    7.60 
  -5   1   6  171.68   13.50 
   4  -1  -6  724.23   26.90 
  -4   1   6  748.23   22.60 
  -4   1   6  779.92   32.30 
   3  -1  -6   20.10    3.00 
   3  -1  -6   15.10    4.20 
   3  -1  -6   19.80    2.50 
  -3   1   6   20.50    5.00 
   2  -1  -6  271.67   10.10 
   2  -1  -6  285.47    9.90 
   2  -1  -6  291.87   15.00 
  -2   1   6  219.58   16.20 
  -2   1   6  275.27   15.20 
   1  -1  -6 1522.95   41.60 
   1  -1  -6 1493.85   41.90 
   1  -1  -6 1486.65   48.90 
  -1   1   6 1499.65   49.80 
  -1   1   6 1480.05   48.50 
   0  -1  -6  489.35   19.50 
   0   1   6  469.65   19.00 
   0   1   6  485.05   20.00 
  -1  -1  -6  351.86   11.40 
  -1  -1  -6  355.66   11.50 
   1   1   6  372.96   15.50 
   1   1   6  364.56   14.50 
  -2  -1  -6  583.74   19.00 
  -2  -1  -6  569.94   19.10 
   2   1   6  588.04   20.40 
   2   1   6  585.54   19.40 
  -3  -1  -6  119.09    6.90 
  -3  -1  -6  116.89    6.70 
   3   1   6  118.19    4.70 
   3   1   6  119.49    5.20 
  -4  -1  -6  222.18   11.30 
  -4  -1  -6  237.28   11.50 
   4   1   6  217.98    9.10 
  -5  -1  -6  119.09    8.70 
   5   1   6  115.39    6.90 
  -6  -1  -6   12.00    3.70 
  -6  -1  -6   16.70    3.70 
   6   1   6   18.10    3.40 
  -7  -1  -6   54.09    6.60 
   8  -2  -6   53.09    8.50 
  -8   2   6   50.29    9.90 
   7  -2  -6   32.20    6.30 
   7  -2  -6   45.30    6.60 
  -7   2   6   45.80    8.80 
   6  -2  -6   95.69    7.60 
  -6   2   6  102.79   10.90 
  -6   2   6   83.39    5.90 
   5  -2  -6   -3.00    1.40 
   5  -2  -6    0.60    2.70 
  -5   2   6    1.40    3.30 
  -5   2   6    2.10    1.10 
   4  -2  -6  610.34   27.40 
   4  -2  -6  632.64   22.50 
   4  -2  -6  601.54   22.00 
  -4   2   6  578.24   27.50 
   3  -2  -6   97.79    6.00 
   3  -2  -6  112.49    9.50 
   3  -2  -6   98.79    5.80 
  -3   2   6   93.39    9.20 
   2  -2  -6   52.99    3.30 
   2  -2  -6   59.39    3.50 
   2  -2  -6   46.80    6.00 
  -2   2   6   54.39    6.50 
   1  -2  -6 1667.53   47.00 
   1  -2  -6 1712.63   55.09 
   1  -2  -6 1659.93   47.30 
  -1   2   6 1668.63   53.59 
  -1   2   6 1788.92   56.29 
   0  -2  -6  437.76   18.40 
   0   2   6  434.36   17.30 
   0   2   6  413.66   18.60 
  -1  -2  -6   39.80    2.40 
  -1  -2  -6   44.10    2.50 
  -1  -2  -6   35.80    4.30 
   1   2   6   41.30    3.90 
   1   2   6   39.20    4.50 
  -2  -2  -6  343.27   12.60 
  -2  -2  -6  338.17   13.90 
  -2  -2  -6  354.46   12.60 
   2   2   6  352.16   14.40 
   2   2   6  345.37   12.60 
  -3  -2  -6  631.74   22.90 
  -3  -2  -6  687.83   22.90 
   3   2   6  677.33   21.70 
  -4  -2  -6    3.20    1.70 
  -4  -2  -6    2.20    2.00 
  -5  -2  -6   -0.70    1.80 
  -5  -2  -6    3.00    1.60 
   5   2   6   -2.10    1.30 
  -6  -2  -6  272.47   14.90 
  -6  -2  -6  302.57   15.90 
   6   2   6  266.77   12.70 
  -7  -2  -6   21.70    4.90 
   8  -3  -6    6.10    3.90 
  -8   3   6    0.80    4.40 
   7  -3  -6    4.10    2.40 
   7  -3  -6   -0.60    2.90 
   6  -3  -6  141.59   12.60 
   6  -3  -6  136.29   10.10 
  -6   3   6  125.29   12.50 
  -6   3   6  129.29    7.30 
   5  -3  -6  182.08   11.20 
   5  -3  -6  208.98   11.30 
   5  -3  -6  217.88   15.50 
  -5   3   6  221.48   16.20 
   4  -3  -6   29.90    3.90 
   4  -3  -6   29.40    6.50 
   4  -3  -6   28.60    3.60 
  -4   3   6   26.60    1.90 
  -4   3   6   42.40    7.50 
   3  -3  -6  356.56   14.00 
   3  -3  -6  369.76   19.30 
   3  -3  -6  367.76   14.10 
  -3   3   6  392.36   20.50 
   2  -3  -6 1132.19   33.50 
   2  -3  -6 1106.99   33.80 
   2  -3  -6 1152.78   41.10 
   1  -3  -6   38.60    2.30 
   1  -3  -6   35.40    2.40 
   1  -3  -6   32.10    5.60 
  -1   3   6   43.80    5.90 
   0  -3  -6 1160.88   39.30 
   0  -3  -6 1137.49   32.80 
   0  -3  -6 1135.69   32.50 
   0   3   6 1156.28   37.40 
  -1  -3  -6  674.33   20.90 
  -1  -3  -6  688.93   25.20 
  -1  -3  -6  666.33   20.60 
   1   3   6  680.43   23.20 
  -2  -3  -6   -0.10    0.90 
  -2  -3  -6    1.40    1.10 
  -2  -3  -6   -1.30    1.10 
   2   3   6    2.40    1.30 
  -3  -3  -6  303.27   12.60 
  -3  -3  -6  315.97   13.10 
  -3  -3  -6  311.27   12.40 
   3   3   6  296.07   11.00 
   3   3   6  290.17   12.60 
  -4  -3  -6  328.57   15.50 
   4   3   6  319.37   11.50 
   4   3   6  339.07   11.40 
  -5  -3  -6   -0.80    1.60 
  -5  -3  -6    0.60    1.80 
  -6  -3  -6  216.88   13.40 
  -6  -3  -6  217.98   12.80 
   6   3   6  186.98   14.80 
  -7  -3  -6   46.70    7.20 
   7  -4  -6   30.20    6.90 
   7  -4  -6   19.90    5.30 
  -7   4   6   30.30    7.70 
   6  -4  -6   65.19    9.50 
   6  -4  -6   77.09    7.70 
  -6   4   6   70.49    9.70 
  -6   4   6   74.19    5.50 
   5  -4  -6  482.05   20.10 
   5  -4  -6  450.15   24.90 
   5  -4  -6  510.45   21.00 
  -5   4   6  495.55   26.30 
  -5   4   6  475.05   16.50 
   4  -4  -6  114.49    7.50 
   3  -4  -6    9.70    3.90 
   3  -4  -6    7.70    1.80 
   3  -4  -6    4.30    1.80 
   2  -4  -6  852.91   27.40 
   2  -4  -6  883.21   27.10 
   2  -4  -6  882.01   34.20 
   1  -4  -6   49.80    6.40 
   1  -4  -6   54.59    3.70 
   1  -4  -6   57.29    3.50 
   0  -4  -6 1570.54   46.20 
   0  -4  -6 1639.44   45.70 
   0  -4  -6 1631.04   52.49 
   0   4   6 1536.55   52.59 
  -1  -4  -6   47.90    5.20 
  -1  -4  -6   46.90    3.50 
  -1  -4  -6   48.30    3.20 
   1   4   6   50.49    4.40 
  -2  -4  -6  146.49    8.70 
  -2  -4  -6  130.59    6.70 
  -2  -4  -6  127.79    7.10 
   2   4   6  142.19    7.40 
  -3  -4  -6 1238.08   39.10 
  -3  -4  -6 1231.58   38.30 
  -3  -4  -6 1185.28   38.90 
   3   4   6 1207.58   37.20 
  -4  -4  -6  134.89    8.30 
  -4  -4  -6  138.39    7.10 
  -4  -4  -6  127.09    9.00 
   4   4   6  115.19    6.10 
  -5  -4  -6  202.48   11.50 
   5   4   6  196.08    9.30 
  -6  -4  -6   13.10    3.60 
  -6  -4  -6   24.00    6.70 
  -7  -4  -6    4.30    2.60 
   7  -5  -6    2.20    4.30 
   7  -5  -6    4.40    4.30 
  -7   5   6    9.50    7.00 
   6  -5  -6   74.09   10.20 
   6  -5  -6   90.09    8.60 
  -6   5   6   86.99   11.30 
   5  -5  -6   16.80    3.90 
   5  -5  -6   21.60    5.50 
   4  -5  -6  454.55   24.30 
   4  -5  -6  498.05   19.40 
   4  -5  -6  456.85   18.70 
   3  -5  -6  694.63   27.10 
   3  -5  -6  654.03   23.50 
   3  -5  -6  671.43   30.90 
   2  -5  -6   38.40    3.50 
   2  -5  -6   47.60    6.40 
   2  -5  -6   34.20    3.50 
   1  -5  -6  516.15   23.30 
   1  -5  -6  521.85   17.30 
   1  -5  -6  498.35   17.80 
   0  -5  -6  444.06   14.80 
   0  -5  -6  420.66   19.80 
   0  -5  -6  411.96   15.40 
  -1  -5  -6    6.50    1.80 
  -1  -5  -6    8.70    1.80 
  -1  -5  -6   10.70    3.10 
  -2  -5  -6   30.20    4.30 
  -2  -5  -6   34.20    3.30 
  -2  -5  -6   30.60    3.60 
   2   5   6   31.30    3.70 
  -3  -5  -6    5.10    2.10 
  -3  -5  -6    5.30    1.90 
  -3  -5  -6    4.70    2.40 
   3   5   6    4.70    2.00 
  -4  -5  -6    9.40    2.60 
  -4  -5  -6    9.20    2.40 
  -4  -5  -6    7.70    2.90 
   4   5   6    6.70    2.10 
  -5  -5  -6  380.96   19.40 
  -5  -5  -6  447.16   15.60 
  -5  -5  -6  431.26   18.70 
  -6  -5  -6  381.36   18.50 
   6  -6  -6  219.78   14.40 
   6  -6  -6  218.78   18.40 
  -6   6   6  233.78   19.10 
   5  -6  -6   14.30    3.40 
   5  -6  -6   16.80    4.00 
   4  -6  -6   82.29    6.70 
   4  -6  -6   71.59    9.10 
   4  -6  -6   63.89    6.30 
   3  -6  -6  116.59   11.00 
   3  -6  -6  127.89    7.70 
   3  -6  -6  122.39    7.80 
   2  -6  -6  287.47   12.40 
   2  -6  -6  232.58   22.50 
   2  -6  -6  271.07   11.70 
   1  -6  -6   79.99    5.70 
   1  -6  -6   79.49    8.20 
   0  -6  -6    2.30    2.20 
   0  -6  -6    1.40    1.30 
  -1  -6  -6  206.48   10.30 
  -1  -6  -6  202.48    9.40 
  -1  -6  -6  215.28   12.90 
  -2  -6  -6    4.10    2.30 
  -2  -6  -6   10.50    2.40 
  -2  -6  -6    0.10    1.40 
  -3  -6  -6  131.89    7.90 
  -3  -6  -6  134.59    9.20 
  -3  -6  -6  137.69    9.00 
  -4  -6  -6  104.99    7.70 
  -4  -6  -6  108.29    7.50 
  -4  -6  -6  105.19    8.50 
   4   6   6   97.59    7.00 
  -5  -6  -6   40.50    5.00 
  -5  -6  -6   42.20    4.80 
  -6  -6  -6   11.40    3.20 
   6  -7  -6   44.40    9.30 
   6  -7  -6   20.00    5.20 
   5  -7  -6   58.99   10.40 
   5  -7  -6   57.49    7.00 
   4  -7  -6   83.49   10.10 
   4  -7  -6   63.79    6.80 
   4  -7  -6   94.59    7.60 
   3  -7  -6   64.19    5.80 
   3  -7  -6   64.59    8.70 
   3  -7  -6   58.79    5.80 
   2  -7  -6  126.59    8.30 
   2  -7  -6  144.39   12.50 
   2  -7  -6  139.59    8.10 
   1  -7  -6   48.90    6.90 
   1  -7  -6   54.89    5.00 
   1  -7  -6   53.69    4.70 
   0  -7  -6    5.70    1.80 
   0  -7  -6    7.30    5.60 
   0  -7  -6    8.90    2.50 
  -1  -7  -6  405.76   17.50 
  -1  -7  -6  405.06   16.10 
  -1  -7  -6  435.36   20.70 
  -2  -7  -6   37.60    4.10 
  -2  -7  -6   39.10    4.80 
  -2  -7  -6   36.40    6.20 
  -3  -7  -6   41.70    5.30 
  -3  -7  -6   32.10    4.10 
  -3  -7  -6   24.40    4.90 
  -4  -7  -6  172.18   10.50 
  -4  -7  -6  184.18   11.50 
  -4  -7  -6  199.48   15.60 
  -5  -7  -6   31.20    5.30 
  -5  -7  -6   41.00    5.10 
   5  -8  -6    9.80    3.70 
   5  -8  -6   17.40    5.70 
   4  -8  -6   46.80    6.80 
   3  -8  -6   12.90    3.20 
   3  -8  -6   11.60    4.90 
   2  -8  -6   43.60    5.60 
   2  -8  -6   69.69    8.70 
   2  -8  -6   55.69    5.50 
   1  -8  -6   19.60    3.80 
   1  -8  -6   21.90    3.70 
   1  -8  -6   18.00    4.70 
   0  -8  -6   51.89    5.50 
   0  -8  -6   47.70    4.90 
   0  -8  -6   44.20    7.50 
  -1  -8  -6   48.70    6.80 
  -1  -8  -6   37.20    4.90 
  -1  -8  -6   44.30    5.00 
  -2  -8  -6  102.89    9.50 
  -2  -8  -6  101.39    7.30 
  -2  -8  -6  100.09    8.50 
  -3  -8  -6   38.90    4.80 
  -3  -8  -6   37.50    7.60 
  -4  -8  -6   23.70    4.90 
  -4  -8  -6   20.00    4.20 
   4  -9  -6   99.39   12.50 
   4  -9  -6   88.89    8.90 
   3  -9  -6   19.90    4.20 
   3  -9  -6   19.50    5.80 
   2  -9  -6    5.20    3.50 
   1  -9  -6  175.98   14.20 
   1  -9  -6  158.88   10.10 
   0  -9  -6  145.29    9.50 
   0  -9  -6  156.28   13.20 
  -1  -9  -6    1.60    3.30 
  -2  -9  -6   55.89    7.60 
  -2  -9  -6   51.79    5.80 
  -3  -9  -6   -3.20    2.00 
  -3  -9  -6    0.40    2.50 
   2   9  -7    2.60    3.60 
  -2  -9   7   -2.70    3.00 
   1   9  -7    1.90    3.00 
  -1  -9   7    2.40    3.80 
   0   9  -7   26.80    5.50 
   0  -9   7   38.30    8.40 
  -1   9  -7    0.40    2.90 
   1  -9   7    1.70    2.90 
  -2   9  -7    2.60    3.20 
   2  -9   7    8.70    4.40 
  -3   9  -7   14.90    4.40 
   3  -9   7    1.00    3.10 
   4   8  -7   -0.50    3.00 
  -4  -8   7    0.60    3.50 
   3   8  -7   -1.40    2.50 
  -3  -8   7    7.40    5.20 
   2   8  -7   -3.00    2.20 
  -2  -8   7   -2.40    3.30 
   1   8  -7   -4.20    3.10 
   1   8  -7    3.50    2.90 
  -1  -8   7   -1.10    3.40 
   0   8  -7    5.20    3.30 
   0   8  -7    7.70    3.50 
   0  -8   7    7.40    4.10 
   0  -8   7    4.80    3.00 
  -1   8  -7    7.20    3.20 
  -1   8  -7    1.20    3.40 
   1  -8   7    9.20    4.10 
  -2   8  -7    4.00    2.70 
   2  -8   7    1.50    2.70 
  -3   8  -7    0.50    2.80 
   3  -8   7   -0.80    2.50 
  -4   8  -7   -3.70    2.30 
   4  -8   7    2.90    2.50 
   5   7  -7   -1.90    2.40 
  -5  -7   7    3.20    4.00 
   4   7  -7    3.30    3.10 
  -4  -7   7   -3.30    3.20 
   3   7  -7    4.30    3.20 
   3   7  -7    5.50    3.20 
  -3  -7   7    5.00    3.90 
  -3  -7   7   -0.90    3.40 
   2   7  -7    0.90    3.30 
   2   7  -7    2.50    2.60 
  -2  -7   7    0.50    2.00 
  -2  -7   7   -1.90    3.20 
   1   7  -7  178.98   12.10 
   1   7  -7  173.68   10.70 
  -1  -7   7  166.08   12.80 
  -1  -7   7  163.48    9.80 
   0   7  -7    5.90    3.10 
   0   7  -7   13.50    4.00 
   0  -7   7    8.00    4.10 
   0  -7   7   11.00    3.00 
  -1   7  -7   73.59    7.40 
  -1   7  -7   78.29    7.20 
   1  -7   7   80.19    6.60 
   1  -7   7   55.49    7.30 
  -2   7  -7  160.88   11.70 
  -2   7  -7  176.98   10.80 
   2  -7   7  170.78   10.70 
   2  -7   7  175.28   11.70 
  -3   7  -7   14.50    4.30 
  -3   7  -7   16.80    4.70 
   3  -7   7   21.00    4.70 
   3  -7   7   11.10    4.00 
  -4   7  -7   22.10    5.30 
   4  -7   7   13.30    4.20 
  -5   7  -7    3.00    3.00 
   5  -7   7    7.20    5.20 
   6   6  -7   23.80    5.50 
  -6  -6   7    9.60    5.60 
   5   6  -7   35.20    6.60 
  -5  -6   7   31.70    7.00 
   4   6  -7   30.40    5.20 
   4   6  -7   23.60    5.60 
  -4  -6   7   25.00    6.10 
  -4  -6   7   27.30    4.50 
   3   6  -7   17.60    4.10 
   3   6  -7   20.70    4.90 
  -3  -6   7   24.80    6.40 
  -3  -6   7   20.10    3.70 
   2   6  -7   37.90    6.10 
   2   6  -7   50.49    5.80 
  -2  -6   7   44.10    7.80 
  -2  -6   7   44.70    5.00 
   1   6  -7   13.00    3.20 
   1   6  -7    9.80    4.40 
  -1  -6   7    7.80    4.20 
  -1  -6   7   12.10    2.80 
   0   6  -7    1.10    2.20 
   0   6  -7    2.90    2.10 
   0  -6   7   -0.40    3.80 
   0  -6   7   -1.50    1.50 
  -1   6  -7  101.49   12.30 
  -1   6  -7   96.19    7.10 
   1  -6   7   94.09    8.40 
   1  -6   7   97.49    7.10 
  -2   6  -7  322.07   15.00 
  -2   6  -7  324.77   16.40 
   2  -6   7  316.97   14.90 
   2  -6   7  317.17   15.80 
  -3   6  -7   42.70    5.60 
  -3   6  -7   46.80    6.10 
   3  -6   7   44.90    5.70 
   3  -6   7   40.00    5.20 
  -4   6  -7    9.10    3.40 
  -4   6  -7   12.00    3.50 
   4  -6   7   10.20    3.40 
   4  -6   7   12.50    3.10 
  -5   6  -7   30.60    6.30 
   5  -6   7   26.80    4.30 
  -6   6  -7   23.50    5.70 
   6  -6   7   16.10    4.70 
   6   5  -7   11.10    4.50 
  -6  -5   7   10.60    5.60 
   5   5  -7  100.59    9.40 
   5   5  -7  118.59   10.50 
  -5  -5   7   82.69    9.70 
   4   5  -7    7.30    3.20 
   4   5  -7    2.20    2.50 
  -4  -5   7   -0.30    1.70 
  -4  -5   7   -1.60    3.00 
   3   5  -7    1.90    2.20 
   3   5  -7    1.90    1.90 
  -3  -5   7   -2.40    1.50 
  -3  -5   7    1.50    2.70 
   2   5  -7   49.00    5.10 
   2   5  -7   58.59    6.40 
  -2  -5   7   41.10    8.50 
   1   5  -7   59.59    6.20 
   1   5  -7   56.09    5.20 
  -1  -5   7   69.69    8.00 
   0   5  -7  110.19    8.00 
   0   5  -7  102.79    6.80 
   0  -5   7  105.09    7.10 
   0  -5   7  108.29    8.90 
  -1   5  -7    0.00    1.70 
  -1   5  -7    2.30    1.90 
   1  -5   7   -0.80    1.90 
   1  -5   7    1.40    1.90 
  -2   5  -7   14.40    2.90 
  -2   5  -7   10.70    3.10 
   2  -5   7   13.80    3.50 
  -3   5  -7   82.29    7.50 
  -3   5  -7   74.59    6.40 
   3  -5   7   72.59    7.30 
   3  -5   7   79.09    6.50 
  -4   5  -7  121.49    8.60 
  -4   5  -7   96.49    8.70 
   4  -5   7  111.09    7.20 
   4  -5   7  114.89    8.50 
  -5   5  -7   27.80    4.80 
  -5   5  -7   22.80    4.60 
  -5   5  -7   24.10    5.00 
   5  -5   7   26.60    3.70 
  -6   5  -7   29.10    6.10 
   7   4  -7    6.10    4.00 
  -7  -4   7   -0.50    3.70 
   6   4  -7    1.50    2.30 
  -6  -4   7   -0.60    3.00 
   5   4  -7   38.40    5.90 
   5   4  -7   38.40    6.40 
  -5  -4   7   26.60    6.40 
   4   4  -7   74.99    7.20 
   4   4  -7   97.39    8.00 
  -4  -4   7   78.49    5.80 
  -4  -4   7   78.99    9.10 
   3   4  -7   10.10    3.10 
   3   4  -7   10.30    2.70 
  -3  -4   7    9.40    2.30 
  -3  -4   7   11.20    6.40 
   2   4  -7   87.49    7.10 
  -2  -4   7   90.39    5.40 
  -2  -4   7   83.79    8.60 
   1   4  -7   10.20    3.10 
   1   4  -7   10.50    2.50 
  -1  -4   7   11.30    4.00 
  -1  -4   7    9.10    1.90 
   0   4  -7   57.19    5.10 
   0   4  -7   49.99    4.30 
   0  -4   7   56.19    4.10 
   0  -4   7   51.39    6.00 
  -1   4  -7   45.90    4.80 
  -1   4  -7   55.39    4.50 
   1  -4   7   62.49    4.40 
   1  -4   7   63.09    6.00 
  -2   4  -7  123.29    8.20 
   2  -4   7  128.89    8.10 
   2  -4   7  124.89    7.20 
  -3   4  -7    7.20    2.60 
  -3   4  -7    8.80    2.80 
  -3   4  -7    9.60    2.50 
   3  -4   7    5.80    2.20 
   3  -4   7    9.10    2.40 
  -4   4  -7   15.60    3.60 
  -4   4  -7   10.30    3.90 
  -4   4  -7   10.90    3.00 
   4  -4   7    8.40    2.70 
  -5   4  -7  233.08   14.10 
  -5   4  -7  227.98   12.90 
  -5   4  -7  213.08   10.70 
   5  -4   7  240.48   10.00 
   5  -4   7  222.48   12.60 
  -6   4  -7   10.00    4.10 
  -7   4  -7   52.09    8.20 
   7   3  -7   26.30    6.50 
  -7  -3   7   29.30    6.90 
   6   3  -7   58.19    7.80 
   6   3  -7   41.50    6.80 
  -6  -3   7   44.50    8.60 
   5   3  -7    3.10    2.20 
   5   3  -7    5.70    3.00 
  -5  -3   7    6.50    2.00 
  -4  -3   7   73.49    5.10 
  -4  -3   7   66.99    8.20 
   3   3  -7  298.87   14.00 
   3   3  -7  291.87   13.00 
  -3  -3   7  278.97   11.20 
  -3  -3   7  301.17   17.10 
   2   3  -7  202.88   10.50 
   2   3  -7  188.08    9.20 
  -2  -3   7  194.38   12.70 
  -2  -3   7  202.58    8.10 
   1   3  -7  140.69    8.10 
  -1  -3   7  136.39    5.90 
  -1  -3   7  141.79   10.40 
   0   3  -7  151.98    7.50 
   0   3  -7  162.38    8.40 
   0  -3   7  150.28    6.30 
   0  -3   7  150.98   10.00 
  -1   3  -7   -2.50    1.50 
  -1   3  -7    0.90    1.60 
  -1   3  -7   -1.90    1.00 
   1  -3   7    1.40    1.00 
   1  -3   7    1.00    1.90 
  -2   3  -7   75.69    5.80 
  -2   3  -7   70.69    6.10 
  -2   3  -7   74.69    5.20 
   2  -3   7   68.99    4.50 
   2  -3   7   70.49    5.90 
  -3   3  -7  231.18   11.80 
  -3   3  -7  265.07   12.60 
  -3   3  -7  258.67   11.60 
   3  -3   7  244.58   10.80 
   3  -3   7  228.38   10.50 
  -4   3  -7    6.40    2.20 
  -4   3  -7    4.60    2.10 
  -4   3  -7    1.80    1.50 
   4  -3   7    8.70    2.50 
   4  -3   7    7.80    1.70 
  -5   3  -7    8.40    2.70 
  -5   3  -7   -2.50    1.60 
   5  -3   7    1.40    2.10 
   5  -3   7    1.90    1.10 
  -6   3  -7   17.30    4.60 
  -6   3  -7   11.00    5.40 
  -7   3  -7   -2.30    2.80 
   7   2  -7   16.10    4.70 
  -7  -2   7   20.40    6.30 
   6   2  -7  363.96   18.70 
   6   2  -7  379.66   19.00 
  -6  -2   7  342.67   14.90 
  -6  -2   7  372.16   22.10 
   5   2  -7  687.83   27.10 
   5   2  -7  700.93   27.00 
  -5  -2   7  639.94   23.00 
  -5  -2   7  713.83   32.00 
   4   2  -7   41.60    4.90 
   4   2  -7   44.00    4.90 
  -4  -2   7   38.00    8.50 
  -4  -2   7   40.90    3.50 
   3   2  -7  390.76   15.70 
   3   2  -7  403.36   16.30 
  -3  -2   7  384.26   13.10 
  -3  -2   7  378.26   20.00 
   2   2  -7  431.76   16.50 
   2   2  -7  420.66   15.30 
  -2  -2   7  435.36   20.70 
   1   2  -7  323.87   12.00 
   1   2  -7  329.97   13.00 
  -1  -2   7  337.67   16.70 
   0   2  -7   75.59    4.40 
   0   2  -7   79.29    5.00 
   0   2  -7   72.09    6.80 
   0  -2   7   80.09    7.10 
   0  -2   7   68.09    6.60 
  -1   2  -7  637.44   20.80 
  -1   2  -7  590.04   23.70 
  -1   2  -7  605.34   20.00 
   1  -2   7  590.94   22.80 
   1  -2   7  625.94   24.00 
  -2   2  -7  188.88    9.20 
  -2   2  -7  172.68    8.30 
  -2   2  -7  172.48    9.60 
   2  -2   7  181.78   10.00 
   2  -2   7  187.48    9.40 
  -3   2  -7  212.38   10.60 
  -3   2  -7  186.98    9.50 
  -3   2  -7  186.18    9.40 
   3  -2   7  199.68    8.70 
   3  -2   7  198.18    9.70 
   3  -2   7  193.38    8.30 
  -4   2  -7 2326.07   68.59 
   4  -2   7 2226.38   66.69 
   4  -2   7 2229.58   63.99 
   4  -2   7 2308.47   65.59 
  -5   2  -7   -0.60    1.80 
  -5   2  -7    3.80    2.30 
   5  -2   7    1.50    1.80 
  -6   2  -7  308.57   16.70 
  -6   2  -7  274.47   14.80 
  -7   2  -7  225.88   15.30 
   7   1  -7   28.00    5.60 
  -7  -1   7   28.00    6.60 
   6   1  -7 1047.40   37.60 
   6   1  -7 1028.70   37.50 
  -6  -1   7  937.31   41.60 
  -6  -1   7 1001.90   32.50 
   5   1  -7  190.08   11.30 
   5   1  -7  154.58   11.70 
  -5  -1   7  181.08   14.20 
  -5  -1   7  177.88    8.20 
   4   1  -7   31.30    4.10 
   4   1  -7   18.00    3.30 
  -4  -1   7   15.20    4.50 
  -4  -1   7   18.90    2.50 
   3   1  -7  732.93   25.10 
   3   1  -7  724.23   24.60 
  -3  -1   7  724.33   30.80 
   2   1  -7  708.93   23.30 
   2   1  -7  699.23   22.50 
  -2  -1   7  710.53   29.20 
   1   1  -7  436.46   15.40 
   1   1  -7  446.46   14.60 
  -1  -1   7  473.15   20.80 
   0   1  -7   14.70    2.10 
   0   1  -7   14.80    3.60 
   0   1  -7   13.20    1.80 
   0  -1   7   19.60    4.00 
   0  -1   7   16.10    3.80 
  -1   1  -7   35.50    2.80 
  -1   1  -7   37.50    4.70 
  -1   1  -7   38.20    3.10 
   1  -1   7   36.20    4.40 
   1  -1   7   36.50    4.50 
  -2   1  -7  108.49    5.90 
  -2   1  -7  119.79    6.50 
   2  -1   7  106.89    7.00 
   2  -1   7  118.39    6.90 
  -3   1  -7  626.44   21.90 
  -3   1  -7  632.24   22.60 
   3  -1   7  650.83   21.50 
   3  -1   7  630.94   18.80 
   3  -1   7  615.34   20.30 
  -4   1  -7 1732.43   53.59 
  -4   1  -7 1706.33   55.69 
   4  -1   7 1747.63   54.09 
  -5   1  -7    7.20    2.80 
   5  -1   7    8.50    2.30 
  -6   1  -7   26.60    5.50 
  -6   1  -7   31.70    5.80 
   6  -1   7   33.00    5.50 
  -7   1  -7  352.86   19.20 
   7   0  -7   24.50    5.30 
  -7   0   7   21.10    6.50 
   6   0  -7   -0.20    2.00 
   6   0  -7    9.00    3.50 
  -6   0   7   10.60    4.80 
  -6   0   7    5.00    2.30 
   5   0  -7   52.99    5.70 
   5   0  -7   60.99    5.90 
  -5   0   7   41.30    7.90 
   4   0  -7  133.39    8.30 
   4   0  -7  133.29    8.20 
  -4   0   7  138.89   12.00 
  -4   0   7  130.59    5.50 
   3   0  -7    4.30    1.70 
   3   0  -7    7.90    1.90 
  -3   0   7    7.00    3.50 
   2   0  -7  183.78    8.00 
   2   0  -7  183.88    7.60 
  -2   0   7  188.98   12.80 
   1   0  -7  225.58    8.30 
   1   0  -7  228.38    7.80 
  -1   0   7  214.38   18.80 
  -1   0   7  241.88   13.80 
   0   0  -7  565.24   17.10 
   0   0  -7  551.34   16.60 
   0   0   7  553.54   22.60 
   0   0   7  564.24   23.00 
  -1   0  -7  715.73   21.70 
  -1   0  -7  703.33   21.50 
   1   0   7  718.73   26.10 
   1   0   7  701.73   25.70 
  -2   0  -7  402.06   14.30 
  -2   0  -7  401.16   14.40 
   2   0   7  405.56   15.80 
   2   0   7  403.36   15.70 
  -3   0  -7   24.00    3.10 
  -3   0  -7   13.80    2.70 
   3   0   7   17.40    2.10 
   3   0   7   17.00    2.30 
  -4   0  -7  577.24   21.50 
  -4   0  -7  586.54   24.50 
   4   0   7  553.14   18.00 
  -5   0  -7  579.34   23.10 
  -5   0  -7  599.64   23.70 
   5   0   7  571.24   20.50 
  -6   0  -7   35.60    5.80 
  -6   0  -7   28.90    4.80 
  -7   0  -7   12.70    3.60 
   7  -1  -7    3.00    2.70 
  -7   1   7   -5.90    3.00 
   6  -1  -7  170.78   11.20 
  -6   1   7  163.38   14.40 
  -6   1   7  144.29    7.40 
   5  -1  -7  141.99    9.30 
   5  -1  -7  128.39    9.00 
  -5   1   7  126.99   12.50 
  -5   1   7  128.39    7.00 
   4  -1  -7   25.70    4.00 
   4  -1  -7   31.20    3.60 
  -4   1   7   19.00    5.20 
   3  -1  -7  273.77   11.60 
   3  -1  -7  270.27   11.30 
  -3   1   7  280.97   17.00 
   2  -1  -7  546.95   17.20 
  -2   1   7  508.35   24.00 
   1  -1  -7   24.80    1.50 
   1  -1  -7   21.10    1.70 
  -1   1   7   27.00    5.30 
   0   1   7  519.25   22.10 
   0   1   7  511.95   20.90 
  -1  -1  -7   40.40    2.50 
  -1  -1  -7   41.90    2.60 
   1   1   7   47.20    5.10 
   1   1   7   40.60    4.30 
  -2  -1  -7    3.40    1.30 
  -2  -1  -7    4.10    1.40 
   2   1   7    2.90    1.50 
   2   1   7    5.20    2.00 
  -3  -1  -7  195.18    9.30 
  -3  -1  -7  197.58    9.30 
   3   1   7  188.58    8.00 
   3   1   7  186.58    7.40 
  -4  -1  -7   33.00    5.40 
  -4  -1  -7   40.90    4.30 
  -5  -1  -7    1.80    1.70 
  -5  -1  -7    3.20    2.00 
  -6  -1  -7    1.70    2.20 
   6   1   7   -1.50    2.00 
  -7  -1  -7  137.79   11.40 
   7  -2  -7   56.89    7.30 
  -7   2   7   74.59    9.90 
   6  -2  -7    0.10    2.20 
   6  -2  -7    0.30    2.20 
  -6   2   7   -0.60    2.60 
   5  -2  -7  263.27   13.30 
  -5   2   7  264.27   18.40 
   4  -2  -7  218.28   12.20 
   4  -2  -7  221.88   17.80 
   4  -2  -7  212.28   10.60 
  -4   2   7  227.88   16.90 
   3  -2  -7   26.70    5.70 
   3  -2  -7   33.40    3.50 
   3  -2  -7   28.40    3.10 
  -3   2   7   38.50    7.00 
   2  -2  -7  539.45   17.30 
   2  -2  -7  520.65   17.30 
   2  -2  -7  544.65   24.40 
  -2   2   7  536.65   24.90 
   1  -2  -7  677.43   27.70 
  -1   2   7  704.23   28.80 
   0  -2  -7  802.22   30.30 
   0   2   7  819.42   31.20 
   0   2   7  817.72   29.20 
  -1  -2  -7   71.89    3.50 
  -1  -2  -7   77.59    6.40 
  -1  -2  -7   69.49    3.50 
   1   2   7   71.79    6.50 
   1   2   7   76.69    5.70 
  -2  -2  -7 1067.79   32.00 
   2   2   7 1038.60   32.70 
   2   2   7 1033.60   34.90 
  -3  -2  -7  454.35   17.30 
  -3  -2  -7  488.95   17.30 
   3   2   7  455.35   15.00 
   3   2   7  441.96   16.50 
  -4  -2  -7  270.37   12.90 
  -4  -2  -7  277.37   13.20 
  -5  -2  -7  337.07   16.10 
  -5  -2  -7  329.17   15.80 
  -6  -2  -7   12.00    3.70 
  -7  -2  -7   64.69    7.70 
  -7   3   7   -1.00    3.90 
   6  -3  -7  120.39   12.40 
   6  -3  -7  116.99    9.40 
   6  -3  -7   97.49    8.50 
  -6   3   7  106.49   11.90 
   5  -3  -7  103.79    8.00 
   5  -3  -7  100.89    7.70 
   5  -3  -7   94.39   10.70 
  -5   3   7  109.89   11.80 
   4  -3  -7  731.93   25.90 
   4  -3  -7  746.23   26.50 
   4  -3  -7  740.23   32.90 
  -4   3   7  740.63   33.90 
   3  -3  -7  695.93   24.10 
   3  -3  -7  746.73   31.90 
   3  -3  -7  720.53   24.40 
  -3   3   7  771.02   33.10 
   2  -3  -7  690.63   22.30 
   2  -3  -7  701.63   29.90 
   2  -3  -7  701.33   22.20 
  -2   3   7  763.22   31.60 
   1  -3  -7 1721.73   50.99 
   1  -3  -7 1805.32   50.69 
   1  -3  -7 1881.91   60.29 
  -1   3   7 1843.52   61.29 
   0  -3  -7 3109.99   93.29 
   0  -3  -7 3456.55  101.79 
   0  -3  -7 3412.46   92.79 
   0   3   7 3530.65  103.19 
  -1  -3  -7   25.30    2.20 
  -1  -3  -7   23.60    2.10 
  -1  -3  -7   21.40    4.30 
   1   3   7   22.50    4.50 
   1   3   7   23.30    3.20 
  -2  -3  -7  385.86   16.50 
  -2  -3  -7  376.56   13.90 
  -2  -3  -7  375.26   13.70 
   2   3   7  385.66   17.00 
   2   3   7  371.36   14.30 
  -3  -3  -7  330.07   13.50 
  -3  -3  -7  339.87   13.90 
  -3  -3  -7  323.17   14.70 
   3   3   7  308.87   11.90 
   3   3   7  312.97   13.70 
  -4  -3  -7   97.39    7.00 
  -4  -3  -7  104.49    7.50 
  -5  -3  -7  119.09    8.50 
  -5  -3  -7  113.09   10.40 
  -6  -3  -7  493.85   22.00 
  -7  -3  -7   75.29    7.80 
   7  -4  -7   -4.80    2.20 
   7  -4  -7   -1.00    3.50 
  -7   4   7    0.20    3.60 
   6  -4  -7  188.88   12.40 
   6  -4  -7  236.08   17.60 
   6  -4  -7  224.98   13.50 
  -6   4   7  180.28   16.50 
   5  -4  -7    3.80    2.50 
   5  -4  -7    9.50    2.80 
   5  -4  -7   11.40    4.70 
  -5   4   7    6.30    4.20 
   4  -4  -7  546.15   27.80 
   4  -4  -7  562.24   21.30 
   4  -4  -7  522.65   20.70 
  -4   4   7  570.74   28.80 
   3  -4  -7  209.78    9.70 
   2  -4  -7    8.80    1.80 
   2  -4  -7    6.00    1.60 
   2  -4  -7    7.70    3.40 
   1  -4  -7 4833.52  143.69 
   1  -4  -7 4800.22  134.39 
   1  -4  -7 4909.51  134.09 
   0  -4  -7 1329.27   39.60 
   0  -4  -7 1369.46   47.00 
   0  -4  -7 1370.16   39.00 
  -1  -4  -7  192.68    8.00 
  -1  -4  -7  184.48    7.40 
  -1  -4  -7  177.48   11.30 
   1   4   7  173.28   11.40 
  -2  -4  -7  146.79    7.70 
  -2  -4  -7  150.68    7.20 
  -2  -4  -7  154.38    9.60 
   2   4   7  144.09    7.80 
  -3  -4  -7  619.94   22.60 
  -3  -4  -7  623.94   21.80 
  -3  -4  -7  631.34   23.10 
   3   4   7  589.04   20.70 
  -4  -4  -7  209.48    9.20 
  -4  -4  -7  198.18   11.10 
  -4  -4  -7  198.08   10.60 
   4   4   7  178.08    8.00 
   4   4   7  196.48    9.30 
  -5  -4  -7   55.39    6.60 
  -5  -4  -7   78.49    6.80 
   6  -5  -7   20.80    7.60 
   6  -5  -7   28.90    5.80 
  -6   5   7   29.10    7.90 
   5  -5  -7   41.70    5.50 
   5  -5  -7   35.80    5.40 
   5  -5  -7   35.50    7.70 
  -5   5   7   43.40    8.60 
   4  -5  -7  168.48   14.00 
   4  -5  -7  160.58    9.70 
   4  -5  -7  165.28    9.30 
   3  -5  -7   63.99    5.20 
   3  -5  -7   73.69    8.70 
   3  -5  -7   69.89    5.30 
   2  -5  -7   97.59   11.10 
   2  -5  -7   88.89    5.40 
   2  -5  -7   90.49    5.60 
   1  -5  -7   35.00    3.30 
   1  -5  -7   30.60    6.10 
   1  -5  -7   31.40    2.90 
   0  -5  -7  339.67   17.80 
   0  -5  -7  350.26   12.30 
   0  -5  -7  344.37   13.10 
  -1  -5  -7  402.96   15.40 
  -1  -5  -7  428.86   19.70 
  -2  -5  -7  187.18    8.60 
  -2  -5  -7  174.38    9.20 
  -2  -5  -7  189.28   11.40 
  -3  -5  -7    9.10    2.30 
  -3  -5  -7    7.60    2.70 
  -3  -5  -7   11.10    2.80 
   3   5   7    6.90    2.50 
  -4  -5  -7   60.29    5.40 
  -4  -5  -7   68.69    5.80 
  -4  -5  -7   64.69    6.20 
   4   5   7   43.50    4.40 
  -5  -5  -7   91.19    7.70 
  -6  -5  -7  165.88   11.30 
   6  -6  -7   23.00    5.70 
   6  -6  -7   27.30    7.60 
  -6   6   7   33.50    8.20 
   5  -6  -7   54.79    6.30 
   5  -6  -7   47.30    6.80 
   5  -6  -7   60.69   10.20 
   4  -6  -7  253.67   12.80 
   4  -6  -7  210.78   11.70 
   4  -6  -7  241.78   17.70 
   3  -6  -7   25.30    3.90 
   3  -6  -7   32.50    4.00 
   3  -6  -7   26.80    6.10 
   2  -6  -7  115.79   10.90 
   2  -6  -7  118.89    7.20 
   2  -6  -7  115.99    6.90 
   1  -6  -7  420.86   22.60 
   1  -6  -7  431.26   16.40 
   1  -6  -7  423.86   15.60 
   0  -6  -7  201.68    9.80 
   0  -6  -7  203.48   13.60 
   0  -6  -7  211.38    9.20 
  -1  -6  -7  142.29    7.30 
  -1  -6  -7  131.09    7.90 
  -1  -6  -7  140.29   10.70 
  -2  -6  -7  287.37   12.30 
  -2  -6  -7  293.87   13.60 
  -2  -6  -7  306.57   16.10 
  -3  -6  -7  136.59    9.00 
  -3  -6  -7  147.39    8.20 
  -3  -6  -7  131.59    9.60 
  -4  -6  -7   68.39    6.60 
  -4  -6  -7   71.69    6.10 
  -4  -6  -7   64.09    7.40 
  -5  -6  -7   94.89    7.60 
   5  -7  -7   15.80    6.40 
   5  -7  -7   19.60    4.30 
   4  -7  -7   45.70    8.70 
   4  -7  -7   48.50    5.80 
   4  -7  -7   63.39    6.20 
   3  -7  -7  212.48   16.20 
   3  -7  -7  189.88   10.70 
   3  -7  -7  195.28   11.10 
   2  -7  -7  202.58   10.20 
   2  -7  -7  206.68   15.20 
   2  -7  -7  199.38   10.60 
   1  -7  -7    2.60    3.20 
   1  -7  -7    3.30    1.70 
   1  -7  -7    2.40    1.80 
   0  -7  -7  125.59   11.00 
   0  -7  -7  110.69    7.70 
   0  -7  -7  116.59    6.90 
  -1  -7  -7  117.79   14.90 
  -1  -7  -7  103.59    6.70 
  -1  -7  -7  111.69    7.70 
  -2  -7  -7   10.80    2.40 
  -2  -7  -7   12.50    3.90 
  -2  -7  -7    7.20    2.50 
  -3  -7  -7   -0.50    2.40 
  -3  -7  -7   -0.70    1.50 
  -3  -7  -7    4.60    2.80 
  -4  -7  -7   59.19    7.10 
  -4  -7  -7   55.09    5.80 
   4  -8  -7   66.79    7.00 
   4  -8  -7   77.99   11.00 
   3  -8  -7    7.20    4.20 
   2  -8  -7    1.20    2.00 
   2  -8  -7   -0.10    3.10 
   2  -8  -7    9.00    2.90 
   1  -8  -7   18.00    5.60 
   1  -8  -7   17.20    3.80 
   1  -8  -7   15.90    3.20 
   0  -8  -7   63.19    8.20 
   0  -8  -7   67.29    5.80 
   0  -8  -7   71.79    6.60 
  -1  -8  -7  254.97   13.80 
  -1  -8  -7  252.27   16.80 
  -1  -8  -7  284.17   13.00 
  -2  -8  -7  328.87   18.20 
  -2  -8  -7  362.96   19.80 
  -3  -8  -7   41.80    6.90 
  -3  -8  -7   46.60    5.00 
   2  -9  -7   16.30    3.80 
   2  -9  -7   15.80    5.60 
   1  -9  -7   77.59    6.80 
   0  -9  -7    1.40    1.80 
   0  -9  -7   -4.30    2.60 
  -1  -9  -7  257.57   18.20 
  -1  -9  -7  301.57   14.20 
   0   9  -8    4.50    3.60 
   0  -9   8   -3.40    2.90 
  -1   9  -8   13.00    4.20 
   1  -9   8   15.40    5.20 
   3   8  -8    9.40    4.20 
  -3  -8   8    2.90    4.60 
   2   8  -8   37.10    6.90 
  -2  -8   8   40.70    8.40 
   1   8  -8   33.80    6.40 
  -1  -8   8   29.10    6.60 
   0   8  -8   11.10    4.00 
   0  -8   8    9.80    4.70 
  -1   8  -8   11.60    3.70 
   1  -8   8    6.30    4.00 
  -2   8  -8   -3.00    2.40 
   2  -8   8    5.70    3.30 
  -3   8  -8    0.50    2.50 
   3  -8   8    3.50    3.00 
   4   7  -8    0.20    3.60 
  -4  -7   8    7.40    4.20 
   3   7  -8   93.79    9.60 
  -3  -7   8   70.19   11.30 
   2   7  -8  592.04   26.40 
  -2  -7   8  593.94   28.80 
   1   7  -8  363.16   19.20 
   1   7  -8  400.66   17.90 
  -1  -7   8  356.76   20.80 
   0   7  -8   27.10    5.40 
   0   7  -8   30.30    4.90 
   0  -7   8   20.80    5.60 
  -1   7  -8   91.69    8.70 
  -1   7  -8   91.69    7.80 
   1  -7   8   93.59    9.40 
  -2   7  -8   96.79    9.00 
   2  -7   8   85.29    8.60 
  -3   7  -8   -1.20    2.20 
   3  -7   8   -3.00    2.30 
  -4   7  -8   18.50    4.20 
   4  -7   8   10.50    3.70 
   5   6  -8   19.10    4.90 
  -5  -6   8   24.30    6.30 
   4   6  -8    3.30    3.30 
  -4  -6   8   13.70    5.20 
   3   6  -8   33.50    6.10 
   3   6  -8   36.20    5.70 
  -3  -6   8   40.30    7.50 
   2   6  -8  401.66   19.20 
   2   6  -8  390.16   17.50 
  -2  -6   8  371.36   15.80 
  -2  -6   8  350.46   20.50 
   1   6  -8   22.80    4.50 
   1   6  -8   18.80    4.10 
  -1  -6   8   21.00    5.20 
  -1  -6   8   24.10    3.50 
   0   6  -8   -3.00    1.70 
   0   6  -8   -2.30    1.60 
   0  -6   8   -1.70    2.60 
   0  -6   8   -2.00    1.80 
  -1   6  -8   80.99    7.00 
  -1   6  -8   80.49    7.50 
   1  -6   8   94.49    6.80 
   1  -6   8   85.39    8.50 
  -2   6  -8   33.50    5.60 
  -2   6  -8   25.30    4.70 
   2  -6   8   33.40    6.10 
   2  -6   8   42.00    4.80 
  -3   6  -8   -4.50    2.20 
  -3   6  -8    0.40    2.00 
   3  -6   8   -1.00    1.90 
  -4   6  -8   11.40    3.50 
   4  -6   8    6.90    2.70 
  -5   6  -8   76.89    8.50 
   5  -6   8   68.99    6.30 
  -6  -5   8    3.00    4.60 
   5   5  -8   -1.60    2.40 
  -5  -5   8    2.20    3.30 
   4   5  -8    0.60    2.20 
   4   5  -8   -1.10    3.10 
  -4  -5   8    5.50    4.10 
   3   5  -8   10.80    3.40 
   3   5  -8   15.30    3.60 
  -3  -5   8   13.10    2.90 
  -3  -5   8   18.10    5.60 
   2   5  -8    9.50    2.60 
   2   5  -8    0.00    2.00 
  -2  -5   8    4.20    3.60 
  -2  -5   8    4.60    1.90 
   1   5  -8   14.70    3.70 
  -1  -5   8   12.60    4.60 
  -1  -5   8   18.70    3.10 
   0   5  -8   20.10    4.10 
   0  -5   8   19.70    3.00 
   0  -5   8   24.10    5.30 
  -1   5  -8   19.40    3.90 
   1  -5   8   20.80    4.80 
   1  -5   8   21.50    3.10 
  -2   5  -8   -2.20    1.50 
  -2   5  -8    4.00    1.80 
   2  -5   8   -0.60    1.70 
   2  -5   8   -1.40    2.10 
  -3   5  -8   42.00    6.20 
  -3   5  -8   43.70    5.10 
   3  -5   8   44.10    5.30 
   3  -5   8   37.10    4.90 
  -4   5  -8   12.50    3.50 
  -4   5  -8    9.70    3.20 
   4  -5   8    6.80    2.40 
  -5   5  -8   81.29    8.50 
   5  -5   8   78.49    6.00 
  -6   5  -8   66.39    8.60 
   6   4  -8    1.00    2.80 
  -6  -4   8    0.30    3.90 
   5   4  -8  132.19   10.50 
   5   4  -8  111.89   10.00 
  -5  -4   8  124.89   12.60 
   4   4  -8   67.79    6.80 
   4   4  -8   71.29    7.30 
  -4  -4   8   60.59    8.40 
  -4  -4   8   73.69    5.40 
   3   4  -8   15.80    3.90 
  -3  -4   8   19.90    2.90 
  -3  -4   8   17.80    5.10 
   2   4  -8   29.30    4.70 
   2   4  -8   31.90    3.80 
  -2  -4   8   23.70    5.70 
  -2  -4   8   25.10    2.80 
   1   4  -8   30.10    3.40 
  -1  -4   8   25.10    5.50 
  -1  -4   8   23.30    3.20 
   0   4  -8   25.40    3.30 
   0   4  -8   31.80    6.30 
   0  -4   8   22.00    4.80 
  -1   4  -8  150.98    8.30 
  -1   4  -8  148.49   12.80 
   1  -4   8  158.18   10.50 
   1  -4   8  156.38   10.00 
  -2   4  -8    7.80    2.20 
  -2   4  -8    7.40    2.50 
   2  -4   8    7.90    2.60 
   2  -4   8    9.90    2.10 
  -3   4  -8   46.80    5.60 
   3  -4   8   51.39    4.60 
   3  -4   8   47.80    4.90 
  -4   4  -8  258.17   13.10 
  -4   4  -8  260.97   14.40 
  -4   4  -8  228.68   12.50 
   4  -4   8  220.68   11.70 
   4  -4   8  265.17   11.30 
  -5   4  -8    8.80    3.30 
   5  -4   8    3.20    1.40 
  -6   4  -8  107.69   10.70 
   6   3  -8   13.60    4.40 
  -6  -3   8   15.00    6.20 
   5   3  -8   80.69    7.60 
   5   3  -8   59.89    7.00 
  -5  -3   8   48.50    9.20 
   4   3  -8   50.49    5.90 
   4   3  -8   67.49    6.20 
  -4  -3   8   53.89    7.90 
   3   3  -8   18.50    3.60 
   3   3  -8   19.90    3.70 
  -3  -3   8   13.70    4.90 
  -3  -3   8   20.20    2.30 
   2   3  -8  234.78   10.40 
   2   3  -8  221.68   11.70 
  -2  -3   8  201.98    7.90 
  -2  -3   8  229.08   14.70 
   1   3  -8   78.49    5.30 
   1   3  -8   85.69    6.10 
  -1  -3   8   74.59    7.90 
   0   3  -8  136.89    7.80 
   0   3  -8  129.69    6.90 
   0  -3   8  119.49    9.50 
  -1   3  -8   43.70    4.30 
  -1   3  -8   43.50    3.90 
   1  -3   8   37.20    5.00 
  -2   3  -8   20.70    4.30 
  -2   3  -8   31.80    3.40 
   2  -3   8   20.20    4.00 
  -3   3  -8  137.59    8.20 
  -3   3  -8  142.39    9.20 
  -3   3  -8  117.89    8.60 
   3  -3   8  141.69    8.00 
   3  -3   8  144.09    8.70 
  -4   3  -8    5.60    2.50 
  -4   3  -8    4.70    2.60 
  -4   3  -8    0.90    2.00 
   4  -3   8    1.70    2.00 
   4  -3   8   -0.70    2.10 
   4  -3   8   -1.10    1.40 
  -5   3  -8  121.89    9.80 
  -5   3  -8  113.99    8.50 
  -6   3  -8    4.10    2.80 
   7   2  -8    9.00    4.40 
  -7  -2   8   18.00    5.90 
   6   2  -8   60.89    7.50 
  -6  -2   8   47.40    9.50 
   5   2  -8  168.08   11.10 
   5   2  -8  189.08   11.60 
  -5  -2   8  163.48    8.00 
  -5  -2   8  164.28   14.40 
   4   2  -8    3.60    2.00 
   4   2  -8    3.00    1.90 
  -4  -2   8    2.70    3.20 
   3   2  -8   79.49    5.80 
   3   2  -8   71.59    7.00 
   2   2  -8   18.20    3.10 
   2   2  -8   14.90    2.50 
  -2  -2   8   17.50    5.00 
   1   2  -8  192.18    9.30 
   1   2  -8  199.48    8.40 
  -1  -2   8  183.78   12.40 
   0   2  -8 2129.69   61.99 
   0   2  -8 2132.09   62.99 
   0  -2   8 2189.08   68.19 
  -1   2  -8  337.27   17.60 
  -1   2  -8  384.56   13.70 
  -1   2  -8  378.16   14.30 
   1  -2   8  357.66   17.40 
   1  -2   8  373.76   16.90 
  -2   2  -8  526.15   18.30 
  -2   2  -8  525.25   19.20 
  -2   2  -8  477.05   20.50 
   2  -2   8  504.25   20.80 
   2  -2   8  516.55   19.80 
  -3   2  -8 1314.57   40.90 
  -3   2  -8 1350.26   42.30 
  -3   2  -8 1198.38   41.30 
   3  -2   8 1305.07   41.90 
   3  -2   8 1325.97   40.20 
  -4   2  -8 1081.79   36.50 
  -4   2  -8 1037.10   34.90 
   4  -2   8 1010.40   31.00 
   4  -2   8 1038.00   32.50 
  -5   2  -8   81.29    7.70 
   5  -2   8   75.69    8.00 
  -6   2  -8   25.00    5.10 
   7   1  -8   -3.10    2.70 
  -7  -1   8   -1.90    3.20 
   6   1  -8  210.78   13.30 
  -6  -1   8  201.28   16.90 
   5   1  -8  133.99    9.40 
   5   1  -8  132.09    9.30 
  -5  -1   8  108.69   11.70 
   4   1  -8   98.29    7.40 
   4   1  -8   99.29    7.10 
  -4  -1   8   87.89   10.10 
   3   1  -8   45.60    4.60 
   3   1  -8   51.89    4.40 
  -3  -1   8   58.19    7.70 
   2   1  -8  235.28    9.70 
   2   1  -8  238.28   10.40 
  -2  -1   8  240.78   15.30 
   1   1  -8    2.30    1.20 
   1   1  -8    0.60    0.90 
  -1  -1   8    0.80    2.10 
   0   1  -8 1093.99   32.90 
   0   1  -8 1070.39   32.10 
   0  -1   8 1090.79   38.80 
  -1   1  -8   63.79    3.90 
  -1   1  -8   58.19    4.20 
   1  -1   8   70.29    6.30 
   1  -1   8   62.19    6.00 
  -2   1  -8    6.30    1.80 
  -2   1  -8    2.90    1.30 
   2  -1   8    4.30    2.10 
   2  -1   8    5.20    2.10 
  -3   1  -8  926.41   29.20 
  -3   1  -8  861.51   30.90 
   3  -1   8  894.01   29.20 
   3  -1   8  840.02   27.90 
  -4   1  -8   -1.00    1.70 
  -4   1  -8    4.40    2.00 
  -5   1  -8   61.99    5.90 
  -5   1  -8   52.39    6.10 
  -6   1  -8    3.60    2.80 
  -7   1  -8   38.00    7.00 
   7   0  -8    3.30    3.30 
  -7   0   8    3.60    3.80 
   6   0  -8   11.80    3.50 
   6   0  -8    5.90    3.00 
  -6   0   8    1.50    3.10 
   5   0  -8  111.19    8.70 
   5   0  -8  132.29    8.90 
  -5   0   8  127.29   12.50 
   4   0  -8  127.79    8.10 
   4   0  -8  133.09    8.40 
  -4   0   8  129.09   12.20 
   3   0  -8    5.00    1.60 
   3   0  -8    2.20    1.50 
  -3   0   8    4.30    2.70 
   2   0  -8  171.48    7.80 
   2   0  -8  167.18    7.30 
  -2   0   8  167.58   12.70 
   1   0  -8  616.74   18.80 
   1   0  -8  629.24   19.60 
  -1   0   8  621.84   26.90 
   0   0  -8   16.70    1.80 
   0   0  -8   11.80    1.50 
   0   0   8   11.10    3.40 
  -1   0  -8  154.08    6.40 
  -1   0  -8  157.68    6.70 
   1   0   8  161.28   10.00 
   1   0   8  174.48   10.20 
  -2   0  -8  305.67   12.00 
  -2   0  -8  313.27   11.70 
   2   0   8  295.77   13.50 
   2   0   8  318.77   13.80 
  -3   0  -8   23.80    5.50 
  -3   0  -8   29.10    3.40 
   3   0   8   27.70    3.00 
   3   0   8   30.70    3.10 
  -4   0  -8    3.10    1.80 
  -4   0  -8    1.80    1.60 
  -5   0  -8   23.80    4.80 
  -5   0  -8   18.00    3.80 
  -6   0  -8   67.79    7.30 
  -7   0  -8   10.10    3.80 
   7  -1  -8    3.70    2.50 
  -7   1   8   -6.80    3.30 
   6  -1  -8   61.69    7.30 
   6  -1  -8   87.89    8.10 
  -6   1   8   79.59   12.50 
   5  -1  -8   -1.80    1.60 
   5  -1  -8    0.30    1.70 
  -5   1   8   -0.50    2.70 
   4  -1  -8   99.09    6.90 
   4  -1  -8   95.69    6.70 
  -4   1   8   93.99   11.00 
   3  -1  -8  405.96   15.50 
   3  -1  -8  399.86   15.30 
  -3   1   8  425.26   22.70 
   2  -1  -8   69.99    4.10 
   2  -1  -8   63.99    4.10 
  -2   1   8   63.89    7.90 
   1  -1  -8  174.68    6.40 
   1  -1  -8  178.98    6.10 
  -1   1   8  176.28   12.60 
   0   1   8  395.76   19.40 
  -1  -1  -8  123.39    5.30 
  -1  -1  -8  126.79    5.30 
   1   1   8  136.79    9.30 
   1   1   8  134.19    8.50 
  -2  -1  -8  202.38    8.70 
  -2  -1  -8  208.38    8.90 
   2   1   8  214.78   11.00 
   2   1   8  216.98   10.20 
  -3  -1  -8   87.39    5.90 
  -3  -1  -8   83.49    5.90 
   3   1   8   81.19    5.20 
   3   1   8   89.29    4.90 
  -4  -1  -8   66.69    5.50 
  -4  -1  -8   59.39    5.50 
  -5  -1  -8   47.50    5.40 
  -5  -1  -8   53.09    5.80 
  -6  -1  -8  242.28   14.30 
   7  -2  -8   -2.30    2.60 
  -7   2   8    6.40    4.00 
   6  -2  -8  202.68   12.90 
   6  -2  -8  207.58   12.60 
  -6   2   8  221.78   17.90 
   5  -2  -8  182.58   10.90 
   5  -2  -8  170.38   10.50 
  -5   2   8  174.58   15.50 
   4  -2  -8    9.60    2.40 
  -4   2   8   -3.70    2.90 
   3  -2  -8  187.28   11.00 
   3  -2  -8  180.18    8.50 
   3  -2  -8  167.98   15.20 
  -3   2   8  172.98   20.00 
   2  -2  -8  573.94   26.10 
   2  -2  -8  543.85   18.00 
   2  -2  -8  552.84   18.10 
  -2   2   8  561.24   27.00 
   1  -2  -8  730.43   30.00 
  -1   2   8  727.23   31.10 
   0  -2  -8  824.12   31.70 
   0   2   8  831.82   32.70 
  -1  -2  -8    2.40    0.90 
   1   2   8    0.20    1.80 
   1   2   8    2.90    1.70 
  -2  -2  -8   47.20    3.60 
  -2  -2  -8   49.20    3.60 
   2   2   8   49.20    5.10 
   2   2   8   40.40    3.90 
  -3  -2  -8  957.50   30.90 
  -3  -2  -8  967.00   31.30 
   3   2   8  958.70   30.90 
   3   2   8  909.31   28.80 
  -4  -2  -8   77.49    6.20 
  -4  -2  -8   65.49    5.90 
  -5  -2  -8   25.20    4.30 
  -5  -2  -8   15.70    3.70 
   7  -3  -8    5.40    3.10 
  -7   3   8   13.70    5.50 
   6  -3  -8    2.90    3.40 
  -6   3   8   11.70    5.20 
   5  -3  -8  112.09   11.80 
   5  -3  -8  126.39    9.00 
   5  -3  -8  123.99    8.40 
  -5   3   8  113.19   12.30 
   4  -3  -8  351.36   15.80 
   4  -3  -8  385.86   15.70 
   4  -3  -8  381.56   22.50 
  -4   3   8  385.96   23.30 
   3  -3  -8   59.79    4.70 
   3  -3  -8   75.39    5.30 
   3  -3  -8   69.49    8.70 
  -3   3   8   72.59    9.30 
   2  -3  -8   -0.10    1.00 
   2  -3  -8    1.60    1.10 
   2  -3  -8    5.10    3.20 
  -2   3   8    0.10    2.90 
   1  -3  -8  573.84   25.90 
   1  -3  -8  543.45   17.00 
   1  -3  -8  553.54   16.80 
  -1   3   8  594.34   27.10 
   0  -3  -8  414.06   19.90 
   0   3   8  393.86   20.40 
  -1  -3  -8   33.60    5.70 
  -1  -3  -8   21.30    2.20 
  -1  -3  -8   24.30    2.10 
   1   3   8   32.30    5.50 
  -2  -3  -8  175.48    9.20 
  -2  -3  -8  169.88   10.30 
   2   3   8  176.58   10.80 
   2   3   8  161.88    8.50 
  -3  -3  -8   55.79    4.90 
  -3  -3  -8   55.49    4.70 
   3   3   8   50.89    5.00 
   3   3   8   47.90    3.90 
  -4  -3  -8  126.19    8.40 
  -4  -3  -8  126.89    8.10 
  -5  -3  -8  522.85   22.50 
  -5  -3  -8  536.55   21.90 
  -6  -3  -8   39.90    6.00 
   6  -4  -8  102.49    9.20 
   6  -4  -8   81.49   11.10 
  -6   4   8   92.69   12.70 
   5  -4  -8   38.10    5.70 
   5  -4  -8   37.90    7.90 
   5  -4  -8   41.90    5.80 
  -5   4   8   36.00    8.60 
   4  -4  -8  256.57   12.20 
   4  -4  -8  256.47   12.60 
   4  -4  -8  250.77   18.00 
  -4   4   8  269.97   19.40 
   3  -4  -8  145.89   13.20 
   3  -4  -8  157.98    8.10 
   3  -4  -8  158.88    8.30 
  -3   4   8  178.38   14.50 
   2  -4  -8   97.49    5.20 
   2  -4  -8   97.99   17.60 
   2  -4  -8   88.49    5.10 
  -2   4   8   92.09   17.70 
   1  -4  -8  123.39   10.60 
   1  -4  -8  117.09    5.50 
   1  -4  -8  120.89    5.20 
  -1   4   8  113.59   11.00 
   0  -4  -8   37.80    2.50 
   0  -4  -8   38.20    2.80 
   0  -4  -8   44.00    6.30 
   0   4   8   45.50    6.50 
  -1  -4  -8   49.99    6.00 
  -1  -4  -8   44.80    3.40 
   1   4   8   42.10    6.20 
  -2  -4  -8   73.09    7.00 
  -2  -4  -8   83.79    4.90 
  -2  -4  -8   68.09    5.60 
   2   4   8   72.39    6.90 
   2   4   8   63.79    5.20 
  -3  -4  -8  114.79    7.40 
  -3  -4  -8  112.99    6.80 
  -3  -4  -8  106.69    7.60 
   3   4   8  101.09   10.70 
   3   4   8   96.59    6.90 
  -4  -4  -8    1.40    1.70 
  -4  -4  -8    2.20    1.60 
   4   4   8    0.50    1.40 
  -5  -4  -8  318.67   16.30 
  -5  -4  -8  302.27   16.30 
  -6  -4  -8   -1.40    2.10 
   6  -5  -8   94.59   11.90 
   6  -5  -8   91.59    8.50 
  -6   5   8   92.59   12.50 
   5  -5  -8   18.30    5.80 
   5  -5  -8   23.20    4.50 
   5  -5  -8   21.00    3.90 
  -5   5   8   17.60    6.00 
   4  -5  -8    0.40    2.30 
   4  -5  -8   -1.40    1.50 
   4  -5  -8   -2.90    1.50 
  -4   5   8   -3.50    2.60 
   3  -5  -8  207.18   16.00 
   3  -5  -8  215.78   10.40 
   3  -5  -8  215.38   10.40 
  -3   5   8  231.58   17.50 
   2  -5  -8   36.70    4.60 
   2  -5  -8   40.80    3.60 
   2  -5  -8   30.60    6.20 
   1  -5  -8    7.80    1.80 
   1  -5  -8   12.50    2.20 
   0  -5  -8  172.18   12.50 
   0  -5  -8  167.48    7.80 
   0  -5  -8  170.08    7.30 
  -1  -5  -8  286.57   12.20 
  -1  -5  -8  325.87   17.20 
  -1  -5  -8  306.77   11.40 
  -2  -5  -8   30.10    3.70 
  -2  -5  -8   29.80    3.20 
  -2  -5  -8   37.30    5.50 
  -3  -5  -8  177.28   10.90 
  -3  -5  -8  157.08    9.40 
  -3  -5  -8  173.38    8.80 
   3   5   8  162.48   10.80 
   3   5   8  146.19    8.70 
  -4  -5  -8  200.18   10.90 
  -4  -5  -8  217.28   11.00 
  -4  -5  -8  205.98   12.10 
   4   5   8  204.68   10.90 
  -5  -5  -8   15.30    3.50 
   5  -6  -8   25.60    4.70 
   5  -6  -8   34.70    7.80 
  -5   6   8   29.80    7.90 
   4  -6  -8   11.80    3.20 
   4  -6  -8   21.40    3.90 
   4  -6  -8   15.90    5.60 
  -4   6   8    8.00    4.80 
   3  -6  -8  144.59   13.40 
   3  -6  -8  149.99    8.80 
   3  -6  -8  145.59    8.70 
   2  -6  -8   40.60    7.50 
   2  -6  -8   44.90    4.50 
   2  -6  -8   41.00    4.10 
   1  -6  -8   26.80    3.00 
   1  -6  -8   26.10    6.00 
   1  -6  -8   30.30    3.50 
   0  -6  -8   32.90    6.20 
   0  -6  -8   33.70    3.80 
   0  -6  -8   40.10    3.40 
  -1  -6  -8  176.88   12.80 
  -1  -6  -8  195.28    8.80 
  -2  -6  -8   76.99    5.40 
  -2  -6  -8   79.19    6.20 
  -2  -6  -8   77.99    7.70 
  -3  -6  -8    3.80    2.00 
  -3  -6  -8    2.40    3.30 
  -3  -6  -8    3.30    2.60 
  -4  -6  -8   99.49    8.30 
  -4  -6  -8   98.09    7.20 
   4  -7  -8   78.39   10.80 
   4  -7  -8   87.79    7.60 
   3  -7  -8    2.20    2.70 
   3  -7  -8    6.20    4.20 
   3  -7  -8    4.90    2.30 
   2  -7  -8    3.00    2.20 
   2  -7  -8    2.90    3.30 
   2  -7  -8    3.00    2.10 
   1  -7  -8  417.06   22.90 
   1  -7  -8  380.36   15.20 
   1  -7  -8  360.96   17.20 
   0  -7  -8   99.29    6.30 
   0  -7  -8   89.09    9.90 
   0  -7  -8   98.29    9.60 
  -1  -7  -8   79.79    6.80 
  -1  -7  -8   70.79    8.80 
  -1  -7  -8   80.79    5.80 
  -2  -7  -8   95.29    7.20 
  -2  -7  -8  107.89    8.10 
  -2  -7  -8  107.29   10.30 
  -3  -7  -8    3.20    1.90 
  -3  -7  -8    0.50    3.00 
   3  -8  -8   43.50    8.70 
   3  -8  -8   23.10    4.30 
   2  -8  -8   11.40    5.00 
   2  -8  -8   13.90    3.00 
   2  -8  -8   11.20    5.80 
   1  -8  -8   18.70    3.50 
   1  -8  -8   32.10    5.00 
   1  -8  -8   27.20    6.90 
   0  -8  -8   11.10    4.40 
   0  -8  -8   15.70    2.90 
   0  -8  -8   16.30    3.60 
  -1  -8  -8    2.90    3.50 
  -1  -8  -8    1.60    3.20 
  -1  -8  -8    2.40    1.70 
  -2  -8  -8   11.20    4.00 
  -2  -8  -8   10.30    2.70 
  -1  -8   9    0.40    3.20 
   0  -8   9    2.20    3.80 
   1  -8   9   47.40    8.60 
  -3  -7   9   -3.70    3.60 
   2   7  -9    0.60    3.30 
  -2  -7   9   -2.60    4.50 
   1   7  -9   10.00    4.30 
  -1  -7   9    2.60    4.40 
   0   7  -9    3.60    2.70 
   0  -7   9    2.20    2.90 
  -1   7  -9   14.70    4.40 
   1  -7   9   13.90    4.70 
  -2   7  -9   15.30    4.20 
   2  -7   9   16.50    4.60 
  -3   7  -9   16.30    7.60 
   3  -7   9   17.70    4.40 
  -4  -6   9   -6.00    3.40 
   3   6  -9    2.50    2.80 
  -3  -6   9   12.10    5.30 
   2   6  -9    1.40    2.70 
  -2  -6   9    2.10    4.10 
   1   6  -9    3.10    2.70 
   1   6  -9    0.00    2.20 
  -1  -6   9   -0.40    3.10 
   0   6  -9    1.30    2.30 
   0   6  -9   -0.60    2.10 
   0  -6   9    2.30    3.10 
  -1   6  -9   12.00    3.70 
  -1   6  -9   11.80    3.20 
   1  -6   9   11.20    4.30 
  -2   6  -9   -1.20    2.00 
   2  -6   9    0.20    2.50 
  -3   6  -9    0.10    2.70 
   3  -6   9    6.80    3.10 
  -4   6  -9    6.10    5.60 
   5   5  -9    8.70    3.70 
  -5  -5   9    5.20    4.20 
   4   5  -9   10.20    3.80 
  -4  -5   9    6.90    5.30 
   3   5  -9    1.50    1.90 
   3   5  -9    1.10    2.00 
  -3  -5   9   -1.30    2.80 
   2   5  -9   41.30    6.90 
   2   5  -9   59.19    6.60 
  -2  -5   9   52.69    7.70 
  -2  -5   9   41.10    5.30 
   1   5  -9   43.50    5.60 
   1   5  -9   26.80    4.20 
  -1  -5   9   24.10    5.60 
   0   5  -9   -2.10    1.70 
   0   5  -9    0.70    1.70 
   0  -5   9    4.20    3.40 
  -1   5  -9   13.60    3.50 
  -1   5  -9   18.60    3.30 
   1  -5   9   15.80    4.90 
  -2   5  -9   15.10    3.50 
  -2   5  -9   13.90    4.00 
   2  -5   9   18.30    4.50 
  -3   5  -9   20.40    4.40 
   3  -5   9   27.20    4.90 
  -4   5  -9   22.00    5.30 
   4  -5   9   16.80    3.60 
  -5   5  -9    3.90    2.70 
   5   4  -9   39.40    6.40 
  -5  -4   9   28.80    7.50 
   4   4  -9   61.09    6.90 
  -4  -4   9   60.29   10.30 
   3   4  -9   37.10    4.80 
   3   4  -9   30.10    5.30 
  -3  -4   9   32.30    6.60 
   2   4  -9   27.10    4.90 
  -2  -4   9   24.10    6.00 
   1   4  -9   10.70    2.90 
   1   4  -9   10.10    2.50 
  -1  -4   9    7.60    4.00 
   0   4  -9   62.39    5.90 
   0   4  -9   58.09    4.90 
   0  -4   9   55.99    7.10 
  -1   4  -9   21.40    4.10 
  -1   4  -9   31.40    4.40 
   1  -4   9   22.10    4.90 
  -2   4  -9   75.49    7.90 
  -2   4  -9   93.89    7.50 
   2  -4   9   96.39    7.90 
  -3   4  -9  163.18   10.80 
  -3   4  -9  151.48    9.40 
   3  -4   9  141.99    9.40 
  -4   4  -9  300.77   16.10 
   4  -4   9  264.67   12.20 
   6   3  -9  316.77   18.20 
  -6  -3   9  298.67   21.40 
   5   3  -9   17.90    4.60 
  -5  -3   9   13.70    5.90 
   4   3  -9   31.90    5.20 
   4   3  -9   35.10    5.40 
  -4  -3   9   17.80    6.30 
   3   3  -9  237.58   12.10 
   3   3  -9  260.77   13.30 
  -3  -3   9  236.78   16.60 
   2   3  -9  202.68    9.80 
   2   3  -9  194.78   10.80 
  -2  -3   9  200.68   14.20 
   1   3  -9   33.80    4.10 
   1   3  -9   33.00    3.40 
  -1  -3   9   33.20    6.20 
   0   3  -9  116.79    6.70 
   0   3  -9  119.09    7.60 
   0  -3   9  116.79   10.00 
  -1   3  -9    2.20    1.30 
  -1   3  -9   -0.90    1.50 
   1  -3   9   -2.50    2.00 
  -2   3  -9    1.30    1.60 
  -2   3  -9    5.50    2.20 
   2  -3   9    1.20    2.10 
  -3   3  -9  867.11   29.40 
  -3   3  -9  775.72   30.50 
  -3   3  -9  888.01   31.00 
   3  -3   9  851.71   31.30 
   3  -3   9  854.41   29.20 
  -4   3  -9  225.68   12.10 
  -4   3  -9  232.28   13.40 
   4  -3   9  210.88    9.70 
  -5   3  -9   39.70    6.50 
  -6   3  -9  111.59   10.20 
   6   2  -9    6.60    3.30 
  -6  -2   9   -1.80    3.90 
   5   2  -9   -0.70    2.40 
   5   2  -9   -1.40    1.80 
  -5  -2   9    2.90    3.60 
   4   2  -9    8.50    2.60 
   4   2  -9    1.60    1.90 
  -4  -2   9   -3.40    2.70 
   3   2  -9    6.30    2.10 
   3   2  -9    8.30    2.50 
  -3  -2   9    6.50    3.50 
   2   2  -9    1.40    1.40 
   2   2  -9    0.00    1.60 
  -2  -2   9    6.40    3.40 
   1   2  -9  100.19    5.70 
   1   2  -9  102.89    6.60 
  -1  -2   9   97.49    9.40 
   0   2  -9   -0.60    1.10 
   0   2  -9    0.30    1.10 
   0  -2   9   -1.40    2.20 
  -1   2  -9  257.17   11.40 
  -1   2  -9  256.67   10.60 
   1  -2   9  262.17   14.00 
  -2   2  -9    8.80    2.50 
  -2   2  -9    6.90    2.10 
   2  -2   9    9.80    3.30 
   2  -2   9    6.80    2.50 
  -3   2  -9  167.98    9.20 
  -3   2  -9  177.18   10.20 
  -4   2  -9  318.97   15.50 
  -4   2  -9  310.27   14.10 
   4  -2   9  319.37   12.70 
   4  -2   9  293.37   11.30 
  -5   2  -9   64.69    9.60 
  -5   2  -9   69.39    7.40 
  -6   2  -9    4.60    3.10 
   6   1  -9   45.80    9.00 
  -6  -1   9   59.89   10.50 
   5   1  -9    3.10    2.30 
  -5  -1   9    7.30    4.50 
   4   1  -9   35.20    4.50 
   4   1  -9   41.00    4.60 
  -4  -1   9   29.30    7.10 
   3   1  -9  137.19    8.20 
   3   1  -9  136.69    8.00 
  -3  -1   9  153.78   13.00 
   2   1  -9   38.80    3.50 
   2   1  -9   40.50    3.90 
  -2  -1   9   35.10    8.20 
   1   1  -9  199.08    8.00 
   1   1  -9  189.68    9.10 
  -1  -1   9  194.18   13.50 
   0   1  -9   15.70    2.20 
   0   1  -9   16.60    2.60 
   0  -1   9   20.50    4.50 
  -1   1  -9    0.70    1.00 
   1  -1   9    2.90    2.20 
  -2   1  -9   52.69    4.10 
  -2   1  -9   46.60    4.40 
   2  -1   9   49.99    5.70 
   2  -1   9   54.29    5.30 
  -3   1  -9    4.70    2.00 
  -3   1  -9    3.90    1.80 
   3  -1   9    3.60    2.20 
   3  -1   9    3.60    1.90 
  -4   1  -9   29.10    4.30 
  -4   1  -9   39.20    5.00 
   4  -1   9   35.50    2.50 
  -5   1  -9    5.50    2.70 
  -5   1  -9    6.10    2.60 
  -6   1  -9   24.40    5.40 
   6   0  -9   32.90    8.70 
  -6   0   9   34.10   10.80 
   5   0  -9   84.39    7.60 
   5   0  -9   87.39    7.70 
  -5   0   9   97.19   11.70 
   4   0  -9    6.00    2.30 
   4   0  -9    4.10    2.00 
  -4   0   9    7.30    4.00 
   3   0  -9   39.70    3.90 
   3   0  -9   34.90    3.90 
  -3   0   9   26.70    6.70 
   2   0  -9  269.87   13.30 
   2   0  -9  287.47   11.20 
  -2   0   9  291.57   18.10 
   1   0  -9   12.30    1.70 
   1   0  -9   13.60    2.10 
  -1   0   9    6.80    3.50 
   0   0  -9  438.16   14.40 
   0   0  -9  437.76   13.90 
   0   0   9  434.06   21.10 
  -1   0  -9   87.59    4.90 
  -1   0  -9   92.99    4.60 
   1   0   9   87.89    7.80 
  -2   0  -9   28.80    2.90 
  -2   0  -9   23.20    2.90 
   2   0   9   26.90    4.40 
   2   0   9   31.60    4.10 
  -3   0  -9  431.06   17.10 
  -3   0  -9  456.25   16.70 
   3   0   9  433.86   16.20 
   3   0   9  432.46   16.30 
  -4   0  -9  126.79    8.00 
  -4   0  -9  119.89    8.30 
  -5   0  -9   84.39    7.40 
  -5   0  -9  101.49    8.30 
  -6   0  -9   53.59    6.90 
   6  -1  -9    3.50    2.60 
  -6   1   9    6.00    4.10 
   5  -1  -9  179.58   10.80 
   5  -1  -9  165.58   10.50 
  -5   1   9  176.38   15.90 
   4  -1  -9  318.27   14.20 
   4  -1  -9  307.07   14.10 
  -4   1   9  325.17   21.20 
   3  -1  -9   17.90    3.10 
   3  -1  -9   18.90    3.10 
  -3   1   9   21.40    6.10 
   2  -1  -9 1015.00   30.50 
  -2   1   9  982.70   41.20 
   1  -1  -9  276.97    9.50 
   1  -1  -9  288.37    9.30 
  -1   1   9  275.67   17.30 
   0   1   9  561.94   25.40 
  -1  -1  -9  185.48    7.30 
  -1  -1  -9  186.68    7.00 
   1   1   9  199.98   12.30 
  -2  -1  -9   75.89    4.80 
  -2  -1  -9   74.49    4.60 
   2   1   9   75.39    6.40 
   2   1   9   80.69    6.10 
  -3  -1  -9   11.30    2.50 
  -3  -1  -9    5.80    2.10 
   3   1   9    7.50    2.00 
   3   1   9   12.70    2.50 
  -4  -1  -9    2.60    1.90 
  -4  -1  -9    3.00    2.10 
  -5  -1  -9  182.38   11.20 
  -5  -1  -9  192.78   11.50 
  -6  -1  -9   49.90    6.30 
   6  -2  -9   38.50    6.10 
  -6   2   9   47.70    9.70 
   5  -2  -9  142.09    9.60 
   5  -2  -9  144.19    9.70 
  -5   2   9  156.78   14.90 
   4  -2  -9  504.15   19.30 
   4  -2  -9  487.55   19.40 
  -4   2   9  467.45   27.40 
   3  -2  -9   14.00    2.80 
  -3   2   9   18.60    5.70 
   2  -2  -9  601.34   21.90 
   2  -2  -9  627.64   19.60 
  -2   2   9  604.84   32.60 
  -1   2   9 3266.87  103.49 
   0   2   9  481.95   23.50 
  -1  -2  -9    4.20    1.00 
  -1  -2  -9    0.90    0.80 
   1   2   9    2.10    1.80 
  -2  -2  -9  472.85   16.10 
  -2  -2  -9  443.76   15.80 
   2   2   9  434.06   17.60 
   2   2   9  475.85   20.10 
  -3  -2  -9  359.16   14.30 
   3   2   9  366.66   14.80 
   3   2   9  327.47   12.90 
  -4  -2  -9   32.40    4.70 
  -4  -2  -9   36.20    4.30 
  -5  -2  -9  400.86   18.40 
  -6  -2  -9   56.09    6.30 
   6  -3  -9   37.70    6.30 
  -6   3   9   52.29   10.30 
   5  -3  -9   -4.40    2.10 
  -5   3   9    3.90    3.70 
   4  -3  -9    8.10    2.30 
   4  -3  -9    0.70    2.00 
   4  -3  -9    2.40    3.20 
  -4   3   9    0.50    3.80 
   3  -3  -9  127.79   12.30 
   3  -3  -9  149.99    7.60 
   3  -3  -9  147.29    7.80 
  -3   3   9  147.09   13.90 
   2  -3  -9   64.69    4.20 
   2  -3  -9   74.39    4.20 
   2  -3  -9   76.89    9.10 
  -2   3   9   52.49    9.20 
   1  -3  -9   15.10    4.60 
  -1   3   9   12.90    5.00 
   0  -3  -9   -2.50    2.50 
   0   3   9   -0.90    2.20 
  -1  -3  -9  273.37   15.30 
  -1  -3  -9  271.37    9.90 
  -1  -3  -9  280.87    9.60 
   1   3   9  284.27   16.30 
  -2  -3  -9    0.20    1.10 
  -2  -3  -9    3.40    1.30 
   2   3   9    0.20    2.00 
   2   3   9    0.30    1.70 
  -3  -3  -9   26.40    3.40 
  -3  -3  -9   27.70    3.70 
   3   3   9   27.90    3.20 
   3   3   9   28.90    4.00 
  -4  -3  -9   66.99    6.40 
  -4  -3  -9   70.09    5.80 
  -5  -3  -9   20.10    4.00 
   5  -4  -9  107.19    8.50 
   5  -4  -9  107.79   13.00 
   5  -4  -9  102.79    9.00 
  -5   4   9  127.99   16.00 
   4  -4  -9  106.09   12.10 
   4  -4  -9  108.39    7.70 
  -4   4   9  114.79   13.10 
   3  -4  -9   46.90    4.30 
   3  -4  -9   52.59    4.50 
   3  -4  -9   49.50    8.70 
  -3   4   9   56.79   10.00 
   2  -4  -9  207.18    8.70 
   2  -4  -9  207.18   15.50 
   2  -4  -9  200.88    8.60 
  -2   4   9  240.58   17.20 
   1  -4  -9  463.95   23.70 
   1  -4  -9  434.36   14.30 
   1  -4  -9  437.46   14.60 
  -1   4   9  484.15   25.00 
   0  -4  -9    3.10    2.70 
   0  -4  -9   -0.20    0.90 
   0  -4  -9    0.20    0.70 
   0   4   9   -1.40    1.80 
  -1  -4  -9  502.15   22.90 
  -1  -4  -9  460.45   15.20 
  -1  -4  -9  465.15   16.10 
   1   4   9  487.15   23.60 
  -2  -4  -9  187.48    8.40 
  -2  -4  -9  185.38    9.00 
  -2  -4  -9  189.88   12.00 
   2   4   9  196.98   12.70 
  -3  -4  -9   14.00    2.50 
   3   4   9   12.00    3.50 
  -4  -4  -9  242.68   13.20 
  -4  -4  -9  277.27   13.80 
  -5  -4  -9    4.50    2.40 
   5  -5  -9    2.30    3.10 
   5  -5  -9   11.90    3.70 
  -5   5   9    2.00    4.30 
   4  -5  -9  144.09   11.60 
   4  -5  -9  156.58   14.90 
   4  -5  -9  173.38   10.40 
  -4   5   9  186.78   17.10 
   3  -5  -9   83.69   10.80 
   3  -5  -9   85.99    6.10 
   3  -5  -9   90.39    6.20 
  -3   5   9   95.09   11.50 
   2  -5  -9   20.50    2.90 
   2  -5  -9   29.10    6.90 
   2  -5  -9   17.10    2.70 
  -2   5   9   19.50    6.00 
   1  -5  -9  128.69   11.90 
   1  -5  -9  123.29    6.30 
   1  -5  -9  120.09    5.80 
  -1   5   9  111.69   11.80 
   0  -5  -9   97.29    5.40 
   0  -5  -9   87.69    4.60 
   0  -5  -9   94.69    9.80 
   0   5   9   90.39   10.40 
  -1  -5  -9    1.10    1.20 
  -1  -5  -9    6.90    3.30 
  -1  -5  -9    3.60    1.60 
   1   5   9    1.90    3.00 
  -2  -5  -9   74.89    7.90 
  -2  -5  -9   80.39    5.10 
  -2  -5  -9   87.19    6.00 
   2   5   9   83.49    8.60 
  -3  -5  -9   13.10    2.50 
  -3  -5  -9   13.30    3.20 
  -3  -5  -9   15.60    3.90 
   3   5   9    5.90    3.00 
  -4  -5  -9    2.70    1.90 
   4  -6  -9    3.10    3.70 
   4  -6  -9   -0.20    2.40 
   4  -6  -9    2.60    2.40 
  -4   6   9    9.10    4.90 
   3  -6  -9   75.59   10.40 
   3  -6  -9   88.89    6.50 
   3  -6  -9   97.09    8.50 
  -3   6   9   88.39   11.60 
   2  -6  -9   -1.80    1.30 
   2  -6  -9   -1.00    3.00 
   2  -6  -9    6.00    2.00 
  -2   6   9   -0.90    3.30 
   1  -6  -9    4.00    1.90 
   1  -6  -9    6.70    1.90 
   1  -6  -9   10.00    4.50 
   0  -6  -9  288.87   11.50 
   0  -6  -9  296.77   12.60 
   0  -6  -9  311.87   18.80 
  -1  -6  -9  150.28   12.50 
  -1  -6  -9  156.38    7.60 
  -1  -6  -9  149.29    8.50 
  -2  -6  -9  112.49    7.70 
  -2  -6  -9   94.59    9.50 
  -2  -6  -9   96.79    6.30 
  -3  -6  -9  235.48   11.40 
  -3  -6  -9  260.07   14.90 
  -3  -6  -9  238.18   13.00 
   3   6   9  235.78   15.20 
   3  -7  -9  118.49   12.80 
   3  -7  -9  101.89    7.60 
   3  -7  -9  106.19    8.40 
   2  -7  -9    4.60    2.50 
   2  -7  -9    2.50    4.30 
   2  -7  -9    9.70    2.60 
   1  -7  -9   51.39    5.20 
   1  -7  -9   49.30    5.30 
   1  -7  -9   40.20    8.20 
   0  -7  -9  123.69    7.90 
   0  -7  -9  128.39   12.10 
   0  -7  -9  105.49    7.60 
  -1  -7  -9  563.54   21.40 
  -1  -7  -9  532.15   26.90 
  -1  -7  -9  512.15   19.40 
  -2  -7  -9    8.40    2.30 
  -2  -7  -9   14.90    4.90 
  -2  -7  -9    4.90    3.20 
   1   7 -10    6.80    3.60 
  -1  -7  10    4.60    4.00 
   0   7 -10   -1.30    2.50 
  -1   7 -10   -2.50    2.20 
   1  -7  10   -1.20    2.80 
   3   6 -10    9.20    3.60 
  -3  -6  10    9.30    5.00 
   2   6 -10    1.80    2.90 
  -2  -6  10   -1.40    3.70 
   1   6 -10    2.80    3.90 
  -1  -6  10    1.30    3.70 
   0   6 -10    9.50    3.30 
   0  -6  10    7.30    4.40 
   1  -6  10    7.20    3.80 
  -2   6 -10    7.50    3.30 
   2  -6  10    4.30    3.60 
  -3   6 -10   17.40    4.60 
   3  -6  10    7.70    4.00 
   4   5 -10   -2.60    2.00 
  -4  -5  10    2.10    3.70 
  -3  -5  10    9.00    6.90 
   2   5 -10   31.00    5.50 
  -2  -5  10   25.90    6.50 
   1   5 -10    8.60    3.10 
   1   5 -10    3.50    2.60 
  -1  -5  10    7.20    4.30 
   0   5 -10   -2.10    1.70 
   0   5 -10   -1.50    3.20 
   0  -5  10   -3.40    2.90 
  -1   5 -10   -2.70    1.80 
  -1   5 -10   -0.30    1.90 
   1  -5  10    1.20    3.00 
  -2   5 -10    1.80    2.60 
   2  -5  10    1.20    2.80 
  -3   5 -10    5.20    3.00 
   3  -5  10   -0.60    2.40 
  -4   5 -10   -0.10    2.30 
   4  -5  10   -2.20    2.60 
   4   4 -10    1.10    2.60 
  -4  -4  10    4.40    4.50 
   3   4 -10   25.00    5.10 
   3   4 -10   26.20    4.60 
  -3  -4  10   19.10    6.00 
   2   4 -10   10.00    2.70 
   2   4 -10    2.20    2.00 
  -2  -4  10    0.90    3.70 
   1   4 -10  133.89    9.30 
   1   4 -10  129.69    7.90 
  -1  -4  10  128.29   11.70 
   0   4 -10  287.97   14.30 
   0   4 -10  287.17   12.80 
   0  -4  10  260.77   16.30 
  -1   4 -10    1.90    2.00 
  -1   4 -10    4.90    1.90 
   1  -4  10   -1.50    2.50 
  -2   4 -10  216.78   11.10 
  -2   4 -10  219.38   12.50 
   2  -4  10  192.78   12.80 
  -3   4 -10  241.08   13.70 
  -3   4 -10  221.88   13.90 
   3  -4  10  210.68   12.40 
  -4   4 -10   82.59    8.50 
   4  -4  10   82.19    6.30 
   5   3 -10   12.30    4.10 
  -5  -3  10    9.30    5.30 
   4   3 -10    8.00    3.00 
   4   3 -10    9.00    3.10 
  -4  -3  10    8.20    4.90 
   3   3 -10   23.00    4.60 
   3   3 -10   20.70    3.90 
  -3  -3  10   16.80    5.40 
   2   3 -10    6.70    2.60 
   2   3 -10   10.10    2.60 
  -2  -3  10   12.50    4.80 
   1   3 -10  197.38    9.60 
   1   3 -10  187.48   10.40 
  -1  -3  10  169.58   13.60 
   0   3 -10  228.58   10.50 
   0   3 -10  215.38   11.30 
   0  -3  10  226.68   14.70 
  -1   3 -10    2.00    1.50 
  -1   3 -10    2.10    1.60 
   1  -3  10   -2.70    2.10 
  -2   3 -10  126.59    7.70 
  -2   3 -10  126.39    8.70 
   2  -3  10  109.79    9.00 
  -3   3 -10  303.67   14.30 
  -3   3 -10  325.47   15.70 
   3  -3  10  299.97   14.20 
   4  -3  10   17.80    3.80 
  -5   3 -10   13.20    4.10 
   5   2 -10   36.00    5.90 
  -5  -2  10   47.90    9.80 
   4   2 -10    5.30    2.60 
   4   2 -10    7.20    2.40 
  -4  -2  10    7.10    4.00 
   3   2 -10    8.30    2.60 
   3   2 -10   13.10    3.40 
  -3  -2  10   14.80    5.60 
   2   2 -10   82.59    5.70 
   2   2 -10   67.29    5.90 
  -2  -2  10   84.39    9.50 
   1   2 -10    6.50    2.30 
   1   2 -10    8.10    2.10 
  -1  -2  10    8.60    4.00 
   0   2 -10   58.29    4.30 
   0   2 -10   58.69    4.90 
   0  -2  10   46.60    7.60 
  -1   2 -10   65.99    5.40 
  -1   2 -10   72.19    4.80 
   1  -2  10   57.99    7.00 
  -2   2 -10    1.00    1.70 
  -2   2 -10    2.80    1.80 
   2  -2  10    2.60    2.30 
  -3   2 -10   -0.60    1.80 
  -3   2 -10    0.50    2.00 
   3  -2  10    0.10    1.80 
  -4   2 -10    1.10    2.30 
  -4   2 -10    3.30    2.50 
   4  -2  10    0.20    1.40 
  -5   2 -10   14.00    4.20 
   5   1 -10    9.10    3.30 
  -5  -1  10   13.60    5.40 
   4   1 -10   45.90    5.50 
   4   1 -10   54.19    5.40 
  -4  -1  10   38.80    7.90 
   3   1 -10   84.49    6.10 
   3   1 -10   67.39    5.80 
  -3  -1  10   76.79   10.20 
   2   1 -10   44.00    4.50 
  -2  -1  10   47.80    8.30 
   1   1 -10   49.10    3.70 
   1   1 -10   49.60    4.10 
  -1  -1  10   49.10    8.30 
   0   1 -10   48.50    4.00 
   0   1 -10   48.50    3.60 
   0  -1  10   47.50    6.70 
  -1   1 -10   -0.50    1.20 
  -1   1 -10    3.70    1.40 
   1  -1  10    5.50    2.90 
  -2   1 -10   81.89    5.50 
  -2   1 -10   89.29    6.00 
   2  -1  10   86.89    7.20 
  -3   1 -10    3.40    1.90 
  -3   1 -10    2.80    1.90 
   3  -1  10    1.90    1.90 
  -4   1 -10    1.40    1.90 
  -4   1 -10    3.00    1.90 
  -5   1 -10   69.59    7.20 
   5   0 -10   17.80    4.00 
  -5   0  10   24.50    8.20 
   4   0 -10   67.49    6.10 
   4   0 -10   63.99    5.90 
  -4   0  10   66.89    9.90 
   3   0 -10  151.58    8.20 
   3   0 -10  141.09    8.20 
  -3   0  10  149.49   14.00 
   2   0 -10    9.50    2.10 
   2   0 -10    8.50    2.00 
  -2   0  10    7.30    4.90 
   1   0 -10  508.55   16.20 
   1   0 -10  523.65   17.10 
  -1   0  10  445.06   35.10 
   0   0 -10  206.88    8.30 
   0   0 -10  212.58    7.90 
   0   0  10  210.58   14.30 
  -1   0 -10   12.80    2.30 
  -1   0 -10   14.60    2.10 
   1   0  10   15.80    4.50 
  -2   0 -10  144.69    7.00 
  -2   0 -10  144.49    7.60 
   2   0  10  136.49    9.20 
  -3   0 -10  234.98   11.30 
   3   0  10  208.88   10.40 
  -4   0 -10   15.90    3.40 
  -4   0 -10   18.50    3.60 
  -5   0 -10   37.40    5.70 
   5  -1 -10   33.70    5.40 
   5  -1 -10   32.40    5.20 
  -5   1  10   35.00    9.10 
   4  -1 -10   67.99    6.20 
   4  -1 -10   69.29    6.10 
  -4   1  10   67.19   11.20 
   3  -1 -10    9.30    2.30 
   3  -1 -10   16.70    2.90 
  -3   1  10    8.50    4.90 
   2  -1 -10   95.39    5.20 
   2  -1 -10   85.49    5.10 
  -2   1  10   81.59   10.30 
   1  -1 -10  233.68    8.20 
   1  -1 -10  233.58    8.50 
  -1   1  10  237.78   21.80 
   0   1  10   91.79    9.70 
  -1  -1 -10    2.90    1.00 
  -1  -1 -10    5.70    1.40 
   1   1  10    2.40    2.50 
  -2  -1 -10  313.27   11.60 
  -2  -1 -10  307.47   12.00 
   2   1  10  299.97   15.30 
  -3  -1 -10   41.80    4.20 
  -3  -1 -10   44.90    4.50 
   3   1  10   51.99    4.80 
  -4  -1 -10  149.49    9.30 
  -4  -1 -10  149.49    9.10 
  -5  -1 -10   79.39    7.30 
   5  -2 -10   83.29    7.50 
   5  -2 -10   87.89    7.50 
  -5   2  10  100.69   12.90 
   4  -2 -10  183.18   10.00 
   4  -2 -10  174.18    9.80 
  -4   2  10  198.98   17.20 
   3  -2 -10   35.00    3.50 
   3  -2 -10   24.60    3.20 
  -3   2  10   41.20    8.90 
   2  -2 -10   35.70    3.10 
   2  -2 -10   39.70    3.10 
  -2   2  10   40.30    8.20 
  -1   2  10  123.89   12.00 
   0   2  10    8.70    4.10 
  -1  -2 -10   -0.40    0.80 
  -1  -2 -10   -1.90    0.70 
   1   2  10    0.00    2.40 
  -2  -2 -10   21.00    2.70 
  -2  -2 -10   20.60    2.60 
   2   2  10   21.10    4.00 
  -3  -2 -10    5.80    2.20 
  -3  -2 -10    8.20    2.40 
   3   2  10    8.20    3.00 
  -4  -2 -10  165.78    9.80 
  -5  -2 -10  168.48   10.80 
   5  -3 -10    3.70    3.00 
   5  -3 -10   -0.90    1.90 
  -5   3  10   -6.70    3.10 
   4  -3 -10   41.50    4.70 
   4  -3 -10   38.60    4.70 
  -4   3  10   48.80   10.20 
   3  -3 -10  107.59    6.10 
  -3   3  10  113.49   12.60 
   2  -3 -10    1.40    1.00 
  -2   3  10   -1.90    2.70 
  -1   3  10    6.50    4.20 
   0   3  10  176.08   13.70 
   1   3  10   11.80    3.90 
  -2  -3 -10  114.59    5.90 
  -2  -3 -10  106.39    6.20 
   2   3  10  114.19    9.50 
  -3  -3 -10  149.19    7.90 
  -3  -3 -10  128.59    7.90 
   3   3  10  125.99    8.50 
  -4  -3 -10    0.70    2.20 
  -4  -3 -10    5.80    3.00 
   4  -4 -10   17.90    3.40 
   4  -4 -10   16.00    3.50 
   4  -4 -10   17.70    5.80 
  -4   4  10   16.50    6.50 
   3  -4 -10  121.79    6.90 
   3  -4 -10  125.69   12.90 
   3  -4 -10  128.99    7.40 
  -3   4  10  148.59   14.70 
   2  -4 -10    3.70    3.50 
   2  -4 -10    9.90    1.80 
   2  -4 -10    7.00    1.80 
  -2   4  10    6.10    3.90 
   1  -4 -10   -3.70    2.60 
   1  -4 -10    3.30    1.00 
  -1   4  10   -2.60    2.80 
   0  -4 -10  220.28   15.40 
   0   4  10  229.08   16.60 
  -1  -4 -10   55.59    3.30 
  -1  -4 -10   57.49    3.80 
  -1  -4 -10   71.99    8.00 
   1   4  10   55.89    7.90 
  -2  -4 -10    4.00    1.40 
   2   4  10    4.40    2.70 
  -3  -4 -10  116.99    7.70 
   3   4  10  122.59    9.20 
  -4  -4 -10   32.60    5.80 
  -4  -4 -10   35.10    4.40 
   4  -5 -10    8.90    3.00 
   4  -5 -10    3.30    3.80 
   4  -5 -10    1.40    2.50 
  -4   5  10    2.60    3.50 
   3  -5 -10   -2.90    1.60 
   3  -5 -10    8.00    6.10 
  -3   5  10    1.60    4.70 
   2  -5 -10   47.00    3.90 
   2  -5 -10   40.20    8.40 
   2  -5 -10   43.00    3.70 
  -2   5  10   39.90    8.20 
   1  -5 -10  227.88    9.40 
   1  -5 -10  226.88    8.90 
   1  -5 -10  246.18   17.30 
  -1   5  10  243.08   18.10 
   0  -5 -10    1.60    1.50 
   0  -5 -10    3.50    1.30 
   0  -5 -10    4.40    4.00 
   0   5  10    6.10    3.90 
  -1  -5 -10  188.88    8.70 
  -1  -5 -10  194.98   14.00 
  -1  -5 -10  174.08    7.60 
   1   5  10  190.08   14.60 
  -2  -5 -10   46.50    6.90 
  -2  -5 -10   52.59    6.00 
  -2  -5 -10   56.89    5.10 
   2   5  10   57.69    7.90 
  -3  -5 -10   31.00    3.50 
   3  -6 -10   12.20    2.50 
   3  -6 -10    7.70    5.50 
   3  -6 -10    9.00    2.80 
  -3   6  10    9.00    5.20 
   2  -6 -10   77.49    5.90 
   2  -6 -10   86.19    5.80 
   2  -6 -10   97.99   13.20 
  -2   6  10  100.39   20.10 
   1  -6 -10  111.89    7.00 
   1  -6 -10  133.59   12.90 
  -1   6  10  154.08   14.60 
   0  -6 -10   -3.50    3.30 
   0  -6 -10    2.60    1.90 
   0   6  10   -7.80    3.30 
  -1  -6 -10    9.70    2.10 
  -1  -6 -10   10.60    4.90 
  -1  -6 -10    8.60    2.70 
   1   6  10   16.00    5.30 
  -2  -6 -10   -2.00    3.50 
  -2  -6 -10    3.50    1.30 
  -2  -6 -10    1.60    2.30 
   2   6  10    6.00    3.20 
   2   5 -11   23.90    4.90 
  -2  -5  11   25.80    6.20 
   1   5 -11    4.80    2.80 
  -1  -5  11   -0.10    4.00 
   0   5 -11   18.10    4.20 
   0  -5  11   20.20    5.60 
  -1   5 -11    4.20    2.50 
   1  -5  11    0.60    3.60 
  -2   5 -11   42.60    6.40 
   2  -5  11   33.30    6.30 
   3   4 -11    9.60    3.70 
  -3  -4  11    4.60    4.70 
  -2  -4  11   12.90    5.10 
   1   4 -11    0.20    2.10 
  -1  -4  11    5.40    3.50 
   0   4 -11   11.30    2.90 
   0  -4  11   -4.10    3.30 
  -1   4 -11   23.40    5.50 
  -1   4 -11   24.60    4.20 
   1  -4  11   17.40    5.30 
  -2   4 -11   75.19    7.30 
   2  -4  11   53.79    7.20 
  -3   4 -11  111.39    9.40 
   3  -4  11  114.09    9.00 
   4   3 -11   12.60    3.90 
  -4  -3  11    8.60    5.40 
   3   3 -11    7.90    3.90 
   3   3 -11   10.60    3.40 
   2   3 -11    4.20    2.30 
   2   3 -11    4.00    2.30 
  -2  -3  11    9.90    4.60 
   1   3 -11   23.20    4.30 
   1   3 -11   26.20    3.90 
  -1  -3  11   26.20    6.00 
   0   3 -11    8.90    2.70 
   0   3 -11    8.60    2.50 
   0  -3  11    8.20    4.00 
  -1   3 -11    1.70    2.00 
  -1   3 -11    1.70    1.90 
   1  -3  11   10.10    3.50 
  -2   3 -11    1.90    2.30 
   2  -3  11   -1.00    2.40 
  -3   3 -11   24.90    4.70 
   3  -3  11   28.10    4.60 
   4   2 -11   -0.50    2.10 
  -4  -2  11    4.60    4.50 
   3   2 -11   38.10    5.10 
  -3  -2  11   25.80    6.60 
   2   2 -11    5.40    2.40 
   2   2 -11    3.30    2.40 
  -2  -2  11    0.50    4.10 
   1   2 -11   44.00    4.10 
   1   2 -11   45.70    4.80 
  -1  -2  11   35.10    7.20 
   0   2 -11   87.39    5.60 
   0   2 -11   89.99    6.30 
   0  -2  11   80.79    9.00 
  -1   2 -11   -0.60    1.80 
  -1   2 -11   -1.30    1.40 
   1  -2  11    0.30    3.00 
  -2   2 -11   16.60    3.50 
   2  -2  11   22.90    4.90 
  -3   2 -11   67.69    6.20 
  -3   2 -11   62.79    6.30 
   3  -2  11   57.89    5.70 
  -4   2 -11   26.20    4.70 
   4   1 -11   48.60    8.30 
   4   1 -11   37.90    4.90 
  -4  -1  11   35.30    7.90 
   3   1 -11   40.10    4.80 
   3   1 -11   42.10    4.80 
  -3  -1  11   37.50    7.90 
   2   1 -11  177.68    8.90 
   2   1 -11  180.58    9.50 
  -2  -1  11  179.28   15.50 
   1   1 -11    3.70    1.50 
   1   1 -11    2.20    1.40 
  -1  -1  11   -2.80    3.30 
   0   1 -11   19.60    2.90 
   0   1 -11   23.50    2.70 
   0  -1  11   28.30    6.20 
  -1   1 -11   79.79    5.00 
  -1   1 -11   73.09    5.40 
   1  -1  11   76.29    8.10 
  -2   1 -11   11.40    2.60 
  -2   1 -11   12.10    2.50 
   2  -1  11   12.60    3.70 
  -3   1 -11    6.50    2.40 
  -3   1 -11    7.00    3.90 
   3  -1  11    2.80    2.40 
  -4   1 -11   26.10    4.60 
   4   0 -11  117.49    8.30 
   4   0 -11  110.69    8.30 
  -4   0  11  116.19   14.00 
   3   0 -11   82.19    6.30 
   3   0 -11   92.09    6.50 
  -3   0  11   74.29   10.80 
   2   0 -11  491.65   17.30 
   2   0 -11  475.35   17.60 
  -2   0  11  484.75   27.20 
   1   0 -11  833.22   26.40 
   1   0 -11  864.51   25.80 
  -1   0  11  814.02   36.60 
   0   0 -11   20.30    2.70 
   0   0 -11   29.20    2.40 
   0   0  11   26.80    6.10 
  -1   0 -11   61.39    3.90 
  -1   0 -11   62.89    4.30 
   1   0  11   60.89    7.60 
  -2   0 -11  157.78    8.20 
  -2   0 -11  159.08    7.60 
   2   0  11  146.69   10.40 
  -3   0 -11   81.69    5.70 
   3   0  11   63.99    5.70 
  -4   0 -11   21.00    4.10 
  -4   0 -11   20.80    5.70 
   4  -1 -11    8.50    2.70 
   4  -1 -11    9.70    3.00 
  -4   1  11    1.50    4.30 
   3  -1 -11    0.40    1.90 
   3  -1 -11    1.30    1.40 
  -3   1  11   -0.20    3.60 
   2  -1 -11  288.47   10.80 
   2  -1 -11  255.27   10.50 
  -2   1  11  279.17   19.80 
   1  -1 -11   36.00    2.60 
   1  -1 -11   35.80    2.60 
  -1   1  11   40.40    8.00 
   0   1  11   22.10    5.20 
  -1  -1 -11    3.40    1.20 
  -1  -1 -11    4.00    1.20 
   1   1  11    4.90    3.00 
  -2  -1 -11   37.00    3.30 
  -2  -1 -11   41.30    3.70 
   2   1  11   37.00    5.50 
  -3  -1 -11   43.30    4.20 
   3   1  11   32.00    4.40 
  -4  -1 -11    1.90    2.60 
  -4  -1 -11   -0.20    1.80 
   4  -2 -11    0.00    1.80 
   4  -2 -11    8.30    2.70 
  -4   2  11    0.00    4.20 
   3  -2 -11   52.99    4.50 
   3  -2 -11   54.89    4.50 
  -3   2  11   50.89   10.30 
   2  -2 -11   74.99    4.20 
   2  -2 -11   73.29    4.20 
  -2   2  11   71.49   11.80 
  -1   2  11   82.39   10.60 
   0   2  11  113.49   11.00 
   1   2  11  153.48   12.30 
  -2  -2 -11   34.90    3.00 
  -2  -2 -11   24.30    2.90 
   2   2  11   25.40    5.40 
  -3  -2 -11   25.40    3.60 
  -3  -2 -11   29.40    3.80 
   3   2  11   26.80    5.10 
   4  -3 -11   52.69    5.30 
   4  -3 -11   56.59    5.30 
  -4   3  11   47.00   10.60 
   3  -3 -11    0.40    1.60 
   3  -3 -11    2.20    1.60 
  -3   3  11   -6.50    6.80 
   2  -3 -11    8.60    1.70 
   2  -3 -11   11.70    1.60 
  -2   3  11   12.20    5.30 
  -1   3  11  119.49   12.60 
   0   3  11    3.10    3.40 
   1   3  11   53.39   13.80 
  -2  -3 -11   58.09    4.80 
  -2  -3 -11   58.09    3.90 
   2   3  11   63.69    7.80 
  -3  -3 -11   15.30    3.10 
  -3  -3 -11   16.80    2.80 
   3  -4 -11   37.50    5.30 
  -3   4  11   52.59    9.80 
   2  -4 -11    4.90    1.50 
  -2   4  11    5.20    4.30 
  -1   4  11  105.39   12.00 
   0   4  11  145.29   13.70 
   1   4  11   21.90    5.70 
  -2  -4 -11    2.30    2.10 
  -2  -4 -11    1.00    1.10 
   2   4  11    0.20    3.20 
   2  -5 -11   23.20    6.80 
   2  -5 -11   14.80    2.50 
  -2   5  11   12.80    6.20 
   1  -5 -11    7.70    1.80 
   1  -5 -11   17.20    6.00 
  -1   5  11    1.00    4.40 
   0  -5 -11  253.77   17.90 
   0   5  11  273.67   19.10 
  -1  -5 -11  305.37   11.60 
  -1  -5 -11  284.07   10.50 
  -1  -5 -11  291.47   18.60 
   1   5  11  300.27   19.30 
   2   3 -12   10.80    3.40 
  -2  -3  12   14.90    6.10 
   1   3 -12    2.80    2.40 
   1   3 -12    1.30    2.20 
  -1  -3  12    4.80    4.30 
   0   3 -12    3.40    2.10 
   0   3 -12   -1.80    2.00 
   0  -3  12    3.50    3.50 
  -1   3 -12    0.70    2.10 
   1  -3  12    4.30    3.60 
   2   2 -12   16.60    3.60 
   2   2 -12   14.50    3.60 
   1   2 -12  129.49    8.20 
   1   2 -12  127.39    7.40 
  -1  -2  12  107.09   11.50 
   0   2 -12   18.50    3.10 
   0   2 -12   26.10    4.00 
   0  -2  12   16.40    5.10 
  -1   2 -12   31.00    4.00 
  -1   2 -12   20.80    3.80 
   1  -2  12   29.10    6.00 
  -2   2 -12   43.30    4.80 
  -2   2 -12   33.30    5.10 
   2  -2  12   35.30    9.10 
   3   1 -12    2.80    1.90 
   3   1 -12   -2.70    2.20 
  -3  -1  12    8.20    5.00 
   2   1 -12  112.79    7.00 
   2   1 -12  103.59    7.10 
  -2  -1  12   90.89   12.50 
   1   1 -12   45.00    4.00 
  -1  -1  12   35.20    7.70 
   0   1 -12   17.40    2.70 
   0  -1  12   12.70    4.90 
  -1   1 -12   28.40    3.50 
  -1   1 -12   35.90    4.10 
   1  -1  12   25.60    5.90 
  -2   1 -12  113.39    6.80 
  -2   1 -12  112.39    7.40 
   2  -1  12   92.99    8.60 
   3   0 -12   10.30    3.20 
   3   0 -12    9.50    2.60 
  -3   0  12    2.50    5.40 
   2   0 -12   23.70    3.30 
   2   0 -12   15.70    3.70 
  -2   0  12    9.70    5.10 
   1   0 -12   42.20    3.60 
  -1   0  12   33.10    6.80 
   0   0 -12   -2.00    1.20 
   0   0  12   -0.30    3.00 
  -1   0 -12    3.60    1.90 
  -1   0 -12    6.50    1.50 
   1   0  12    3.30    3.50 
  -2   0 -12    0.50    1.70 
  -2   0 -12    0.90    1.50 
   2   0  12    4.20    3.20 
   3  -1 -12   11.30    2.40 
   3  -1 -12   13.50    3.60 
  -3   1  12   14.50    5.90 
   2  -1 -12    2.70    1.90 
   2  -1 -12    3.20    1.60 
  -2   1  12   -2.90    4.10 
  -1   1  12   19.80    6.10 
   0   1  12   21.70    5.60 
  -1  -1 -12   10.60    1.50 
  -1  -1 -12   12.10    1.70 
   1   1  12    5.50    4.20 
  -2  -1 -12   49.00    4.00 
  -2  -1 -12   53.49    4.30 
   2   1  12   48.70    6.70 
  -2   2  12    0.00    4.80 
  -1   2  12   35.30    8.10 
   0   2  12   73.19    9.90 
   1   2  12    3.10    3.60 
  -1   3  12   19.80    6.20 
   0   3  12   40.20    7.90 
   0   0   0    0.00    0.00 
  
_computing_structure_solution     'SHELXT 2014/5 (Sheldrick, 2014)' 
;
_shelx_hkl_checksum              57716
loop_
_space_group_symop_operation_xyz
'x, y, z'
'-x, -y, -z'
loop_
_atom_site_label
_atom_site_type_symbol
_atom_site_fract_x
_atom_site_fract_y
_atom_site_fract_z
_atom_site_U_iso_or_equiv
_atom_site_adp_type
_atom_site_occupancy
_atom_site_site_symmetry_order
_atom_site_calc_flag
_atom_site_refinement_flags_posn
_atom_site_refinement_flags_adp
_atom_site_refinement_flags_occupancy
_atom_site_disorder_assembly
_atom_site_disorder_group
S1 S 0.33503(5) 0.65704(5) 0.34331(4) 0.05308(18) Uani 1 1 d . . . . .
O1 O 0.07761(16) 0.54053(18) 0.18437(14) 0.0770(4) Uani 1 1 d . . . . .
C1 C 0.2414(2) 0.52982(19) 0.21312(15) 0.0511(4) Uani 1 1 d . . . . .
C2 C 0.3610(2) 0.42211(16) 0.14808(14) 0.0453(3) Uani 1 1 d . . . . .
C3 C 0.2808(2) 0.32640(19) 0.04350(17) 0.0569(4) Uani 1 1 d . . . . .
H3 H 0.1562 0.3338 0.0180 0.068 Uiso 1 1 calc R U . . .
C4 C 0.3844(3) 0.22211(19) -0.02138(18) 0.0637(5) Uani 1 1 d . . . . .
H4 H 0.3299 0.1584 -0.0901 0.076 Uiso 1 1 calc R U . . .
C5 C 0.5705(3) 0.21133(19) 0.01527(18) 0.0634(5) Uani 1 1 d . . . . .
H5 H 0.6403 0.1397 -0.0283 0.076 Uiso 1 1 calc R U . . .
C6 C 0.6521(2) 0.30625(18) 0.11577(17) 0.0555(4) Uani 1 1 d . . . . .
H6 H 0.7777 0.2992 0.1382 0.067 Uiso 1 1 calc R U . . .
C7 C 0.5501(2) 0.41340(16) 0.18516(14) 0.0437(3) Uani 1 1 d . . . . .
C8 C 0.64397(19) 0.50951(16) 0.28934(15) 0.0449(3) Uani 1 1 d . . . . .
H8 H 0.7693 0.4943 0.3060 0.054 Uiso 1 1 calc R U . . .
C9 C 0.56997(18) 0.61843(16) 0.36476(14) 0.0406(3) Uani 1 1 d . . . . .
C10 C 0.67494(19) 0.71635(16) 0.46856(14) 0.0417(3) Uani 1 1 d . . . . .
C11 C 0.8664(2) 0.7091(2) 0.48540(19) 0.0635(5) Uani 1 1 d . . . . .
H11 H 0.9292 0.6418 0.4310 0.076 Uiso 1 1 calc R U . . .
C12 C 0.9645(2) 0.8005(2) 0.58184(19) 0.0671(5) Uani 1 1 d . . . . .
H12 H 1.0924 0.7933 0.5907 0.081 Uiso 1 1 calc R U . . .
C13 C 0.8787(2) 0.90190(18) 0.66533(16) 0.0531(4) Uani 1 1 d . . . . .
C14 C 0.6893(2) 0.90842(19) 0.65039(17) 0.0572(4) Uani 1 1 d . . . . .
H14 H 0.6273 0.9748 0.7062 0.069 Uiso 1 1 calc R U . . .
C15 C 0.5893(2) 0.81806(18) 0.55381(17) 0.0522(4) Uani 1 1 d . . . . .
H15 H 0.4613 0.8256 0.5458 0.063 Uiso 1 1 calc R U . . .
C16 C 0.9889(3) 1.0002(2) 0.7707(2) 0.0732(5) Uani 1 1 d . . . . .
H16A H 0.9459 1.1012 0.7685 0.110 Uiso 1 1 calc R U . . .
H16B H 1.1179 1.0013 0.7496 0.110 Uiso 1 1 calc R U . . .
H16C H 0.9730 0.9605 0.8608 0.110 Uiso 1 1 calc R U . . .
loop_
_atom_site_aniso_label
_atom_site_aniso_U_11
_atom_site_aniso_U_22
_atom_site_aniso_U_33
_atom_site_aniso_U_23
_atom_site_aniso_U_13
_atom_site_aniso_U_12
S1 0.0338(2) 0.0701(3) 0.0546(3) -0.01494(18) -0.00308(16) 0.00642(17)
O1 0.0348(6) 0.1203(11) 0.0737(8) -0.0232(7) -0.0111(5) 0.0031(6)
C1 0.0358(8) 0.0701(10) 0.0465(8) -0.0030(7) -0.0026(6) -0.0037(7)
C2 0.0427(8) 0.0504(8) 0.0418(7) 0.0018(6) -0.0027(6) -0.0075(6)
C3 0.0558(9) 0.0609(10) 0.0518(9) -0.0003(7) -0.0101(7) -0.0138(7)
C4 0.0790(12) 0.0550(10) 0.0544(9) -0.0094(7) -0.0094(8) -0.0145(8)
C5 0.0779(12) 0.0506(9) 0.0610(10) -0.0129(7) 0.0009(9) 0.0023(8)
C6 0.0536(9) 0.0527(9) 0.0597(9) -0.0077(7) -0.0006(7) 0.0037(7)
C7 0.0420(7) 0.0446(7) 0.0439(7) -0.0003(6) -0.0005(6) -0.0024(6)
C8 0.0334(7) 0.0512(8) 0.0494(8) -0.0047(6) -0.0033(6) 0.0004(6)
C9 0.0332(7) 0.0476(7) 0.0405(7) -0.0002(5) -0.0005(5) -0.0020(5)
C10 0.0379(7) 0.0463(7) 0.0404(7) -0.0010(6) -0.0005(5) -0.0026(6)
C11 0.0386(8) 0.0815(12) 0.0685(11) -0.0298(9) -0.0015(7) 0.0004(8)
C12 0.0392(8) 0.0879(13) 0.0717(11) -0.0237(9) -0.0067(8) -0.0049(8)
C13 0.0574(9) 0.0491(8) 0.0510(9) -0.0035(6) -0.0096(7) -0.0063(7)
C14 0.0588(10) 0.0547(9) 0.0571(9) -0.0142(7) -0.0059(7) 0.0066(7)
C15 0.0429(8) 0.0567(9) 0.0561(9) -0.0107(7) -0.0043(6) 0.0046(6)
C16 0.0768(13) 0.0688(11) 0.0705(11) -0.0176(9) -0.0225(10) -0.0067(9)
loop_
_atom_type_symbol
_atom_type_description
_atom_type_scat_dispersion_real
_atom_type_scat_dispersion_imag
_atom_type_scat_source
C C 0.0033 0.0016 'International Tables Vol C Tables 4.2.6.8 and 6.1.1.4'
H H 0.0000 0.0000 'International Tables Vol C Tables 4.2.6.8 and 6.1.1.4'
O O 0.0106 0.0060 'International Tables Vol C Tables 4.2.6.8 and 6.1.1.4'
S S 0.1246 0.1234 'International Tables Vol C Tables 4.2.6.8 and 6.1.1.4'
loop_
_geom_angle_atom_site_label_1
_geom_angle_atom_site_label_2
_geom_angle_atom_site_label_3
_geom_angle
_geom_angle_site_symmetry_1
_geom_angle_site_symmetry_3
_geom_angle_publ_flag
C9 S1 C1 106.49(7) . . ?
O1 C1 C2 124.65(14) . . ?
O1 C1 S1 115.63(13) . . ?
C2 C1 S1 119.71(10) . . ?
C3 C2 C7 119.98(14) . . ?
C3 C2 C1 117.35(13) . . ?
C7 C2 C1 122.66(13) . . ?
C4 C3 C2 120.51(15) . . ?
C4 C3 H3 119.7 . . ?
C2 C3 H3 119.7 . . ?
C3 C4 C5 120.05(15) . . ?
C3 C4 H4 120.0 . . ?
C5 C4 H4 120.0 . . ?
C6 C5 C4 120.17(17) . . ?
C6 C5 H5 119.9 . . ?
C4 C5 H5 119.9 . . ?
C5 C6 C7 121.34(16) . . ?
C5 C6 H6 119.3 . . ?
C7 C6 H6 119.3 . . ?
C6 C7 C2 117.93(13) . . ?
C6 C7 C8 118.58(13) . . ?
C2 C7 C8 123.48(13) . . ?
C9 C8 C7 126.91(13) . . ?
C9 C8 H8 116.5 . . ?
C7 C8 H8 116.5 . . ?
C8 C9 C10 124.46(12) . . ?
C8 C9 S1 120.74(11) . . ?
C10 C9 S1 114.79(10) . . ?
C15 C10 C11 116.75(13) . . ?
C15 C10 C9 122.45(13) . . ?
C11 C10 C9 120.79(13) . . ?
C12 C11 C10 120.86(15) . . ?
C12 C11 H11 119.6 . . ?
C10 C11 H11 119.6 . . ?
C13 C12 C11 122.05(15) . . ?
C13 C12 H12 119.0 . . ?
C11 C12 H12 119.0 . . ?
C14 C13 C12 117.40(14) . . ?
C14 C13 C16 121.51(16) . . ?
C12 C13 C16 121.08(16) . . ?
C13 C14 C15 121.20(15) . . ?
C13 C14 H14 119.4 . . ?
C15 C14 H14 119.4 . . ?
C14 C15 C10 121.72(14) . . ?
C14 C15 H15 119.1 . . ?
C10 C15 H15 119.1 . . ?
C13 C16 H16A 109.5 . . ?
C13 C16 H16B 109.5 . . ?
H16A C16 H16B 109.5 . . ?
C13 C16 H16C 109.5 . . ?
H16A C16 H16C 109.5 . . ?
H16B C16 H16C 109.5 . . ?
loop_
_geom_bond_atom_site_label_1
_geom_bond_atom_site_label_2
_geom_bond_distance
_geom_bond_site_symmetry_2
_geom_bond_publ_flag
S1 C9 1.7507(14) . ?
S1 C1 1.7714(16) . ?
O1 C1 1.2137(18) . ?
C1 C2 1.461(2) . ?
C2 C3 1.402(2) . ?
C2 C7 1.405(2) . ?
C3 C4 1.369(3) . ?
C3 H3 0.9300 . ?
C4 C5 1.386(3) . ?
C4 H4 0.9300 . ?
C5 C6 1.374(2) . ?
C5 H5 0.9300 . ?
C6 C7 1.400(2) . ?
C6 H6 0.9300 . ?
C7 C8 1.4398(19) . ?
C8 C9 1.338(2) . ?
C8 H8 0.9300 . ?
C9 C10 1.4817(19) . ?
C10 C15 1.388(2) . ?
C10 C11 1.391(2) . ?
C11 C12 1.380(2) . ?
C11 H11 0.9300 . ?
C12 C13 1.377(2) . ?
C12 H12 0.9300 . ?
C13 C14 1.374(2) . ?
C13 C16 1.511(2) . ?
C14 C15 1.383(2) . ?
C14 H14 0.9300 . ?
C15 H15 0.9300 . ?
C16 H16A 0.9600 . ?
C16 H16B 0.9600 . ?
C16 H16C 0.9600 . ?
loop_
_geom_hbond_atom_site_label_D
_geom_hbond_atom_site_label_H
_geom_hbond_atom_site_label_A
_geom_hbond_distance_DH
_geom_hbond_distance_HA
_geom_hbond_distance_DA
_geom_hbond_angle_DHA
_geom_hbond_site_symmetry_A
C8 H8 O1 0.93 2.58 3.3300(19) 138.1 1_655
loop_
_geom_torsion_atom_site_label_1
_geom_torsion_atom_site_label_2
_geom_torsion_atom_site_label_3
_geom_torsion_atom_site_label_4
_geom_torsion
_geom_torsion_site_symmetry_1
_geom_torsion_site_symmetry_2
_geom_torsion_site_symmetry_3
_geom_torsion_site_symmetry_4
_geom_torsion_publ_flag
C9 S1 C1 O1 179.99(13) . . . . ?
C9 S1 C1 C2 -0.27(14) . . . . ?
O1 C1 C2 C3 1.1(2) . . . . ?
S1 C1 C2 C3 -178.58(11) . . . . ?
O1 C1 C2 C7 -179.75(15) . . . . ?
S1 C1 C2 C7 0.5(2) . . . . ?
C7 C2 C3 C4 1.2(2) . . . . ?
C1 C2 C3 C4 -179.61(14) . . . . ?
C2 C3 C4 C5 -0.6(3) . . . . ?
C3 C4 C5 C6 -0.7(3) . . . . ?
C4 C5 C6 C7 1.2(3) . . . . ?
C5 C6 C7 C2 -0.6(2) . . . . ?
C5 C6 C7 C8 -179.96(14) . . . . ?
C3 C2 C7 C6 -0.7(2) . . . . ?
C1 C2 C7 C6 -179.78(13) . . . . ?
C3 C2 C7 C8 178.70(13) . . . . ?
C1 C2 C7 C8 -0.4(2) . . . . ?
C6 C7 C8 C9 179.31(14) . . . . ?
C2 C7 C8 C9 -0.1(2) . . . . ?
C7 C8 C9 C10 -178.51(12) . . . . ?
C7 C8 C9 S1 0.3(2) . . . . ?
C1 S1 C9 C8 -0.13(15) . . . . ?
C1 S1 C9 C10 178.80(10) . . . . ?
C8 C9 C10 C15 -173.64(14) . . . . ?
S1 C9 C10 C15 7.48(19) . . . . ?
C8 C9 C10 C11 5.9(2) . . . . ?
S1 C9 C10 C11 -172.99(13) . . . . ?
C15 C10 C11 C12 -0.6(3) . . . . ?
C9 C10 C11 C12 179.86(15) . . . . ?
C10 C11 C12 C13 0.1(3) . . . . ?
C11 C12 C13 C14 0.6(3) . . . . ?
C11 C12 C13 C16 179.69(17) . . . . ?
C12 C13 C14 C15 -0.9(3) . . . . ?
C16 C13 C14 C15 -179.96(15) . . . . ?
C13 C14 C15 C10 0.4(3) . . . . ?
C11 C10 C15 C14 0.3(2) . . . . ?
C9 C10 C15 C14 179.86(13) . . . . ?
