#------------------------------------------------------------------------------
#$Date: 2021-10-06 19:16:48 +0300 (Wed, 06 Oct 2021) $
#$Revision: 269787 $
#$URL: file:///home/coder/svn-repositories/cod/cif/7/15/82/7158269.cif $
#------------------------------------------------------------------------------
#
# This file is available in the Crystallography Open Database (COD),
# http://www.crystallography.net/
#
# All data on this site have been placed in the public domain by the
# contributors.
#
data_7158269
loop_
_publ_author_name
'Al Isawi, Wisam A.'
'Salome, Austin Z.'
'Ahmed, Basil M.'
'Zeller, Matthias'
'Mezei, Gellert'
_publ_section_title
;
 Selective binding of anions by rigidified nanojars: sulfate <i>vs.</i>
 carbonate.
;
_journal_issue                   35
_journal_name_full               'Organic &amp; biomolecular chemistry'
_journal_page_first              7641
_journal_page_last               7654
_journal_paper_doi               10.1039/d1ob01318a
_journal_volume                  19
_journal_year                    2021
_chemical_formula_sum            'C10 H14 N4'
_chemical_formula_weight         190.25
_space_group_crystal_system      triclinic
_space_group_IT_number           2
_space_group_name_Hall           '-P 1'
_space_group_name_H-M_alt        'P -1'
_atom_sites_solution_hydrogens   mixed
_atom_sites_solution_primary     direct
_atom_sites_solution_secondary   difmap
_audit_creation_method           SHELXL-2018/3
_audit_update_record
;
2021-06-18 deposited with the CCDC.	2021-08-18 downloaded from the CCDC.
;
_cell_angle_alpha                71.4315(18)
_cell_angle_beta                 73.3773(17)
_cell_angle_gamma                66.8118(19)
_cell_formula_units_Z            2
_cell_length_a                   7.5321(3)
_cell_length_b                   8.0983(3)
_cell_length_c                   9.2836(4)
_cell_measurement_reflns_used    3428
_cell_measurement_temperature    150(2)
_cell_measurement_theta_max      78.7672
_cell_measurement_theta_min      5.1136
_cell_volume                     484.97(3)
_computing_cell_refinement       'SAINT V8.40A (Bruker, 2019)'
_computing_data_collection       'Apex3 v2019.1-0 (Bruker, 2019)'
_computing_data_reduction        'SAINT V8.40A (Bruker, 2019)'
_computing_structure_refinement
;  
SHELXL-2018/3 (Sheldrick, 2015, 2018), 
SHELXLE Rev1172 (H\"ubschle et al., 2011)
;
_computing_structure_solution    'SHELXS-97 (Sheldrick, 2008)'
_diffrn_ambient_temperature      150(2)
_diffrn_detector_area_resol_mean 7.4074
_diffrn_measured_fraction_theta_full 0.983
_diffrn_measured_fraction_theta_max 0.933
_diffrn_measurement_device_type
;
Bruker AXS D8 Quest diffractometer with PhotonIII_C14 charge-integrating and 
photon counting pixel array detector
;
_diffrn_measurement_method       'omega and phi scans'
_diffrn_radiation_monochromator  'laterally graded multilayer (Goebel) mirror'
_diffrn_radiation_type           CuK\a
_diffrn_radiation_wavelength     1.54178
_diffrn_reflns_av_R_equivalents  0.0293
_diffrn_reflns_av_unetI/netI     0.0367
_diffrn_reflns_Laue_measured_fraction_full 0.983
_diffrn_reflns_Laue_measured_fraction_max 0.933
_diffrn_reflns_limit_h_max       9
_diffrn_reflns_limit_h_min       -7
_diffrn_reflns_limit_k_max       10
_diffrn_reflns_limit_k_min       -6
_diffrn_reflns_limit_l_max       11
_diffrn_reflns_limit_l_min       -11
_diffrn_reflns_number            4616
_diffrn_reflns_point_group_measured_fraction_full 0.983
_diffrn_reflns_point_group_measured_fraction_max 0.933
_diffrn_reflns_theta_full        67.679
_diffrn_reflns_theta_max         78.756
_diffrn_reflns_theta_min         5.113
_diffrn_source                   'I-mu-S microsource X-ray tube'
_diffrn_source_current           '1.0 mA'
_diffrn_source_voltage           '50 kV'
_exptl_absorpt_coefficient_mu    0.660
_exptl_absorpt_correction_T_max  0.7542
_exptl_absorpt_correction_T_min  0.6667
_exptl_absorpt_correction_type   multi-scan
_exptl_absorpt_process_details
;
 SADABS 2016/2: Krause, L., Herbst-Irmer, R., Sheldrick G.M. & Stalke D.,
 J. Appl. Cryst. 48 (2015) 3-10
;
_exptl_crystal_colour            colourless
_exptl_crystal_density_diffrn    1.303
_exptl_crystal_description       plate
_exptl_crystal_F_000             204
_exptl_crystal_recrystallization_method
'Re-crystallisation from solvent: Pentane, Chloroform'
_exptl_crystal_size_max          0.220
_exptl_crystal_size_mid          0.190
_exptl_crystal_size_min          0.060
_refine_diff_density_max         0.268
_refine_diff_density_min         -0.216
_refine_diff_density_rms         0.047
_refine_ls_extinction_method     none
_refine_ls_goodness_of_fit_ref   1.126
_refine_ls_hydrogen_treatment    mixed
_refine_ls_matrix_type           full
_refine_ls_number_parameters     133
_refine_ls_number_reflns         1952
_refine_ls_number_restraints     0
_refine_ls_restrained_S_all      1.126
_refine_ls_R_factor_all          0.0492
_refine_ls_R_factor_gt           0.0459
_refine_ls_shift/su_max          0.000
_refine_ls_shift/su_mean         0.000
_refine_ls_structure_factor_coef Fsqd
_refine_ls_weighting_details
'w=1/[\s^2^(Fo^2^)+(0.0673P)^2^+0.1693P] where P=(Fo^2^+2Fc^2^)/3'
_refine_ls_weighting_scheme      calc
_refine_ls_wR_factor_gt          0.1321
_refine_ls_wR_factor_ref         0.1352
_reflns_Friedel_coverage         0.000
_reflns_number_gt                1780
_reflns_number_total             1952
_reflns_threshold_expression     'I > 2\s(I)'
_cod_data_source_file            d1ob01318a2.cif
_cod_data_source_block           Mezei_3_0m
_cod_depositor_comments
'Adding full bibliography for 7158269--7158271.cif.'
_cod_database_code               7158269
_shelx_shelxl_version_number     2018/3
_shelx_space_group_comment
;
The symmetry employed for this shelxl refinement is uniquely defined
by the following loop, which should always be used as a source of
symmetry information in preference to the above space-group names.
They are only intended as comments.
;
_shelx_estimated_absorpt_t_min   0.868
_shelx_estimated_absorpt_t_max   0.961
_shelx_res_file
;
TITL Mezei_3_0m_a.res in P-1
    Mezei_3_0m.res
    created by SHELXL-2018/3 at 13:26:05 on 17-Nov-2020
REM Old TITL Mezei_3_0m in P-1
REM SHELXT solution in P-1
REM R1 0.131,  Rweak 0.006,  Alpha 0.070,  Orientation as input
REM Formula found by SHELXT:  C10 N4
CELL  1.54178   7.5321    8.0983    9.2836   71.4315   73.3773   66.8118
ZERR    2.000   0.0003    0.0003    0.0004    0.0018    0.0017    0.0019
LATT  1
SFAC C H N
UNIT 20 28 8
TEMP -123.150
SIZE 0.06 0.19 0.22

L.S. 10
BOND $H
ACTA
CONF

HTAB
EQIV $1 -x+1, -y+2, -z+2
HTAB N1 N2_$1
EQIV $2 x+1, y, z+1
HTAB N1 N3_$2
EQIV $3 x, y, z-1
HTAB N4 N2_$3

LIST 6
FMAP 2
PLAN 20
WGHT    0.067300    0.169300
FVAR       2.29353
N1    3    0.670106    0.810243    0.969809    11.00000    0.02884    0.02977 =
         0.02644   -0.00681   -0.01267   -0.01097
REM AFIX 43
H1N   2    0.674358    0.886601    1.021988    11.00000   -1.20000
REM AFIX 0
N2    3    0.496331    0.828610    0.939232    11.00000    0.02348    0.03191 =
         0.02414   -0.00920   -0.00956   -0.00718
N3    3   -0.067307    0.843080    0.146353    11.00000    0.02759    0.03564 =
         0.02554   -0.00414   -0.01202   -0.01290
N4    3    0.099301    0.846816    0.171367    11.00000    0.02623    0.03363 =
         0.02003   -0.00435   -0.00635   -0.01442
REM AFIX 43
H4N   2    0.192163    0.872179    0.093290    11.00000   -1.20000
REM AFIX 0
C1    1    0.822156    0.686744    0.901910    11.00000    0.02291    0.03016 =
         0.02603   -0.00090   -0.00996   -0.00917
AFIX  43
H1    2    0.956656    0.653360    0.906415    11.00000   -1.20000
AFIX   0
C2    1    0.747392    0.617584    0.824748    11.00000    0.02502    0.02687 =
         0.02366   -0.00578   -0.00574   -0.00730
AFIX  43
H2    2    0.818236    0.526722    0.766086    11.00000   -1.20000
AFIX   0
C3    1    0.543291    0.709977    0.851032    11.00000    0.02469    0.02675 =
         0.01741   -0.00438   -0.00653   -0.00982
C4    1    0.387815    0.693028    0.792022    11.00000    0.02524    0.03340 =
         0.02074   -0.00612   -0.00533   -0.01253
AFIX  23
H4A   2    0.258230    0.776684    0.831748    11.00000   -1.20000
H4B   2    0.385198    0.564996    0.832139    11.00000   -1.20000
AFIX   0
C5    1    0.421187    0.740408    0.614877    11.00000    0.02433    0.03165 =
         0.02076   -0.00658   -0.00592   -0.01116
AFIX  23
H5A   2    0.435366    0.864267    0.574325    11.00000   -1.20000
H5B   2    0.545198    0.649871    0.575435    11.00000   -1.20000
AFIX   0
C6    1    0.253497    0.738992    0.555378    11.00000    0.02490    0.03247 =
         0.02144   -0.00593   -0.00701   -0.01165
AFIX  23
H6A   2    0.128452    0.823404    0.600592    11.00000   -1.20000
H6B   2    0.244925    0.612955    0.590759    11.00000   -1.20000
AFIX   0
C7    1    0.278080    0.797802    0.378866    11.00000    0.02523    0.03518 =
         0.02269   -0.00605   -0.00646   -0.01378
AFIX  23
H7A   2    0.291738    0.921900    0.342840    11.00000   -1.20000
H7B   2    0.400134    0.710378    0.333429    11.00000   -1.20000
AFIX   0
C8    1    0.108190    0.802807    0.322969    11.00000    0.02394    0.02640 =
         0.01966   -0.00550   -0.00718   -0.00822
C9    1   -0.063137    0.767314    0.401990    11.00000    0.02568    0.03957 =
         0.02066   -0.00460   -0.00551   -0.01494
AFIX  43
H9    2   -0.103279    0.732018    0.510771    11.00000   -1.20000
AFIX   0
C10   1   -0.164929    0.794543    0.287286    11.00000    0.02216    0.04016 =
         0.02763   -0.00508   -0.00818   -0.01270
AFIX  43
H10   2   -0.289605    0.779947    0.307967    11.00000   -1.20000
AFIX   0
HKLF 4




REM  Mezei_3_0m_a.res in P-1
REM wR2 = 0.1352, GooF = S = 1.126, Restrained GooF = 1.126 for all data
REM R1 = 0.0459 for 1780 Fo > 4sig(Fo) and 0.0492 for all 1952 data
REM 133 parameters refined using 0 restraints

END

WGHT      0.0674      0.1692

REM Instructions for potential hydrogen bonds
HTAB N1 N2_$1
HTAB N1 N3_$2
HTAB N4 N2_$3

REM Highest difference peak  0.268,  deepest hole -0.216,  1-sigma level  0.047
Q1    1   0.3980  0.7395  0.7035  11.00000  0.05    0.27
Q2    1   0.2693  0.7649  0.4698  11.00000  0.05    0.24
Q3    1   0.0540  0.7497  0.3777  11.00000  0.05    0.23
Q4    1   0.0049  0.8273  0.3771  11.00000  0.05    0.22
Q5    1   0.1889  0.7857  0.3629  11.00000  0.05    0.21
Q6    1   0.6396  0.6642  0.8233  11.00000  0.05    0.20
Q7    1  -0.1033  0.7404  0.3468  11.00000  0.05    0.17
Q8    1   0.1137  0.8049  0.2654  11.00000  0.05    0.17
Q9    1   0.3739  0.9017  0.9719  11.00000  0.05    0.17
Q10   1  -0.1499  0.8678  0.4880  11.00000  0.05    0.16
Q11   1   0.1638  0.6082  0.6238  11.00000  0.05    0.15
Q12   1   0.4933  0.7140  0.7545  11.00000  0.05    0.15
Q13   1   0.7153  0.8043  0.7345  11.00000  0.05    0.15
Q14   1   0.4809  0.6968  0.8024  11.00000  0.05    0.15
Q15   1  -0.0787  0.8375  0.0246  11.00000  0.05    0.14
Q16   1   0.5292  0.7216  0.5559  11.00000  0.05    0.14
Q17   1  -0.2122  0.6992  0.2226  11.00000  0.05    0.14
Q18   1   0.1987  0.6767  0.1130  11.00000  0.05    0.14
Q19   1   0.3364  0.7189  0.5912  11.00000  0.05    0.14
Q20   1   0.5879  0.7390  1.0760  11.00000  0.05    0.14
;
_shelx_res_checksum              12932
_shelx_hkl_file
;
  -1   0   0 3.25808 0.75569   6
  -1   0   0 2.67081 1.32527   1
   1   0   0 2.68182 0.39203   2
   1   0   0 2.42476 0.77672   8
   1   0   0 3.11500 1.41970   1
  -2   0   0 5.15217 3.08122   1
  -2   0   0 5.62003 1.43140   6
   2   0   0 6.46291 3.15334   1
   2   0   0 7.23498 0.90535   2
  -3   0   0 584.795 28.1249   6
  -3   0   0 589.032 32.8747   1
   3   0   0 575.891 26.3020   2
   3   0   0 593.589 33.5330   1
  -4   0   0 11.2044 2.75809   6
   4   0   0 10.1136 1.86075   5
   4   0   0 9.31302 2.00651   2
  -5   0   0 683.914 33.3746   6
   5   0   0 614.826 30.0220   5
   5   0   0 618.817 29.7656   4
  -6   0   0 315.280 19.9266   6
   6   0   0 307.877 16.4547   5
   6   0   0 331.159 17.7059   9
   7   0   0 13.8739 2.92324   9
   7   0   0 14.9306 2.42835   5
   8   0   0 -0.0477 0.54638   5
   8  -1   0 31.6994 2.02959   5
   7  -1   0 778.871 31.9260   5
   7  -1   0 587.403 31.3845   9
   6  -1   0 181.306 10.5426   5
  -6   1   0 182.022 13.5353   6
  -6   1   0 171.495 10.9835   5
   5  -1   0 610.901 29.7993   5
  -5   1   0 611.078 32.6109   6
  -5   1   0 638.323 30.5427   5
   4  -1   0 14.3445 2.45147   5
  -4   1   0 12.9414 3.17193   6
   3  -1   0 3.26494 9.14702   1
  -3   1   0 -5.1254 8.35959   1
  -3   1   0 0.83308 1.23062   6
   2  -1   0 2991.46 133.341   1
  -2   1   0 2751.64 128.261   6
  -2   1   0 3028.53 133.008   1
   1  -1   0 523.644 26.0101   1
   1  -1   0 486.837 23.3270   8
  -1   1   0 515.526 25.8533   1
  -1   1   0 512.055 23.2423   6
   0  -1   0 1248.44 53.6493   1
   0  -1   0 1157.51 52.1920   8
   0   1   0 1197.27 53.5463   1
  -1  -1   0 884.401 39.7887   2
   1   1   0 913.921 39.9010   1
   1   1   0 930.551 40.0216   1
  -2  -1   0 187.874 8.91212   2
  -2  -1   0 197.396 11.0335   1
   2   1   0 194.620 8.98274   2
   2   1   0 199.637 11.2628   1
  -3  -1   0 3.65281 3.81262   1
  -3  -1   0 1.59731 1.09752   6
   3   1   0 1.11506 4.30897   1
   3   1   0 1.09033 0.61024   2
  -4  -1   0 293.957 16.3533   6
  -5  -1   0 402.767 21.9544   6
   5   1   0 369.185 19.1636   4
   5   1   0 377.759 18.9690   5
   5   1   0 410.281 20.5179   9
  -6  -1   0 77.4239 8.50896   6
   6   1   0 88.7319 5.94317   5
   6   1   0 92.8349 7.19294   9
   6   1   0 80.5143 5.90148   4
   7   1   0 1985.19 86.5623   4
   7   1   0 1869.12 87.4558   9
   7   1   0 1998.90 86.5820   5
   8   1   0 2.62427 0.65135   5
   7  -2   0 41.4032 3.27832   5
  -7   2   0 38.4485 3.40996   5
   6  -2   0 492.760 23.8617   5
  -6   2   0 421.600 26.4328   6
  -6   2   0 519.000 24.4355   5
   5  -2   0 0.23204 1.17306   5
  -5   2   0 -0.1941 3.22687   6
  -5   2   0 2.56445 1.54431   5
   4  -2   0 216.239 12.2872   5
  -4   2   0 217.557 13.9880   6
  -4   2   0 222.159 12.5199   5
   3  -2   0 498.062 40.3650   1
  -3   2   0 431.452 37.1753   1
  -3   2   0 437.171 22.9618   6
   2  -2   0 1219.42 61.5207   1
  -2   2   0 1152.09 53.9190   6
  -2   2   0 1198.22 60.7372   1
   1  -2   0 159.311 14.8034   1
  -1   2   0 153.325 12.1143   1
  -1   2   0 141.868 8.04417   6
  -1  -2   0 1091.03 48.1771   1
   1   2   0 1088.49 48.4298   1
  -2  -2   0 731.511 33.3010   2
   2   2   0 764.925 33.1539   1
  -3  -2   0 0.19735 0.52591   2
   3   2   0 1.61214 3.14530   1
  -4  -2   0 76.8806 6.27779   6
  -5  -2   0 766.013 38.4051   6
   5   2   0 729.547 35.8606   4
   5   2   0 806.165 37.0103   9
   5   2   0 819.460 36.8678   7
   5   2   0 725.327 34.9439   5
  -6  -2   0 74.5995 8.10592   6
   6   2   0 76.2095 5.81979   4
   6   2   0 78.5661 5.15031   5
   6   2   0 78.6899 6.58644   9
  -7  -2   0 104.097 10.8194   6
   7   2   0 123.088 6.50435   5
   7   2   0 112.338 7.26773   4
   7   2   0 108.203 7.78549   9
   8   2   0 0.74730 1.08350   4
   7  -3   0 105.724 5.67415   5
   6  -3   0 29.8338 3.48551   5
  -6   3   0 24.9887 3.20341   5
   5  -3   0 1689.86 74.4345   5
  -5   3   0 1606.65 77.4348   6
  -5   3   0 1628.59 74.5595   5
   4  -3   0 39.0755 4.04500   5
  -4   3   0 34.5489 3.94358   5
  -4   3   0 38.3240 6.26083   6
   3  -3   0 184.992 10.8198   5
  -3   3   0 185.134 10.8567   5
  -3   3   0 197.193 12.2551   6
   2  -3   0 934.979 57.7972   1
  -2   3   0 963.661 43.4071   6
  -2   3   0 889.601 42.1673   5
  -2   3   0 892.412 54.2774   1
   1  -3   0 250.867 21.4061   1
  -1   3   0 273.052 13.9211   6
  -1   3   0 253.386 20.6223   1
   0  -3   0 3738.15 161.849   1
   0   3   0 3477.54 161.568   1
  -1  -3   0 3533.16 153.507   1
   1   3   0 3449.34 153.896   1
  -2  -3   0 69.2471 5.00939   2
  -3  -3   0 501.266 23.2165   2
   4   3   0 164.031 9.56665   7
   4   3   0 159.579 9.25079   4
  -5  -3   0 1109.18 52.6999   6
   5   3   0 1070.02 50.5306   7
   5   3   0 1067.98 50.0960   4
   5   3   0 1114.71 50.8572   9
  -6  -3   0 3.43836 2.81240   6
   6   3   0 -0.1801 1.15955   4
   6   3   0 0.65735 1.56526   9
   6   3   0 3.48500 0.92983   5
   6   3   0 2.02877 1.52026   7
  -7  -3   0 1358.72 69.5869   6
   7   3   0 1498.50 65.8472   4
   7   3   0 1476.49 66.1040   9
   8   3   0 42.4372 3.48999   4
   6  -4   0 232.070 13.0097   5
  -6   4   0 316.258 15.0012   5
   5  -4   0 114.665 7.35529   5
  -5   4   0 112.232 7.48262   5
   4  -4   0 74.5709 6.41863   5
  -4   4   0 68.0748 7.48586   6
   3  -4   0 -0.1749 1.35758   5
  -3   4   0 1.08123 2.33463   6
  -3   4   0 -1.4229 0.88127   5
   2  -4   0 251.453 14.3104   5
  -2   4   0 272.774 14.9939   3
  -2   4   0 276.267 14.2843   5
  -1   4   0 218.439 12.4815   6
  -1   4   0 208.558 12.2289   3
   0  -4   0 94.2402 12.8223   1
   0   4   0 100.903 13.9300   1
   0   4   0 100.527 6.80901   6
  -1  -4   0 111.363 10.9203   1
   1   4   0 104.635 11.5983   1
  -2  -4   0 979.136 45.0120   2
  -3  -4   0 14.6735 2.37980   2
   3   4   0 18.1629 2.38122   7
  -4  -4   0 134.303 8.12000   2
   4   4   0 136.186 8.53639   7
   4   4   0 138.104 8.87064   9
   4   4   0 126.850 8.18742   4
  -5  -4   0 20.0335 4.40490   6
   5   4   0 15.6976 2.73710   9
   5   4   0 19.3632 2.68218   4
   5   4   0 18.0010 3.21258   7
  -6  -4   0 443.077 25.7936   6
   6   4   0 359.315 19.9973   7
   6   4   0 375.145 19.7462   4
   6   4   0 363.520 19.8647   9
  -7  -4   0 209.870 16.2228   6
   7   4   0 227.742 13.1904   7
   7   4   0 218.295 12.6413   9
   7   4   0 232.838 12.8028   4
   8   4   0 -0.4694 0.89036   4
   5  -5   0 596.859 26.8620   5
  -5   5   0 481.608 24.8950   5
   4  -5   0 27.4244 4.96606   5
  -4   5   0 27.7492 3.23174   5
  -4   5   0 21.1892 3.72955  10
   3  -5   0 184.748 10.9585   5
  -3   5   0 197.039 10.4911  10
  -3   5   0 191.123 11.1423   5
  -3   5   0 155.476 12.6735   6
  -2   5   0 1.03302 2.82133   6
  -2   5   0 -0.1415 1.03934   5
  -2   5   0 0.36722 1.19907  10
  -1   5   0 8.57660 2.35391  10
  -1   5   0 7.38332 3.04749   6
  -1   5   0 4.48907 1.94459   3
   0  -5   0 524.501 27.4952   2
   0   5   0 516.459 25.2442  10
   0   5   0 564.695 27.0134   3
   0   5   0 510.942 24.7274   5
  -1  -5   0 1074.88 51.5503   2
   1   5   0 1057.61 48.6443   5
   1   5   0 1115.20 50.5648   7
   1   5   0 1128.29 51.4002   3
  -2  -5   0 1126.68 50.5624   2
   2   5   0 1044.14 49.5462   7
   2   5   0 1074.11 50.3954   3
   2   5   0 1062.39 50.1218   9
  -3  -5   0 83.0916 6.95584   2
   3   5   0 84.3379 6.44639   7
   3   5   0 92.2299 6.95720   9
   3   5   0 93.2911 6.19567   4
   3   5   0 93.0238 7.00529   3
  -4  -5   0 15.0268 3.38138   2
   4   5   0 18.6470 3.00441   9
   4   5   0 16.0769 3.19500   3
   4   5   0 20.1406 2.89832   7
   4   5   0 17.4106 2.52719   4
   5   5   0 460.493 23.4783   7
   5   5   0 459.506 23.1028   4
   5   5   0 449.071 23.6119   9
  -6  -5   0 55.1569 8.25548   6
   6   5   0 45.9773 5.20349   7
   6   5   0 45.4778 4.62453   4
   6   5   0 39.6708 4.53173   9
   7   5   0 14.2093 2.71200   4
   7   5   0 14.6469 2.58599   9
   7   5   0 12.1821 2.59693   7
   8   5   0 160.766 8.92484   4
  -4   6   0 13.8240 1.97712   5
  -3   6   0 73.0018 5.34168   5
  -2   6   0 1.85851 1.32962  10
  -2   6   0 0.94130 1.05921   5
  -1   6   0 155.497 9.01793   5
  -1   6   0 154.251 10.4801   3
  -1   6   0 154.072 9.28127  10
   0   6   0 355.201 19.5686   3
   0   6   0 347.198 17.1500   5
   1   6   0 19.2392 3.43461   7
   1   6   0 15.9433 3.50857   3
  -2  -6   0 388.703 23.5128   2
   2   6   0 438.370 22.1763   7
   2   6   0 438.923 22.9542   3
  -3  -6   0 117.017 13.5658   2
   3   6   0 100.676 7.85390   3
   3   6   0 103.500 7.50859   7
   3   6   0 92.8269 6.56857   4
   3   6   0 100.260 7.84273   9
   4   6   0 209.928 12.4329   4
   4   6   0 226.123 13.3820   7
   4   6   0 239.912 13.8650   9
   4   6   0 230.967 13.6883   3
   5   6   0 101.160 7.61425   9
   5   6   0 94.7210 7.13228   3
   5   6   0 93.7649 7.29209   7
   5   6   0 95.8306 6.94514   4
   6   6   0 -0.4559 1.00297   9
   6   6   0 2.88904 1.59446   4
   6   6   0 1.53689 1.43647   7
   7   6   0 32.1539 3.40695   4
   7   6   0 21.3385 2.92232   9
   7   6   0 30.6916 3.43103   7
   8   6   0 10.6661 1.75183   4
  -3   7   0 26.4820 2.64670   7
  -3   7   0 26.9896 2.22195   5
  -2   7   0 66.7952 5.97076   7
  -2   7   0 57.9778 4.84913   5
  -1   7   0 15.9819 2.07873   5
  -1   7   0 14.7811 2.92106   7
   0   7   0 29.7334 4.03819   3
   0   7   0 30.2687 3.85421   7
   0   7   0 28.2574 2.57010   5
   2   7   0 534.830 26.8336   7
   2   7   0 513.777 27.3834   3
   3   7   0 7.38615 2.43070   3
   3   7   0 9.35155 2.65322   7
   4   7   0 48.5409 4.33873   4
   4   7   0 57.3197 5.52787   3
   4   7   0 60.5342 5.45164   7
   5   7   0 56.2915 5.11359   3
   5   7   0 58.3689 4.72706   4
   5   7   0 57.7727 5.40409   9
   5   7   0 65.0615 5.51415   7
   6   7   0 101.496 6.67330   4
   6   7   0 105.818 7.31941   7
   7   7   0 420.328 21.5616   7
   7   7   0 472.255 21.3411   4
   8   7   0 9.45466 1.22272   4
  -2   8   0 10.5399 1.34589   7
  -1   8   0 4.23573 1.26878   7
   0   8   0 89.7160 7.58547   7
   1   8   0 30.3039 3.62023   7
   1   8   0 36.5731 4.11350   3
   2   8   0 0.93205 1.24469   3
   2   8   0 0.60056 1.18616   7
   3   8   0 73.7234 6.01786   7
   3   8   0 75.6986 6.42267   3
   4   8   0 72.2538 5.93727   3
   4   8   0 68.7980 5.69469   7
   5   8   0 6.32420 1.82933   7
   6   8   0 183.343 8.79736   4
   6   8   0 167.065 9.69663   7
   7   8   0 1.28893 0.73046   7
   0   9   0 70.1222 4.13682   7
   1   9   0 76.0929 5.56418   7
   2   9   0 43.2892 3.59176   7
   3   9   0 0.60794 0.79097   7
   4   9   0 221.024 11.5139   7
   5   9   0 6.74063 1.37883   7
   5   9  -1 0.16794 0.50373   7
   4   9  -1 27.9511 2.47041   7
   3   9  -1 0.14478 0.78921   7
   2   9  -1 76.0025 5.49184   7
   1   9  -1 6.74677 1.28709   7
   6   8  -1 1.59412 1.02129   7
   5   8  -1 119.652 7.51447   7
   4   8  -1 23.3897 3.49134   7
   3   8  -1 116.300 7.97981   7
   2   8  -1 57.4029 5.05202   7
   1   8  -1 24.8077 3.53847   7
   0   8  -1 18.1214 2.49801   7
  -1   8  -1 3.76623 1.30046   7
  -2   8  -1 0.56338 0.58036   7
   7   7  -1 90.6836 5.85641   7
   7   7  -1 102.285 6.37517   4
   6   7  -1 28.8135 3.29289   7
   6   7  -1 28.6329 2.93448   4
   5   7  -1 12.5783 2.21590   4
   5   7  -1 11.7458 2.45578   7
   4   7  -1 410.022 21.6277   3
   4   7  -1 441.329 21.8506   7
   4   7  -1 388.049 19.9911   4
   3   7  -1 57.3917 5.74570   3
   3   7  -1 59.5339 5.52039   7
   2   7  -1 208.148 12.5711   7
   2   7  -1 195.264 12.8356   3
   1   7  -1 53.0925 5.74160   3
   1   7  -1 61.2755 5.63634   7
   0   7  -1 26.9813 3.60128   7
   0   7  -1 21.3335 2.10687   5
  -1   7  -1 13.1609 2.72193   7
  -1   7  -1 14.0275 1.86642   5
  -2   7  -1 108.535 5.99237   5
  -2   7  -1 108.479 7.21817   7
  -3   7  -1 7.83102 1.54158   7
  -3   7  -1 12.6620 1.45404   5
   8   6  -1 0.56301 0.75267   4
   7   6  -1 108.695 7.12757   7
   7   6  -1 107.458 6.83171   4
   6   6  -1 64.3532 5.60136   7
   6   6  -1 68.8406 5.48428   4
   5   6  -1 20.8441 3.14699   7
   5   6  -1 14.9097 2.91765   9
   5   6  -1 18.4496 3.27761   4
   4   6  -1 2.58440 1.68993   3
   4   6  -1 0.39358 1.30641   4
   4   6  -1 3.20457 1.66814   7
   4   6  -1 4.61766 1.97238   9
   3   6  -1 323.590 17.3622   4
   3   6  -1 360.534 18.7926   7
   3   6  -1 346.016 19.0304   3
   2   6  -1 216.052 12.6929   7
   2   6  -1 197.084 12.9082   3
   1   6  -1 23.5366 2.36398   5
   1   6  -1 25.9390 3.67574   7
   1   6  -1 25.1794 3.79335   3
   0   6  -1 170.952 10.8697   7
   0   6  -1 161.029 11.0722   3
   0   6  -1 160.722 8.94155   5
  -1   6  -1 -0.3588 0.82072   5
  -2   6  -1 57.2811 4.63364   5
  -3   6  -1 11.1509 2.13006   5
  -4   6  -1 280.318 13.6812   5
   8   5  -1 3.63273 1.12932   4
   7   5  -1 373.266 19.3179   7
   7   5  -1 371.898 18.9452   4
   6   5  -1 5.40216 1.96971   4
   6   5  -1 2.18999 1.73473   9
   6   5  -1 2.68523 1.67634   7
  -6  -5   1 4.69204 5.27776   6
   5   5  -1 132.762 8.75411   4
   5   5  -1 129.155 8.94195   7
   5   5  -1 125.892 8.62669   9
   4   5  -1 497.383 26.0190   4
   4   5  -1 542.288 27.8134   9
   4   5  -1 549.037 26.8558   7
   4   5  -1 537.067 26.9417   3
   3   5  -1 159.634 10.0514   9
   3   5  -1 139.259 9.04024   4
   3   5  -1 166.454 10.2159   3
   3   5  -1 152.044 9.70656   7
  -3  -5   1 151.978 10.4136   2
   2   5  -1 53.9373 5.33409   3
   2   5  -1 60.0450 5.04770   4
   2   5  -1 62.3884 5.13452   7
   2   5  -1 62.3244 5.43932   9
  -2  -5   1 64.6364 6.12952   2
   1   5  -1 1.64758 1.35906   7
   1   5  -1 2.63397 1.38753   3
   1   5  -1 1.68869 0.84892   5
  -1  -5   1 0.40675 2.24724   2
   0   5  -1 31.7333 3.98022   3
   0   5  -1 27.7395 2.82561   5
   0  -5   1 23.5214 4.53536   2
  -1   5  -1 135.648 8.31837  10
  -1   5  -1 143.453 9.80822   3
  -1   5  -1 143.307 8.31944   5
   1  -5   1 131.400 14.7080   2
  -2   5  -1 64.1032 5.09074   5
  -2   5  -1 64.8138 4.93493  10
  -2   5  -1 54.0850 7.01851   6
  -3   5  -1 61.7629 7.86577   6
  -3   5  -1 63.7696 5.17998   5
   3  -5   1 56.2816 5.15073   5
  -4   5  -1 331.992 17.1738   5
   4  -5   1 340.385 17.2231   5
  -5   5  -1 29.5716 2.76671   5
   5  -5   1 25.9841 2.49770   5
   8   4  -1 67.7327 4.56808   4
   7   4  -1 113.314 7.41453   4
   7   4  -1 104.548 7.66920   7
   6   4  -1 8.67872 2.35348   9
   6   4  -1 5.93962 2.06225   4
   6   4  -1 5.69425 2.13523   7
  -6  -4   1 10.2383 4.77038   6
   5   4  -1 14.2101 2.91463   7
   5   4  -1 11.9880 2.83177   4
   4   4  -1 2.35116 1.22584   7
   4   4  -1 -0.7292 1.14828   9
   4   4  -1 -0.6028 1.04131   4
   3   4  -1 224.413 12.2155   7
   3   4  -1 217.923 12.3992   9
  -3  -4   1 205.729 12.0311   2
   2   4  -1 141.432 8.61904   7
  -2  -4   1 150.736 9.09471   2
   1   4  -1 31.7418 9.15700   1
  -1  -4   1 25.9173 3.57841   2
  -1  -4   1 33.8892 7.13389   1
   0   4  -1 99.6485 7.06773   3
   0   4  -1 100.117 7.66640   5
   0   4  -1 60.0698 14.9568   1
  -1   4  -1 289.383 15.6404   3
  -1   4  -1 271.052 14.6321  10
  -1   4  -1 307.545 16.2167   6
  -1   4  -1 272.146 14.2004   5
   1  -4   1 266.523 15.7883   2
  -2   4  -1 283.255 14.7577  10
  -2   4  -1 316.159 17.2645   6
  -2   4  -1 281.408 15.1467   5
   2  -4   1 275.942 16.7669   2
   2  -4   1 307.881 17.4550   5
  -3   4  -1 68.0264 7.06919   6
  -3   4  -1 65.4582 5.41518   5
  -3   4  -1 66.4733 4.91423  10
   3  -4   1 66.2843 5.46769   5
  -4   4  -1 1081.36 53.8020   6
  -4   4  -1 1078.09 49.7148  10
  -4   4  -1 1168.61 51.3643   5
   4  -4   1 1090.77 50.9485   5
  -5   4  -1 90.1395 6.28248   5
   5  -4   1 87.7408 6.07211   5
  -6   4  -1 44.7555 3.96853   5
   6  -4   1 37.5395 3.44320   5
   8   3  -1 16.3880 2.03271   4
   7   3  -1 849.184 39.6671   4
   6   3  -1 68.6836 6.10313   7
   6   3  -1 72.5939 5.88748   9
   6   3  -1 68.2162 5.63415   4
   6   3  -1 66.0799 3.91311   5
  -6  -3   1 66.7327 8.43135   6
   5   3  -1 454.130 23.1857   7
   5   3  -1 449.609 20.9020   5
   5   3  -1 447.904 22.7713   4
   5   3  -1 460.346 22.9960   9
  -5  -3   1 455.710 25.5205   6
   4   3  -1 493.938 24.4999   4
   4   3  -1 504.921 24.7669   7
  -4  -3   1 511.071 24.1405   2
   3   3  -1 442.918 25.4614   1
  -3  -3   1 516.690 23.0249   2
   2   3  -1 2391.98 102.886   1
   2   3  -1 2142.89 102.277   1
  -2  -3   1 2397.08 101.998   2
   1   3  -1 4076.51 180.536   1
  -1  -3   1 4029.32 179.353   1
  -1  -3   1 4092.29 178.013   2
   0   3  -1 145.622 13.6261   1
   0   3  -1 135.960 8.21956   6
   0  -3   1 139.134 8.18906   2
   0  -3   1 134.284 12.1251   1
  -1   3  -1 430.276 20.8530   6
  -1   3  -1 374.223 28.1080   1
   1  -3   1 423.386 29.1498   1
  -2   3  -1 546.510 27.1945   5
  -2   3  -1 613.379 28.8103   6
  -3   3  -1 6.20420 1.89063   5
  -3   3  -1 8.94659 2.83497   6
   3  -3   1 6.14597 2.82768   2
   3  -3   1 5.25797 1.90076   5
  -4   3  -1 306.957 16.4095   5
  -4   3  -1 305.133 18.4060   6
   4  -3   1 296.329 16.1273   5
  -5   3  -1 7.33622 2.10455   5
  -5   3  -1 8.37584 4.01652   6
   5  -3   1 6.56714 2.01526   5
  -6   3  -1 0.39454 1.11542   5
   6  -3   1 0.18810 1.21127   5
   7  -3   1 11.9647 1.50343   5
   8   2  -1 136.308 7.95101   4
   7   2  -1 42.2389 3.88047   4
   7   2  -1 43.5491 3.07897   5
  -7  -2   1 37.0967 7.16172   6
   6   2  -1 90.0838 6.56593   4
   6   2  -1 91.1779 5.70613   5
   6   2  -1 85.2537 7.03773   7
   5   2  -1 238.504 12.4260   5
   5   2  -1 253.133 13.9912   7
   5   2  -1 240.972 13.7985   9
   5   2  -1 238.888 13.2940   4
  -5  -2   1 252.751 15.8200   6
   4   2  -1 108.358 14.7153   1
   4   2  -1 105.238 6.88750   4
   4   2  -1 111.626 7.25823   7
  -4  -2   1 104.870 6.50074   2
   3   2  -1 160.753 13.0422   1
   3   2  -1 169.162 11.4522   1
  -3  -2   1 147.914 8.30850   2
   2   2  -1 150.799 9.76435   1
   2   2  -1 155.714 9.46728   1
  -2  -2   1 151.935 7.95708   2
   1   2  -1 3.42691 2.35086   1
  -1  -2   1 6.40207 2.03946   1
  -1  -2   1 5.17605 1.05737   2
   0   2  -1 8097.53 359.433   1
   0  -2   1 8323.92 358.884   1
  -1   2  -1 508.051 23.4535   6
  -1   2  -1 475.482 27.7693   1
   1  -2   1 487.739 27.7160   1
  -2   2  -1 311.867 24.5993   1
  -2   2  -1 319.876 16.4592   6
   2  -2   1 311.646 23.7575   1
  -3   2  -1 180.527 25.1989   1
  -3   2  -1 177.555 10.8320   5
  -3   2  -1 191.387 11.6016   6
   3  -2   1 223.863 26.7776   1
  -4   2  -1 1040.97 48.4193   6
  -4   2  -1 974.924 46.1379   5
   4  -2   1 972.350 45.8950   5
  -5   2  -1 -2.9760 3.48613   6
  -5   2  -1 0.74399 1.44640   5
   5  -2   1 2.67492 1.42629   5
  -6   2  -1 331.797 16.7824   5
  -6   2  -1 268.212 19.0530   6
   6  -2   1 313.259 16.1268   5
  -7   2  -1 67.2435 4.68984   5
   7  -2   1 51.0138 4.38140   9
   7  -2   1 77.3021 4.59573   5
   7   1  -1 123.472 7.20419   5
   6   1  -1 157.810 8.84875   5
   6   1  -1 135.700 8.68222   4
  -6  -1   1 147.203 12.1931   6
   5   1  -1 0.66364 2.20189   9
   5   1  -1 0.26511 1.07773   4
   5   1  -1 -0.2261 0.87848   5
   5   1  -1 -0.0312 1.03519   7
  -5  -1   1 -2.1653 1.73074   6
   4   1  -1 744.551 36.6774   5
   4   1  -1 840.866 37.9677   7
  -4  -1   1 840.122 39.4636   6
   3   1  -1 828.466 42.3218   1
   3   1  -1 811.842 36.7188   2
  -3  -1   1 800.583 36.5418   2
   2   1  -1 1396.85 59.3088   2
   2   1  -1 1334.86 61.9251   1
   2   1  -1 1302.95 60.4722   8
  -2  -1   1 1334.28 59.1024   2
   0   1  -1 58.1815 3.07721   8
   0   1  -1 70.9757 3.76975   6
   0  -1   1 59.6926 3.49955   2
   0  -1   1 61.6390 4.74340   1
  -1   1  -1 901.775 41.3249   6
  -1   1  -1 949.262 44.7762   1
   1  -1   1 921.537 44.0736   1
  -2   1  -1 16.5538 2.05261   6
  -2   1  -1 11.3194 5.51042   1
   2  -1   1 6.44818 4.97512   1
  -3   1  -1 628.647 31.3164   6
  -3   1  -1 667.682 39.7534   1
   3  -1   1 679.795 39.3352   1
  -4   1  -1 109.078 8.44219   6
   4  -1   1 111.895 7.08682   5
   4  -1   1 119.702 6.68804   2
  -5   1  -1 844.862 41.8809   6
  -5   1  -1 840.513 39.5277   5
   5  -1   1 813.173 38.8388   5
  -6   1  -1 4.47689 3.26558   6
  -6   1  -1 0.64470 1.66647   5
   7  -1   1 17.7808 3.86286   9
   7  -1   1 10.7729 2.00591   5
   8  -1   1 59.5372 3.64289   5
   8   0  -1 146.901 6.79200   5
   7   0  -1 350.596 17.3054   5
   6   0  -1 1.98165 1.26329   5
   6   0  -1 2.54513 2.23859   9
  -6   0   1 2.17922 2.98559   6
   5   0  -1 32.1932 4.45330   9
   5   0  -1 28.6752 3.36136   4
   5   0  -1 27.9646 3.22787   5
  -5   0   1 18.9489 4.55686   6
   4   0  -1 6.75585 1.69184   5
  -4   0   1 8.20852 2.77543   6
   3   0  -1 1105.42 49.6682   2
   3   0  -1 1159.17 58.7849   1
  -3   0   1 1081.60 55.6423   1
  -3   0   1 1096.24 51.1106   6
   2   0  -1 1792.49 80.4690   2
   2   0  -1 1800.30 82.0783   8
   2   0  -1 1838.58 85.0389   1
  -2   0   1 1914.62 84.3932   1
   1   0  -1 66.1181 3.64086   2
   1   0  -1 66.7820 4.28055   8
   1   0  -1 65.3689 5.34048   1
  -1   0   1 66.2616 3.63546   2
  -1   0   1 72.6342 5.41494   1
   0   0  -1 1214.56 54.2702   1
   0   0  -1 1202.60 53.2755   2
   0   0   1 1245.92 54.3136   1
  -1   0  -1 2306.35 103.517   1
   1   0   1 2364.37 103.439   1
  -2   0  -1 1.67276 3.06241   1
  -2   0  -1 1.86329 0.82927   6
   2   0   1 2.56763 2.92784   1
  -3   0  -1 159.191 15.1027   1
  -3   0  -1 151.147 8.94990   6
   3   0   1 143.632 14.4245   1
   3   0   1 149.450 7.12369   2
  -4   0  -1 30.6696 3.86274   6
   4   0   1 31.5402 2.82242   5
  -5   0  -1 156.784 11.0869   6
   5   0   1 150.276 8.71846   4
   5   0   1 152.526 8.97236   5
   6   0   1 2190.32 97.5288   5
  -7   0  -1 97.4340 11.1779   6
   7   0   1 113.503 6.89359   5
   7   0   1 109.295 7.97101   9
   8   0   1 115.088 6.07252   5
   7  -1  -1 166.295 10.7012   5
   6  -1  -1 111.129 7.38054   5
   6  -1  -1 102.055 7.53755   9
  -6   1   1 114.898 7.96438   5
  -6   1   1 102.365 10.0006   6
   5  -1  -1 774.747 35.5944   5
  -5   1   1 679.378 36.5672   5
  -5   1   1 797.418 38.8386   6
   4  -1  -1 179.327 10.3807   5
  -4   1   1 188.839 11.0684   5
  -3   1   1 13.7513 9.65259   1
   2  -1  -1 343.423 16.8521   2
   2  -1  -1 354.957 18.2476   8
   2  -1  -1 340.313 22.2386   1
  -2   1   1 361.874 17.5066   6
  -2   1   1 358.914 21.7892   1
   0  -1  -1 161.092 7.84410   8
   0  -1  -1 172.145 8.99581   1
   0   1   1 144.142 8.56750   1
   0   1   1 158.136 7.27437   6
  -1  -1  -1 1120.41 51.0497   6
  -1  -1  -1 1222.51 51.7798   1
   1   1   1 1169.10 51.6163   1
  -2  -1  -1 4444.46 194.863   1
   2   1   1 4435.91 194.665   1
  -3  -1  -1 207.433 11.2907   6
  -3  -1  -1 210.042 14.8486   1
   3   1   1 212.749 14.2514   1
  -4  -1  -1 961.329 45.1756   6
  -5  -1  -1 1669.12 75.8509   6
   5   1   1 1611.96 72.7319   5
   5   1   1 1621.87 73.0709   4
  -6  -1  -1 181.416 12.6477   6
   6   1   1 143.256 9.21203   4
   6   1   1 176.294 11.2868   9
   6   1   1 163.409 9.33975   5
  -7  -1  -1 12.4527 4.90215   6
   7   1   1 19.1131 2.73357   4
   7   1   1 18.4581 2.44511   5
   7   1   1 21.5678 3.42904   9
   8   1   1 23.6230 3.02148   9
   8   1   1 33.4125 2.30416   5
   7  -2  -1 37.6411 3.02368   5
   6  -2  -1 350.732 17.7345   5
  -6   2   1 337.169 17.9968   5
   5  -2  -1 21.1615 3.16668   5
  -5   2   1 23.3129 3.87650   5
  -5   2   1 28.4646 5.62778   6
   4  -2  -1 33.2646 3.89628   5
  -4   2   1 34.1214 5.52282   6
  -4   2   1 41.6636 4.15525   5
   3  -2  -1 113.063 7.33143   5
   3  -2  -1 111.471 23.3058   1
  -3   2   1 125.175 21.8502   1
  -3   2   1 122.077 8.40447   6
   2  -2  -1 1885.64 85.4539   8
   2  -2  -1 1994.33 92.9611   1
  -2   2   1 1829.80 84.4516   6
  -2   2   1 1878.53 90.8692   1
   1  -2  -1 4537.62 202.808   1
  -1  -2  -1 3045.31 133.054   1
  -3  -2  -1 174.541 10.1773   6
  -3  -2  -1 195.857 11.2034   1
   3   2   1 199.412 11.1411   1
  -4  -2  -1 1059.01 49.1865   6
  -5  -2  -1 1.43008 1.91538   6
   5   2   1 2.29310 1.32582   9
   5   2   1 1.52018 1.12493   4
   5   2   1 0.87530 0.80899   5
   5   2   1 -0.4431 0.91521   7
  -6  -2  -1 3930.26 179.394   6
   6   2   1 3909.97 175.928   4
   6   2   1 4024.90 174.979   5
   6   2   1 4142.85 177.789   9
  -7  -2  -1 104.974 10.1556   6
   7   2   1 113.497 8.28008   9
   7   2   1 104.405 6.95204   4
   7   2   1 110.062 6.27839   5
   8   2   1 45.9954 3.31822   4
   8   2   1 35.7426 3.71612   9
   6  -3  -1 51.2294 5.35064   5
  -6   3   1 40.8705 3.90336   5
   5  -3  -1 420.365 21.4136   5
  -5   3   1 436.771 21.7584   5
  -5   3   1 398.500 23.9622   6
   4  -3  -1 32.2251 3.77910   5
  -4   3   1 36.6715 4.06176   5
  -4   3   1 30.9796 5.70173   6
   3  -3  -1 92.3545 6.85467   5
  -3   3   1 104.108 7.09295   5
  -3   3   1 109.359 8.73156   6
   2  -3  -1 459.429 39.5670   1
  -2   3   1 468.435 36.1489   1
  -2   3   1 476.947 23.2215   6
  -2   3   1 444.251 22.3264   5
   1  -3  -1 843.472 41.2387   8
  -1   3   1 863.317 46.9040   1
  -1   3   1 973.242 42.0705   6
   0  -3  -1 320.541 15.9396   8
   0  -3  -1 326.326 20.4960   1
   0   3   1 344.416 15.9065   6
   0   3   1 337.011 19.6659   1
  -1  -3  -1 191.277 10.8381   1
  -1  -3  -1 165.593 8.85968   8
   1   3   1 174.384 10.1386   1
  -3  -3  -1 37.0271 2.58833   2
  -4  -3  -1 46.7739 4.62042   6
  -5  -3  -1 441.023 22.9545   6
   5   3   1 415.250 19.4088   5
   5   3   1 423.012 21.9607   9
   5   3   1 432.784 21.4156   7
   5   3   1 409.505 20.9561   4
  -6  -3  -1 707.423 35.8344   6
   6   3   1 588.237 31.2293   5
   6   3   1 729.197 33.6127   7
   6   3   1 680.881 32.8036   4
   6   3   1 738.336 34.2209   9
  -7  -3  -1 70.9522 9.21961   6
   7   3   1 83.0818 6.84564   9
   7   3   1 82.5950 6.11322   4
   8   3   1 45.2374 4.14808   9
   6  -4  -1 202.583 10.6119   5
  -6   4   1 195.123 10.1947   5
   5  -4  -1 32.4797 3.51906   5
  -5   4   1 33.7010 3.67039   5
   4  -4  -1 27.7652 3.74261   5
  -4   4   1 30.4913 3.85289   5
  -4   4   1 18.4039 4.80785   6
   3  -4  -1 122.421 8.26178   5
  -3   4   1 124.351 8.30283   5
  -3   4   1 127.613 9.66569   6
   2  -4  -1 30.3809 4.25175   5
  -2   4   1 34.0994 4.43488   6
  -2   4   1 35.5375 3.70713   5
  -2   4   1 41.5253 4.63278   3
  -1   4   1 2229.56 105.922   5
  -1   4   1 2419.99 103.761   6
   0  -4  -1 9889.02 431.735   8
   0   4   1 9999.99 437.717   1
  -1  -4  -1 20.3781 3.05669   8
  -1  -4  -1 13.9726 4.97674   1
  -2  -4  -1 314.314 15.4315   8
  -3  -4  -1 17.8204 2.37776   2
   4   4   1 1805.41 81.2112   4
   4   4   1 1859.42 81.1419   7
   4   4   1 1752.59 86.8513   9
  -5  -4  -1 135.133 10.6643   6
   5   4   1 136.814 9.25770   9
   5   4   1 133.578 8.47511   4
   5   4   1 130.912 8.63334   7
  -6  -4  -1 884.166 42.9981   6
   6   4   1 838.330 40.5740   7
   6   4   1 826.616 40.1314   4
   6   4   1 861.894 41.2140   9
  -7  -4  -1 222.570 16.4071   6
   7   4   1 229.585 13.7413   9
   7   4   1 238.665 13.1466   4
   7   4   1 230.657 13.4633   7
   8   4   1 26.0892 3.09538   9
   8   4   1 30.1377 3.12029   4
   5  -5  -1 13.7672 2.51988   5
  -5   5   1 20.0896 2.39719   5
   4  -5  -1 127.967 8.01885   5
  -4   5   1 131.709 8.12656   5
  -4   5   1 112.484 7.08249  10
   3  -5  -1 11.0370 2.61202   5
  -3   5   1 4.79827 2.20772   5
  -3   5   1 11.0876 4.63955   6
  -2   5   1 514.520 26.7183   6
  -2   5   1 537.845 25.3444   5
  -2   5   1 486.152 25.6225   3
  -1   5   1 100.887 7.44644   5
  -1   5   1 114.626 7.89391   3
  -1   5   1 102.643 8.03227   6
   0   5   1 148.237 8.69108  10
   0   5   1 154.291 9.85270   3
   0   5   1 147.951 8.28627   5
   1   5   1 1098.76 51.1281   9
   1   5   1 1070.34 49.7137  10
   1   5   1 1121.94 51.4476   3
  -2  -5  -1 302.433 16.8829   2
   2   5   1 321.252 17.1437   3
   2   5   1 299.809 16.6890   9
   2   5   1 315.690 16.2211   7
  -3  -5  -1 485.548 23.7438   2
   3   5   1 482.141 23.4716   7
   3   5   1 440.334 22.7778   4
   3   5   1 488.222 24.2337   9
   3   5   1 484.109 24.3736   3
  -4  -5  -1 306.558 15.6375   2
   4   5   1 298.292 16.3392   3
   4   5   1 291.274 15.6489   7
   4   5   1 279.805 16.1812   9
   4   5   1 284.154 15.1837   4
  -5  -5  -1 92.9608 8.48032   6
   5   5   1 86.4391 6.64544   7
   5   5   1 95.8197 7.29501   9
   5   5   1 87.0503 6.46066   4
   5   5   1 84.2442 6.78621   3
  -6  -5  -1 740.479 50.7968   6
   6   5   1 900.793 41.7191   4
   6   5   1 937.054 42.7163   9
   6   5   1 895.929 42.0312   7
   7   5   1 800.726 38.9753   7
   7   5   1 802.854 39.1865   9
   7   5   1 855.333 38.8428   4
   8   5   1 27.4730 3.00643   9
   9   5   1 29.6171 2.15780   4
   4  -6  -1 7.85044 2.27391   5
  -4   6   1 8.67206 1.67200   5
  -3   6   1 114.973 7.29656   5
  -3   6   1 112.941 6.89226  10
  -2   6   1 66.2451 5.31441   5
  -2   6   1 70.9561 5.31579  10
  -1   6   1 26.3639 3.65412   3
  -1   6   1 31.6133 3.31975   5
  -1   6   1 32.0386 3.48013  10
   0   6   1 2638.33 118.632   3
   0   6   1 2657.04 117.018  10
   0   6   1 2618.86 116.147   5
  -1  -6  -1 438.415 25.6117   2
   1   6   1 481.186 21.9485   5
   1   6   1 471.368 23.2273  10
   1   6   1 485.144 24.8929   7
   1   6   1 478.852 24.8983   3
   2   6   1 102.158 7.37166   7
   2   6   1 110.557 8.33607   3
   2   6   1 100.650 7.81682   9
  -3  -6  -1 47.3825 7.44508   2
   3   6   1 70.6206 6.31139   3
   3   6   1 62.0830 5.83730   9
   3   6   1 67.2002 7.07837   7
   3   6   1 65.4686 5.25667   4
   4   6   1 486.350 24.4534   3
   4   6   1 438.832 22.6120   4
   4   6   1 453.819 23.4838   7
   4   6   1 468.282 24.3206   9
  -5  -6  -1 20.5304 10.6348   6
   5   6   1 32.7522 3.77892   7
   5   6   1 32.5611 3.98521   3
   5   6   1 31.6434 4.15527   9
   5   6   1 29.1414 3.52699   4
   6   6   1 162.592 10.8604   9
   6   6   1 168.759 10.6360   7
   6   6   1 176.047 10.4379   4
   7   6   1 136.183 8.28537   4
   7   6   1 120.576 8.36511   9
   7   6   1 124.527 8.31641   7
   8   6   1 6.42706 1.49690   9
   8   6   1 11.3004 1.94570   4
  -3   7   1 0.18374 0.67253   5
  -3   7   1 -0.4409 0.72956   7
  -2   7   1 126.509 7.22267   5
  -1   7   1 97.3275 7.23061   7
  -1   7   1 100.177 6.10963   5
   0   7   1 391.750 20.4659   7
   0   7   1 376.566 20.7828   3
   0   7   1 386.082 18.3329   5
   1   7   1 229.881 13.5045   7
   1   7   1 222.943 14.0262   3
   2   7   1 157.837 10.2582   7
   2   7   1 159.307 11.0635   3
   3   7   1 286.106 16.8588   3
   3   7   1 295.752 16.1413   7
   3   7   1 277.132 16.6397   9
   4   7   1 4.58643 2.10028   9
   4   7   1 0.29019 1.14169   7
   4   7   1 -0.0660 1.07637   3
   4   7   1 1.87938 1.45949   4
   5   7   1 7.04660 1.88568   4
   5   7   1 5.41753 2.06117   3
   5   7   1 4.91234 1.95416   9
   5   7   1 5.15942 1.90170   7
   6   7   1 248.652 12.7388   4
   6   7   1 244.265 13.3229   7
   6   7   1 239.808 13.6233   9
   6   7   1 199.267 13.5663   3
   7   7   1 413.109 22.1026   7
   7   7   1 451.667 22.3265   9
   7   7   1 505.673 22.1514   4
   8   7   1 46.3299 3.93553   4
  -2   8   1 5.05699 1.03439   7
  -1   8   1 185.849 10.2875   7
   0   8   1 498.945 24.9328   7
   1   8   1 296.392 16.9498   3
   1   8   1 310.335 16.4271   7
   2   8   1 10.4336 2.30508   7
   2   8   1 9.36489 2.62593   3
   3   8   1 32.6667 3.77201   7
   3   8   1 30.3595 4.08841   3
   4   8   1 2.76517 1.63753   3
   4   8   1 4.08075 1.54468   7
   5   8   1 121.692 8.20054   3
   5   8   1 121.248 7.87833   7
   6   8   1 345.269 17.3715   7
   6   8   1 346.134 16.4071   4
   7   8   1 4.93285 1.14145   7
   7   8   1 4.63065 1.12272   4
   0   9   1 29.5965 2.30616   7
   1   9   1 25.7641 2.48979   7
   2   9   1 14.8041 2.10090   7
   2   9   1 14.5497 2.36373   3
   3   9   1 19.4482 2.41769   7
   3   9   1 24.3129 3.03403   3
   4   9   1 7.45458 1.86700   3
   4   9   1 5.78709 1.45319   7
   5   9   1 40.6772 3.31887   7
   6   9   1 14.2226 1.92028   7
   2   9  -2 1.13886 0.63985   7
   6   8  -2 -0.4484 0.50490   7
   5   8  -2 635.359 29.4707   7
   4   8  -2 80.9757 5.62760   7
   3   8  -2 25.8947 3.01231   7
   2   8  -2 0.51904 0.95571   7
   1   8  -2 6.23304 1.52160   7
   0   8  -2 62.8123 4.61760   7
  -1   8  -2 118.505 6.64229   7
   7   7  -2 321.340 15.7024   4
   6   7  -2 24.3173 2.74251   7
   6   7  -2 22.9207 2.45572   4
   5   7  -2 88.8310 5.71105   4
   5   7  -2 85.8453 6.53754   7
   4   7  -2 35.1976 3.88709   7
   4   7  -2 22.3332 4.50374   4
   3   7  -2 178.464 11.1470   7
   2   7  -2 25.3117 3.54573   7
   1   7  -2 277.898 15.7179   7
   0   7  -2 126.120 6.85610   5
   0   7  -2 141.355 9.05523   7
  -1   7  -2 4.68408 1.62353   7
  -2   7  -2 51.9283 3.23563   5
  -2   7  -2 56.7296 4.40594   7
  -3   7  -2 107.298 6.01303   7
   7   6  -2 2.46240 1.20396   7
   7   6  -2 3.10373 1.20100   4
   6   6  -2 15.8023 2.52569   7
   6   6  -2 14.6770 3.05915   4
   5   6  -2 1329.68 60.6741   4
   5   6  -2 1328.78 61.2713   7
   4   6  -2 23.5995 3.18398   4
   4   6  -2 21.4291 3.31436   7
   3   6  -2 28.3389 3.83556   3
   3   6  -2 29.6142 3.29875   4
   3   6  -2 29.9478 3.90586   7
   2   6  -2 0.57224 1.49448   7
   2   6  -2 -0.2497 1.35068   3
   1   6  -2 -0.4516 1.35284   3
   1   6  -2 9.94363 2.56032   7
   0   6  -2 226.115 13.4381   7
   0   6  -2 214.385 11.3104   5
  -1   6  -2 12.5935 2.91021   7
  -1   6  -2 13.3473 2.20138   5
  -2   6  -2 142.910 8.34150   5
  -4   6  -2 179.223 8.55180   5
  -4   6  -2 154.684 8.94050   7
   8   5  -2 70.8779 4.15658   4
   7   5  -2 529.691 25.3499   4
   6   5  -2 57.2594 5.18603   4
   6   5  -2 64.7225 5.52560   7
   5   5  -2 489.671 26.0130   7
   4   5  -2 16.3246 3.07353   7
   4   5  -2 16.6101 3.12574   4
   3   5  -2 209.935 12.5289   7
   3   5  -2 222.533 12.9586   3
   3   5  -2 201.900 11.9909   4
   2   5  -2 312.011 14.5857   5
   2   5  -2 292.105 15.9554   4
   2   5  -2 332.262 17.7870   3
   2   5  -2 321.749 17.0024   7
  -2  -5   2 292.868 18.0127   2
   1   5  -2 50.3880 3.60184   5
   1   5  -2 50.3354 4.87174   7
   1   5  -2 48.4476 5.10828   3
  -1  -5   2 49.3228 6.39611   2
   0   5  -2 18.9315 3.10566   3
   0   5  -2 16.1260 2.19335   5
   0  -5   2 10.9778 5.04878   2
  -1   5  -2 0.74426 0.89334   5
  -2   5  -2 548.042 26.5050   5
  -3   5  -2 333.336 16.9531   5
   3  -5   2 316.683 16.7852   5
  -4   5  -2 134.333 8.01848   5
   4  -5   2 127.053 7.77959   5
  -5   5  -2 6.45277 1.28236   5
   5  -5   2 5.87542 1.21922   5
   8   4  -2 187.866 9.31275   4
   7   4  -2 2.16975 1.34593   4
   6   4  -2 386.784 20.5549   7
   6   4  -2 405.477 20.4158   4
  -6  -4   2 365.830 23.8017   6
   5   4  -2 492.075 24.8839   7
   5   4  -2 477.266 24.5987   4
   4   4  -2 58.8973 5.42450   9
   4   4  -2 62.4133 5.35133   4
   4   4  -2 60.7450 5.23373   7
  -4  -4   2 39.3133 5.23163   2
   3   4  -2 449.482 25.1782   9
   3   4  -2 516.377 24.8264   3
   3   4  -2 520.883 24.7411   7
   3   4  -2 478.831 22.4221   5
   3   4  -2 490.140 24.2998   4
  -3  -4   2 516.235 25.1292   2
   2   4  -2 26.3427 3.28713   9
   2   4  -2 28.8529 3.21525   7
   2   4  -2 30.2991 3.51826   4
   2   4  -2 25.5299 3.28835   3
   2   4  -2 26.1090 2.28531   5
  -2  -4   2 28.8759 4.09208   2
   1   4  -2 387.700 19.9985   3
   1   4  -2 391.513 19.4534   7
   1   4  -2 359.149 17.8155   5
  -1  -4   2 388.120 20.0708   2
   0   4  -2 27.4152 2.59857   5
   0   4  -2 29.6955 3.66901   3
   0  -4   2 29.3910 4.18448   2
  -1   4  -2 263.212 13.5279   5
  -1   4  -2 265.860 15.1203   3
  -1   4  -2 264.284 15.6267   6
   1  -4   2 247.176 15.1229   2
  -2   4  -2 62.2506 4.74994   5
  -2   4  -2 52.4896 6.07732   6
   2  -4   2 51.4565 6.34485   2
   2  -4   2 53.7133 4.87195   5
  -3   4  -2 201.809 11.4299   5
  -3   4  -2 185.884 13.2779   6
   3  -4   2 192.723 11.2334   5
  -4   4  -2 134.931 8.68211   5
  -4   4  -2 125.517 10.8632   6
   4  -4   2 135.689 8.52380   5
  -5   4  -2 2.42960 1.31475   5
   5  -4   2 4.29439 1.52884   5
  -6   4  -2 41.4706 3.31071   5
   6  -4   2 43.4069 3.08143   5
   8   3  -2 3.95392 0.97449   4
   7   3  -2 167.009 9.72466   4
   6   3  -2 138.443 8.39758   5
   6   3  -2 170.518 10.2722   4
   6   3  -2 180.386 10.7986   7
  -6  -3   2 166.770 13.6067   6
   5   3  -2 701.993 34.6029   4
   5   3  -2 714.321 32.6669   5
   5   3  -2 745.674 35.1155   7
   4   3  -2 5.59224 1.27877   5
   4   3  -2 6.17587 1.86587   7
   4   3  -2 8.39319 2.06848   4
  -4  -3   2 7.21205 2.71136   2
   3   3  -2 120.365 15.6637   1
  -3  -3   2 121.131 7.65516   2
   2   3  -2 185.330 16.2121   1
  -2  -3   2 181.524 10.3612   2
   1   3  -2 2107.38 102.607   1
  -1  -3   2 2310.03 98.5298   2
  -1  -3   2 2222.50 101.488   1
   0   3  -2 1092.88 57.3016   1
   0  -3   2 1127.70 50.4330   2
   0  -3   2 1079.21 54.9663   1
  -1   3  -2 35.6031 13.9531   1
  -1   3  -2 35.9244 4.00803   6
   1  -3   2 32.4470 3.64405   2
   1  -3   2 41.8544 16.3692   1
  -2   3  -2 428.329 21.9804   6
  -2   3  -2 378.021 20.1046   5
   2  -3   2 456.296 22.8011   2
  -3   3  -2 81.7568 7.43777   6
  -3   3  -2 78.2232 5.95776   5
   3  -3   2 83.1807 5.94392   5
   3  -3   2 78.0921 7.32851   2
  -4   3  -2 49.1873 4.65174   5
  -4   3  -2 49.6987 6.24480   6
   4  -3   2 50.2276 4.54246   5
  -5   3  -2 1.84581 1.36562   5
  -5   3  -2 1.16927 3.35022   6
   5  -3   2 3.50666 1.58024   5
  -6   3  -2 103.832 6.84046   5
   6  -3   2 114.121 7.06409   5
   7  -3   2 58.8262 3.54370   5
   7   2  -2 9.12094 1.82323   4
   6   2  -2 270.958 16.6659   4
  -6  -2   2 285.351 18.8097   6
   5   2  -2 112.150 7.71965   4
   5   2  -2 108.224 6.88213   5
   5   2  -2 125.126 8.38027   7
  -5  -2   2 114.877 10.1522   6
   4   2  -2 69.3618 5.43264   7
   4   2  -2 65.6930 4.55569   5
   4   2  -2 69.5072 5.28881   4
  -4  -2   2 71.2708 5.84034   2
   3   2  -2 240.470 18.1518   1
  -3  -2   2 249.818 12.8738   2
   2   2  -2 8.40496 4.70014   1
   2   2  -2 6.68320 4.05272   1
  -2  -2   2 5.52947 1.35939   2
   1   2  -2 2233.42 118.243   1
   1   2  -2 2653.58 114.364   8
  -1  -2   2 2796.57 114.928   2
  -1  -2   2 2749.81 117.484   1
   0  -2   2 1377.17 60.9333   2
   0  -2   2 1351.28 64.0125   1
  -1   2  -2 242.026 19.9229   1
  -1   2  -2 268.642 13.7714   6
   1  -2   2 264.244 13.2649   2
   1  -2   2 258.446 18.2150   1
  -2   2  -2 -2.5787 10.3703   1
  -2   2  -2 21.5341 3.32048   6
   2  -2   2 22.7731 2.76653   2
   2  -2   2 14.3153 10.4313   1
  -3   2  -2 1.26021 1.52973   6
  -3   2  -2 0.73698 0.96007   5
   3  -2   2 -1.4577 20.8179   1
   3  -2   2 3.45660 1.19336   5
   3  -2   2 -0.8119 1.40472   2
  -4   2  -2 108.450 8.66345   6
  -4   2  -2 94.3769 6.83625   5
   4  -2   2 92.6996 6.54681   5
  -5   2  -2 72.8792 7.97457   6
  -5   2  -2 70.8442 5.73781   5
   5  -2   2 70.4454 5.51629   5
  -6   2  -2 4.00047 1.65984   5
  -6   2  -2 4.98582 5.41703   6
   6  -2   2 5.44212 1.65869   5
  -7   2  -2 154.065 8.45654   5
   7  -2   2 155.107 8.27290   5
   7  -2   2 147.663 8.91972   9
   7   1  -2 1.57890 1.19272   4
   7   1  -2 0.72046 0.88017   5
  -6  -1   2 213.528 15.7113   6
   5   1  -2 7.81777 2.07361   4
   5   1  -2 10.9375 2.53608   7
   5   1  -2 8.87498 2.06515   5
  -5  -1   2 14.8929 4.08449   6
   4   1  -2 -0.1739 0.91999   4
   4   1  -2 -0.2429 0.78089   5
   4   1  -2 0.70744 1.13127   7
  -4  -1   2 0.60499 1.62773   6
   3   1  -2 619.207 31.0621   8
   3   1  -2 597.080 33.8180   1
  -3  -1   2 618.042 28.6811   2
   2   1  -2 130.280 11.5999   1
   2   1  -2 141.901 8.73351   8
   2   1  -2 129.173 10.5968   1
   2   1  -2 128.253 7.80592   2
  -2  -1   2 145.150 7.56440   2
   1   1  -2 5823.73 242.482   2
   1   1  -2 5310.52 244.396   1
   0   1  -2 6100.48 273.121   1
   0  -1   2 6345.16 272.691   1
  -1   1  -2 570.643 30.8387   1
  -1   1  -2 586.270 27.0800   6
   1  -1   2 587.567 26.6519   2
   1  -1   2 597.409 30.2904   1
  -2   1  -2 451.887 21.5351   6
  -2   1  -2 407.303 26.9012   1
   2  -1   2 442.105 20.5203   2
   2  -1   2 457.815 26.5506   1
  -3   1  -2 161.001 19.7793   1
  -3   1  -2 170.343 10.3360   6
   3  -1   2 165.867 8.80558   2
   3  -1   2 187.052 21.0321   1
  -4   1  -2 1631.91 70.8490   5
   4  -1   2 1502.91 70.1140   5
  -5   1  -2 94.8005 8.52874   6
   5  -1   2 98.2268 6.65057   5
  -6   1  -2 462.367 24.0123   5
  -6   1  -2 443.768 26.6786   6
   6  -1   2 514.577 24.5219   5
   7  -1   2 18.7116 3.13671   9
   7  -1   2 25.1724 2.69941   5
   8  -1   2 0.62565 0.65725   5
   8  -1   2 -0.8603 0.98811   9
   7   0  -2 3.04051 1.48142   5
   6   0  -2 96.9818 6.70758   5
  -6   0   2 97.4225 10.0645   6
   5   0  -2 -1.4033 1.35075   4
   5   0  -2 0.62635 0.99952   5
  -5   0   2 3.00977 2.79876   6
   4   0  -2 1.68017 1.24424   4
   4   0  -2 1.49806 1.06174   5
   3   0  -2 266.870 16.2074   8
  -3   0   2 264.895 15.1254   6
  -3   0   2 295.758 23.0433   1
   2   0  -2 138.518 7.99487   2
   2   0  -2 129.779 12.5207   1
   2   0  -2 150.490 9.36548   8
  -2   0   2 157.461 12.2285   1
   1   0  -2 166.256 8.95087   2
   1   0  -2 182.593 11.8668   1
   1   0  -2 180.870 9.66279   8
   1   0  -2 182.940 11.4997   1
  -1   0   2 177.460 8.92673   2
   0   0  -2 98.5141 7.23349   1
   0   0  -2 101.934 5.71964   8
   0   0  -2 99.1859 5.41622   2
   0   0   2 103.231 5.33890   2
   0   0   2 103.510 7.16106   1
  -1   0  -2 7690.78 331.464   1
   1   0   2 7463.79 330.837   1
  -2   0  -2 216.832 10.9937   6
  -2   0  -2 219.676 14.8284   1
   2   0   2 207.234 14.0598   1
   2   0   2 212.703 10.0030   2
  -3   0  -2 103.736 12.9828   1
  -3   0  -2 96.4145 6.59293   6
   3   0   2 106.239 12.7578   1
   3   0   2 98.1683 4.88835   2
  -4   0  -2 3350.84 140.020   6
   4   0   2 2937.80 137.667   5
  -5   0  -2 329.949 18.9707   6
   5   0   2 317.304 16.4387   5
   5   0   2 332.721 16.3109   4
   6   0   2 243.672 12.9571   5
   6   0   2 236.063 12.4336   4
  -7   0  -2 190.248 16.5971   6
   7   0   2 212.712 13.2121   9
   7   0   2 232.794 11.7710   5
   8   0   2 2.81119 0.86370   5
   8   0   2 1.59901 1.24214   9
   7  -1  -2 10.3338 1.76015   5
   6  -1  -2 44.6165 4.21300   5
  -6   1   2 39.7770 7.85451   6
   5  -1  -2 180.009 10.9571   5
  -5   1   2 184.642 11.6364   5
  -5   1   2 195.555 13.7264   6
   4  -1  -2 109.361 7.32034   5
  -4   1   2 113.247 7.95463   5
  -4   1   2 119.559 9.23938   6
   3  -1  -2 3001.78 136.238   8
  -3   1   2 3079.53 142.583   1
  -3   1   2 2991.27 134.542   6
   2  -1  -2 37.7361 9.29510   1
   2  -1  -2 44.8895 4.60866   8
  -2   1   2 43.7630 3.90818   6
  -2   1   2 42.5393 8.42098   1
   1  -1  -2 558.162 30.2653   1
   1  -1  -2 584.568 26.5333   2
   1  -1  -2 568.816 27.2624   8
  -1   1   2 590.410 29.7031   1
   0  -1  -2 3529.50 155.033   1
   0  -1  -2 3447.48 152.936   2
   0  -1  -2 3561.87 155.322   1
  -1  -1  -2 10.2454 2.38624   1
  -2  -1  -2 1210.95 55.4743   1
  -2  -1  -2 1170.40 52.6558   6
  -2  -1  -2 1177.68 51.7589   2
   2   1   2 1199.50 55.1912   1
  -3  -1  -2 1153.88 55.5745   1
  -3  -1  -2 1125.56 51.2129   6
   3   1   2 1119.83 54.5111   1
  -4  -1  -2 891.758 41.9734   6
  -5  -1  -2 2134.85 90.4060   6
   5   1   2 1835.80 85.2483   4
   5   1   2 1812.51 84.8946   5
  -6  -1  -2 428.327 24.3903   6
   6   1   2 440.588 21.0492   5
   6   1   2 425.409 21.1569   4
  -7  -1  -2 10.5912 4.41724   6
   7   1   2 2.78702 1.31356   4
   7   1   2 5.30895 2.16843   9
   7   1   2 5.13713 1.42292   5
   8   1   2 138.487 6.86296   5
   8   1   2 121.381 8.11380   9
   7  -2  -2 126.558 6.80138   5
   6  -2  -2 289.401 15.0356   5
  -6   2   2 280.351 15.2773   5
   5  -2  -2 60.0497 5.54882   5
  -5   2   2 70.9800 5.86862   5
  -5   2   2 66.0620 7.99870   6
   4  -2  -2 15.4123 2.93094   5
  -4   2   2 21.8341 4.44176   6
   3  -2  -2 855.297 41.4203   8
   3  -2  -2 796.720 38.0563   5
  -3   2   2 774.046 38.1347   5
  -3   2   2 846.866 39.5553   6
   2  -2  -2 201.520 12.2666   8
   2  -2  -2 160.241 20.9544   1
  -2   2   2 196.071 11.1019   6
  -2   2   2 201.021 19.2250   1
   1  -2  -2 1077.02 49.9914   8
   1  -2  -2 1119.57 55.0432   1
  -1   2   2 1038.60 48.8633   6
  -1   2   2 1143.89 53.7753   1
   0  -2  -2 523.098 26.5259   1
   0  -2  -2 479.167 23.2038   2
   0  -2  -2 490.921 23.5474   8
   0   2   2 517.287 25.5689   1
   0   2   2 492.879 22.3389   6
  -1  -2  -2 3476.58 153.968   1
  -1  -2  -2 3598.19 154.303   1
  -1  -2  -2 3429.39 152.558   2
  -2  -2  -2 413.785 18.6842   6
  -2  -2  -2 406.496 18.4568   2
  -2  -2  -2 410.936 20.2838   1
   2   2   2 403.091 19.7293   1
  -3  -2  -2 276.185 16.3407   1
  -3  -2  -2 274.686 13.7552   6
   3   2   2 274.113 15.2373   1
  -5  -2  -2 522.383 27.1342   6
   5   2   2 548.340 26.8856   9
   5   2   2 556.210 25.9792   7
   5   2   2 504.375 25.2694   4
   5   2   2 516.846 24.4546   5
  -6  -2  -2 63.6824 6.85177   6
   6   2   2 56.7136 4.73674   4
   6   2   2 59.7050 5.99444   9
   6   2   2 58.4012 4.17297   5
  -7  -2  -2 328.226 21.3770   6
   7   2   2 357.418 18.0417   4
   7   2   2 359.180 19.9312   9
   7   2   2 374.417 17.7969   5
   8   2   2 26.3027 1.71817   5
   8   2   2 20.0648 4.22325   9
   8   2   2 27.8962 2.66705   4
   7  -3  -2 15.2716 1.50956   5
   6  -3  -2 33.5226 3.19123   5
  -6   3   2 32.7663 3.37918   5
   5  -3  -2 28.3816 3.52003   5
  -5   3   2 24.6155 3.48576   5
  -5   3   2 22.9943 6.09536   6
   4  -3  -2 487.277 24.4382   5
  -4   3   2 472.484 26.2708   6
  -4   3   2 489.249 24.5974   5
   3  -3  -2 805.614 38.6660   5
  -3   3   2 870.217 40.1271   6
  -3   3   2 785.162 38.5327   5
   2  -3  -2 292.581 16.9361   8
  -2   3   2 302.967 15.5616   6
  -2   3   2 265.846 14.7463   5
   1  -3  -2 6662.25 296.987   1
  -1   3   2 6546.05 294.209   1
   0  -3  -2 523.495 28.9414   1
   0  -3  -2 484.672 23.9411   8
   0   3   2 513.254 27.4212   1
   0   3   2 487.571 22.7239   6
  -1  -3  -2 3949.55 174.814   1
  -1  -3  -2 3983.05 175.646   1
  -2  -3  -2 20.5961 2.67889   1
  -2  -3  -2 21.1639 2.88496   1
  -3  -3  -2 85.2816 4.76292   2
  -3  -3  -2 84.6137 4.60942   2
  -3  -3  -2 84.7165 5.31214   6
  -4  -3  -2 157.742 9.49449   6
  -5  -3  -2 1852.36 84.2825   6
   5   3   2 1865.81 83.0448   7
   5   3   2 1817.59 82.6716   4
   5   3   2 1909.06 84.2101   9
   5   3   2 1809.31 80.9737   5
  -6  -3  -2 78.2077 7.76755   6
   6   3   2 73.8493 5.83467   4
   6   3   2 83.2061 7.05785   9
   6   3   2 83.4565 6.29950   7
  -7  -3  -2 41.8751 6.62497   6
   7   3   2 58.2086 5.23147   4
   7   3   2 55.1220 6.61040   9
   8   3   2 422.350 19.6387   4
   8   3   2 379.437 20.5850   9
   6  -4  -2 0.21745 0.67422   5
  -6   4   2 0.85800 0.72891   5
   5  -4  -2 42.6738 5.94637   5
  -5   4   2 35.4009 4.20192   5
   4  -4  -2 14.4183 2.80733   5
  -4   4   2 9.45685 2.46836   5
  -4   4   2 11.1325 5.17524   6
   3  -4  -2 490.856 25.7681   5
  -3   4   2 538.950 26.0624   5
  -3   4   2 525.635 27.2131   6
   2  -4  -2 342.642 18.4973   5
  -2   4   2 358.724 18.3647   5
  -2   4   2 371.701 19.1960   6
   1  -4  -2 3.05209 1.98794   8
  -1   4   2 2.19129 1.16951   5
  -1   4   2 1.96810 1.57871   6
   0  -4  -2 202.842 21.3833   1
   0  -4  -2 171.953 10.6667   8
   0   4   2 169.153 9.15883   6
  -1  -4  -2 16.8843 6.42648   1
  -1  -4  -2 13.9837 2.45841   8
  -2  -4  -2 564.853 27.0830   8
  -4  -4  -2 2496.57 107.002   6
   4   4   2 2314.36 106.779   4
  -5  -4  -2 1265.20 59.8700   6
   5   4   2 1314.93 60.0414   9
   5   4   2 1298.80 58.7262   4
   5   4   2 1283.03 58.8606   7
  -6  -4  -2 1110.53 52.6257   6
   6   4   2 1054.35 50.2819   7
   6   4   2 1116.18 51.6135   9
   6   4   2 1054.19 50.0040   4
  -7  -4  -2 78.1244 9.43076   6
   7   4   2 88.7462 6.42167   4
   7   4   2 84.9325 7.21543   9
   8   4   2 12.3950 2.33098   4
   8   4   2 15.2699 2.53007   9
   9   4   2 3.83285 0.90736   4
   5  -5  -2 15.7748 2.18312   5
  -5   5   2 18.4930 2.30003   5
   4  -5  -2 145.284 10.2345   5
  -4   5   2 152.902 9.14634   5
   3  -5  -2 2.10805 1.81626   5
  -3   5   2 5.86530 1.89630   5
   2  -5  -2 15.0851 3.05802   5
  -2   5   2 16.2991 2.85271   5
  -2   5   2 10.4482 4.04580   6
  -1   5   2 3414.20 151.488   3
   0   5   2 2.08971 1.52858   3
   0   5   2 0.55053 1.03305   5
  -1  -5  -2 1471.83 66.1366   8
   1   5   2 1508.78 67.6282   3
   1   5   2 1390.17 65.0910   5
   1   5   2 1516.29 67.3930   9
  -2  -5  -2 16.2217 2.77440   8
   2   5   2 15.8225 2.06783  10
   2   5   2 15.6923 3.72117   9
   2   5   2 18.6397 2.97154   3
  -3  -5  -2 242.013 13.6600   8
  -3  -5  -2 242.630 13.4160   2
   3   5   2 248.297 14.0731   3
   3   5   2 232.343 13.7096   9
   3   5   2 236.388 12.9500   7
  -4  -5  -2 4.07663 2.58308   6
  -4  -5  -2 3.79311 2.09772   2
   4   5   2 2.80365 1.53551   4
   4   5   2 4.56400 1.84553   3
   4   5   2 4.71401 1.65313   7
   4   5   2 6.00085 2.01344   9
  -5  -5  -2 387.254 21.2939   6
   5   5   2 388.647 21.2981   9
   5   5   2 436.216 22.0810   7
   5   5   2 403.433 21.1149   3
   5   5   2 379.196 20.0695   4
  -6  -5  -2 14.8863 5.24984   6
   6   5   2 11.5374 2.65768   4
   6   5   2 10.8449 2.71262   9
   6   5   2 16.3276 2.98125   7
   7   5   2 8.79894 2.23974   7
   7   5   2 9.54738 2.59352   9
   7   5   2 8.69085 2.29540   4
   8   5   2 70.2767 4.90043   4
   8   5   2 52.6234 4.87331   9
   9   5   2 1.45337 0.79907   4
   4  -6  -2 31.5464 3.50368   5
  -4   6   2 33.8677 2.91687   5
  -3   6   2 92.5881 6.26550   5
  -3   6   2 86.8490 5.92954  10
  -2   6   2 123.812 7.99617   5
  -1   6   2 902.017 40.7988   5
  -1   6   2 854.697 41.8596   3
   0   6   2 570.285 28.6268   3
   0   6   2 570.074 27.2328  10
   0   6   2 547.592 26.4924   5
   1   6   2 388.920 19.6110   7
   1   6   2 362.249 17.8127   5
   1   6   2 379.931 19.0760  10
   1   6   2 375.278 20.6071   3
   2   6   2 134.494 10.6002   9
   2   6   2 139.524 8.79969   7
   2   6   2 139.063 10.9712   3
   2   6   2 136.770 8.36776  10
  -3  -6  -2 5.69309 3.37758   2
   3   6   2 17.5562 2.98450   7
   3   6   2 11.2419 2.76552   4
   3   6   2 16.5112 4.05893   3
   3   6   2 15.7294 3.33880   9
   4   6   2 0.61907 1.07727   9
   4   6   2 0.54305 1.17411   3
   4   6   2 0.42011 1.18270   7
   5   6   2 1202.76 56.7891   4
   5   6   2 1231.12 57.3115   7
   5   6   2 1258.97 58.6210   9
   5   6   2 1285.98 58.4656   3
   6   6   2 1472.70 67.4550   3
   6   6   2 1376.83 67.7555   7
   7   6   2 184.211 11.6780   9
   7   6   2 199.634 11.0885   4
   7   6   2 182.824 10.9366   7
   8   6   2 70.6602 4.83592   4
   8   6   2 57.4380 4.75369   9
   9   6   2 21.6070 1.88132   4
  -3   7   2 0.02943 0.75537   7
  -3   7   2 -0.2514 0.65647   5
  -2   7   2 84.5939 5.72131  10
  -2   7   2 89.2743 5.55938   5
  -1   7   2 820.091 43.0344   3
  -1   7   2 953.484 42.7266  10
  -1   7   2 991.121 42.1124   5
   0   7   2 200.943 11.6867  10
   0   7   2 205.850 12.8112   3
   0   7   2 219.729 12.3710   7
   0   7   2 196.926 10.7050   5
   1   7   2 6.38970 1.24637   5
   1   7   2 5.13231 2.23105   3
   1   7   2 7.58026 2.24048   7
   1   7   2 8.45681 2.26574  10
   2   7   2 18.7096 3.25637   7
   2   7   2 14.4185 3.33574   3
   3   7   2 0.07957 1.14847   7
   3   7   2 1.08823 1.53559   9
   3   7   2 -0.0401 1.08943   3
   4   7   2 142.629 8.58082   4
   4   7   2 148.042 9.53742   7
   4   7   2 151.480 10.4771   9
   4   7   2 152.671 10.5949   3
   5   7   2 42.1411 5.70535   3
   5   7   2 47.4605 4.13878   4
   5   7   2 50.9767 4.65583   7
   5   7   2 46.5000 5.19464   9
   6   7   2 220.972 13.4551   9
   6   7   2 226.523 12.5999   7
   6   7   2 231.697 12.2165   4
   6   7   2 208.515 12.5572   3
   7   7   2 116.698 7.07292   7
   7   7   2 117.515 7.43759   4
   7   7   2 89.2591 9.02295   9
   8   7   2 30.6477 2.90035   9
   8   7   2 41.3027 3.03346   4
  -2   8   2 0.37412 1.18869   7
  -1   8   2 396.051 19.2394   7
   0   8   2 122.395 8.40440   7
   0   8   2 92.5365 8.14231   3
   1   8   2 143.918 9.88523   3
   1   8   2 151.566 9.28654   7
   2   8   2 0.81212 1.23584   3
   2   8   2 0.04422 1.07535   7
   3   8   2 0.63133 1.18218   7
   3   8   2 0.53172 1.19796   3
   4   8   2 368.511 19.9908   3
   4   8   2 359.001 18.8346   7
   5   8   2 47.8590 4.94473   9
   5   8   2 45.2177 4.61367   3
   5   8   2 44.2538 4.11162   7
   6   8   2 419.755 23.5163   9
   6   8   2 461.866 21.8579   7
   6   8   2 420.836 21.9565   3
   6   8   2 493.921 21.2067   4
   7   8   2 413.810 19.3841   4
   7   8   2 373.518 19.2540   9
   1   9   2 159.361 8.52126   7
   2   9   2 151.081 9.10005   3
   2   9   2 131.590 7.89726   7
   3   9   2 33.2731 3.16799   7
   3   9   2 41.6028 4.08635   3
   4   9   2 39.7163 3.43534   7
   4   9   2 52.0519 4.52474   3
   5   9   2 0.69262 0.95734   3
   5   9   2 0.87433 0.91189   7
   4   8  -3 0.06421 0.71062   7
   3   8  -3 0.65918 0.79317   7
   2   8  -3 97.1551 6.03835   7
   1   8  -3 456.263 21.6696   7
   0   8  -3 3.14868 0.96696   7
   6   7  -3 170.137 8.75679   4
   5   7  -3 51.6967 4.03790   7
   5   7  -3 44.6460 4.01418   4
   4   7  -3 57.2887 4.68425   4
   4   7  -3 74.5988 5.33527   7
   3   7  -3 1.36031 1.31359   7
   2   7  -3 95.3628 6.94321   7
   1   7  -3 91.6551 6.71084   7
   0   7  -3 239.799 13.5078   7
  -1   7  -3 24.6135 2.89700   7
  -2   7  -3 59.7888 4.16175   7
   6   6  -3 286.609 14.8141   7
   6   6  -3 290.171 14.5679   4
   5   6  -3 38.5730 3.78599   4
   5   6  -3 34.8678 3.70159   7
   4   6  -3 23.8783 3.14868   4
   4   6  -3 26.4767 3.46038   7
   3   6  -3 25.1590 3.06673   4
   3   6  -3 22.2704 3.41195   7
   2   6  -3 56.3957 5.22224   7
   2   6  -3 43.1892 4.28227   4
   1   6  -3 79.4404 4.73335   5
   1   6  -3 85.2393 6.82550   7
   0   6  -3 51.7128 5.08812   7
   0   6  -3 50.5953 3.72805   5
  -1   6  -3 674.456 33.2735   7
  -1   6  -3 694.011 31.6239   5
  -2   6  -3 50.0448 4.64168   7
  -2   6  -3 54.8180 4.01143   5
  -3   6  -3 25.9781 2.85874   7
  -3   6  -3 29.6193 2.62107   5
  -4   6  -3 3.40169 0.73924   5
  -4   6  -3 1.54196 0.68620   7
   7   5  -3 85.4772 5.37533   4
   6   5  -3 295.483 15.8219   7
   6   5  -3 299.749 15.6810   4
   5   5  -3 45.1764 4.61902   7
   5   5  -3 44.1633 4.60242   4
   3   5  -3 1.45713 1.48159   7
   3   5  -3 3.89755 1.74549   4
   2   5  -3 277.713 13.2808   5
   2   5  -3 271.894 14.7608   4
   2   5  -3 273.645 15.4217   7
   1   5  -3 75.0210 6.03122   7
   1   5  -3 56.4782 5.82927   4
   1   5  -3 71.4049 4.61397   5
   0   5  -3 592.239 28.2405   5
   0   5  -3 617.390 30.1455   7
  -1   5  -3 68.8485 5.08268   5
  -1   5  -3 64.4165 5.86860   7
  -2   5  -3 50.5794 4.40314   5
  -3   5  -3 0.31345 0.97766   5
   3  -5   3 5.14034 1.86014   5
  -4   5  -3 67.2431 4.80509   5
  -5   5  -3 18.7607 1.93938   7
   7   4  -3 449.669 21.5207   4
   6   4  -3 741.770 36.9165   7
   6   4  -3 813.076 37.0147   4
   5   4  -3 283.431 16.0838   7
   5   4  -3 275.031 15.6027   4
   4   4  -3 64.8788 5.78389   4
   4   4  -3 66.9460 4.68237   5
   4   4  -3 69.2171 5.80987   7
   3   4  -3 0.47159 0.94527   7
   3   4  -3 0.29771 0.89683   5
   3   4  -3 0.59540 1.13602   4
  -3  -4   3 9.65306 3.22554   2
   2   4  -3 154.188 9.47823   7
   2   4  -3 150.829 8.01633   5
  -2  -4   3 141.235 10.4257   2
   1   4  -3 925.157 43.2123   5
   1   4  -3 1030.29 45.9121   3
   1   4  -3 969.272 44.8136   7
  -1  -4   3 913.091 45.7769   2
   0   4  -3 431.522 21.1809   5
   0   4  -3 468.317 22.6251   7
   0  -4   3 429.942 23.4641   2
  -1   4  -3 840.956 38.9193   5
   1  -4   3 826.733 40.8684   2
  -2   4  -3 10.9458 2.23056   5
  -3   4  -3 31.7455 3.56091   5
  -3   4  -3 32.5196 5.77203   6
   3  -4   3 24.8432 3.41456   5
  -4   4  -3 42.2257 6.74737   6
  -4   4  -3 54.8365 4.72186   5
   4  -4   3 48.6593 4.33037   5
  -5   4  -3 125.023 7.58640   5
   5  -4   3 123.871 7.33231   5
  -6   4  -3 97.1175 5.53650   5
   6  -4   3 105.756 5.53008   5
   7   3  -3 170.704 9.40044   4
   6   3  -3 15.2856 2.91036   7
   6   3  -3 22.4642 3.14189   4
  -6  -3   3 13.7720 5.52985   6
   5   3  -3 26.4596 2.63783   5
   5   3  -3 27.1062 3.62025   4
   5   3  -3 30.0533 3.68345   7
   4   3  -3 34.7957 3.79427   7
   4   3  -3 30.8501 3.85126   4
   3   3  -3 271.243 14.8596   7
   3   3  -3 273.969 13.6083   5
  -3  -3   3 284.986 15.5517   2
   2   3  -3 1456.45 64.8527   7
   2   3  -3 1373.39 63.2740   5
  -2  -3   3 1452.18 65.1155   2
   1   3  -3 2007.84 95.6823   5
   1   3  -3 2344.50 98.0182   3
   1   3  -3 2209.29 96.9674   7
  -1  -3   3 2160.21 97.7162   2
   0   3  -3 2291.83 99.1416   7
   0   3  -3 2104.32 97.8287   5
   0  -3   3 2282.81 100.624   2
  -1   3  -3 713.581 33.5076   5
   1  -3   3 743.137 34.9504   2
  -2   3  -3 182.718 11.6958   6
  -2   3  -3 170.503 9.72776   5
   2  -3   3 156.318 10.8035   2
  -3   3  -3 198.368 11.5524   5
  -3   3  -3 208.904 13.6887   6
   3  -3   3 209.916 17.0438   2
  -4   3  -3 44.3529 4.56208   5
  -4   3  -3 40.3817 6.60060   6
   4  -3   3 53.9450 4.56052   5
  -5   3  -3 27.3083 3.43110   5
  -5   3  -3 24.6377 5.65962   6
   5  -3   3 30.2552 3.35689   5
  -6   3  -3 517.726 24.9953   5
   6  -3   3 539.971 24.9360   5
   7  -3   3 24.7521 2.28551   9
   7   2  -3 303.659 14.8768   4
   6   2  -3 73.7164 5.76785   4
   6   2  -3 76.8739 5.02883   5
   5   2  -3 392.120 19.3384   5
   5   2  -3 402.802 20.8773   7
   5   2  -3 384.925 20.3811   4
  -5  -2   3 402.823 24.2323   6
   4   2  -3 313.765 16.7249   7
   4   2  -3 312.590 15.6193   5
  -4  -2   3 304.807 17.4410   2
   3   2  -3 169.005 9.24919   5
   3   2  -3 172.250 9.93772   7
   2   2  -3 520.366 32.5669   1
   2   2  -3 560.331 27.4678   8
  -2  -2   3 576.733 26.7786   2
   1   2  -3 2935.71 127.037   1
   1   2  -3 2529.23 120.636   8
  -1  -2   3 2782.59 121.190   2
  -1  -2   3 2749.51 125.628   1
   0   2  -3 44.5567 9.84467   1
   0  -2   3 73.4445 5.16783   2
   0  -2   3 89.9724 11.0416   1
  -1   2  -3 27.1199 11.2975   1
  -1   2  -3 52.9541 4.70662   6
  -1   2  -3 52.3189 3.64512   8
   1  -2   3 43.8505 4.04736   2
   1  -2   3 50.6857 10.9642   1
  -2   2  -3 156.244 9.80133   6
  -2   2  -3 144.178 8.45440   5
  -2   2  -3 113.979 20.8943   1
   2  -2   3 156.930 8.97119   2
   2  -2   3 151.937 20.4912   1
  -3   2  -3 744.217 34.8658   5
  -3   2  -3 789.446 36.8775   6
   3  -2   3 710.557 34.9791   2
   3  -2   3 735.009 34.6970   5
  -4   2  -3 131.202 10.0496   6
  -4   2  -3 116.695 8.03997   5
   4  -2   3 131.908 8.05829   5
  -5   2  -3 372.637 18.9639   5
  -5   2  -3 352.101 21.4290   6
   5  -2   3 355.646 18.5446   5
  -6   2  -3 42.2287 3.99296   5
   6  -2   3 36.8384 3.58498   5
  -7   2  -3 11.5375 1.83171   5
   7  -2   3 14.7011 2.24857   9
   7  -2   3 15.9189 1.87139   5
   7   1  -3 53.7011 3.38448   5
   6   1  -3 24.2708 3.04356   4
   6   1  -3 25.6171 2.97575   5
  -6  -1   3 23.6498 6.91688   6
   5   1  -3 491.992 24.5779   5
   5   1  -3 499.488 24.9579   4
  -5  -1   3 537.214 28.9688   6
   4   1  -3 37.2140 3.80358   7
   4   1  -3 26.9818 3.02241   5
   4   1  -3 29.4558 3.37939   4
   3   1  -3 1525.52 68.5794   8
   3   1  -3 1413.51 65.4334   7
   3   1  -3 1382.67 64.6820   5
  -3  -1   3 1484.84 65.7922   2
   2   1  -3 356.295 25.1553   1
   2   1  -3 386.205 20.4195   8
  -2  -1   3 404.488 19.1419   2
   1   1  -3 2613.65 115.983   8
   1   1  -3 2677.65 119.709   1
   1   1  -3 2535.54 119.246   1
  -1  -1   3 2654.96 115.375   2
   0   1  -3 5472.01 243.516   1
   0  -1   3 5493.42 242.704   1
  -1   1  -3 3393.41 149.212   8
  -1   1  -3 3392.71 155.116   1
  -1   1  -3 3404.45 149.539   6
   1  -1   3 3331.72 153.517   1
   1  -1   3 3501.85 149.133   2
  -2   1  -3 730.228 33.9116   6
  -2   1  -3 589.408 47.7949   1
   2  -1   3 745.834 33.0333   2
   2  -1   3 758.101 40.3380   1
  -3   1  -3 963.930 45.7453   6
  -3   1  -3 1039.55 73.1194   1
   3  -1   3 939.761 56.7212   1
   3  -1   3 983.089 44.0933   2
  -4   1  -3 397.567 20.2626   5
  -4   1  -3 411.861 22.0365   6
   4  -1   3 403.258 19.8735   5
  -5   1  -3 315.070 16.7816   5
  -5   1  -3 317.939 19.0378   6
   5  -1   3 307.772 16.2351   5
  -6   1  -3 957.412 44.9860   5
  -6   1  -3 954.636 48.1376   6
   6  -1   3 977.468 44.5276   5
  -7   1  -3 72.0953 6.41195   5
   7  -1   3 81.6330 5.26255   5
   8  -1   3 16.5815 1.81331   9
   8  -1   3 17.5875 1.49915   5
   7   0  -3 256.960 12.5370   5
   6   0  -3 250.114 13.1983   5
  -6   0   3 230.550 16.7323   6
   5   0  -3 625.976 30.4679   4
   5   0  -3 648.221 30.9656   5
  -5   0   3 664.817 36.9339   6
   4   0  -3 384.865 19.7074   5
   4   0  -3 382.659 19.5785   4
  -4   0   3 416.174 22.5414   6
   3   0  -3 77.6806 7.61463   8
   2   0  -3 452.438 23.7705   8
   2   0  -3 437.675 27.3230   1
  -2   0   3 478.755 22.3123   2
   1   0  -3 -0.9037 4.38342   1
   1   0  -3 6.11901 4.21494   1
   1   0  -3 6.88911 1.84887   8
  -1   0   3 5.70990 1.40048   2
   0   0  -3 353.219 17.4577   8
   0   0  -3 365.558 20.5102   1
   0   0  -3 332.660 17.0657   2
   0   0   3 361.306 20.3218   1
   0   0   3 367.716 16.9450   2
  -1   0  -3 1387.36 65.6528   1
  -1   0  -3 1404.76 61.4271   2
  -1   0  -3 1350.37 61.3200   6
  -1   0  -3 1392.80 61.8706   8
   1   0   3 1359.68 64.5538   1
   1   0   3 1399.25 61.1567   2
  -2   0  -3 1.39248 1.03247   6
  -2   0  -3 1.10519 5.53804   1
   2   0   3 -0.7200 0.53322   2
   2   0   3 2.73576 4.35242   1
  -3   0  -3 764.851 34.7619   6
  -3   0  -3 674.398 42.6934   1
   3   0   3 751.569 41.4478   1
   3   0   3 733.404 32.8413   2
  -4   0  -3 35.3124 4.28728   6
   4   0   3 37.0593 3.18134   5
  -5   0  -3 522.837 29.8680   5
  -5   0  -3 554.115 28.7992   6
   5   0   3 566.414 26.0140   4
   5   0   3 541.374 26.1334   5
  -6   0  -3 627.997 34.0272   6
   6   0   3 661.252 30.6979   5
   7   0   3 28.8388 4.08557   9
   7   0   3 32.2918 3.16663   5
   8   0   3 101.545 5.43293   5
   8   0   3 93.5913 6.46953   9
   7  -1  -3 3.01116 0.98835   5
   6  -1  -3 10.8795 2.25867   5
   5  -1  -3 344.094 17.8166   5
  -5   1   3 324.420 18.1525   5
  -5   1   3 335.958 20.6419   6
   4  -1  -3 133.757 8.47171   5
  -4   1   3 126.759 10.2577   6
  -4   1   3 129.791 8.93629   5
   3  -1  -3 101.786 6.81603   5
   3  -1  -3 111.832 9.52597   8
  -3   1   3 108.292 8.20747   6
   2  -1  -3 589.899 29.7896   8
   2  -1  -3 605.221 38.0419   1
  -2   1   3 572.048 28.3519   6
   1  -1  -3 102.673 11.5039   1
   1  -1  -3 93.0381 6.71926   8
   1  -1  -3 89.6507 10.1455   1
  -1   1   3 91.6838 5.87856   2
   0  -1  -3 656.241 33.8951   1
   0  -1  -3 676.536 33.8166   1
   0  -1  -3 637.556 30.4406   2
   0  -1  -3 697.261 31.2574   8
   0   1   3 655.627 30.3927   2
  -2  -1  -3 25.7042 2.19565   6
  -2  -1  -3 21.4917 5.52338   1
  -2  -1  -3 23.7768 2.06200   2
   2   1   3 23.4096 4.63789   1
   2   1   3 24.5858 1.92567   2
  -3  -1  -3 7144.22 313.652   1
   3   1   3 6981.03 311.760   1
  -4  -1  -3 96.5896 6.93233   6
   4   1   3 93.1728 5.78189   5
  -5  -1  -3 1098.33 50.8928   6
   5   1   3 1031.38 48.1327   5
   5   1   3 1073.41 48.5419   4
  -6  -1  -3 398.627 22.6169   6
   6   1   3 395.703 19.3327   5
   6   1   3 386.186 19.4578   4
  -7  -1  -3 -0.4910 7.18934   6
   7   1   3 3.15242 1.27216   5
   7   1   3 2.26165 1.87218   9
   8   1   3 2.76914 0.82356   5
   8   1   3 4.69967 1.75969   9
   7  -2  -3 15.6253 1.47299   5
   6  -2  -3 152.794 8.81463   5
  -6   2   3 147.158 8.99210   5
   5  -2  -3 461.888 22.7258   5
  -5   2   3 415.654 25.1438   6
  -5   2   3 450.732 22.9103   5
   4  -2  -3 129.358 8.62158   5
  -4   2   3 123.506 8.71968   5
  -4   2   3 141.404 10.5953   6
   3  -2  -3 4.48656 2.66120   8
   3  -2  -3 4.99332 1.69907   5
  -3   2   3 1.22862 1.99209   6
  -3   2   3 -0.2558 1.29683   5
   2  -2  -3 1.07159 15.4109   1
   2  -2  -3 -0.5821 1.63999   8
  -2   2   3 1.20315 1.34500   6
  -2   2   3 0.59558 11.5358   1
   1  -2  -3 873.415 47.3939   1
   1  -2  -3 902.323 41.2887   8
  -1   2   3 865.256 45.2411   1
  -1   2   3 829.797 39.4128   6
   0  -2  -3 340.674 21.1490   1
   0  -2  -3 335.210 17.3675   8
   0  -2  -3 347.918 20.4521   1
  -1  -2  -3 466.248 24.7154   1
  -1  -2  -3 495.269 24.7322   1
  -1  -2  -3 459.584 21.7421   2
  -1  -2  -3 446.693 22.5041   8
  -2  -2  -3 43.7514 6.04742   1
  -2  -2  -3 42.7836 2.98141   2
  -2  -2  -3 44.2297 2.57779   6
   2   2   3 45.4758 5.83785   1
  -3  -2  -3 11.0018 1.83138   6
  -3  -2  -3 11.4493 9.13173   1
   3   2   3 11.8753 4.01199   1
  -4  -2  -3 126.738 7.98576   6
  -5  -2  -3 70.4856 5.98752   6
   5   2   3 66.6979 4.94438   4
   5   2   3 67.5202 6.01112   9
   5   2   3 63.2682 4.30380   5
  -6  -2  -3 220.660 13.9461   6
   6   2   3 201.494 13.1898   9
   6   2   3 205.203 11.4937   4
   6   2   3 203.103 10.7388   5
  -7  -2  -3 43.9797 7.05332   6
   7   2   3 48.6406 4.19377   4
   7   2   3 50.3766 5.60483   9
   7   2   3 49.3973 3.66565   5
   8   2   3 3.23626 1.58068   9
   8   2   3 1.77336 0.67715   5
   9   2   3 6.16929 1.40913   9
   6  -3  -3 65.3766 4.45370   5
  -6   3   3 61.1948 4.48691   5
   5  -3  -3 41.1162 4.16354   5
  -5   3   3 39.4235 4.12426   5
   4  -3  -3 193.175 11.6176   5
  -4   3   3 167.867 12.8290   6
  -4   3   3 192.492 11.5705   5
   3  -3  -3 676.139 33.5217   5
   3  -3  -3 639.267 35.8054   8
  -3   3   3 685.160 33.4030   6
  -3   3   3 655.621 32.2046   5
   2  -3  -3 213.207 12.4119   5
   2  -3  -3 228.695 14.8472   8
  -2   3   3 222.097 12.3773   5
  -2   3   3 237.181 12.9559   6
   1  -3  -3 80.9789 15.9769   1
   1  -3  -3 72.6094 6.49983   8
  -1   3   3 73.5182 5.00182   6
  -1   3   3 55.2719 11.8549   1
   0  -3  -3 348.920 18.1112   8
   0  -3  -3 335.286 23.7318   1
  -1  -3  -3 1862.22 86.7878   1
  -1  -3  -3 1921.25 87.8321   1
  -2  -3  -3 66.0682 7.51633   1
  -2  -3  -3 48.3484 6.72027   1
  -2  -3  -3 54.8456 4.70197   8
  -2  -3  -3 48.9177 4.34951   2
  -3  -3  -3 7131.82 304.911   1
  -3  -3  -3 6740.86 301.872   2
  -3  -3  -3 7005.64 301.961   6
  -4  -3  -3 182.042 10.2290   6
   4   3   3 180.379 10.2426   4
   4   3   3 187.223 11.0682   9
  -5  -3  -3 3.91353 2.08250   6
   5   3   3 2.53395 1.61634   9
   5   3   3 6.15043 1.80419   7
   5   3   3 2.92242 2.02088   3
   5   3   3 4.26190 1.56823   4
  -6  -3  -3 118.393 9.28783   6
   6   3   3 129.637 9.42336   9
   6   3   3 121.147 6.54790   5
   6   3   3 123.955 7.92196   4
  -7  -3  -3 6.93546 4.28402   6
   7   3   3 4.64072 2.37970   9
   8   3   3 5.34294 2.01787   9
   8   3   3 4.35516 1.51926   4
   9   3   3 174.289 9.19047   9
   6  -4  -3 0.73524 0.60695   5
   5  -4  -3 44.5774 3.92065   5
  -5   4   3 38.8699 3.88907   5
   4  -4  -3 11.5757 2.72095   5
  -4   4   3 10.0030 2.47896   5
   3  -4  -3 12.6072 2.87456   5
  -3   4   3 14.8278 2.89943   5
  -3   4   3 9.42959 4.28187   6
   2  -4  -3 164.695 10.4035   5
   2  -4  -3 164.694 12.7028   8
  -2   4   3 169.876 11.0879   5
  -2   4   3 177.053 10.8499   6
   1  -4  -3 44.5155 5.45577   8
  -1   4   3 38.1736 3.60460   5
  -1   4   3 40.4483 3.98357   6
   0  -4  -3 976.187 45.0417   8
   0  -4  -3 962.018 55.2954   1
   0   4   3 891.463 43.1405   5
   0   4   3 987.798 51.6660   1
  -1  -4  -3 206.226 11.8083   8
  -1  -4  -3 178.332 18.7118   1
  -2  -4  -3 5.58708 5.14640   1
  -4  -4  -3 1246.38 57.6051   6
  -4  -4  -3 1374.39 56.6290   2
   4   4   3 1267.39 59.5025   3
   4   4   3 1261.69 59.3102   9
  -5  -4  -3 222.491 12.7052   6
   5   4   3 211.592 12.0395   7
   5   4   3 213.227 11.9783   4
   5   4   3 230.053 13.2160   3
   5   4   3 217.469 13.2214   9
  -6  -4  -3 13.7875 3.98791   6
   6   4   3 7.37499 2.52988   9
   6   4   3 9.87711 2.23936   4
   6   4   3 11.1757 4.53734   3
   6   4   3 7.97337 2.14536   7
   7   4   3 48.1691 4.67737   4
   7   4   3 53.1148 5.57348   9
   8   4   3 27.5473 3.08469   4
   8   4   3 31.8523 3.98963   9
   9   4   3 6.26768 1.34981   9
   5  -5  -3 33.1236 2.64688   5
  -5   5   3 24.5119 2.06932  10
   4  -5  -3 2.64023 1.28076   5
  -4   5   3 0.39791 1.23012   5
   3  -5  -3 594.713 30.1446   5
  -3   5   3 647.833 30.4201   5
   2  -5  -3 115.864 8.34084   5
  -2   5   3 118.282 8.03608   5
   1  -5  -3 0.21312 3.28440   8
  -1   5   3 4.27952 1.52159   5
  -1   5   3 2.81101 1.77892   3
   0  -5  -3 1190.28 55.4076   8
   0   5   3 1227.14 54.7418   3
   0   5   3 1097.53 52.8440   5
  -1  -5  -3 145.142 9.66060   8
   1   5   3 134.476 10.1371   9
   1   5   3 150.156 9.67011   3
  -2  -5  -3 312.757 16.5688   8
   2   5   3 297.821 15.0971  10
   2   5   3 272.735 17.5940   9
   2   5   3 310.722 16.7296   3
  -3  -5  -3 285.231 16.4811   8
   3   5   3 289.633 16.0290   9
   3   5   3 295.205 16.3207   3
  -4  -5  -3 670.345 30.4443   2
   4   5   3 614.983 30.4128   4
   4   5   3 679.871 32.4218   3
   4   5   3 665.226 32.1497   9
   4   5   3 621.054 30.6878   7
   5   5   3 948.537 44.2160   3
   5   5   3 895.413 42.6392   7
   5   5   3 931.048 44.3188   9
   5   5   3 905.426 42.6394   4
   6   5   3 775.759 37.6085   3
   6   5   3 772.829 38.5467   9
   6   5   3 780.590 36.9407   7
   6   5   3 792.559 37.0109   4
   7   5   3 139.604 8.83258   4
   7   5   3 137.155 9.92582   9
   8   5   3 196.953 10.9384   4
   8   5   3 200.807 11.9954   9
   9   5   3 139.322 8.35154   4
  -4   6   3 28.4882 2.69858   5
  -4   6   3 33.1537 2.93132  10
   3  -6  -3 18.0329 3.06904   5
  -3   6   3 18.4525 2.61674   5
  -2   6   3 340.853 17.6769   5
  -1   6   3 -0.2001 1.46619   3
  -1   6   3 -0.0110 0.99496   5
   0   6   3 2.78247 1.62129   3
   0   6   3 2.85348 1.38503   5
   1   6   3 403.913 20.5114  10
   1   6   3 415.757 22.1885   3
   1   6   3 443.039 21.0107   7
   1   6   3 381.841 20.0744   5
   2   6   3 5.72592 1.90161   7
   2   6   3 5.58642 2.02490   9
   2   6   3 5.56397 1.91686  10
  -3  -6  -3 93.1067 7.99125   8
   3   6   3 81.1107 6.12073   7
   3   6   3 87.8129 7.99656   3
   3   6   3 84.8764 7.12239   9
   4   6   3 1826.31 81.9327   7
   4   6   3 1809.66 83.5019   9
   4   6   3 1837.83 83.7722   3
  -5  -6  -3 42.4683 7.27416   8
   5   6   3 43.3008 4.33483   7
   5   6   3 42.9043 5.05101   9
   5   6   3 43.4735 4.91614   3
   5   6   3 41.8873 4.01500   4
  -6  -6  -3 13.0403 5.80012   8
   6   6   3 20.7206 3.12460   7
   6   6   3 22.2398 3.81447   9
   6   6   3 25.4346 4.85722   3
   7   6   3 395.279 19.6354   4
   7   6   3 376.288 20.8273   9
   8   6   3 -0.2404 0.91947   9
   8   6   3 0.88026 1.10849   4
   9   6   3 38.7048 2.81071   4
  -3   7   3 121.384 6.46292   5
  -2   7   3 187.839 10.1960   7
  -1   7   3 82.5793 5.45625   5
  -1   7   3 71.9869 6.83412   3
  -1   7   3 76.0782 5.83086   7
  -1   7   3 84.1160 5.89490  10
   0   7   3 879.736 43.1617   3
   0   7   3 935.814 41.4027   5
   0   7   3 900.330 42.2901   7
   0   7   3 898.782 42.1730  10
   1   7   3 109.912 8.68906   3
   1   7   3 122.694 7.96088   7
   1   7   3 114.848 6.33329   5
   1   7   3 112.182 7.70145  10
   2   7   3 -0.2901 1.42081   7
   2   7   3 0.74407 1.56197   3
   3   7   3 63.3088 6.43493   3
   3   7   3 66.6994 6.36068   9
   3   7   3 68.5936 5.50997   7
   4   7   3 246.962 12.9460   4
   4   7   3 259.926 15.2606   9
   4   7   3 247.675 15.2829   3
   4   7   3 248.274 13.7540   7
   5   7   3 868.927 40.8097   7
   5   7   3 768.822 42.3828   3
   5   7   3 865.268 41.8293   9
   6   7   3 490.878 25.8383   3
   6   7   3 532.961 26.6845   9
   6   7   3 524.214 24.7320   4
   6   7   3 492.727 24.7724   7
   7   7   3 214.046 12.9690   9
   7   7   3 227.819 11.9168   4
   8   7   3 172.488 10.3078   9
   8   7   3 202.460 9.89120   4
  -1   8   3 87.7065 5.65547   7
  -1   8   3 104.215 4.72783   5
   0   8   3 235.915 11.9759   7
   0   8   3 210.312 12.2935   3
   1   8   3 300.357 16.0492   3
   1   8   3 256.954 14.4270   7
   2   8   3 0.97619 1.21551   7
   2   8   3 -0.4172 1.02034   3
   3   8   3 10.5782 2.25377   7
   3   8   3 12.8687 2.94719   3
   4   8   3 613.848 29.3635   9
   4   8   3 575.659 29.2324   3
   4   8   3 520.706 27.1436   7
   5   8   3 1069.24 48.3542   9
   5   8   3 934.446 46.3253   7
   5   8   3 1034.16 48.1316   3
   6   8   3 95.4869 7.03245   3
   6   8   3 84.0869 6.01395   7
   6   8   3 116.534 6.16192   4
   6   8   3 114.629 7.81904   9
   7   8   3 223.248 11.1106   4
   7   8   3 225.499 12.4650   9
   8   8   3 0.75421 0.89524   4
   1   9   3 30.8753 3.03980   3
   2   9   3 70.8725 6.06959   7
   2   9   3 91.5273 6.35354   3
   3   9   3 21.6754 4.67985   3
   3   9   3 10.7151 2.77706   7
   4   9   3 5.57283 1.90741   3
   5   9   3 253.598 13.8460   3
   6   9   3 104.319 6.51444   3
   3  10   3 0.43640 0.68613   3
   4  10   3 5.08106 1.20531   3
   4   7  -4 0.02392 0.71017   7
   3   7  -4 0.90772 0.97797   7
   2   7  -4 286.458 14.8235   7
   1   7  -4 7.01304 1.70787   7
   0   7  -4 19.0617 2.27290   7
  -1   7  -4 4.09264 1.33847   7
   6   6  -4 46.5302 3.27958   7
   5   6  -4 9.32548 1.75613   4
   5   6  -4 7.12385 1.64288   7
   4   6  -4 8.18626 2.50907   7
   4   6  -4 6.80831 1.93387   4
   3   6  -4 247.542 13.3428   7
   3   6  -4 219.654 12.3800   4
   2   6  -4 71.9585 5.90572   7
   1   6  -4 1279.02 59.2467   7
   1   6  -4 1297.57 56.5788   5
   0   6  -4 8.21028 2.13911   7
   0   6  -4 6.41497 1.30171   5
  -1   6  -4 183.020 9.44120   5
  -1   6  -4 180.949 10.6286   7
  -2   6  -4 61.8466 3.99352   5
  -2   6  -4 62.0898 4.67558   7
  -3   6  -4 60.3151 4.65305   7
  -3   6  -4 87.3337 4.46943   5
   7   5  -4 29.8189 2.19418   4
   6   5  -4 13.3668 2.28660   4
   6   5  -4 14.1223 2.07931   7
   5   5  -4 172.815 10.1535   4
   5   5  -4 168.312 10.0694   7
   4   5  -4 133.648 8.73901   4
   4   5  -4 129.814 8.69066   7
   3   5  -4 21.9158 3.20037   4
   3   5  -4 20.1089 3.17013   7
   2   5  -4 7.53648 2.04967   4
   2   5  -4 9.67160 1.97664   5
   2   5  -4 8.17305 2.35074   7
   1   5  -4 278.084 13.2477   5
   1   5  -4 270.116 14.9706   7
   1   5  -4 236.277 13.7529   4
   0   5  -4 232.084 11.8311   5
   0   5  -4 212.869 12.9854   7
  -1   5  -4 20.9843 2.60928   5
  -1   5  -4 19.6800 3.49335   7
  -2   5  -4 10.8753 2.46084   7
  -2   5  -4 9.51117 1.92253   5
  -3   5  -4 73.1286 5.63913   7
  -3   5  -4 76.1784 5.27052   5
  -4   5  -4 308.339 15.0107   5
   4  -5   4 307.099 16.9363   5
  -5   5  -4 119.588 6.12164   5
   7   4  -4 24.3697 2.23909   4
   6   4  -4 3.40950 1.30599   7
   6   4  -4 6.67878 2.57708   4
   5   4  -4 68.1172 5.73537   4
   5   4  -4 67.6934 5.58429   7
   4   4  -4 30.5705 4.28725   7
   3   4  -4 305.870 16.4832   4
   3   4  -4 299.436 16.3540   7
   3   4  -4 288.691 14.5026   5
   2   4  -4 603.386 28.7822   7
   2   4  -4 562.441 27.0311   5
   1   4  -4 4507.77 195.353   7
   1   4  -4 4363.02 193.742   5
   0   4  -4 340.144 17.9245   7
   0   4  -4 333.699 16.7769   5
  -1   4  -4 20.2338 3.12954   7
  -1   4  -4 20.1337 2.69425   5
  -2   4  -4 363.928 17.8252   5
   2  -4   4 327.188 17.7179   5
  -3   4  -4 5.56129 1.77680   5
   3  -4   4 4.25701 1.72281   5
  -4   4  -4 33.5178 3.40936   5
   4  -4   4 30.7605 3.22307   5
  -5   4  -4 8.93328 1.71972   5
   5  -4   4 7.29054 1.38694   5
  -6   4  -4 85.9838 4.84914   5
   7   3  -4 12.3981 2.03984   4
   6   3  -4 366.329 18.5676   4
   5   3  -4 311.045 15.1378   5
   5   3  -4 322.021 17.1725   4
   5   3  -4 328.197 17.2051   7
  -5  -3   4 298.222 20.6038   6
   4   3  -4 334.030 18.2587   4
   4   3  -4 334.062 16.5648   5
   4   3  -4 344.562 18.1315   7
   3   3  -4 0.47812 1.22112   7
  -3  -3   4 2.17426 4.16084   2
   2   3  -4 69.4139 5.43014   7
   2   3  -4 64.4476 4.56996   5
  -2  -3   4 65.3201 6.52497   2
   1   3  -4 554.022 26.7599   7
   1   3  -4 546.194 25.7907   5
  -1  -3   4 560.272 28.0195   2
   0   3  -4 149.667 8.97963   7
   0   3  -4 141.632 8.23627   5
   0  -3   4 156.104 10.1471   2
  -1   3  -4 28.3814 3.05596   5
   1  -3   4 34.4418 4.87258   2
  -2   3  -4 134.936 8.16887   5
   2  -3   4 129.236 8.22615   5
  -3   3  -4 31.1791 5.76828   6
  -3   3  -4 28.6969 3.33844   5
   3  -3   4 26.3172 3.28344   5
  -4   3  -4 13.0599 4.28715   6
  -4   3  -4 23.1717 3.19202   5
   4  -3   4 22.1852 2.95743   5
  -5   3  -4 3.33870 1.43718   5
   5  -3   4 4.78121 1.53341   5
  -6   3  -4 311.960 15.5650   5
   6  -3   4 322.823 15.4605   5
   7   2  -4 9.27084 1.34105   4
   6   2  -4 412.031 19.4632   5
   6   2  -4 408.392 20.3831   4
   5   2  -4 141.708 9.83418   4
   5   2  -4 156.089 9.73508   7
   5   2  -4 156.775 8.95051   5
  -5  -2   4 145.256 12.6632   6
   4   2  -4 90.4772 6.64995   7
   4   2  -4 79.8209 6.42920   4
   4   2  -4 80.8505 5.73538   5
   3   2  -4 11.0986 2.05625   5
   3   2  -4 9.54188 2.23749   7
  -3  -2   4 5.22474 2.83267   2
   2   2  -4 1041.56 46.4071   5
   2   2  -4 1012.34 48.7785   8
   2   2  -4 1009.08 48.2701   7
  -2  -2   4 1040.63 48.0354   2
   1   2  -4 2994.11 134.276   5
   1   2  -4 3062.09 135.595   8
  -1  -2   4 3143.36 135.987   2
   0   2  -4 4247.33 185.492   8
   0   2  -4 4237.29 185.260   5
  -1   2  -4 1192.72 53.4684   8
  -2   2  -4 329.406 19.2360   6
  -2   2  -4 310.298 15.7284   5
  -2   2  -4 294.704 15.8409   8
   2  -2   4 303.428 15.6264   5
   2  -2   4 315.390 16.6396   2
  -3   2  -4 36.1468 5.51907   6
  -3   2  -4 35.0489 3.57392   5
  -3   2  -4 35.0610 5.24887   8
   3  -2   4 29.5584 4.79719   2
   3  -2   4 37.5886 3.52687   5
  -4   2  -4 357.895 20.6771   6
  -4   2  -4 343.311 18.1204   5
   4  -2   4 346.981 17.8657   5
  -5   2  -4 273.606 15.1562   5
  -5   2  -4 267.145 17.7132   6
   5  -2   4 296.702 15.0429   5
  -6   2  -4 507.029 23.8870   5
   6  -2   4 421.512 22.0997   5
  -7   2  -4 137.199 8.25355   5
   7  -2   4 140.371 7.26451   5
   7  -2   4 131.966 8.10935   9
   6   1  -4 699.891 32.3297   5
  -5  -1   4 55.6099 8.47055   6
   4   1  -4 24.6858 3.04601   5
   4   1  -4 21.7978 3.26969   4
   4   1  -4 31.6042 3.60685   7
   3   1  -4 23.6783 2.89978   7
   3   1  -4 17.2803 2.45335   5
  -3  -1   4 19.6504 3.53015   2
   2   1  -4 917.867 44.4319   8
   2   1  -4 893.904 42.0607   5
  -2  -1   4 928.870 42.9852   2
   1   1  -4 64.9023 12.0231   1
   1   1  -4 79.4997 6.50351   8
  -1  -1   4 87.5252 6.03131   2
   0   1  -4 308.772 15.9702   8
   0   1  -4 266.975 22.9713   1
   0  -1   4 308.207 22.4608   1
   0  -1   4 318.563 15.7586   2
  -1   1  -4 182.353 10.3295   8
  -1   1  -4 177.744 20.8157   1
   1  -1   4 165.511 17.2112   1
   1  -1   4 182.631 10.1103   2
  -2   1  -4 63.8357 5.25052   8
  -2   1  -4 58.3657 5.12876   6
  -2   1  -4 38.6953 15.7038   1
   2  -1   4 49.9475 13.7006   1
   2  -1   4 61.9023 4.74683   2
  -3   1  -4 19.4413 3.47231   6
   3  -1   4 20.0088 2.30559   5
   3  -1   4 23.6375 3.24218   2
  -4   1  -4 1.39062 2.15261   6
  -4   1  -4 -2.4520 1.15035   5
  -5   1  -4 962.882 44.5076   5
  -5   1  -4 946.291 47.0683   6
   5  -1   4 942.976 43.9332   5
  -6   1  -4 124.694 8.26158   5
   6  -1   4 126.551 7.84678   5
  -7   1  -4 235.954 13.2082   5
   7  -1   4 281.852 14.8579   9
   8  -1   4 9.77494 1.50731   9
   8  -1   4 14.9050 1.18546   5
   7   0  -4 26.6406 1.79044   5
   6   0  -4 684.128 31.9126   5
   5   0  -4 18.2335 3.02316   4
   5   0  -4 21.3563 3.96462   5
  -5   0   4 19.9578 5.19799   6
   4   0  -4 9.90015 2.17578   4
   4   0  -4 8.23292 2.19689   5
  -4   0   4 11.0535 3.90884   6
   3   0  -4 377.125 18.6349   7
   3   0  -4 354.276 21.9154   8
   3   0  -4 349.995 18.1774   5
   2   0  -4 699.188 34.0059   5
   2   0  -4 703.786 36.7422   8
   2   0  -4 825.272 50.4438   1
  -2   0   4 769.977 35.2593   2
   1   0  -4 49.7001 10.6692   1
   1   0  -4 18.0650 8.23346   1
   1   0  -4 35.2059 4.16545   8
  -1   0   4 36.1758 3.61850   2
   0   0  -4 4030.40 182.796   1
   0   0  -4 3857.24 177.688   8
   0   0   4 4237.98 177.128   2
  -1   0  -4 2029.98 93.7379   1
   1   0   4 1843.79 91.5651   1
   1   0   4 1994.61 86.6371   2
  -2   0  -4 131.465 8.02328   6
  -2   0  -4 150.223 17.9689   1
   2   0   4 117.277 14.8260   1
   2   0   4 136.381 7.54098   2
  -3   0  -4 12.9433 15.2196   1
  -3   0  -4 3.57218 1.69695   6
   3   0   4 4.05513 1.32686   2
   3   0   4 3.54678 1.07904   5
  -4   0  -4 687.325 32.4704   6
  -4   0  -4 648.829 31.0185   5
   4   0   4 623.447 30.2677   5
  -5   0  -4 92.9438 8.05749   6
  -5   0  -4 93.2607 6.83338   5
   5   0   4 84.5188 5.93523   5
  -6   0  -4 81.0701 8.54425   6
   6   0   4 91.3945 6.14571   5
   7   0   4 1.94874 1.59838   9
   7   0   4 1.48328 1.12161   5
   8   0   4 88.7780 4.74622   5
   8   0   4 76.9573 5.70642   9
   7  -1  -4 52.7357 2.89793   5
   6  -1  -4 226.203 12.3879   5
   5  -1  -4 145.866 9.03803   5
  -5   1   4 132.029 9.08900   5
  -5   1   4 133.133 11.9600   6
   4  -1  -4 30.5332 3.70890   4
   4  -1  -4 40.0056 4.15329   5
  -4   1   4 35.9653 4.61567   5
  -4   1   4 35.2028 6.05094   6
   3  -1  -4 422.155 21.4507   4
   3  -1  -4 433.943 21.9272   5
   3  -1  -4 455.308 26.1289   8
  -3   1   4 472.094 24.0403   6
  -3   1   4 428.013 22.3002   5
   2  -1  -4 2432.87 111.335   1
   2  -1  -4 2092.25 99.4258   5
   2  -1  -4 2247.89 102.742   8
   1  -1  -4 59.1894 12.9084   1
   1  -1  -4 84.3056 6.81993   8
   1  -1  -4 79.8606 13.5541   1
  -1   1   4 86.8917 6.07922   2
   0  -1  -4 162.685 9.86513   8
   0  -1  -4 152.873 14.5616   1
   0  -1  -4 168.757 16.5425   1
   0   1   4 151.226 8.90959   2
  -1  -1  -4 3742.91 159.340   1
  -1  -1  -4 3224.45 154.429   8
   1   1   4 3398.06 157.888   1
   1   1   4 3670.09 153.622   2
  -2  -1  -4 393.590 18.3325   6
  -2  -1  -4 380.322 25.7220   1
  -2  -1  -4 363.360 18.4054   2
   2   1   4 370.657 23.0921   1
   2   1   4 398.871 18.2473   2
  -3  -1  -4 281.439 14.5638   6
  -3  -1  -4 243.712 25.0525   1
   3   1   4 279.516 13.5352   2
   3   1   4 345.760 25.9277   1
  -4  -1  -4 70.9555 5.78418   6
   4   1   4 67.4264 5.07047   4
   4   1   4 63.4796 4.41716   5
  -5  -1  -4 1287.26 61.3640   6
   5   1   4 1335.68 59.3470   4
  -6  -1  -4 93.9267 8.96853   6
   6   1   4 102.721 6.63004   4
   6   1   4 94.7803 6.29251   5
  -7  -1  -4 628.115 36.4281   6
   7   1   4 726.354 36.0054   9
   7   1   4 780.506 33.3827   5
   8   1   4 64.7172 3.91956   5
   8   1   4 64.6563 5.43668   9
   6  -2  -4 171.895 8.92910   5
  -6   2   4 147.275 8.69734   5
   5  -2  -4 1.94854 1.42684   5
  -5   2   4 4.56431 1.86751   5
   4  -2  -4 344.207 18.7796   5
  -4   2   4 336.359 18.9582   5
  -4   2   4 404.781 23.0970   6
   3  -2  -4 409.067 20.3627   5
   3  -2  -4 386.292 23.9465   8
  -3   2   4 374.355 21.2977   6
  -3   2   4 378.262 20.1624   5
   2  -2  -4 3.50474 1.35271   5
   2  -2  -4 13.2259 3.64374   8
  -2   2   4 -0.7446 1.34721   6
   1  -2  -4 584.658 39.6975   1
   1  -2  -4 573.772 29.3976   8
   1  -2  -4 573.448 36.5510   1
  -1   2   4 573.477 27.3401   6
   0  -2  -4 158.767 16.5370   1
   0  -2  -4 133.658 9.02601   8
   0  -2  -4 128.092 14.5809   1
  -1  -2  -4 640.400 35.0224   1
  -1  -2  -4 633.863 31.1650   8
  -1  -2  -4 669.123 35.0640   1
  -2  -2  -4 169.858 14.5674   1
  -2  -2  -4 143.065 8.28404   2
  -2  -2  -4 151.276 9.56978   8
   2   2   4 148.954 13.1106   1
  -3  -2  -4 4.62465 1.35762   2
  -3  -2  -4 5.29129 1.34696   6
  -4  -2  -4 383.866 19.3185   6
   4   2   4 377.049 18.1764   5
   4   2   4 394.907 18.8809   4
  -5  -2  -4 1137.62 54.4464   6
   5   2   4 1183.33 53.2346   4
   5   2   4 1168.79 54.8920   9
   5   2   4 1189.34 52.4835   5
  -6  -2  -4 205.301 13.7963   6
   6   2   4 212.198 11.2385   5
   6   2   4 220.853 12.0489   4
   6   2   4 223.584 13.9693   9
  -7  -2  -4 14.3600 4.98791   6
   7   2   4 17.2890 2.82873   4
   7   2   4 18.0681 2.13305   5
   7   2   4 16.9131 3.66919   9
   8   2   4 470.321 21.4061   5
   8   2   4 481.603 24.4504   9
   9   2   4 11.5905 1.62500   9
   6  -3  -4 6.30035 1.38514   5
  -6   3   4 4.60685 1.27691   5
   5  -3  -4 137.101 8.39536   5
  -5   3   4 127.210 8.88272   5
   4  -3  -4 18.5651 3.35490   5
  -4   3   4 20.7038 5.95693   6
  -4   3   4 18.5045 3.34472   5
   3  -3  -4 387.268 20.1370   5
   3  -3  -4 398.355 24.5821   8
  -3   3   4 389.530 20.2105   5
  -3   3   4 357.585 20.8697   6
   2  -3  -4 265.185 14.3172   5
   2  -3  -4 263.903 17.3027   8
  -2   3   4 252.828 14.4626   6
  -2   3   4 247.729 14.0349   5
   1  -3  -4 174.736 11.6996   8
  -1   3   4 153.543 9.20300   6
   0  -3  -4 145.662 9.87859   8
   0  -3  -4 172.021 19.7891   1
   0   3   4 136.976 6.82309   6
  -1  -3  -4 1130.39 56.7669   1
  -1  -3  -4 1173.43 53.2452   8
  -1  -3  -4 1117.50 58.2500   1
  -2  -3  -4 89.6042 6.72489   8
  -2  -3  -4 63.2005 9.22994   1
  -2  -3  -4 98.2012 12.5224   1
  -3  -3  -4 455.439 21.2774   2
  -3  -3  -4 445.888 26.7271   1
  -4  -3  -4 651.406 30.4844   6
   4   3   4 668.570 33.2561   9
  -5  -3  -4 50.7996 4.86218   6
   5   3   4 38.9860 3.75456   4
   5   3   4 46.1442 4.86021   9
   5   3   4 41.6858 3.07074   5
  -6  -3  -4 939.417 45.6877   6
   6   3   4 916.709 44.8977   3
   6   3   4 953.682 43.9830   4
   6   3   4 951.259 42.4871   5
   6   3   4 981.031 46.1630   9
  -7  -3  -4 171.364 13.7113   6
   7   3   4 203.637 12.9215   9
   7   3   4 179.793 9.28810   5
   7   3   4 202.985 11.0579   4
   8   3   4 0.96026 1.15791   4
   8   3   4 1.17063 1.25877   9
   9   3   4 106.888 6.55932   9
   5  -4  -4 28.1986 2.93823   5
  -5   4   4 29.7166 3.02631   5
   4  -4  -4 246.919 13.5575   5
  -4   4   4 234.785 13.5337   5
   3  -4  -4 41.4489 4.57484   5
  -3   4   4 40.4409 4.40464   5
   2  -4  -4 209.549 12.1042   5
   2  -4  -4 194.230 14.8165   8
  -2   4   4 192.865 11.7018   5
   1  -4  -4 266.798 15.2919   5
   1  -4  -4 292.707 17.8623   8
  -1   4   4 288.331 15.0580   5
   0  -4  -4 510.066 25.8379   8
   0   4   4 457.081 23.0177   5
  -1  -4  -4 4.76808 2.13078   8
  -1  -4  -4 5.22868 13.0965   1
  -2  -4  -4 22.1124 9.59303   1
  -3  -4  -4 100.615 8.00455   8
  -3  -4  -4 94.2503 11.1557   1
   3   4   4 95.8056 7.04463   9
   3   4   4 104.057 7.40837   3
   4   4   4 191.725 10.6068   4
   4   4   4 193.223 11.8036   9
   4   4   4 205.401 12.2310   3
   5   4   4 2407.46 109.999   4
   5   4   4 2566.29 111.993   3
   5   4   4 2474.01 111.770   9
   6   4   4 79.1909 7.09442   9
   6   4   4 81.1193 6.95422   3
   6   4   4 80.7822 6.00612   4
   7   4   4 12.5577 2.58326   4
   7   4   4 14.2895 3.37155   9
   8   4   4 275.761 15.8638   9
   8   4   4 281.144 14.3489   4
   9   4   4 19.9532 2.64378   9
   5  -5  -4 -1.4059 1.23149   5
  -5   5   4 0.99649 0.57212   5
   4  -5  -4 5.06421 1.51877   5
  -4   5   4 7.72813 1.84637   5
   3  -5  -4 5.26894 1.97278   5
  -3   5   4 5.22886 1.91605   5
   2  -5  -4 44.6837 5.05181   5
  -2   5   4 38.6777 4.25664   5
   1  -5  -4 165.938 13.2882   8
  -1   5   4 176.726 10.3823   5
   0  -5  -4 707.667 36.7241   8
   0   5   4 706.816 33.7575   3
   0   5   4 651.211 32.1990   5
  -1  -5  -4 41.7283 5.25172   8
   1   5   4 31.7302 3.17281   5
   1   5   4 40.9471 4.34645   3
   1   5   4 37.6029 3.96797   9
  -2  -5  -4 150.491 10.6466   8
   2   5   4 153.150 9.64917   9
   2   5   4 156.353 10.2684   3
  -3  -5  -4 2247.08 102.129   8
   3   5   4 2258.26 101.410   3
   3   5   4 2267.18 100.764   9
   3   5   4 2194.23 98.9522   4
  -4  -5  -4 224.246 14.5375   8
   4   5   4 213.426 13.2812   3
   4   5   4 217.319 13.0114   9
   4   5   4 204.476 11.4453   4
   5   5   4 141.491 9.95171   9
   5   5   4 138.876 10.0492   3
   5   5   4 147.911 8.77719   4
   6   5   4 659.099 32.8926   3
   6   5   4 660.285 33.5126   9
   6   5   4 667.589 31.7445   4
   7   5   4 75.1883 5.74534   4
   7   5   4 73.8174 6.83049   9
   8   5   4 -0.2802 0.94351   4
   8   5   4 0.99224 1.18430   9
   9   5   4 243.792 13.1306   9
  -4   6   4 33.3086 2.95918   5
  -4   6   4 27.6355 2.20634  10
   3  -6  -4 6.88467 2.42624   5
  -3   6   4 6.51027 2.53104   5
  -2   6   4 84.7255 6.25778   5
  -1   6   4 271.691 16.7954   5
   0  -6  -4 0.42377 6.42037   8
   0   6   4 18.4682 3.21225   3
   0   6   4 17.4860 2.50743   5
  -1  -6  -4 70.4962 8.33555   8
   1   6   4 71.5109 4.93877   5
   1   6   4 73.7232 6.51784   3
  -2  -6  -4 3.97240 3.86756   8
   2   6   4 0.74858 0.97256   5
   2   6   4 2.15559 1.46664   9
   2   6   4 0.20583 1.27296   3
   2   6   4 1.71186 1.96891  10
  -3  -6  -4 71.6039 7.61120   8
   3   6   4 62.4505 6.15370   3
   3   6   4 65.2792 5.88623   9
  -4  -6  -4 18.7159 4.77428   8
   4   6   4 18.9513 3.20888   9
   4   6   4 17.6429 2.88792   4
   4   6   4 19.7948 3.45292   3
  -5  -6  -4 271.565 18.2466   8
   5   6   4 291.575 14.8615   4
   5   6   4 274.978 16.5767   3
   5   6   4 278.837 16.4546   9
  -6  -6  -4 8.33095 5.02282   8
   7   6   4 54.1187 5.53977   9
   7   6   4 47.5396 4.83067   3
   7   6   4 69.2026 5.06532   4
   8   6   4 9.41008 1.95714   4
   8   6   4 9.27609 2.27732   9
   9   6   4 12.0396 1.69212   9
  -3   7   4 24.9195 2.09525   5
  -3   7   4 28.4662 2.18415  10
  -2   7   4 7.10337 1.73048  10
  -2   7   4 4.76748 1.31002   5
  -1   7   4 111.556 7.46865   7
  -1   7   4 130.588 7.86365  10
  -1   7   4 130.578 7.54669   5
   0   7   4 467.943 23.5056   3
   0   7   4 471.250 21.9665   5
   0   7   4 417.297 22.0933   7
   0   7   4 475.975 22.8551  10
   1   7   4 1.05745 3.14663   7
   1   7   4 1.92050 1.19456   5
   1   7   4 2.79683 2.17314   3
   1   7   4 1.99861 1.58662  10
   2   7   4 5.75727 2.12857  10
   2   7   4 10.3422 2.86827   3
   3   7   4 1214.86 57.3913   9
   3   7   4 1225.12 58.0536   3
   4   7   4 295.791 17.4532   3
   4   7   4 285.909 14.6418   4
   4   7   4 297.434 17.0928   9
   5   7   4 98.4480 7.91752   9
   5   7   4 93.9539 6.25482   4
   5   7   4 87.8689 7.64123   3
   6   7   4 155.324 10.3891   3
   6   7   4 152.483 10.5018   9
   6   7   4 150.535 8.93075   4
   7   7   4 31.7447 3.36074   3
   7   7   4 35.0901 4.14859   9
   7   7   4 40.9121 3.53388   4
   8   7   4 19.7024 2.70923   9
   8   7   4 21.4923 2.35505   4
   0   8   4 55.8570 4.19408  10
   0   8   4 41.1372 3.75517   3
   1   8   4 116.417 8.13778   3
   2   8   4 141.240 9.89776   3
   3   8   4 8.55421 2.64819   3
   4   8   4 377.857 21.1769   3
   4   8   4 393.274 21.0038   9
   5   8   4 0.90798 1.35583   9
   5   8   4 1.42562 1.42793   3
   6   8   4 32.5654 2.96223   4
   6   8   4 29.2320 4.38947   3
   6   8   4 32.5044 3.86594   9
   7   8   4 53.5177 4.72090   9
   7   8   4 57.5827 3.80306   4
   8   8   4 1.02136 0.81946   9
   1   9   4 24.6523 2.71461   3
   2   9   4 15.0615 2.31216   3
   3   9   4 104.818 7.90593   3
   4   9   4 602.590 30.0162   3
   5   9   4 3.66303 1.52524   3
   6   9   4 4.07532 1.22471   3
   3  10   4 0.22126 0.53016   3
   4  10   4 129.553 7.31156   3
   5  10   4 19.3739 1.90997   3
   3   7  -5 26.0313 1.93119   7
   2   7  -5 111.327 6.00403   7
   5   6  -5 16.2792 2.29704   4
   4   6  -5 -0.9279 0.99424   4
   4   6  -5 0.74981 0.81740   7
   3   6  -5 111.564 6.76452   7
   3   6  -5 105.842 6.26980   4
   2   6  -5 0.15558 0.97928   7
   1   6  -5 178.181 10.1037   7
   0   6  -5 14.6616 1.48213   5
   0   6  -5 14.6194 2.13298   7
  -1   6  -5 36.5590 2.45761   5
  -1   6  -5 31.2272 2.96011   7
  -2   6  -5 7.30841 1.36384   7
  -2   6  -5 12.0252 1.61748   5
   6   5  -5 3.10832 0.90631   4
   5   5  -5 13.6123 2.01144   7
   5   5  -5 18.7769 2.39200   4
   4   5  -5 79.4772 6.42260   4
   4   5  -5 83.5760 5.83652   7
   3   5  -5 45.4682 4.25263   7
   3   5  -5 49.0763 4.51846   4
   2   5  -5 2293.15 99.2193   7
   2   5  -5 2107.71 98.5565   4
   2   5  -5 2239.91 96.9377   5
   1   5  -5 3.82259 1.21757   5
   1   5  -5 1.33482 1.36694   7
   1   5  -5 -0.3524 1.33121   4
   0   5  -5 131.561 7.45507   5
   0   5  -5 124.533 8.33881   7
  -1   5  -5 8.28609 1.63307   5
  -1   5  -5 10.0856 2.23199   7
  -2   5  -5 29.3766 2.83187   5
  -2   5  -5 18.0395 3.28376   7
  -3   5  -5 38.2426 3.26149   7
   6   4  -5 7.27253 1.55116   4
   5   4  -5 111.337 7.20870   7
   5   4  -5 125.468 7.87011   4
   4   4  -5 10.4054 2.25570   7
   4   4  -5 13.3165 2.76071   4
   3   4  -5 310.351 17.1761   4
   3   4  -5 313.193 16.7932   7
   3   4  -5 321.609 15.3666   5
   2   4  -5 81.4729 5.35041   5
   2   4  -5 79.8405 6.26680   7
   1   4  -5 10.5124 2.44595   7
   1   4  -5 9.85729 2.04083   5
   0   4  -5 491.037 23.8026   5
   0   4  -5 499.331 24.7946   7
  -1   4  -5 28.9152 3.60871   7
  -1   4  -5 33.0956 3.41488   5
  -2   4  -5 2.20269 1.24694   5
  -2   4  -5 0.56628 1.24909   7
   2  -4   5 0.61550 1.41849   5
  -3   4  -5 2.71665 1.34473   5
  -3   4  -5 2.24720 1.53154   7
   3  -4   5 3.39210 1.54360   5
  -4   4  -5 4.06303 1.46928   7
   4  -4   5 6.70972 1.64214   5
  -5   4  -5 550.116 25.0981   5
   5  -4   5 540.763 24.9356   5
   6   3  -5 9.80548 1.88719   4
   5   3  -5 9.81076 2.09316   7
   5   3  -5 8.04677 2.14009   4
   5   3  -5 7.48845 1.59443   5
   4   3  -5 23.1251 2.63990   5
   4   3  -5 19.6549 3.53071   4
   4   3  -5 23.3582 3.15183   7
   3   3  -5 4.86344 1.63774   7
   3   3  -5 6.67786 2.31847   4
   3   3  -5 5.92083 1.66292   5
   2   3  -5 2053.25 90.7991   5
   2   3  -5 2036.19 91.7429   7
   1   3  -5 784.346 35.8405   5
   1   3  -5 764.431 36.5504   7
   0   3  -5 49.8541 4.08000   5
  -1   3  -5 29.2734 3.40377   7
  -1   3  -5 32.6707 3.23844   5
   1  -3   5 21.3832 3.39453   5
  -2   3  -5 5.37458 1.85809   5
  -2   3  -5 7.16926 2.00583   7
   2  -3   5 8.42054 1.98240   5
  -3   3  -5 419.961 19.5213   5
   3  -3   5 330.651 19.4034   5
  -4   3  -5 343.661 17.7991   5
   4  -3   5 348.013 17.6362   5
  -5   3  -5 228.394 12.0346   5
   5  -3   5 202.263 11.3095   5
  -6   3  -5 15.2851 1.95207   5
   6  -3   5 13.8803 1.97620   5
   6   2  -5 21.5710 2.46630   4
   5   2  -5 0.59422 1.26778   4
   5   2  -5 2.11173 1.03178   5
   4   2  -5 3.42910 2.03152   5
   4   2  -5 3.73011 1.96040   7
   4   2  -5 1.61682 2.13852   4
   3   2  -5 1021.58 47.7027   5
   3   2  -5 1064.75 48.4380   7
   2   2  -5 223.638 12.1913   5
   2   2  -5 239.307 12.7607   7
   2   2  -5 210.868 14.7729   8
  -2  -2   5 248.155 14.8043   2
   1   2  -5 629.903 28.9462   5
   1   2  -5 623.777 29.4376   7
   1   2  -5 568.009 30.4069   8
  -1  -2   5 651.254 31.1823   2
   0   2  -5 854.227 39.6864   7
   0   2  -5 843.888 39.2334   5
   0  -2   5 875.146 41.2790   2
  -1   2  -5 4.27747 1.36741   5
   1  -2   5 1.82849 2.61563   2
   1  -2   5 3.90942 1.47430   5
   2  -2   5 59.6992 6.74274   2
   2  -2   5 66.0364 4.98883   5
  -3   2  -5 210.675 11.4490   5
  -3   2  -5 186.616 13.3135   6
   3  -2   5 173.540 14.4024   2
   3  -2   5 198.460 11.1401   5
  -4   2  -5 50.9967 4.66813   5
  -4   2  -5 52.7662 7.47520   6
   4  -2   5 45.8039 4.27233   5
  -5   2  -5 1163.20 52.0505   5
  -5   2  -5 1073.50 55.1929   6
   5  -2   5 1148.82 51.7114   5
  -6   2  -5 508.152 24.5281   5
   6  -2   5 522.919 24.3801   5
   7  -2   5 5.59109 0.95555   5
   7  -2   5 5.33455 1.27490   9
   6   1  -5 2.66020 0.96647   5
   6   1  -5 3.18650 1.47347   4
   5   1  -5 399.164 18.8361   5
   5   1  -5 382.578 19.0121   4
  -5  -1   5 318.050 23.5929   6
   4   1  -5 411.595 21.4414   4
   4   1  -5 404.818 20.8927   5
   4   1  -5 428.207 21.4186   7
  -4  -1   5 435.210 24.8778   6
   3   1  -5 83.4468 9.36632   8
   3   1  -5 90.3169 7.12325   7
   3   1  -5 76.0075 5.83470   5
   2   1  -5 87.7573 6.37007   7
   2   1  -5 91.4490 6.08158   5
   2   1  -5 87.7523 8.64228   8
  -2  -1   5 85.3218 7.68172   2
   1   1  -5 1697.69 74.9490   5
   1   1  -5 1701.70 77.5658   8
  -1  -1   5 1638.34 76.5173   2
   0   1  -5 1277.22 59.0297   5
   0   1  -5 1328.18 60.9523   8
   0  -1   5 1353.84 60.6150   2
  -1   1  -5 15.5187 2.11778   5
  -1   1  -5 18.3351 3.10308   8
   1  -1   5 16.3234 2.90810   2
  -2   1  -5 59.9579 5.77769   8
  -2   1  -5 67.3131 4.79779   5
   2  -1   5 60.8702 4.55999   5
   2  -1   5 63.5674 5.65422   2
  -3   1  -5 142.621 8.65251   5
  -3   1  -5 135.634 10.0534   8
  -3   1  -5 151.094 10.2455   6
   3  -1   5 133.442 9.44823   2
   3  -1   5 139.429 8.30440   5
  -4   1  -5 256.024 13.9998   5
  -4   1  -5 259.349 16.0800   6
  -4   1  -5 231.796 15.8725   8
   4  -1   5 270.742 13.8114   5
  -5   1  -5 643.575 35.1463   6
  -5   1  -5 700.396 40.2396   8
  -5   1  -5 675.415 35.2946   5
   5  -1   5 698.525 32.3361   5
  -6   1  -5 12.1980 2.25781   5
   6  -1   5 13.4605 2.35262   5
  -7   1  -5 167.974 9.68350   5
   7  -1   5 154.572 9.81116   9
   7  -1   5 172.433 8.76522   5
   6   0  -5 59.2771 4.13875   5
   5   0  -5 145.457 8.65683   4
   5   0  -5 156.902 9.21890   5
   4   0  -5 83.0254 6.29118   5
   4   0  -5 78.3988 6.04033   4
  -4   0   5 83.8125 8.96049   6
   3   0  -5 1120.22 52.5038   5
   3   0  -5 1222.30 58.1440   8
  -3   0   5 1100.07 53.1284   5
   2   0  -5 45.2714 4.21512   5
   2   0  -5 53.5948 7.30469   8
  -2   0   5 47.5921 4.70277   5
  -2   0   5 56.3409 5.70840   2
   1   0  -5 1604.35 73.3760   8
   1   0  -5 1574.51 72.0372   5
  -1   0   5 1549.88 71.8615   2
   0   0  -5 936.773 56.3876   1
   0   0  -5 1049.06 47.6201   8
   0   0  -5 994.608 55.5201   1
   0   0   5 998.772 46.5191   2
  -1   0  -5 28.7785 14.4535   1
  -1   0  -5 32.8732 3.95317   8
   1   0   5 25.5746 11.7766   1
   1   0   5 26.2806 3.38002   2
  -2   0  -5 17.4842 17.5204   1
  -2   0  -5 62.1827 5.70537   8
   2   0   5 63.2778 4.85481   2
   2   0   5 49.3793 14.3691   1
   2   0   5 54.9693 4.09994   5
  -3   0  -5 845.253 39.7240   8
  -3   0  -5 838.371 38.7219   6
  -3   0  -5 807.275 37.5388   5
   3   0   5 803.250 37.0378   5
   3   0   5 738.875 37.1766   2
  -4   0  -5 112.388 8.48685   6
  -4   0  -5 97.4981 7.04261   5
   4   0   5 111.123 7.65805   5
  -5   0  -5 97.9736 8.61099   6
  -5   0  -5 92.9025 6.92369   5
   5   0   5 91.3940 6.27045   5
  -6   0  -5 1863.72 84.6595   5
   6   0   5 1904.29 84.1041   5
   7   0   5 193.779 12.1198   9
   7   0   5 198.724 10.4649   5
   8   0   5 0.11801 0.51844   5
   8   0   5 0.03791 0.80346   9
   6  -1  -5 48.3253 3.61661   5
   5  -1  -5 496.301 24.3439   5
  -5   1   5 494.790 24.6844   5
   4  -1  -5 327.157 17.5289   5
  -4   1   5 331.539 20.2745   6
   3  -1  -5 95.1982 6.99008   5
   3  -1  -5 101.320 10.5435   8
   3  -1  -5 92.6292 6.61532   4
  -3   1   5 98.0008 7.77129   5
  -3   1   5 97.5768 8.68086   6
   2  -1  -5 0.85184 2.28806   8
   2  -1  -5 1.82921 1.20607   5
  -2   1   5 2.64602 1.58738   5
   1  -1  -5 661.512 33.3718   8
   1  -1  -5 621.659 30.4790   5
   1  -1  -5 640.995 44.8300   1
  -1   1   5 672.635 31.9834   2
  -1   1   5 648.360 30.7297   5
   0  -1  -5 2502.23 122.319   1
   0  -1  -5 2538.59 114.664   8
   0  -1  -5 2569.86 121.784   1
   0   1   5 2580.13 113.470   2
  -1  -1  -5 254.486 14.4480   8
  -1  -1  -5 264.366 24.0736   1
   1   1   5 232.482 13.1908   2
  -2  -1  -5 31.6680 13.1987   1
  -2  -1  -5 48.2130 4.88235   8
   2   1   5 32.1608 10.7990   1
   2   1   5 41.0989 3.87007   2
  -3  -1  -5 5.05747 2.00038   6
   3   1   5 5.08502 1.69403   2
  -4  -1  -5 1344.79 61.8926   6
   4   1   5 1350.05 60.3980   5
  -5  -1  -5 126.102 9.40930   6
   5   1   5 124.334 7.53602   5
  -6  -1  -5 1.51822 3.67320   6
   6   1   5 2.72204 1.28486   5
   7   1   5 120.041 7.07380   5
   7   1   5 120.192 9.05869   9
   8   1   5 3.70664 1.56699   9
   8   1   5 5.14676 1.06729   5
   6  -2  -5 141.186 7.44803   5
   5  -2  -5 219.311 12.0165   5
  -5   2   5 213.240 12.1914   5
   4  -2  -5 132.663 8.85486   5
  -4   2   5 131.391 12.1365   6
  -4   2   5 132.042 8.96417   5
   3  -2  -5 112.953 7.96514   5
   3  -2  -5 96.3246 10.8951   8
  -3   2   5 117.111 8.11245   5
  -3   2   5 112.568 9.68376   6
   2  -2  -5 272.251 17.8314   8
   2  -2  -5 254.961 14.3643   5
  -2   2   5 274.211 15.3519   6
  -2   2   5 253.861 14.4306   5
   1  -2  -5 692.076 34.6306   8
  -1   2   5 671.754 31.6042   5
  -1   2   5 635.737 31.6400   6
   0  -2  -5 4811.59 214.015   8
   0  -2  -5 4757.34 220.571   1
   0  -2  -5 4722.62 222.870   1
   0   2   5 5039.05 213.898   5
  -1  -2  -5 -0.7318 10.1384   1
  -1  -2  -5 -0.6861 9.53051   1
  -1  -2  -5 1.35406 1.41412   8
  -2  -2  -5 503.414 26.0123   8
  -3  -2  -5 1535.01 69.5191   8
   3   2   5 1450.64 66.1226   5
  -4  -2  -5 87.4515 6.36953   6
   4   2   5 88.3286 6.82926   9
   4   2   5 92.0634 6.05590   4
   4   2   5 92.0889 5.57314   5
  -5  -2  -5 1019.39 49.2952   6
   5   2   5 1072.25 48.2105   4
   5   2   5 1043.60 49.7750   9
   5   2   5 1061.11 47.4821   5
   6   2   5 843.528 38.9319   5
   6   2   5 854.938 39.7112   4
   6   2   5 854.592 41.8766   9
   7   2   5 127.313 7.26580   5
   7   2   5 131.939 9.73228   9
   8   2   5 21.5011 3.29062   9
   8   2   5 17.9689 1.61885   5
   9   2   5 21.4900 2.02409   9
   5  -3  -5 16.3304 2.52539   5
  -5   3   5 16.8293 2.31800   5
   4  -3  -5 86.2998 6.77458   5
  -4   3   5 95.4351 6.95272   5
   3  -3  -5 16.6441 3.24115   5
   3  -3  -5 18.5171 5.18953   8
  -3   3   5 14.9142 3.20438   5
   2  -3  -5 102.980 9.90006   8
   2  -3  -5 88.5455 6.76564   5
  -2   3   5 80.7189 7.32390   6
  -2   3   5 82.3542 6.47734   5
   1  -3  -5 4.69743 2.82691   8
   1  -3  -5 5.79294 1.78921   5
  -1   3   5 3.04304 1.40974   5
  -1   3   5 6.25151 2.21718   6
   0  -3  -5 62.0787 6.34995   8
   0   3   5 55.4324 4.43014   5
  -1  -3  -5 536.976 48.3801   1
  -1  -3  -5 490.521 25.8094   8
   1   3   5 487.122 23.3956   5
  -2  -3  -5 581.007 37.8986   1
  -2  -3  -5 603.488 30.3552   8
  -3  -3  -5 288.098 16.6528   8
   3   3   5 279.009 13.9382   4
   3   3   5 257.783 13.2577   5
   4   3   5 1629.35 74.7748   9
   4   3   5 1690.17 73.4770   4
   4   3   5 1604.66 72.5205   5
  -5  -3  -5 137.228 9.23138   6
   5   3   5 144.475 9.99363   9
   5   3   5 141.847 7.88698   5
   5   3   5 150.113 8.74995   4
   6   3   5 35.4779 2.91132   5
   6   3   5 39.7312 3.90844   4
   6   3   5 36.7874 4.68634   9
   6   3   5 35.1564 4.45466   3
   7   3   5 100.074 5.63969   5
   7   3   5 102.157 8.25265   9
   7   3   5 105.879 7.02953   4
   8   3   5 87.2582 6.86301   9
   9   3   5 14.3773 1.92159   9
   5  -4  -5 115.023 6.74631   5
  -5   4   5 127.714 6.84345   5
   4  -4  -5 1.28097 2.26770   5
  -4   4   5 1.74560 2.13206   5
   3  -4  -5 58.2648 5.40548   5
  -3   4   5 53.3024 5.19052   5
   2  -4  -5 531.034 27.6609   5
   2  -4  -5 565.507 34.9412   8
  -2   4   5 574.837 27.7710   5
   1  -4  -5 366.341 22.0619   8
   1  -4  -5 342.649 18.6771   5
  -1   4   5 349.718 18.3127   5
   0  -4  -5 1491.63 71.0741   8
   0   4   5 1512.51 68.8176   3
   0   4   5 1500.75 67.6850   5
  -1  -4  -5 4.74884 2.32487   8
   1   4   5 2.09462 1.10883   5
   1   4   5 5.37554 1.71339   3
  -2  -4  -5 848.396 41.0632   8
   2   4   5 884.034 40.1534   3
   2   4   5 764.829 38.0683   5
  -3  -4  -5 357.994 19.9012   8
   3   4   5 344.323 16.6658   4
   3   4   5 310.465 17.0708   5
   3   4   5 329.612 18.3343   3
   3   4   5 339.518 17.9376   9
  -4  -4  -5 46.2226 5.91709   8
   4   4   5 48.1583 5.04959   3
   4   4   5 42.0705 4.45154   9
   4   4   5 44.3098 3.80424   4
   5   4   5 486.418 24.9019   9
   5   4   5 493.130 23.3404   4
   5   4   5 442.443 21.6521   5
   5   4   5 481.847 25.1495   3
   6   4   5 131.752 8.60677   4
   6   4   5 136.995 9.80814   3
   6   4   5 152.599 10.3601   9
   7   4   5 24.4759 3.70391   9
   7   4   5 14.7756 2.98951   3
   7   4   5 22.5638 3.02730   4
   8   4   5 354.300 17.7273   4
   8   4   5 364.177 19.3745   9
   9   4   5 0.91939 0.86378   9
   4  -5  -5 63.5590 4.99227   5
  -4   5   5 52.1043 4.09087   5
   3  -5  -5 152.211 11.4576   5
  -3   5   5 107.778 7.72966   5
   2  -5  -5 53.2610 5.57464   5
  -2   5   5 51.5639 4.92078   5
   1  -5  -5 3.33736 3.55476   8
   0  -5  -5 463.973 26.6594   8
   0   5   5 448.028 22.9935   5
   0   5   5 490.712 24.6717   3
  -1  -5  -5 54.6669 6.66145   8
   1   5   5 51.9939 4.25886   5
   1   5   5 55.1309 5.44725   3
  -2  -5  -5 221.477 14.5075   8
   2   5   5 211.136 11.4227   5
   2   5   5 227.931 13.7968   3
   2   5   5 231.804 12.8713   9
  -3  -5  -5 290.412 17.2562   8
   3   5   5 269.693 15.0496   9
   3   5   5 231.231 12.8724   5
   3   5   5 274.368 14.3031  10
   3   5   5 283.219 16.0601   3
   3   5   5 272.677 13.7088   4
  -4  -5  -5 38.1783 6.45607   8
   4   5   5 40.0851 4.95227   3
   4   5   5 51.1241 7.34768   9
   4   5   5 39.3788 3.57943   4
  -5  -5  -5 449.440 26.4471   8
   5   5   5 442.367 21.9358   4
   5   5   5 451.435 23.7137   9
   5   5   5 434.657 24.0219   3
  -6  -5  -5 61.9438 8.66795   8
   6   5   5 68.4315 6.45421   9
   6   5   5 70.8223 6.64196   3
   6   5   5 69.7410 5.50303   4
   7   5   5 498.935 27.2104   3
   7   5   5 566.625 28.7373   9
   7   5   5 607.032 27.1742   4
   8   5   5 38.6288 4.47466   4
   8   5   5 37.9318 4.51819   9
   9   5   5 -0.5325 0.74692   9
  -4   6   5 3.98239 0.89766  10
   3  -6  -5 83.0354 6.34582   5
  -3   6   5 70.4429 5.02029   5
  -2   6   5 97.3238 6.69403   5
  -1   6   5 427.093 21.4902   5
   0  -6  -5 149.432 13.8725   8
   0   6   5 164.048 10.6377   3
   0   6   5 170.196 9.76404   5
  -1  -6  -5 23.0056 5.84135   8
   1   6   5 36.0827 3.31172   5
   1   6   5 33.1993 4.20534   3
  -2  -6  -5 96.9583 9.69065   8
   2   6   5 99.0509 6.64089  10
   2   6   5 104.947 8.23651   3
   2   6   5 93.6151 5.97118   5
   2   6   5 105.666 7.56621   9
  -3  -6  -5 1.16127 3.04052   8
   3   6   5 3.51135 1.94578   3
   3   6   5 3.37687 1.77951   9
  -4  -6  -5 475.083 27.1557   8
   4   6   5 474.564 25.7274   3
   4   6   5 484.547 25.1392   9
   4   6   5 487.327 23.2241   4
   5   6   5 50.5815 5.45937   9
   5   6   5 52.7192 4.54343   4
   5   6   5 66.6769 6.30366   3
  -6  -6  -5 352.603 23.4659   8
   6   6   5 385.154 19.0960   4
   6   6   5 374.418 20.8282   3
   6   6   5 383.295 20.8099   9
   7   6   5 0.78362 1.20559   9
   7   6   5 1.27519 1.45165   3
   7   6   5 -0.0710 1.01095   4
   8   6   5 551.215 25.9506   4
   9   6   5 10.1766 1.55948   9
  -3   7   5 4.02544 1.01680  10
  -3   7   5 3.82559 0.72280   5
  -2   7   5 2.08107 1.11093  10
  -2   7   5 2.17189 1.00240   5
  -1   7   5 5.72994 1.70601  10
  -1   7   5 3.57272 1.24611   5
   0   7   5 235.031 12.6443  10
   0   7   5 227.032 12.8855   3
   0   7   5 227.698 12.0361   5
   1   7   5 124.844 7.93528  10
   1   7   5 120.653 7.03092   5
   1   7   5 124.603 8.97206   3
   2   7   5 6.62537 1.91996  10
   2   7   5 4.93172 2.18893   3
   2   7   5 4.82881 1.22033   5
   3   7   5 66.8791 6.01742   9
   3   7   5 64.1169 6.44910   3
   4   7   5 335.135 19.7974   3
   4   7   5 345.688 21.9879   9
   5   7   5 363.016 17.4097   4
   5   7   5 327.575 19.5582   3
   5   7   5 351.480 19.4320   9
   6   7   5 3.24544 1.40491   4
   6   7   5 1.53884 1.34506   3
   6   7   5 1.72136 1.51020   9
   7   7   5 158.079 9.34321   4
   7   7   5 134.426 9.12139   3
   7   7   5 174.831 10.3600   9
   8   7   5 14.8414 2.39420   9
   8   7   5 19.4280 2.27273   4
  -1   8   5 12.9940 1.76193  10
   0   8   5 27.9853 2.82597  10
   1   8   5 30.5928 3.15011  10
   2   8   5 3.42810 1.84455   3
   3   8   5 109.392 8.47514   3
   4   8   5 245.455 15.2356   3
   4   8   5 260.700 14.7838   9
   5   8   5 118.575 8.37228   9
   5   8   5 112.506 8.59481   3
   6   8   5 20.4680 3.05241   9
   7   8   5 27.4804 2.98903   3
   8   8   5 212.008 10.9766   9
   2   9   5 4.87829 1.41761   3
   3   9   5 337.217 17.6991   3
   4   9   5 94.3232 6.85704   3
   5   9   5 83.2156 6.12809   3
   6   9   5 14.4649 2.10048   3
   3  10   5 61.7922 3.88889   3
   4  10   5 0.33865 0.57678   3
   5  10   5 17.5155 1.78121   3
   4   5  -6 46.0876 3.38723   7
   3   5  -6 5.54084 1.41558   7
   3   5  -6 9.33467 1.94075   4
   2   5  -6 323.283 15.2312   4
   2   5  -6 273.622 14.8591   7
   1   5  -6 349.163 17.0950   7
   1   5  -6 378.020 16.3362   5
   1   5  -6 296.743 16.4926   4
   0   5  -6 7.86311 2.41769   5
   0   5  -6 5.04195 1.49214   7
  -1   5  -6 39.5196 3.05533   5
  -1   5  -6 32.0432 3.18165   7
  -2   5  -6 0.98881 1.17112   7
  -2   5  -6 5.52816 1.14732   5
  -3   5  -6 1.41723 0.79213   5
   5   4  -6 -1.5752 0.80899   4
   4   4  -6 11.1988 2.60108   4
   4   4  -6 7.19699 1.57930   7
   3   4  -6 179.149 11.6121   7
   2   4  -6 2.16580 1.09750   5
   2   4  -6 3.57787 1.32238   7
   2   4  -6 1.21535 1.41088   4
   1   4  -6 137.126 8.72011   7
   1   4  -6 153.975 8.48824   5
   0   4  -6 766.799 34.3291   5
   0   4  -6 706.202 34.5756   7
  -1   4  -6 184.670 11.0682   7
  -1   4  -6 213.841 11.0828   5
  -2   4  -6 19.2213 3.63689   7
  -2   4  -6 22.8500 2.83243   5
  -3   4  -6 869.422 39.0438   5
   3  -4   6 825.750 38.7655   5
  -4   4  -6 2.49308 1.00867   5
   4  -4   6 0.70302 1.02752   5
  -5   4  -6 227.300 10.9311   5
   6   3  -6 51.0693 3.35201   4
   5   3  -6 0.62727 1.00845   4
   4   3  -6 563.900 27.6144   7
   4   3  -6 554.727 26.3740   5
   4   3  -6 601.636 28.1217   4
   3   3  -6 36.5157 3.37483   5
   3   3  -6 36.5820 3.72282   7
   3   3  -6 33.1493 4.06977   4
   2   3  -6 90.2419 6.42911   7
   1   3  -6 1220.91 55.2785   7
   1   3  -6 1194.74 54.8372   5
   0   3  -6 85.1973 6.19125   7
   0   3  -6 85.1748 5.95050   5
  -1   3  -6 61.0787 4.86007   5
  -1   3  -6 61.3624 5.04536   7
   1  -3   6 58.8896 5.21258   5
  -2   3  -6 8.79082 2.17117   7
  -2   3  -6 5.14202 1.70345   5
   2  -3   6 6.62922 2.04522   5
  -3   3  -6 18.0589 2.93262   5
  -3   3  -6 18.9153 2.68173   7
   3  -3   6 23.6029 2.82142   5
  -4   3  -6 689.001 31.7338   7
  -5   3  -6 39.5774 3.30796   5
   5  -3   6 38.9451 3.23593   5
   6  -3   6 13.3311 1.60183   5
   6   2  -6 25.0866 2.30507   4
   5   2  -6 83.5222 4.85529   5
   5   2  -6 89.7625 5.85584   4
   4   2  -6 0.74131 1.13208   4
   4   2  -6 1.17095 1.09622   5
   3   2  -6 249.413 13.2377   5
   3   2  -6 198.780 12.1185   7
   2   2  -6 6.07272 2.07498   7
   2   2  -6 6.21995 1.69595   5
   1   2  -6 0.86199 1.78091   7
   1   2  -6 0.55751 1.04006   5
   0   2  -6 201.624 10.9636   5
   0  -2   6 187.824 11.2123   5
  -1   2  -6 13.5494 2.43001   5
   1  -2   6 12.9721 2.56587   5
  -2   2  -6 1.21194 1.03219   5
   2  -2   6 3.47714 1.41957   5
  -3   2  -6 1234.41 52.7974   5
  -3   2  -6 963.369 54.6039   7
   3  -2   6 1226.49 52.5936   5
  -4   2  -6 374.223 19.2486   5
   4  -2   6 379.764 19.0609   5
  -5   2  -6 72.3066 5.34389   5
   5  -2   6 73.1506 5.23171   5
  -6   2  -6 322.546 15.6223   5
   6  -2   6 279.668 14.4906   5
   5   1  -6 59.6027 4.43618   4
   4   1  -6 386.631 19.3633   4
   4   1  -6 373.260 18.8777   5
  -4  -1   6 354.574 22.4468   6
   3   1  -6 265.348 14.4341   5
   3   1  -6 270.555 14.4356   7
   2   1  -6 1139.28 52.2535   5
   2   1  -6 1141.76 56.6351   8
   1   1  -6 102.451 9.37448   8
   1   1  -6 103.159 6.71589   5
  -1  -1   6 87.4587 8.78213   2
  -1  -1   6 103.640 7.19110   5
   0   1  -6 459.529 24.8183   8
   0   1  -6 477.696 22.5975   5
   0  -1   6 449.201 22.5480   5
  -1   1  -6 31.0211 4.95377   8
  -1   1  -6 24.6577 2.91725   5
   1  -1   6 26.9851 3.06147   5
   1  -1   6 28.7569 4.69155   2
  -2   1  -6 102.591 8.53446   8
  -2   1  -6 102.536 6.91035   5
   2  -1   6 107.992 7.57058   5
   2  -1   6 100.942 8.37627   2
  -3   1  -6 291.378 15.2645   5
  -3   1  -6 262.896 16.9300   8
   3  -1   6 296.692 15.0326   5
  -4   1  -6 1281.53 59.2085   5
   4  -1   6 1308.93 58.8872   5
  -5   1  -6 253.542 13.7497   5
   5  -1   6 246.500 13.3137   5
  -6   1  -6 8.03287 2.05515   5
   6  -1   6 9.27344 1.92621   5
   7  -1   6 46.4995 4.00301   9
   7  -1   6 54.4130 3.41899   5
   6   0  -6 144.116 6.86013   5
   5   0  -6 108.275 6.61628   4
   5   0  -6 128.700 7.33218   5
   4   0  -6 52.0534 4.69056   5
   4   0  -6 51.8913 4.53185   4
  -4   0   6 62.1437 9.20134   6
   3   0  -6 353.754 23.1795   8
   3   0  -6 349.991 18.1434   5
  -3   0   6 346.935 20.9039   6
  -3   0   6 334.934 18.4662   5
   2   0  -6 78.9606 6.03552   5
   2   0  -6 87.2824 9.21496   8
   1   0  -6 651.757 34.0592   8
   1   0  -6 633.266 30.5263   5
  -1   0   6 644.012 30.8653   5
   0   0  -6 190.136 11.1040   5
   0   0  -6 215.648 13.7913   8
   0   0   6 221.037 13.1339   2
  -1   0  -6 51.2280 4.22776   5
  -1   0  -6 58.9680 6.07435   8
   1   0   6 51.4772 5.61061   2
   1   0   6 54.8114 4.22107   5
  -2   0  -6 81.3287 7.38819   8
  -2   0  -6 74.7958 5.43976   5
   2   0   6 73.5783 6.50157   2
   2   0   6 73.0225 5.16541   5
  -3   0  -6 1862.21 85.2483   5
  -3   0  -6 1949.21 88.1505   8
  -4   0  -6 1402.45 65.5208   5
  -4   0  -6 1414.73 68.6194   8
  -4   0  -6 1507.53 67.7785   6
   4   0   6 1451.27 65.0760   5
  -5   0  -6 285.478 15.2840   5
  -5   0  -6 264.013 17.3014   6
  -5   0  -6 259.000 18.6644   8
   5   0   6 292.211 14.7254   5
  -6   0  -6 95.4680 7.48980   5
   6   0   6 107.967 6.72047   5
   7   0   6 4.34841 1.22693   5
   7   0   6 4.59165 1.60802   9
   8   0   6 4.68278 0.76432   5
   8   0   6 2.67686 0.90775   9
   6  -1  -6 37.8461 2.34338   5
   5  -1  -6 1.35231 1.16141   5
   4  -1  -6 2.97826 1.42491   4
   4  -1  -6 2.17780 1.50314   5
  -4   1   6 4.63233 1.79191   5
   3  -1  -6 37.0226 3.60791   4
   3  -1  -6 26.6636 6.71198   8
   3  -1  -6 27.4842 3.71266   5
  -3   1   6 31.3716 3.94988   5
  -3   1   6 38.3120 6.54431   6
   2  -1  -6 1166.67 53.9828   5
   2  -1  -6 1211.60 58.9473   8
  -2   1   6 1147.38 54.1156   5
  -2   1   6 1158.01 55.5846   6
   1  -1  -6 1299.14 60.5241   8
   1  -1  -6 1190.46 56.4620   5
  -1   1   6 1228.11 58.5610   2
  -1   1   6 1240.11 56.6879   5
   0  -1  -6 180.845 12.5446   8
   0  -1  -6 171.258 10.0958   5
   0   1   6 186.168 11.7809   2
   0   1   6 182.740 10.2312   5
  -1  -1  -6 395.783 21.3869   8
   1   1   6 381.745 20.1319   2
   1   1   6 365.840 18.4979   5
  -2  -1  -6 450.470 22.1243   5
  -2  -1  -6 474.717 24.7357   8
   2   1   6 447.473 21.6372   5
   2   1   6 433.772 23.6368   2
  -3  -1  -6 149.585 11.0785   8
  -3  -1  -6 134.265 9.21184   5
   3   1   6 139.621 8.13467   5
   3   1   6 138.897 9.35039   2
  -4  -1  -6 130.162 8.41870   5
  -4  -1  -6 119.045 9.25010   6
  -4  -1  -6 119.388 10.2984   8
   4   1   6 138.450 7.85008   5
  -5  -1  -6 497.721 28.5140   8
  -5  -1  -6 504.043 26.5254   6
   5   1   6 499.624 24.1371   5
   6   1   6 96.5906 6.40358   5
   6   1   6 104.369 8.15294   9
   7   1   6 7.19615 2.31785   9
   7   1   6 9.40390 1.71637   5
   8   1   6 61.7555 3.57106   5
   8   1   6 51.6128 4.34944   9
   5  -2  -6 52.5778 4.08925   5
  -5   2   6 52.9287 4.17819   5
   4  -2  -6 30.2950 3.58592   5
  -4   2   6 31.8969 3.61989   5
   3  -2  -6 697.458 39.4073   8
   2  -2  -6 465.293 24.0193   5
   2  -2  -6 479.588 28.5827   8
  -2   2   6 484.328 24.2502   5
   1  -2  -6 387.838 20.2374   5
   1  -2  -6 399.287 23.6230   8
  -1   2   6 391.359 20.9328   6
  -1   2   6 405.182 20.2784   5
   0  -2  -6 189.401 13.2060   8
   0  -2  -6 183.731 10.7382   5
   0   2   6 190.450 10.6670   5
  -1  -2  -6 255.777 16.0668   8
  -1  -2  -6 268.214 14.6423   5
  -2  -2  -6 -2.1674 1.41083   8
   2   2   6 0.36243 0.72066   5
  -3  -2  -6 504.749 27.1612   8
   3   2   6 476.117 24.4667   9
   3   2   6 498.575 23.3416   5
  -4  -2  -6 1308.52 62.2815   8
   4   2   6 1260.37 59.3988   9
  -5  -2  -6 543.254 27.9963   6
   5   2   6 554.560 28.2277   9
   5   2   6 551.735 26.0577   5
   7   2   6 52.6613 3.83648   5
   7   2   6 56.5693 5.52640   9
   8   2   6 8.48298 1.04603   5
   8   2   6 8.53705 1.95405   9
   5  -3  -6 112.505 6.56323   5
  -5   3   6 121.591 7.20322   5
   4  -3  -6 48.9771 4.52292   5
  -4   3   6 51.2761 4.51300   5
   3  -3  -6 80.8228 11.0661   8
   3  -3  -6 90.5079 6.98737   5
  -3   3   6 96.5804 7.15545   5
   2  -3  -6 600.533 30.0899   5
  -2   3   6 619.749 30.1708   5
   1  -3  -6 2241.38 102.561   8
   1  -3  -6 2198.94 99.6336   5
  -1   3   6 2121.75 97.8160   5
   0  -3  -6 181.490 12.9341   8
   0  -3  -6 167.102 10.3504   5
   0   3   6 170.197 10.0059   5
   0   3   6 165.548 10.5729   3
  -1  -3  -6 314.454 18.0804   8
   1   3   6 272.372 14.8040   5
  -3  -3  -6 29.2749 5.28582   8
   3   3   6 28.9120 3.49563   9
   3   3   6 27.9789 2.66164   5
  -4  -3  -6 6.31887 3.18317   8
   4   3   6 14.4089 2.92301   9
   4   3   6 13.6960 2.14624   5
  -5  -3  -6 108.407 10.7762   8
   5   3   6 114.870 6.77852   5
   5   3   6 120.774 8.71016   9
   6   3   6 130.879 7.54272   5
   6   3   6 141.035 10.0462   9
   7   3   6 344.565 15.6495   5
   7   3   6 361.122 18.9368   9
   7   3   6 288.079 17.1628   3
   8   3   6 64.5659 5.44510   9
   4  -4  -6 2.97886 1.27334   5
  -4   4   6 3.59877 1.30558   5
   3  -4  -6 386.999 20.1734   5
  -3   4   6 397.886 20.2924   5
   2  -4  -6 184.499 11.4679   5
   2  -4  -6 182.785 15.8387   8
  -2   4   6 186.948 11.3654   5
   1  -4  -6 77.6908 9.21627   8
   1  -4  -6 87.4338 6.93880   5
  -1   4   6 86.9216 6.59368   5
   0  -4  -6 4.07247 2.77440   8
   0  -4  -6 0.67477 1.95696   5
   0   4   6 0.42427 1.01079   5
   0   4   6 1.73445 1.87862   3
  -1  -4  -6 267.427 17.3830   8
   1   4   6 280.921 15.6509   3
   1   4   6 259.456 14.1097   5
  -2  -4  -6 -0.8715 1.99506   8
   2   4   6 0.12945 1.11135   3
   2   4   6 1.43321 0.96117   5
  -3  -4  -6 273.417 17.4466   8
   3   4   6 259.328 14.6658   9
   3   4   6 281.429 13.7874   5
  -4  -4  -6 5.67154 2.92632   8
   4   4   6 11.7194 2.54057   9
  -5  -4  -6 3.00261 3.12623   8
   5   4   6 4.67192 1.91675   9
   5   4   6 5.52263 2.34238   3
   5   4   6 3.41725 1.55401   4
  -6  -4  -6 3297.26 146.388   8
   6   4   6 3067.31 141.790   3
   6   4   6 3099.60 141.501   9
   6   4   6 3194.51 139.812   4
  -7  -4  -6 71.0311 9.88192   8
   7   4   6 61.7449 5.74338   3
   7   4   6 77.5933 6.54602   9
   8   4   6 6.14420 1.96330   9
   9   4   6 0.55557 0.73405   9
   4  -5  -6 38.8790 3.29149   5
  -4   5   6 36.0963 2.83206   5
   3  -5  -6 29.0022 3.35147   5
  -3   5   6 31.1905 3.25980   5
   2  -5  -6 377.478 19.8923   5
  -2   5   6 379.163 19.5624   5
   1  -5  -6 719.551 38.2867   5
   1  -5  -6 770.657 40.9132   8
   0  -5  -6 435.993 26.4604   8
   0   5   6 439.096 23.0335   3
   0   5   6 462.436 22.5184   5
  -1  -5  -6 100.922 9.95856   8
   1   5   6 106.225 8.05108   3
   1   5   6 98.0451 6.72976   5
  -2  -5  -6 8.26234 3.54136   8
   2   5   6 6.08326 1.59559   5
   2   5   6 6.76421 2.03728   9
   2   5   6 6.95870 2.34745   3
  -3  -5  -6 3.48610 2.71369   8
   3   5   6 1.71344 0.99568   5
   3   5   6 0.27511 1.29355   9
   3   5   6 3.10842 1.68639   3
  -4  -5  -6 399.190 23.7243   8
   4   5   6 354.292 17.9354   5
   4   5   6 404.366 21.6932   3
   4   5   6 382.277 20.3752   9
  -5  -5  -6 1.32491 3.05667   8
   5   5   6 6.64566 2.26486   9
   5   5   6 0.77357 1.35559   3
   5   5   6 -0.6450 1.07434   4
  -6  -5  -6 35.2441 7.33265   8
   6   5   6 38.3929 3.99123   4
   6   5   6 35.0320 4.60600   3
   6   5   6 37.0273 4.55200   9
   7   5   6 265.834 13.5785   4
   7   5   6 256.418 14.8761   9
   7   5   6 226.768 13.9255   3
   8   5   6 4.14006 1.50559   9
   9   5   6 1.34405 0.81977   9
  -3   6   6 96.8978 5.68203   5
  -2   6   6 4.56547 2.18200   5
  -1   6   6 164.282 9.79214   5
   0  -6  -6 1.28679 4.87760   8
   0   6   6 2.33181 1.25646   5
   0   6   6 2.37522 1.65859   3
  -1  -6  -6 35.4948 6.96433   8
   1   6   6 52.0012 5.22133   3
   1   6   6 44.8256 4.03096   5
  -2  -6  -6 165.217 13.2787   8
   2   6   6 163.256 9.27117  10
   2   6   6 165.905 11.2076   3
   2   6   6 149.934 8.81726   5
  -3  -6  -6 638.926 33.7333   8
   3   6   6 640.779 31.8725   3
   3   6   6 561.966 27.8592   5
   3   6   6 620.714 30.1805   9
   4   6   6 476.289 26.0880   3
   4   6   6 491.889 25.0253   9
  -5  -6  -6 0.99402 3.89300   8
   5   6   6 0.97223 1.53804   9
   5   6   6 0.71928 1.58752   3
  -6  -6  -6 1398.32 73.6757   8
   6   6   6 1505.76 65.3208   4
   6   6   6 1445.14 67.4864   3
   6   6   6 1417.91 66.8943   9
   7   6   6 93.3272 7.29935   9
   7   6   6 91.6834 8.17357   3
   7   6   6 100.296 6.50712   4
   8   6   6 30.9859 3.39106   9
  -2   7   6 65.6671 4.17913   5
  -2   7   6 61.7234 3.99904  10
  -1   7   6 120.410 7.02258   5
  -1   7   6 126.262 7.27317  10
   0   7   6 46.6835 3.84188   5
   0   7   6 48.8684 4.05431  10
   1   7   6 558.742 26.5188  10
   1   7   6 530.690 25.6763   5
   1   7   6 566.741 27.8137   3
   2   7   6 9.33035 2.70082   3
   2   7   6 12.6343 2.45086  10
   3   7   6 134.426 9.94795   3
   3   7   6 131.097 8.83631   9
   4   7   6 461.212 25.1170   3
   4   7   6 470.641 24.0476   9
   5   7   6 2.44101 1.62486   9
   5   7   6 2.80927 1.86674   3
   6   7   6 544.273 28.6736   3
   6   7   6 585.593 28.5288   9
   7   7   6 36.9685 3.84181   3
   7   7   6 39.3512 4.70961   9
   8   7   6 22.6317 2.70468   9
   0   8   6 23.8545 2.40706  10
   1   8   6 7.39217 1.67245   3
   1   8   6 8.81483 1.85189  10
   2   8   6 198.018 11.9512   3
   3   8   6 188.836 11.9902   3
   4   8   6 121.466 8.88952   3
   5   8   6 58.2288 5.22630   9
   5   8   6 61.9602 5.66625   3
   6   8   6 42.5498 4.23460   9
   6   8   6 44.9555 4.52042   3
   7   8   6 60.6419 4.66758   3
   8   8   6 32.0824 2.63706   9
   2   9   6 5.09939 1.19593   3
   3   9   6 8.34439 1.89030   3
   4   9   6 55.4077 4.70985   3
   5   9   6 13.8345 2.29212   3
   4  10   6 1.50067 0.52114   3
   5  10   6 9.84728 1.22708   3
   3   5  -7 1.11975 0.97313   4
   2   5  -7 3.61396 1.10368   4
   0   5  -7 47.9416 2.88963   5
  -1   5  -7 32.5505 2.42400   5
  -2   5  -7 86.3991 4.33797   5
   4   4  -7 -0.9692 1.01475   4
   3   4  -7 6.47937 1.60248   4
   2   4  -7 171.953 10.0311   4
   2   4  -7 184.207 8.90655   5
   1   4  -7 11.1682 2.83640   4
   1   4  -7 8.02240 1.70676   5
   0   4  -7 10.1034 1.99284   4
   0   4  -7 8.84033 1.67512   5
  -1   4  -7 4.57219 1.34533   5
  -2   4  -7 4.95140 1.40991   5
  -3   4  -7 234.878 11.6986   5
   5   3  -7 53.3841 3.44074   4
   4   3  -7 1.23527 1.08882   4
   3   3  -7 272.046 13.6037   5
   3   3  -7 219.463 13.2176   4
   2   3  -7 122.740 7.33216   5
   1   3  -7 453.152 22.0638   5
   0   3  -7 89.1137 6.16782   5
  -1   3  -7 170.868 9.88299   5
  -2   3  -7 257.973 13.6652   5
  -3   3  -7 118.006 7.18043   5
   3  -3   7 110.144 7.02964   5
  -4   3  -7 389.477 18.7325   5
   4  -3   7 386.480 18.5548   5
  -5   3  -7 88.8294 4.97531   5
   5  -3   7 84.5224 5.02842   5
   5   2  -7 27.3927 2.39786   4
   4   2  -7 84.6381 5.74214   4
   4   2  -7 77.8226 4.82930   5
   3   2  -7 134.731 8.85683   4
   3   2  -7 141.730 8.20352   5
   2   2  -7 124.085 7.88815   5
   1   2  -7 539.947 26.2730   5
   0   2  -7 124.683 8.03588   5
   0  -2   7 130.061 8.61145   5
  -1   2  -7 124.548 8.03490   5
  -2   2  -7 96.4195 6.69097   5
   2  -2   7 95.6815 6.65410   5
  -3   2  -7 652.003 30.6554   5
   3  -2   7 628.030 30.3786   5
  -4   2  -7 180.994 10.3496   5
   4  -2   7 182.247 10.1571   5
  -5   2  -7 65.5102 4.68060   5
   5  -2   7 60.3866 4.37295   5
  -6   2  -7 254.800 11.6655   5
   6  -2   7 216.236 11.1887   5
   5   1  -7 117.845 6.04959   5
   5   1  -7 114.726 6.22352   4
   4   1  -7 214.032 11.4397   5
   3   1  -7 110.678 7.25680   5
   3   1  -7 110.155 7.62254   4
   2   1  -7 -5.8462 7.21090   8
   1   1  -7 145.202 9.07852   5
   1   1  -7 138.438 13.5815   8
  -1  -1   7 154.524 9.66877   5
   0   1  -7 94.6602 6.56167   5
   0   1  -7 76.3600 10.2062   8
   0  -1   7 95.0274 6.81190   5
  -1   1  -7 49.7026 4.35943   5
   1  -1   7 43.6765 4.15497   5
  -2   1  -7 551.970 27.2145   5
   2  -1   7 569.125 27.2016   5
  -3   1  -7 803.387 38.4557   5
   3  -1   7 832.705 38.2918   5
  -4   1  -7 78.0432 5.96911   5
   4  -1   7 83.8466 5.89512   5
  -5   1  -7 79.0006 5.77281   5
   5  -1   7 75.8287 5.37566   5
  -6   1  -7 -0.2910 1.64503   5
   6  -1   7 -1.1423 0.83234   9
   6  -1   7 1.32596 0.72873   5
   7  -1   7 1.03145 0.51849   5
   7  -1   7 0.48031 0.64456   9
   5   0  -7 1.05797 0.73994   5
   4   0  -7 107.706 6.69588   5
   4   0  -7 97.0326 6.28163   4
   3   0  -7 365.072 18.8544   5
   3   0  -7 379.622 18.9678   4
  -3   0   7 355.137 19.2184   5
   2   0  -7 9.47484 2.36550   5
   2   0  -7 12.3158 5.03181   8
  -2   0   7 13.7451 2.93954   5
   1   0  -7 635.648 35.3103   8
   1   0  -7 648.249 31.1754   5
  -1   0   7 658.700 31.4946   5
   0   0  -7 130.650 8.54000   5
   0   0  -7 141.552 11.4142   8
   0   0   7 143.535 8.83845   5
  -1   0  -7 58.4535 7.07460   8
  -1   0  -7 65.7419 5.06612   5
   1   0   7 55.0618 4.69622   5
  -2   0  -7 18.6826 3.00338   5
  -2   0  -7 16.6667 4.75730   8
   2   0   7 16.1364 2.65017   5
  -3   0  -7 728.544 38.5624   8
  -3   0  -7 769.175 35.9118   5
   3   0   7 768.753 35.5228   5
  -4   0  -7 187.838 14.5844   8
  -4   0  -7 191.988 11.2816   5
   4   0   7 195.901 10.9202   5
  -5   0  -7 100.192 6.89205   5
   5   0   7 97.2436 6.50374   5
  -6   0  -7 -1.2361 1.42956   5
   6   0   7 1.50895 1.03013   5
   6   0   7 1.01970 1.25128   9
   7   0   7 33.4286 2.59681   5
   7   0   7 27.0458 3.00548   9
   5  -1  -7 20.6835 2.03436   5
   4  -1  -7 570.513 27.0732   5
  -4   1   7 562.854 27.2585   5
   3  -1  -7 143.326 8.73857   4
   3  -1  -7 162.614 9.59609   5
   3  -1  -7 112.703 13.3252   8
  -3   1   7 163.068 10.8106   5
   2  -1  -7 80.4557 6.35333   5
   2  -1  -7 85.7364 10.3178   8
  -2   1   7 83.6117 6.54649   5
   1  -1  -7 1298.71 63.1218   8
   1  -1  -7 1224.29 58.2639   5
  -1   1   7 1296.33 58.5320   5
   0  -1  -7 6.91015 1.88598   5
   0  -1  -7 4.77366 3.33670   8
   0   1   7 6.71477 1.89500   5
  -1  -1  -7 76.8822 8.42795   8
  -1  -1  -7 86.6767 6.96163   5
   1   1   7 80.0315 8.35606   2
  -2  -1  -7 178.771 10.5534   5
  -2  -1  -7 200.985 13.4673   8
   2   1   7 177.199 10.1222   5
   2   1   7 159.289 13.5980   2
  -3  -1  -7 2669.91 119.410   8
  -3  -1  -7 2663.77 115.801   5
   3   1   7 2476.49 114.995   5
  -4  -1  -7 1644.05 71.7025   5
  -4  -1  -7 1470.75 75.0096   8
   4   1   7 1568.84 70.8797   5
   4   1   7 1618.55 72.2775   9
  -5  -1  -7 284.576 15.1231   5
  -5  -1  -7 262.191 18.8169   8
   5   1   7 276.866 16.3018   5
   5   1   7 275.631 15.8886   9
   6   1   7 34.1503 4.28644   9
   6   1   7 40.5938 3.53714   5
   7   1   7 50.8055 3.57299   5
   7   1   7 48.7377 4.54281   9
   5  -2  -7 -0.3653 0.59516   5
   4  -2  -7 27.6115 3.09780   5
  -4   2   7 24.6062 3.26678   5
   3  -2  -7 477.614 23.4762   5
  -3   2   7 454.556 23.4089   5
   2  -2  -7 114.642 11.8646   8
   1  -2  -7 34.9805 6.55445   8
   1  -2  -7 33.8723 3.97970   5
  -1   2   7 28.3496 3.63120   5
   0  -2  -7 7.28170 3.30012   8
   0  -2  -7 8.91929 2.26810   5
   0   2   7 11.2071 2.49201   5
  -1  -2  -7 13.9375 2.80698   5
  -1  -2  -7 10.6331 3.67142   8
   1   2   7 17.1357 2.91853   5
  -2  -2  -7 76.9232 7.86573   8
  -2  -2  -7 72.1076 5.79683   5
  -3  -2  -7 1573.95 71.8990   8
  -3  -2  -7 1445.86 67.7560   5
   3   2   7 1467.43 67.0121   5
  -4  -2  -7 160.366 13.2998   8
   4   2   7 182.337 10.0067   5
   4   2   7 180.389 11.0930   9
  -5  -2  -7 18.4164 5.25528   8
   5   2   7 30.6253 3.12825   5
   5   2   7 29.3546 3.85563   9
   6   2   7 603.565 28.0896   5
   6   2   7 591.937 30.0839   9
   7   2   7 24.3520 3.05756   3
   7   2   7 36.5090 3.08328   5
   8   2   7 25.7919 2.69266   9
   4  -3  -7 282.215 13.8792   5
  -4   3   7 258.397 13.8410   5
   3  -3  -7 406.943 21.3012   5
  -3   3   7 440.837 21.5151   5
   2  -3  -7 21.7920 3.67403   5
   2  -3  -7 25.5162 6.01467   8
  -2   3   7 16.1362 3.02406   5
   1  -3  -7 585.879 30.0417   5
   1  -3  -7 627.021 34.8128   8
  -1   3   7 629.510 30.1078   5
   0  -3  -7 10.7296 2.56998   5
   0  -3  -7 11.3538 4.14784   8
   0   3   7 11.9733 2.68920   3
   0   3   7 19.8064 2.73626   5
  -1  -3  -7 0.55708 2.49141   8
  -1  -3  -7 4.24095 1.94141   5
   1   3   7 -1.9315 0.86027   5
  -2  -3  -7 135.927 11.4479   8
   2   3   7 149.892 8.75172   5
  -3  -3  -7 1290.30 62.9634   8
  -4  -3  -7 1256.21 61.5629   8
   4   3   7 1216.85 55.8401   5
   4   3   7 1246.94 57.3532   9
  -5  -3  -7 1726.76 86.5641   8
   5   3   7 1862.85 82.7665   9
   5   3   7 1836.83 80.5706   5
  -6  -3  -7 36.6321 6.79113   8
   6   3   7 29.6031 2.82975   5
   6   3   7 29.2629 3.94603   9
   7   3   7 21.7767 3.23215   9
   7   3   7 21.1227 3.14958   3
   7   3   7 20.7706 2.06245   5
   8   3   7 0.02215 0.82082   9
   4  -4  -7 14.9531 1.81507   5
  -4   4   7 16.8505 1.88666   5
   3  -4  -7 326.650 17.0005   5
  -3   4   7 341.329 17.1003   5
   2  -4  -7 514.854 25.8912   5
  -2   4   7 525.527 25.8482   5
   1  -4  -7 747.153 40.5139   8
   1  -4  -7 718.665 36.4183   5
   0  -4  -7 118.910 8.17885   5
   0   4   7 107.480 7.47810   5
   0   4   7 99.6847 7.63275   3
  -1  -4  -7 1.99883 2.80368   8
   1   4   7 1.99875 1.17303   5
   1   4   7 2.79314 1.54807   3
  -2  -4  -7 87.8537 9.04780   8
   2   4   7 86.5075 7.36676   3
   2   4   7 86.4930 6.10377   5
  -3  -4  -7 1022.23 52.9977   8
   3   4   7 1090.65 48.3543   5
  -4  -4  -7 1538.94 76.8624   8
   4   4   7 1600.27 72.6572   9
   4   4   7 1633.62 71.2463   5
  -5  -4  -7 12.3309 5.14552   8
   5   4   7 20.7915 4.11119   3
   5   4   7 16.1602 2.89388   9
  -6  -4  -7 380.911 25.1284   8
   6   4   7 400.329 21.1862   9
   6   4   7 396.250 21.8104   3
   7   4   7 5.93909 2.31796   3
   7   4   7 7.22921 2.14600   9
   8   4   7 10.1714 2.12184   9
   9   4   7 20.5424 2.34654   9
   3  -5  -7 64.3715 4.53197   5
  -3   5   7 63.7931 4.44022   5
   2  -5  -7 3.09953 1.73986   5
  -2   5   7 2.27050 1.33227   5
   1  -5  -7 -1.3134 4.81357   8
   1  -5  -7 1.85459 2.16955   5
  -1   5   7 7.17902 2.09991   5
   0  -5  -7 2.25623 3.68458   8
   0   5   7 2.57086 1.63359   5
  -1  -5  -7 431.543 26.5520   8
   1   5   7 449.667 22.3311   5
   1   5   7 457.584 23.6856   3
  -2  -5  -7 276.646 19.1336   8
   2   5   7 278.241 15.0295   5
   2   5   7 313.764 17.4352   3
  -3  -5  -7 4.03423 3.43655   8
   3   5   7 5.39127 1.62111   5
   3   5   7 5.37129 2.10731   9
   3   5   7 2.42978 1.82962   3
  -4  -5  -7 239.141 17.4801   8
   4   5   7 257.639 15.4464   3
   4   5   7 240.515 13.7474   9
   4   5   7 222.716 12.0658   5
  -5  -5  -7 1555.56 76.3057   8
   5   5   7 1554.62 75.4417   3
  -6  -5  -7 139.403 20.1722   8
   6   5   7 147.697 9.78957   9
   6   5   7 137.099 10.2032   3
   7   5   7 5.16963 1.82254   9
   8   5   7 17.7235 2.40483   9
   9   5   7 3.41631 0.83486   9
  -3   6   7 51.7267 3.07521  10
  -2   6   7 294.589 14.5893   5
  -1   6   7 208.347 11.4443   5
   0   6   7 337.324 17.3193   5
  -1  -6  -7 6.48381 4.68953   8
   1   6   7 4.85979 1.59609   5
   1   6   7 5.66997 1.88240   3
  -2  -6  -7 9.76411 4.34888   8
   2   6   7 3.60150 1.96999   3
  -3  -6  -7 222.924 16.9903   8
   3   6   7 273.979 13.9234   5
   3   6   7 203.658 15.5097   3
  -4  -6  -7 1071.81 53.0093   8
   4   6   7 883.096 45.6076   5
   4   6   7 1097.12 52.7800   3
   4   6   7 1098.56 48.5083   9
  -5  -6  -7 313.336 21.7564   8
   5   6   7 326.451 17.7642   9
   5   6   7 330.744 19.0798   3
   6   6   7 21.6878 3.65011   3
   6   6   7 20.0316 3.12229   9
   7   6   7 56.5108 5.81736   9
   7   6   7 39.7401 4.27223   3
   8   6   7 0.61081 0.78400   9
  -1   7   7 270.960 13.1640  10
  -1   7   7 266.163 12.9510   5
   0   7   7 47.8930 3.69207  10
   0   7   7 45.5933 3.55177   5
   1   7   7 231.900 14.4094   3
   1   7   7 256.679 12.7899  10
   1   7   7 246.974 12.3692   5
   2   7   7 8.17333 1.39626   5
   2   7   7 11.3286 2.80997   3
   2   7   7 10.0782 1.99221  10
   3   7   7 57.5716 5.81479   3
   4   7   7 114.989 7.73268   9
   4   7   7 111.768 8.75515   3
   5   7   7 343.649 18.2243   9
   5   7   7 344.309 19.3691   3
   6   7   7 301.399 16.4394   3
   6   7   7 270.115 15.6808   9
   7   7   7 5.14770 1.51574   9
   7   7   7 5.66036 1.74613   3
   8   7   7 2.12250 0.91705   9
   2   8   7 17.4036 2.29985   3
   3   8   7 5.99637 2.43006   3
   4   8   7 83.3139 6.71049   3
   5   8   7 401.987 23.1731   3
   5   8   7 418.035 20.3432   9
   6   8   7 255.635 14.0197   9
   6   8   7 289.643 14.9330   3
   7   8   7 37.2965 3.25262   3
   7   8   7 45.4908 3.79059   9
   3   9   7 2.24259 1.27226   3
   4   9   7 47.3840 4.04600   3
   5   9   7 1.33222 0.99399   3
   6   9   7 1.17231 0.69103   3
   3   4  -8 -0.0362 0.65723   4
   1   4  -8 49.9799 3.50049   4
   0   4  -8 23.4738 2.65923   4
   0   4  -8 38.2523 2.58875   5
  -1   4  -8 44.1270 3.03331   5
  -3   4  -8 130.593 6.34031   5
   4   3  -8 5.66365 1.18882   4
   3   3  -8 75.8521 5.03579   4
   2   3  -8 50.9795 4.19854   4
   2   3  -8 49.5855 3.39083   5
   1   3  -8 144.989 8.66096   5
   0   3  -8 48.8322 3.90457   5
  -1   3  -8 6.68732 1.51856   5
  -2   3  -8 1.68894 1.04304   5
  -3   3  -8 241.546 12.1540   5
  -4   3  -8 3.32357 1.00369   5
   4   2  -8 87.4617 5.09121   4
   3   2  -8 7.71436 1.77808   4
   3   2  -8 8.13119 1.40676   5
   2   2  -8 1.19650 1.12278   5
   1   2  -8 25.1657 3.06798   5
   0   2  -8 7.37926 1.78111   5
   0  -2   8 3.90919 2.08233   5
  -1   2  -8 10.7145 2.29675   5
   1  -2   8 8.31791 2.01837   5
  -2   2  -8 307.746 15.9223   5
  -3   2  -8 0.75860 0.94595   5
   3  -2   8 0.25072 0.93810   5
  -4   2  -8 2.88077 1.27220   5
   4  -2   8 1.95707 1.03845   5
  -5   2  -8 31.0732 2.54027   5
   5  -2   8 30.3050 2.41633   5
   4   1  -8 22.1202 2.57033   4
   4   1  -8 23.9397 2.20206   5
   3   1  -8 10.3761 2.16719   4
   3   1  -8 12.7537 2.28758   5
   2   1  -8 234.043 12.6913   5
   1   1  -8 693.776 32.3946   5
  -1  -1   8 663.794 32.6133   5
   0   1  -8 99.6716 7.01125   5
   0  -1   8 102.920 7.18985   5
  -1   1  -8 296.479 15.7763   5
  -2   1  -8 19.4100 2.86668   5
   2  -1   8 18.1435 2.66833   5
  -3   1  -8 685.249 31.8558   5
   3  -1   8 649.948 31.4770   5
  -4   1  -8 238.141 12.7936   5
   4  -1   8 236.773 12.5670   5
  -5   1  -8 20.5960 2.51258   5
   5  -1   8 16.0345 2.16875   9
   5  -1   8 21.5647 2.37375   5
   6  -1   8 -0.2149 0.60610   5
   4   0  -8 1.44190 0.98773   4
   4   0  -8 0.95520 0.67128   5
   3   0  -8 3.01861 1.31496   4
   3   0  -8 4.27682 1.48146   5
   2   0  -8 363.836 18.5974   5
  -2   0   8 361.084 18.9199   5
   1   0  -8 1.56284 1.36306   5
   1   0  -8 9.26270 7.10002   8
  -1   0   8 -0.0272 1.42414   5
   0   0  -8 155.295 14.1109   8
  -1   0  -8 2.92100 5.51236   8
  -1   0  -8 1.17387 1.30156   5
   1   0   8 -0.3774 0.88715   5
  -2   0  -8 898.905 41.6532   5
   2   0   8 827.565 40.9226   5
  -3   0  -8 365.092 19.1389   5
   3   0   8 379.823 18.9685   5
  -4   0  -8 40.3125 3.94479   5
   4   0   8 38.4566 3.73513   5
   4   0   8 36.4463 4.74968   9
  -5   0  -8 78.9817 5.65876   5
   5   0   8 64.6837 5.21719   9
   5   0   8 73.0736 5.09987   5
  -6   0  -8 98.3427 6.34836   5
   6   0   8 109.137 7.26838   9
   6   0   8 111.642 6.21053   5
   7   0   8 268.615 12.2977   5
   4  -1  -8 6.88874 1.38657   5
   3  -1  -8 143.788 8.19564   4
   3  -1  -8 153.202 8.79012   5
  -3   1   8 142.632 8.77158   5
   2  -1  -8 2.62121 1.39907   5
  -2   1   8 2.73545 1.45083   5
   1  -1  -8 548.371 32.9959   8
   1  -1  -8 599.014 28.6736   5
  -1   1   8 589.414 28.5651   5
   0  -1  -8 82.7668 10.1608   8
   0  -1  -8 91.4303 6.78930   5
   0   1   8 92.5399 6.68011   5
  -1  -1  -8 544.003 26.6617   5
   1   1   8 533.028 26.4413   5
  -2  -1  -8 499.298 24.8963   5
  -3  -1  -8 43.2581 7.19478   8
  -3  -1  -8 51.9174 4.72145   5
   3   1   8 50.6051 4.33414   5
  -4  -1  -8 119.815 12.2570   8
  -4  -1  -8 120.854 8.01898   5
   4   1   8 113.990 7.43026   5
  -5  -1  -8 328.793 17.2852   5
   5   1   8 337.962 16.8053   5
   5   1   8 331.135 17.5920   9
   6   1   8 88.2200 6.25236   9
   6   1   8 95.0603 5.79737   5
   7   1   8 5.55355 1.25994   9
   7   1   8 5.90056 0.98399   5
   4  -2  -8 48.8615 3.64028   5
   3  -2  -8 1.65111 1.09636   5
  -3   2   8 1.06033 1.13489   5
   2  -2  -8 806.482 38.4041   5
   2  -2  -8 805.830 37.5322   4
  -2   2   8 827.901 38.4512   5
   1  -2  -8 266.723 14.8473   5
   1  -2  -8 266.453 19.1307   8
  -1   2   8 265.912 14.7501   5
   0  -2  -8 102.159 7.47897   5
   0  -2  -8 101.050 10.8960   8
   0   2   8 106.300 7.37804   5
  -1  -2  -8 35.1721 7.26444   8
  -1  -2  -8 47.8948 4.70663   5
   1   2   8 49.6471 4.47207   5
  -2  -2  -8 881.603 41.0000   5
  -2  -2  -8 822.966 44.5816   8
   2   2   8 885.845 40.6226   5
  -3  -2  -8 768.861 36.1570   5
  -3  -2  -8 759.248 41.5459   8
   3   2   8 735.297 35.2351   5
  -4  -2  -8 0.09300 3.64233   8
   4   2   8 -0.2156 0.83357   5
  -5  -2  -8 424.427 30.1133   8
   5   2   8 435.323 22.4437   9
   5   2   8 461.893 21.6549   5
   6   2   8 273.271 13.4684   5
   6   2   8 258.578 14.9647   9
   7   2   8 58.5980 3.57019   5
   7   2   8 54.9659 4.38695   9
   3  -3  -8 1.61474 1.14629   5
  -3   3   8 2.34097 1.10460   5
   2  -3  -8 255.931 14.3425   5
  -2   3   8 275.840 14.5549   5
   1  -3  -8 143.169 9.57152   5
  -1   3   8 159.477 9.68699   5
   0  -3  -8 0.98414 3.54460   8
   0   3   8 1.09731 1.19979   5
  -1  -3  -8 66.3081 8.47053   8
  -1  -3  -8 50.7392 5.27221   5
   1   3   8 64.7947 5.23873   5
  -2  -3  -8 848.457 41.7671   5
  -2  -3  -8 989.662 49.9851   8
   2   3   8 844.849 41.1815   5
  -3  -3  -8 1529.30 74.7742   8
   3   3   8 1535.14 69.2352   5
  -4  -3  -8 5.48995 3.59817   8
  -5  -3  -8 583.897 34.6623   8
   5   3   8 647.609 29.3048   5
   5   3   8 630.170 30.4496   9
   6   3   8 69.1333 4.65804   5
   6   3   8 70.4733 5.68589   9
   7   3   8 16.5993 2.34853   9
   7   3   8 12.8466 2.45230   3
   8   3   8 43.7258 3.18979   9
   3  -4  -8 61.6906 4.40523   5
  -3   4   8 78.2472 5.31006   5
   2  -4  -8 271.828 14.4155   5
   1  -4  -8 149.160 9.43853   5
  -1   4   8 143.947 9.12964   5
   0  -4  -8 106.288 11.3374   8
   0  -4  -8 94.5443 7.48856   5
   0   4   8 108.003 7.35810   5
  -1  -4  -8 226.584 13.9720   5
  -1  -4  -8 190.592 16.1223   8
   1   4   8 228.989 13.6366   3
   1   4   8 226.607 12.5611   5
  -2  -4  -8 181.117 14.7147   8
   2   4   8 183.704 12.2147   3
   2   4   8 190.022 10.8371   5
  -3  -4  -8 637.165 36.6821   8
   3   4   8 704.530 32.0375   5
  -4  -4  -8 -5.4009 3.24265   8
   4   4   8 -0.4714 0.90642   5
  -5  -4  -8 3.19827 4.23581   8
   5   4   8 1.00952 1.22793   9
   5   4   8 0.12416 1.39012   3
   5   4   8 1.81017 0.99167   5
   6   4   8 42.3746 3.15731   5
   6   4   8 42.9952 4.82026   3
   6   4   8 40.9412 4.26378   9
   7   4   8 29.1333 3.17233   9
   7   4   8 26.2157 3.16681   3
   8   4   8 6.08604 1.27080   9
   2  -5  -8 181.085 10.0407   5
  -2   5   8 193.803 10.1128   5
   1  -5  -8 2.51594 1.68498   5
  -1   5   8 -0.0317 0.91435   5
   0   5   8 134.611 8.55476   5
  -1  -5  -8 13.0884 4.81556   8
   1   5   8 9.47928 2.21384   3
   1   5   8 9.48639 2.20331   5
  -2  -5  -8 98.1549 10.1668   8
   2   5   8 85.4209 6.22190   5
   2   5   8 90.8184 7.55996   3
  -3  -5  -8 3069.75 133.583   8
   3   5   8 2726.86 127.343   5
   3   5   8 2835.95 129.673   3
  -4  -5  -8 4.69710 4.02543   8
   4   5   8 4.07024 1.30685   5
   4   5   8 2.56901 1.71724   3
  -5  -5  -8 102.418 11.0942   8
   5   5   8 97.4574 6.83942   9
   5   5   8 97.3310 8.06954   3
   5   5   8 86.3321 5.35907   5
   6   5   8 1.12234 1.02506   9
   6   5   8 0.75430 1.49755   3
   7   5   8 -1.0871 0.77274   9
   7   5   8 0.33256 1.10271   3
   8   5   8 -0.0776 0.68701   9
  -2   6   8 35.8218 2.55265  10
  -2   6   8 50.5862 2.96833   5
  -1   6   8 13.4854 1.95274   5
   0   6   8 163.698 9.30603   5
   1   6   8 199.835 10.8194   5
   1   6   8 188.355 10.6407  10
  -2  -6  -8 5.71714 5.27290   8
   2   6   8 8.68396 2.34750   3
   2   6   8 5.72891 1.62240   5
  -3  -6  -8 312.549 21.6316   8
   3   6   8 329.024 16.0659   5
   3   6   8 338.372 18.8612   3
  -4  -6  -8 85.6911 11.3642   8
   4   6   8 97.5874 5.42961   5
   4   6   8 112.903 8.47653   3
   5   6   8 384.008 20.0107   9
   5   6   8 403.803 21.7608   3
   6   6   8 6.78692 1.75719   9
   6   6   8 6.12459 2.18454   3
   7   6   8 97.8717 6.16476   9
   7   6   8 89.0273 6.32358   3
   8   6   8 -0.0698 0.57051   9
  -1   7   8 84.6338 4.58284   5
   0   7   8 11.1970 1.52692   5
   1   7   8 14.7891 1.94332  10
   1   7   8 11.6349 1.62740   5
   2   7   8 6.86119 1.33098   5
   2   7   8 9.85621 2.11040   3
   3   7   8 1091.77 51.3281   3
   4   7   8 5.07158 1.90616   3
   5   7   8 168.143 10.0464   9
   5   7   8 208.389 12.0275   3
   6   7   8 0.53449 1.06136   3
   6   7   8 0.19173 0.73327   9
   7   7   8 92.0015 5.19974   9
   7   7   8 65.2882 5.74881   3
   2   8   8 1.01973 0.89306   3
   3   8   8 65.9709 5.10487   3
   4   8   8 212.024 12.1226   3
   5   8   8 45.9487 4.21076   3
   6   8   8 14.7630 2.18201   3
   7   8   8 22.7339 2.34031   3
   4   9   8 2.77906 0.83258   3
   5   9   8 428.844 20.3420   3
   6   9   8 14.0854 1.59311   3
   1   3  -9 29.1116 1.86047   5
   1   3  -9 27.3849 2.40077   4
   0   3  -9 33.0731 2.70087   5
   0   3  -9 26.9415 2.42257   4
  -1   3  -9 47.4082 3.20562   5
  -2   3  -9 3.14459 1.03945   5
  -3   3  -9 108.975 5.81338   5
   3   2  -9 -0.9064 0.48045   4
   2   2  -9 188.276 10.0034   4
   2   2  -9 193.200 9.97269   5
   1   2  -9 161.715 8.65952   5
   0   2  -9 200.999 10.6266   5
  -1   2  -9 40.8186 3.44526   5
   1  -2   9 35.9476 3.75578   5
  -2   2  -9 145.668 8.03733   5
   2  -2   9 136.538 8.33886   5
  -3   2  -9 11.0995 1.81594   5
   3  -2   9 12.5473 1.85448   5
  -4   2  -9 0.11285 0.66705   5
   4  -2   9 -0.6445 0.56568   5
   3   1  -9 24.5033 1.89047   5
   3   1  -9 27.6102 2.33376   4
   2   1  -9 12.1064 2.09875   4
   2   1  -9 11.6619 1.88899   5
  -1  -1   9 50.1139 5.00970   5
   0   1  -9 20.8426 2.73845   5
   0  -1   9 14.1626 2.41133   5
  -1   1  -9 140.108 8.55583   5
   1  -1   9 145.241 8.78120   5
  -2   1  -9 1.92202 1.18683   5
   2  -1   9 1.93551 1.33209   5
  -3   1  -9 89.3390 6.02231   5
  -4   1  -9 24.1851 2.56004   5
  -5   1  -9 15.0195 2.08080   5
   3   0  -9 17.7605 1.81020   4
   3   0  -9 17.5116 1.95018   5
   2   0  -9 520.021 24.8808   4
   2   0  -9 527.561 24.8737   5
   1   0  -9 64.8003 5.08842   5
  -1   0   9 66.0760 5.14140   5
   0   0  -9 490.924 22.6777   5
   0   0   9 413.144 22.1962   5
  -1   0  -9 3.72098 1.60752   5
   1   0   9 2.16393 1.47777   5
  -2   0  -9 25.0337 3.23480   5
   2   0   9 27.8020 3.26850   5
  -3   0  -9 23.7164 3.09204   5
  -4   0  -9 59.7367 4.69427   5
   4   0   9 59.0448 5.94665   5
  -5   0  -9 198.686 11.1240   5
   5   0   9 215.353 10.6471   5
   6   0   9 19.7322 1.79444   3
   3  -1  -9 4.80412 1.21936   5
   2  -1  -9 175.486 9.72188   5
   2  -1  -9 166.477 9.22513   4
  -2   1   9 171.618 9.71484   5
   1  -1  -9 37.1787 3.78617   5
  -1   1   9 27.8683 3.60789   5
   0  -1  -9 99.9673 7.01232   5
   0   1   9 90.2669 6.58927   5
  -1  -1  -9 15.6325 3.01440   5
  -1  -1  -9 -3.3336 10.3848   8
   1   1   9 14.8647 2.87552   5
  -2  -1  -9 10.0439 8.45185   8
  -2  -1  -9 3.12058 1.55943   5
   2   1   9 3.95702 1.61019   5
  -3  -1  -9 185.750 10.9562   5
   4   1   9 210.306 11.3863   5
  -5  -1  -9 247.031 15.1452   5
   5   1   9 340.861 15.7008   5
  -3   2   9 22.7871 2.55443   5
   2  -2  -9 389.036 19.3954   5
  -2   2   9 399.230 19.4228   5
   1  -2  -9 54.8905 4.84486   5
  -1   2   9 57.5155 4.79199   5
   0  -2  -9 23.8429 3.40209   5
   0   2   9 22.4236 3.04817   5
  -1  -2  -9 6.29770 2.20444   5
   1   2   9 5.43703 1.79951   5
  -2  -2  -9 375.877 19.2749   5
  -2  -2  -9 313.082 22.3997   8
   2   2   9 400.733 19.1430   5
  -3  -2  -9 0.41400 1.46305   5
  -3  -2  -9 -4.3903 8.35901   8
   3   2   9 1.13484 1.24099   5
  -4  -2  -9 77.5893 6.84550   5
   7   2   9 433.806 19.4205   5
   3  -3  -9 79.8200 4.85313   5
  -3   3   9 93.9853 5.41177   5
   2  -3  -9 182.419 10.0463   5
  -2   3   9 185.181 10.0342   5
   1  -3  -9 0.27801 1.23704   5
  -1   3   9 0.81538 1.07241   5
   0  -3  -9 832.525 39.7325   5
   0   3   9 852.933 39.5753   5
  -1  -3  -9 10.7802 6.61821   8
  -1  -3  -9 15.3783 3.24610   5
   1   3   9 19.3334 3.01453   3
   1   3   9 21.4618 3.00996   5
  -2  -3  -9 34.6378 7.22862   8
  -2  -3  -9 42.2719 4.84359   5
   2   3   9 38.5197 3.97258   5
  -3  -3  -9 870.247 50.6427   8
  -3  -3  -9 840.541 41.2481   5
   3   3   9 905.183 40.7715   5
  -4  -3  -9 33.7800 6.79967   8
   4   3   9 35.5402 3.55378   5
   5   3   9 407.921 19.8907   5
   6   3   9 -0.4977 0.66303   5
   6   3   9 3.86078 1.59945   9
   6   3   9 -1.0600 0.89055   3
   7   3   9 0.03644 0.92007   3
   2  -4  -9 -0.3151 0.78344   5
  -2   4   9 0.82562 0.90270   5
   1  -4  -9 200.032 11.1982   5
  -1   4   9 205.841 11.1290   5
   0  -4  -9 189.434 10.4284   5
   0   4   9 145.747 9.54325   5
  -1  -4  -9 -4.4184 1.68337   5
  -1  -4  -9 -5.2914 5.77766   8
   1   4   9 0.68907 1.05734   5
   1   4   9 -0.4028 1.17423   3
  -2  -4  -9 1230.94 65.0103   8
   2   4   9 1301.04 59.5896   3
   2   4   9 1275.20 57.9459   5
  -3  -4  -9 32.2731 7.36555   8
   3   4   9 31.8668 4.21841   3
   3   4   9 28.5030 3.25263   5
  -4  -4  -9 169.162 14.7712   8
   4   4   9 192.445 10.4512   5
   4   4   9 194.758 12.4936   3
   5   4   9 43.1846 4.85540   3
   5   4   9 43.3040 3.51265   5
   6   4   9 10.1716 1.38579   5
   6   4   9 7.50297 2.22256   3
   7   4   9 292.474 14.9879   3
  -2   5   9 6.92565 1.17347   5
   1  -5  -9 -1.8311 1.41061   5
  -1   5   9 0.23057 0.78465   5
   0   5   9 772.253 36.7025   5
   1   5   9 1.64818 1.15743   5
   1   5   9 0.35226 1.27738   3
   2   5   9 217.954 13.1358   3
   2   5   9 228.314 12.1646   5
   3   5   9 119.295 7.38834   5
   3   5   9 126.557 9.14532   3
   4   5   9 150.022 8.36655   5
   4   5   9 151.298 10.4747   3
   5   5   9 84.5726 7.14449   3
   6   5   9 7.56879 2.21386   3
   7   5   9 32.8693 3.86730   3
   0   6   9 26.8212 3.02660  10
   1   6   9 4.04744 1.29707   5
   2   6   9 755.498 36.2594   3
   2   6   9 779.766 35.1955   5
   3   6   9 124.517 8.95225   3
   3   6   9 142.653 7.76467   5
   4   6   9 52.2967 3.11058   5
   4   6   9 55.0012 5.26251   3
   5   6   9 247.332 14.8393   3
   6   6   9 49.4634 4.63609   3
   7   6   9 128.403 7.47811   3
   1   7   9 0.25033 0.84847   5
   2   7   9 46.3739 3.51904   3
   3   7   9 205.495 11.6204   3
   4   7   9 142.191 9.10115   3
   5   7   9 18.1582 2.62183   3
   6   7   9 23.4843 2.76552   3
   7   7   9 35.4578 3.03092   3
   3   8   9 49.8870 3.66065   3
   4   8   9 48.1302 4.95757   3
   5   8   9 2.98220 1.43965   3
   6   8   9 37.1514 2.96689   3
   0   2 -10 14.8628 1.35894   5
  -1   2 -10 9.77480 1.28651   5
  -1   2 -10 7.19207 1.21613   4
   1   1 -10 0.59745 0.82843   4
   1   1 -10 0.19025 0.77356   5
   0   1 -10 3.82598 1.18575   5
  -1   1 -10 0.09574 0.90408   5
   1  -1  10 0.62253 0.79253   5
  -2   1 -10 20.0005 2.26794   5
  -3   1 -10 -0.2435 0.71615   5
   3  -1  10 1.40457 0.70055   5
  -4   1 -10 1.29951 0.73421   5
   4  -1  10 0.95971 0.62989   5
   2   0 -10 30.1252 2.19984   5
   1   0 -10 0.68218 0.77979   5
   1   0 -10 1.66584 0.92930   4
   0   0 -10 -1.6773 0.73227   5
   0   0  10 0.61477 0.93875   5
  -1   0 -10 107.390 6.72388   5
   1   0  10 107.520 6.63757   5
  -2   0 -10 9.60096 1.98976   5
   2   0  10 9.61752 1.92699   5
  -3   0 -10 67.9831 4.84973   5
   3   0  10 70.6693 4.76800   5
  -4   0 -10 46.6223 3.59608   5
   4   0  10 50.6934 3.52157   5
   5   0  10 856.140 38.1289   5
   1  -1 -10 20.0085 2.42061   5
  -1   1  10 21.8292 2.30464   5
   0  -1 -10 75.9319 5.31369   5
   0   1  10 71.6363 5.12808   5
  -1  -1 -10 71.5304 5.36948   5
   1   1  10 73.7528 5.27442   5
  -2  -1 -10 31.0683 3.40742   5
   2   1  10 23.7057 2.93618   5
  -3  -1 -10 96.3376 6.30673   5
   3   1  10 92.1006 6.10302   5
  -4  -1 -10 31.5773 3.79041   5
   4   1  10 28.7095 2.79383   5
   5   1  10 72.9883 4.49686   5
   6   1  10 94.3392 4.86529   5
   2  -2 -10 21.8410 2.03393   5
   1  -2 -10 123.317 7.12070   5
  -1   2  10 115.966 6.92557   5
   0  -2 -10 116.672 7.45131   5
   0   2  10 126.520 7.53396   5
  -1  -2 -10 47.8194 4.39546   5
   1   2  10 40.7313 3.78897   3
   1   2  10 58.6167 5.99151   5
  -2  -2 -10 378.757 19.1490   5
   2   2  10 378.419 18.9438   5
  -3  -2 -10 5.42370 1.87062   5
   3   2  10 4.47507 1.45433   5
  -4  -2 -10 224.325 12.4382   5
   4   2  10 234.268 12.0584   5
   5   2  10 252.814 12.5817   5
   6   2  10 5.36506 1.20533   3
   6   2  10 8.31086 1.16287   5
   2  -3 -10 186.397 9.24151   5
   1  -3 -10 103.736 6.99462   5
  -1   3  10 97.4277 5.99703   5
   0  -3 -10 169.009 9.61398   5
   0   3  10 170.624 9.51174   5
  -1  -3 -10 57.7495 4.85201   5
   1   3  10 58.3456 4.87346   5
  -2  -3 -10 2.55959 1.70344   5
   2   3  10 3.33903 1.36235   5
   2   3  10 2.07812 1.50037   3
  -3  -3 -10 11.6273 2.83314   5
   3   3  10 18.2424 2.53848   5
   3   3  10 15.8597 3.13986   3
   4   3  10 89.7533 6.32205   5
   5   3  10 80.8872 6.28222   3
   5   3  10 81.5272 5.06831   5
   1  -4 -10 111.153 6.79216   5
   0  -4 -10 89.5249 5.91039   5
   0   4  10 86.2811 5.56818   5
  -1  -4 -10 -1.5589 1.97093   5
   1   4  10 3.99209 1.78008   5
   2   4  10 122.154 8.13916   3
   2   4  10 133.949 7.83728   5
   3   4  10 119.589 9.90135   3
   3   4  10 108.744 6.93561   5
   5   4  10 16.5309 2.64996   3
   5   4  10 23.7200 2.13616   5
   6   4  10 19.7221 2.54785   3
  -1   5  10 67.3457 3.73004   5
   0   5  10 2.96794 1.01914   5
   1   5  10 6.20768 1.35349   5
   2   5  10 12.6477 2.10253   3
   2   5  10 19.9733 2.28117   5
   3   5  10 96.3489 5.85006   5
   3   5  10 94.8403 6.83918   3
   4   5  10 403.444 20.2646   3
   4   5  10 365.347 17.8832   5
   5   5  10 17.1453 2.61917   3
   6   5  10 372.307 18.7128   3
   0   6  10 3.51244 0.75246   5
   2   6  10 40.1935 2.81882   5
   3   6  10 68.8360 5.14038   3
   3   6  10 72.5034 3.95367   5
   4   6  10 1.48823 1.12557   3
   5   6  10 20.6470 2.71700   3
   6   6  10 75.6741 5.36798   3
   3   7  10 22.0187 2.17693   3
   4   7  10 85.5083 5.43435   3
   5   7  10 14.7460 1.91778   3
   0   0 -11 0.52835 0.70703   4
   0   0 -11 1.86597 0.64089   5
  -1   0 -11 4.95060 0.99243   5
  -2   0 -11 358.929 16.8320   5
   0  -1 -11 24.2379 2.11339   5
  -1  -1 -11 5.15875 1.10565   5
   1   1  11 4.60980 0.96682   5
  -2  -1 -11 -0.4887 0.78208   5
   2   1  11 -0.3626 0.57955   5
   2   1  11 0.11815 1.00511   3
  -3  -1 -11 19.2371 2.49112   5
   3   1  11 19.7982 1.93016   5
   0  -2 -11 10.9399 1.60401   5
   0   2  11 8.78544 1.25139   5
  -1  -2 -11 1.02558 0.76679   5
   1   2  11 0.83079 0.83666   5
  -2  -2 -11 258.748 13.2216   5
   2   2  11 275.220 13.2659   5
   3   2  11 460.604 23.1610   3
   3   2  11 477.720 21.9193   5
   4   2  11 208.352 11.0122   5
   4   2  11 220.395 11.6282   3
   5   2  11 3.81224 0.86081   3
   0   3  11 26.1584 2.17594   5
  -1  -3 -11 0.42609 1.75239   5
   1   3  11 7.26191 1.38515   5
  -2  -3 -11 55.2854 5.81057   5
   2   3  11 73.0931 4.56461   5
   3   3  11 122.808 6.36704   5
   3   3  11 89.4855 6.66216   3
   4   3  11 53.2213 3.51958   5
   4   3  11 53.3618 4.14291   3
   5   3  11 4.37362 1.10974   3
   0   4  11 56.2374 3.53167   5
   1   4  11 6.10758 1.32653   5
   2   4  11 9.41430 1.53869   5
   3   4  11 237.987 12.1460   3
   4   4  11 211.086 9.88052   5
   4   4  11 167.288 10.3471   3
   5   4  11 5.15553 1.27483   3
   1   5  11 16.3590 1.40290   5
   2   5  11 36.2837 2.51271   5
   3   5  11 25.4727 2.62977   3
   4   5  11 15.9595 1.93211   3
   5   5  11 3.79208 1.02968   3
   4   6  11 16.6383 1.76343   3
   5   6  11 0.69369 0.53642   3
   0   0   0    0.00    0.00   0

 _exptl_absorpt_process_details
)
 SADABS 2016/2: Krause, L., Herbst-Irmer, R., Sheldrick G.M. & Stalke D.,
 J. Appl. Cryst. 48 (2015) 3-10
)
 _exptl_absorpt_correction_type   multi-scan
 _exptl_absorpt_correction_T_max  0.7542
 _exptl_absorpt_correction_T_min  0.6667
 _exptl_special_details
)
 The following wavelength and cell were deduced by SADABS from the
 direction cosines etc. They are given here for emergency use only:
 CELL 1.54188    7.532    8.101    9.284   71.396   73.325   66.790
)

;
_shelx_hkl_checksum              93009
loop_
_space_group_symop_operation_xyz
'x, y, z'
'-x, -y, -z'
loop_
_atom_site_label
_atom_site_type_symbol
_atom_site_fract_x
_atom_site_fract_y
_atom_site_fract_z
_atom_site_U_iso_or_equiv
_atom_site_adp_type
_atom_site_occupancy
_atom_site_site_symmetry_order
_atom_site_calc_flag
_atom_site_refinement_flags_posn
_atom_site_refinement_flags_adp
_atom_site_refinement_flags_occupancy
_atom_site_disorder_assembly
_atom_site_disorder_group
N1 N 0.67011(18) 0.81024(18) 0.96981(14) 0.0262(3) Uani 1 1 d . . . . .
H1N H 0.674(3) 0.887(3) 1.022(2) 0.031 Uiso 1 1 d . U . . .
N2 N 0.49633(17) 0.82861(17) 0.93923(14) 0.0253(3) Uani 1 1 d . . . . .
N3 N -0.06731(18) 0.84308(18) 0.14635(14) 0.0280(3) Uani 1 1 d . . . . .
N4 N 0.09930(18) 0.84682(18) 0.17137(14) 0.0252(3) Uani 1 1 d . . . . .
H4N H 0.192(3) 0.872(3) 0.093(2) 0.030 Uiso 1 1 d . U . . .
C1 C 0.8222(2) 0.6867(2) 0.90191(17) 0.0265(3) Uani 1 1 d . . . . .
H1 H 0.956656 0.653360 0.906415 0.032 Uiso 1 1 calc R U . . .
C2 C 0.7474(2) 0.6176(2) 0.82475(16) 0.0254(3) Uani 1 1 d . . . . .
H2 H 0.818236 0.526722 0.766086 0.030 Uiso 1 1 calc R U . . .
C3 C 0.5433(2) 0.70998(19) 0.85103(15) 0.0221(3) Uani 1 1 d . . . . .
C4 C 0.3878(2) 0.6930(2) 0.79202(16) 0.0254(3) Uani 1 1 d . . . . .
H4A H 0.258230 0.776684 0.831748 0.030 Uiso 1 1 calc R U . . .
H4B H 0.385198 0.564996 0.832139 0.030 Uiso 1 1 calc R U . . .
C5 C 0.4212(2) 0.7404(2) 0.61488(16) 0.0245(3) Uani 1 1 d . . . . .
H5A H 0.435366 0.864267 0.574325 0.029 Uiso 1 1 calc R U . . .
H5B H 0.545198 0.649871 0.575435 0.029 Uiso 1 1 calc R U . . .
C6 C 0.2535(2) 0.7390(2) 0.55538(16) 0.0251(3) Uani 1 1 d . . . . .
H6A H 0.128452 0.823404 0.600592 0.030 Uiso 1 1 calc R U . . .
H6B H 0.244925 0.612955 0.590759 0.030 Uiso 1 1 calc R U . . .
C7 C 0.2781(2) 0.7978(2) 0.37887(16) 0.0262(3) Uani 1 1 d . . . . .
H7A H 0.291738 0.921900 0.342840 0.031 Uiso 1 1 calc R U . . .
H7B H 0.400134 0.710378 0.333429 0.031 Uiso 1 1 calc R U . . .
C8 C 0.1082(2) 0.80281(19) 0.32297(16) 0.0226(3) Uani 1 1 d . . . . .
C9 C -0.0631(2) 0.7673(2) 0.40199(17) 0.0277(3) Uani 1 1 d . . . . .
H9 H -0.103279 0.732018 0.510771 0.033 Uiso 1 1 calc R U . . .
C10 C -0.1649(2) 0.7945(2) 0.28729(17) 0.0291(4) Uani 1 1 d . . . . .
H10 H -0.289605 0.779947 0.307967 0.035 Uiso 1 1 calc R U . . .
loop_
_atom_site_aniso_label
_atom_site_aniso_U_11
_atom_site_aniso_U_22
_atom_site_aniso_U_33
_atom_site_aniso_U_23
_atom_site_aniso_U_13
_atom_site_aniso_U_12
N1 0.0288(7) 0.0298(7) 0.0264(6) -0.0068(5) -0.0127(5) -0.0110(5)
N2 0.0235(6) 0.0319(7) 0.0241(6) -0.0092(5) -0.0096(5) -0.0072(5)
N3 0.0276(6) 0.0356(7) 0.0255(6) -0.0041(5) -0.0120(5) -0.0129(5)
N4 0.0262(6) 0.0336(7) 0.0200(6) -0.0044(5) -0.0063(5) -0.0144(5)
C1 0.0229(7) 0.0302(7) 0.0260(7) -0.0009(6) -0.0100(5) -0.0092(6)
C2 0.0250(7) 0.0269(7) 0.0237(7) -0.0058(6) -0.0057(5) -0.0073(6)
C3 0.0247(7) 0.0268(7) 0.0174(6) -0.0044(5) -0.0065(5) -0.0098(5)
C4 0.0252(7) 0.0334(8) 0.0207(7) -0.0061(6) -0.0053(5) -0.0125(6)
C5 0.0243(7) 0.0317(8) 0.0208(7) -0.0066(6) -0.0059(5) -0.0112(6)
C6 0.0249(7) 0.0325(8) 0.0214(7) -0.0059(6) -0.0070(5) -0.0117(6)
C7 0.0252(7) 0.0352(8) 0.0227(7) -0.0060(6) -0.0065(5) -0.0138(6)
C8 0.0239(7) 0.0264(7) 0.0197(7) -0.0055(5) -0.0072(5) -0.0082(5)
C9 0.0257(7) 0.0396(8) 0.0207(7) -0.0046(6) -0.0055(5) -0.0149(6)
C10 0.0222(7) 0.0402(8) 0.0276(7) -0.0051(6) -0.0082(6) -0.0127(6)
loop_
_atom_type_symbol
_atom_type_description
_atom_type_scat_dispersion_real
_atom_type_scat_dispersion_imag
_atom_type_scat_source
C C 0.0181 0.0091 'International Tables Vol C Tables 4.2.6.8 and 6.1.1.4'
H H 0.0000 0.0000 'International Tables Vol C Tables 4.2.6.8 and 6.1.1.4'
N N 0.0311 0.0180 'International Tables Vol C Tables 4.2.6.8 and 6.1.1.4'
loop_
_geom_angle_atom_site_label_1
_geom_angle_atom_site_label_2
_geom_angle_atom_site_label_3
_geom_angle
_geom_angle_site_symmetry_1
_geom_angle_site_symmetry_3
_geom_angle_publ_flag
C1 N1 N2 112.01(12) . . ?
C1 N1 H1N 127.6(12) . . ?
N2 N1 H1N 120.0(12) . . ?
C3 N2 N1 104.94(12) . . ?
C10 N3 N4 103.85(11) . . ?
C8 N4 N3 113.23(12) . . ?
C8 N4 H4N 125.6(12) . . ?
N3 N4 H4N 121.1(12) . . ?
N1 C1 C2 107.21(12) . . ?
N1 C1 H1 126.4 . . ?
C2 C1 H1 126.4 . . ?
C1 C2 C3 105.23(13) . . ?
C1 C2 H2 127.4 . . ?
C3 C2 H2 127.4 . . ?
N2 C3 C2 110.61(12) . . ?
N2 C3 C4 120.47(13) . . ?
C2 C3 C4 128.91(13) . . ?
C3 C4 C5 112.58(11) . . ?
C3 C4 H4A 109.1 . . ?
C5 C4 H4A 109.1 . . ?
C3 C4 H4B 109.1 . . ?
C5 C4 H4B 109.1 . . ?
H4A C4 H4B 107.8 . . ?
C6 C5 C4 112.35(11) . . ?
C6 C5 H5A 109.1 . . ?
C4 C5 H5A 109.1 . . ?
C6 C5 H5B 109.1 . . ?
C4 C5 H5B 109.1 . . ?
H5A C5 H5B 107.9 . . ?
C5 C6 C7 113.07(12) . . ?
C5 C6 H6A 109.0 . . ?
C7 C6 H6A 109.0 . . ?
C5 C6 H6B 109.0 . . ?
C7 C6 H6B 109.0 . . ?
H6A C6 H6B 107.8 . . ?
C8 C7 C6 112.29(12) . . ?
C8 C7 H7A 109.1 . . ?
C6 C7 H7A 109.1 . . ?
C8 C7 H7B 109.1 . . ?
C6 C7 H7B 109.1 . . ?
H7A C7 H7B 107.9 . . ?
N4 C8 C9 105.70(12) . . ?
N4 C8 C7 122.91(12) . . ?
C9 C8 C7 131.40(12) . . ?
C8 C9 C10 105.05(13) . . ?
C8 C9 H9 127.5 . . ?
C10 C9 H9 127.5 . . ?
N3 C10 C9 112.17(13) . . ?
N3 C10 H10 123.9 . . ?
C9 C10 H10 123.9 . . ?
loop_
_geom_bond_atom_site_label_1
_geom_bond_atom_site_label_2
_geom_bond_distance
_geom_bond_site_symmetry_2
_geom_bond_publ_flag
N1 C1 1.340(2) . ?
N1 N2 1.3595(16) . ?
N1 H1N 0.91(2) . ?
N2 C3 1.3365(19) . ?
N3 C10 1.325(2) . ?
N3 N4 1.3531(16) . ?
N4 C8 1.3520(18) . ?
N4 H4N 0.886(19) . ?
C1 C2 1.371(2) . ?
C1 H1 0.9500 . ?
C2 C3 1.4066(19) . ?
C2 H2 0.9500 . ?
C3 C4 1.4939(18) . ?
C4 C5 1.5338(19) . ?
C4 H4A 0.9900 . ?
C4 H4B 0.9900 . ?
C5 C6 1.5216(19) . ?
C5 H5A 0.9900 . ?
C5 H5B 0.9900 . ?
C6 C7 1.5314(19) . ?
C6 H6A 0.9900 . ?
C6 H6B 0.9900 . ?
C7 C8 1.4947(18) . ?
C7 H7A 0.9900 . ?
C7 H7B 0.9900 . ?
C8 C9 1.379(2) . ?
C9 C10 1.398(2) . ?
C9 H9 0.9500 . ?
C10 H10 0.9500 . ?
loop_
_geom_hbond_atom_site_label_D
_geom_hbond_atom_site_label_H
_geom_hbond_atom_site_label_A
_geom_hbond_distance_DH
_geom_hbond_distance_HA
_geom_hbond_distance_DA
_geom_hbond_angle_DHA
_geom_hbond_site_symmetry_A
_geom_hbond_publ_flag
N1 H1N N2 0.91(2) 2.243(19) 2.9863(18) 138.2(16) 2_677 yes
N1 H1N N3 0.91(2) 2.394(19) 3.0356(17) 127.4(15) 1_656 yes
N4 H4N N2 0.886(19) 2.287(19) 3.1268(18) 158.2(16) 1_554 yes
loop_
_geom_torsion_atom_site_label_1
_geom_torsion_atom_site_label_2
_geom_torsion_atom_site_label_3
_geom_torsion_atom_site_label_4
_geom_torsion
_geom_torsion_site_symmetry_1
_geom_torsion_site_symmetry_2
_geom_torsion_site_symmetry_3
_geom_torsion_site_symmetry_4
_geom_torsion_publ_flag
C1 N1 N2 C3 0.88(16) . . . . ?
C10 N3 N4 C8 -0.18(17) . . . . ?
N2 N1 C1 C2 -0.91(16) . . . . ?
N1 C1 C2 C3 0.55(16) . . . . ?
N1 N2 C3 C2 -0.50(16) . . . . ?
N1 N2 C3 C4 -179.19(12) . . . . ?
C1 C2 C3 N2 -0.03(16) . . . . ?
C1 C2 C3 C4 178.53(13) . . . . ?
N2 C3 C4 C5 119.52(14) . . . . ?
C2 C3 C4 C5 -58.9(2) . . . . ?
C3 C4 C5 C6 -175.09(12) . . . . ?
C4 C5 C6 C7 176.40(12) . . . . ?
C5 C6 C7 C8 -177.72(12) . . . . ?
N3 N4 C8 C9 0.26(17) . . . . ?
N3 N4 C8 C7 -179.96(13) . . . . ?
C6 C7 C8 N4 -178.48(13) . . . . ?
C6 C7 C8 C9 1.2(2) . . . . ?
N4 C8 C9 C10 -0.22(17) . . . . ?
C7 C8 C9 C10 -179.97(15) . . . . ?
N4 N3 C10 C9 0.03(18) . . . . ?
C8 C9 C10 N3 0.12(19) . . . . ?
