#------------------------------------------------------------------------------
#$Date: 2021-10-06 19:15:17 +0300 (Wed, 06 Oct 2021) $
#$Revision: 269778 $
#$URL: file:///home/coder/svn-repositories/cod/cif/7/15/82/7158264.cif $
#------------------------------------------------------------------------------
#
# This file is available in the Crystallography Open Database (COD),
# http://www.crystallography.net/
#
# All data on this site have been placed in the public domain by the
# contributors.
#
data_7158264
loop_
_publ_author_name
'Chen, Xiao Yun'
'Yuan, Shuxia'
'Chen, Yan'
'Sun, Chenyang'
'Tang, Yaonan'
'Chen, Guang'
'Zhu, Baocheng'
'Chen, Kaiwei'
'Zheng, Shaojun'
'Cheng, Xiaofang'
_publ_section_title
;
 Solvent-controlled two-step one-pot syntheses of \a-X (X = Br or Cl)
 enamino ketones/esters and 3-(2,5-dioxopyrrolidin-1-yl)acrylate by using
 terminal carbonyl alkynes.
;
_journal_issue                   36
_journal_name_full               'Organic &amp; biomolecular chemistry'
_journal_page_first              7914
_journal_page_last               7919
_journal_paper_doi               10.1039/d1ob01308d
_journal_volume                  19
_journal_year                    2021
_chemical_formula_sum            'C9 H14 Br N O3'
_chemical_formula_weight         264.12
_space_group_crystal_system      triclinic
_space_group_IT_number           2
_space_group_name_Hall           '-P 1'
_space_group_name_H-M_alt        'P -1'
_atom_sites_solution_hydrogens   geom
_audit_block_doi                 10.5517/ccdc.csd.cc289g68
_audit_creation_method           SHELXL-2016/6
_audit_update_record
;
2021-07-04 deposited with the CCDC.	2021-08-24 downloaded from the CCDC.
;
_cell_angle_alpha                109.638(4)
_cell_angle_beta                 92.037(4)
_cell_angle_gamma                101.081(5)
_cell_formula_units_Z            2
_cell_length_a                   4.5418(3)
_cell_length_b                   10.9707(7)
_cell_length_c                   11.8989(6)
_cell_measurement_temperature    296(2)
_cell_volume                     544.76(6)
_computing_structure_refinement  'SHELXL-2016/6 (Sheldrick, 2016)'
_diffrn_ambient_temperature      296(2)
_diffrn_measured_fraction_theta_full 0.983
_diffrn_measured_fraction_theta_max 0.974
_diffrn_radiation_type           MoK\a
_diffrn_radiation_wavelength     0.71073
_diffrn_reflns_av_R_equivalents  0.0188
_diffrn_reflns_av_unetI/netI     0.0244
_diffrn_reflns_Laue_measured_fraction_full 0.983
_diffrn_reflns_Laue_measured_fraction_max 0.974
_diffrn_reflns_limit_h_max       5
_diffrn_reflns_limit_h_min       -5
_diffrn_reflns_limit_k_max       14
_diffrn_reflns_limit_k_min       -14
_diffrn_reflns_limit_l_max       15
_diffrn_reflns_limit_l_min       -15
_diffrn_reflns_number            5605
_diffrn_reflns_point_group_measured_fraction_full 0.983
_diffrn_reflns_point_group_measured_fraction_max 0.974
_diffrn_reflns_theta_full        25.242
_diffrn_reflns_theta_max         27.657
_diffrn_reflns_theta_min         3.163
_exptl_absorpt_coefficient_mu    3.756
_exptl_crystal_density_diffrn    1.610
_exptl_crystal_F_000             268
_exptl_crystal_size_max          0.280
_exptl_crystal_size_mid          0.240
_exptl_crystal_size_min          0.200
_refine_diff_density_max         0.802
_refine_diff_density_min         -0.575
_refine_diff_density_rms         0.070
_refine_ls_extinction_method     none
_refine_ls_goodness_of_fit_ref   1.038
_refine_ls_hydrogen_treatment    constr
_refine_ls_matrix_type           full
_refine_ls_number_parameters     128
_refine_ls_number_reflns         2473
_refine_ls_number_restraints     0
_refine_ls_restrained_S_all      1.038
_refine_ls_R_factor_all          0.0451
_refine_ls_R_factor_gt           0.0355
_refine_ls_shift/su_max          0.001
_refine_ls_shift/su_mean         0.000
_refine_ls_structure_factor_coef Fsqd
_refine_ls_weighting_details
'w=1/[\s^2^(Fo^2^)+(0.0610P)^2^+0.0633P] where P=(Fo^2^+2Fc^2^)/3'
_refine_ls_weighting_scheme      calc
_refine_ls_wR_factor_gt          0.0907
_refine_ls_wR_factor_ref         0.0953
_reflns_Friedel_coverage         0.000
_reflns_number_gt                2016
_reflns_number_total             2473
_reflns_threshold_expression     'I > 2\s(I)'
_cod_data_source_file            d1ob01308d2.cif
_cod_data_source_block           1
_cod_depositor_comments          'Adding full bibliography for 7158264.cif.'
_cod_database_code               7158264
_shelx_shelxl_version_number     2016/6
_shelx_space_group_comment
;
The symmetry employed for this shelxl refinement is uniquely defined
by the following loop, which should always be used as a source of
symmetry information in preference to the above space-group names.
They are only intended as comments.
;
_shelx_estimated_absorpt_t_min   0.419
_shelx_estimated_absorpt_t_max   0.520
_shelx_res_file
;
TITL 1 in P-1
    1.res
    created by SHELXL-2016/6 at 10:34:47 on 21-Jun-2019
CELL 0.71073   4.5418  10.9707  11.8989 109.638  92.037 101.081
ZERR    2.00   0.0003   0.0007   0.0006   0.004   0.004   0.005
LATT 1
SFAC C  H  O  Br N
UNIT 18 28 6 2 2
L.S. 4
ACTA
SIZE 0.20 0.24 0.28
TEMP
BOND
FMAP 2
PLAN 5
TEMP 23.000
WGHT    0.061000    0.063300
FVAR       0.34654
MOLE 1
BR1   4    0.980217    0.149160    0.933940    11.00000    0.09292    0.05776 =
         0.03016    0.01609    0.00503   -0.00404
C1    1    0.326722   -0.330201    0.571153    11.00000    0.07986    0.05380 =
         0.05922    0.00898    0.01179   -0.00776
AFIX  23
H1A   2    0.185366   -0.387538    0.502239    11.00000   -1.20000
H1B   2    0.524577   -0.349211    0.556269    11.00000   -1.20000
AFIX   0
C2    1    0.336798   -0.188644    0.585569    11.00000    0.04993    0.06337 =
         0.04355    0.02107    0.00124   -0.00286
AFIX  23
H2A   2    0.408664   -0.171577    0.515343    11.00000   -1.20000
H2B   2    0.135397   -0.171407    0.592694    11.00000   -1.20000
AFIX   0
C3    1    0.444458   -0.275042    0.776183    11.00000    0.07363    0.06291 =
         0.07337    0.04211    0.00811    0.00161
AFIX  23
H3A   2    0.643918   -0.292678    0.762631    11.00000   -1.20000
H3B   2    0.385471   -0.295936    0.846285    11.00000   -1.20000
AFIX   0
C4    1    0.456686   -0.130409    0.799919    11.00000    0.06870    0.05518 =
         0.04356    0.02527    0.01232    0.00000
AFIX  23
H4A   2    0.261707   -0.110367    0.819275    11.00000   -1.20000
H4B   2    0.605298   -0.076513    0.867547    11.00000   -1.20000
AFIX   0
C5    1    0.749912   -0.002011    0.684973    11.00000    0.04806    0.04213 =
         0.03434    0.01862    0.00675    0.01100
AFIX  43
H5    2    0.762135   -0.004474    0.606413    11.00000   -1.20000
AFIX   0
C6    1    0.951788    0.101028    0.764981    11.00000    0.05189    0.04017 =
         0.03051    0.01592    0.00550    0.00799
C7    1    1.159858    0.184130    0.716238    11.00000    0.04877    0.04172 =
         0.03397    0.01426    0.00318    0.00665
C8    1    1.552501    0.372687    0.754096    11.00000    0.06110    0.05087 =
         0.04844    0.02180    0.00469   -0.00162
AFIX  23
H8A   2    1.443597    0.416885    0.713824    11.00000   -1.20000
H8B   2    1.668305    0.320788    0.697165    11.00000   -1.20000
AFIX   0
C9    1    1.757213    0.472297    0.859159    11.00000    0.07657    0.05737 =
         0.06256    0.01861   -0.00359   -0.00865
AFIX 137
H9A   2    1.641160    0.525633    0.913034    11.00000   -1.50000
H9B   2    1.904872    0.528022    0.831767    11.00000   -1.50000
H9C   2    1.857207    0.427271    0.900217    11.00000   -1.50000
AFIX   0
N1    5    0.537906   -0.100632    0.692847    11.00000    0.05505    0.04509 =
         0.03641    0.01782    0.00522    0.00052
O1    3    0.237699   -0.357655    0.675235    11.00000    0.08517    0.05442 =
         0.07317    0.02855    0.01143   -0.01202
O2    3    1.169196    0.163461    0.609797    11.00000    0.07349    0.07356 =
         0.03502    0.02087    0.00226   -0.01678
O3    3    1.342969    0.287544    0.799695    11.00000    0.06156    0.04474 =
         0.03866    0.01578    0.00261   -0.00454
HKLF 4




REM  1 in P-1
REM R1 =  0.0355 for    2016 Fo > 4sig(Fo)  and  0.0451 for all    2473 data
REM    128 parameters refined using      0 restraints

END

WGHT      0.0603      0.0707

REM Highest difference peak  0.802,  deepest hole -0.575,  1-sigma level  0.070
Q1    1   0.8654  0.0748  0.9156  11.00000  0.05    0.80
Q2    1   1.0926  0.2347  0.9591  11.00000  0.05    0.55
Q3    1   1.1549  0.2070  0.9429  11.00000  0.05    0.54
Q4    1   0.8403  0.1856  0.9127  11.00000  0.05    0.37
Q5    1   0.8197  0.0656  0.7321  11.00000  0.05    0.27
;
_shelx_res_checksum              92588
_shelx_hkl_file
;
  -2   0   0   69.37    1.34
  -2   0   0   68.20    1.39
  -3   0   0   22.44    0.57
  -3   0   0   23.21    0.52
  -3   0   0   23.67    0.56
  -4   0   0   11.40    0.45
  -4   0   0   10.79    0.38
  -4   0   0   11.24    0.45
  -5   0   0    1.02    0.34
  -5   0   0    0.92    0.29
  -5   0   0    0.74    0.35
  -5   1   0    1.12    0.31
  -5   1   0    1.10    0.32
  -5   1   0    1.06    0.37
  -4   1   0    0.22    0.26
  -4   1   0    0.14    0.20
  -4   1   0   -0.13    0.20
  -3   1   0   -0.04    0.15
  -3   1   0    0.11    0.14
  -3   1   0   -0.07    0.13
  -2   1   0  132.43    2.62
  -2   1   0  132.80    2.51
  -2  -1   0   67.19    1.38
  -2  -1   0   70.10    1.27
  -2  -1   0   67.57    1.34
  -3  -1   0   19.49    0.51
  -3  -1   0   19.30    0.51
  -3  -1   0   19.83    0.45
  -4  -1   0   11.79    0.42
  -4  -1   0   11.66    0.49
  -4  -1   0   11.77    0.47
  -5  -1   0    4.21    0.40
  -5  -1   0    3.53    0.34
  -5  -1   0    4.56    0.41
  -5   2   0    0.39    0.35
  -4   2   0    4.96    0.29
  -4   2   0    4.94    0.37
  -3   2   0   37.48    0.83
  -3   2   0   36.78    0.78
  -2   2   0   15.08    0.38
  -2   2   0   15.41    0.34
   1  -2   0   43.38    0.81
   0  -2   0  202.09    3.62
  -1  -2   0   48.44    0.95
  -2  -2   0    6.83    0.23
  -2  -2   0    6.77    0.25
  -2  -2   0    6.52    0.23
  -3  -2   0    1.00    0.18
  -3  -2   0    0.77    0.18
  -3  -2   0    0.77    0.15
  -4  -2   0   20.24    0.61
  -4  -2   0   20.50    0.64
  -4  -2   0   20.32    0.54
  -5  -2   0    0.20    0.35
  -5  -2   0    0.20    0.34
  -5  -2   0    0.01    0.28
  -5   3   0    1.06    0.36
  -4   3   0    6.44    0.43
  -3   3   0    6.94    0.26
  -3   3   0    7.53    0.31
  -2   3   0  216.14    4.25
   1  -3   0  693.61   12.40
  -1  -3   0  190.37    3.86
  -1  -3   0  196.62    3.65
  -2  -3   0   81.20    1.63
  -2  -3   0   83.69    1.68
  -2  -3   0   84.15    1.71
  -3  -3   0    6.71    0.30
  -3  -3   0    6.44    0.33
  -3  -3   0    6.36    0.33
  -4  -3   0    0.32    0.27
  -4  -3   0    0.32    0.22
  -4  -3   0    0.30    0.28
  -5  -3   0    0.31    0.39
  -5  -3   0    0.31    0.37
  -5  -3   0    0.66    0.32
  -5   4   0   -0.03    0.36
  -4   4   0    0.35    0.27
  -3   4   0    1.18    0.20
  -3   4   0    0.87    0.14
   2  -4   0  232.66    4.52
   2  -4   0  224.51    4.10
   1  -4   0  121.55    2.14
   1  -4   0  115.20    2.39
   0  -4   0  365.29    6.81
   0  -4   0  352.11    7.18
  -1  -4   0   84.54    1.79
  -1  -4   0   88.45    1.68
  -2  -4   0   56.25    1.17
  -2  -4   0   55.50    1.16
  -2  -4   0   56.94    1.22
  -3  -4   0    9.56    0.38
  -3  -4   0    9.09    0.42
  -3  -4   0    9.07    0.35
  -3  -4   0    9.58    0.39
  -4  -4   0   10.83    0.43
  -4  -4   0   12.09    0.53
  -4  -4   0   11.29    0.56
  -5  -4   0    0.94    0.39
  -5  -4   0    1.05    0.42
  -5  -4   0    1.19    0.34
   5  -5   0    0.79    0.40
  -5   5   0    0.65    0.38
   4  -5   0    1.59    0.31
  -4   5   0    1.62    0.29
   3  -5   0    0.17    0.21
   3  -5   0    0.43    0.22
   2  -5   0   33.73    0.77
   2  -5   0   33.59    0.78
   2  -5   0   33.89    0.71
  -2   5   0   33.68    0.69
   1  -5   0   48.69    0.92
   1  -5   0   48.80    1.05
   1  -5   0   47.44    0.95
   0  -5   0   13.05    0.33
   0  -5   0   13.49    0.42
  -1  -5   0    0.24    0.13
  -1  -5   0    0.93    0.19
  -1  -5   0    0.23    0.13
  -2  -5   0    4.04    0.26
  -2  -5   0    4.19    0.29
  -2  -5   0    4.11    0.30
  -3  -5   0    9.54    0.45
  -3  -5   0    9.63    0.42
  -3  -5   0    9.22    0.40
  -4  -5   0    4.16    0.37
  -4  -5   0    3.52    0.31
  -4  -5   0    4.38    0.38
   5  -6   0    1.28    0.44
   5  -6   0    1.67    0.41
   4  -6   0    1.85    0.32
   4  -6   0    1.59    0.34
   3  -6   0   12.18    0.43
   3  -6   0   12.19    0.47
   2  -6   0   12.28    0.38
   2  -6   0   12.73    0.42
   2  -6   0   12.32    0.41
   1  -6   0   58.22    1.28
   1  -6   0   59.57    1.12
   1  -6   0   58.54    1.16
   1  -6   0   58.92    1.24
   0  -6   0  183.01    3.46
   0  -6   0  181.11    3.70
   0  -6   0  182.06    3.60
  -1  -6   0   86.36    1.88
  -1  -6   0   86.85    1.74
  -1  -6   0   89.94    1.78
  -2  -6   0    5.40    0.36
  -2  -6   0    5.11    0.35
  -2  -6   0    4.87    0.30
  -3  -6   0    3.17    0.34
  -3  -6   0    3.24    0.31
  -3  -6   0    3.10    0.29
  -4  -6   0    0.34    0.28
  -4  -6   0    0.96    0.36
   5  -7   0    0.71    0.39
   5  -7   0   -0.55    0.43
   4  -7   0    0.54    0.29
   4  -7   0    0.47    0.36
   3  -7   0   11.66    0.46
   3  -7   0   12.39    0.51
   2  -7   0   47.55    1.07
   2  -7   0   47.90    0.97
   2  -7   0   47.20    1.08
   1  -7   0   42.30    0.98
   1  -7   0   40.91    0.86
   1  -7   0   40.74    0.92
   1  -7   0   41.23    0.84
   0  -7   0   91.53    1.78
   0  -7   0   88.68    1.93
   0  -7   0   90.76    1.85
   0  -7   0   90.76    1.71
  -1  -7   0   46.44    1.11
  -1  -7   0   44.92    0.98
  -1  -7   0   44.14    0.98
  -2  -7   0   12.00    0.58
  -2  -7   0   12.12    0.46
  -3  -7   0    6.53    0.42
  -3  -7   0    6.63    0.45
  -4  -7   0    2.96    0.37
  -4  -7   0    3.75    0.44
   5  -8   0    0.37    0.42
   5  -8   0    0.27    0.45
   4  -8   0    3.30    0.37
   4  -8   0    3.80    0.43
   3  -8   0    1.91    0.27
   3  -8   0    1.71    0.31
   2  -8   0    3.03    0.28
   2  -8   0    3.70    0.26
   2  -8   0    4.10    0.31
   1  -8   0   10.65    0.45
   1  -8   0   11.14    0.37
   1  -8   0   10.93    0.42
   1  -8   0   11.07    0.37
   0  -8   0   12.83    0.40
   0  -8   0   12.37    0.43
   0  -8   0   11.86    0.51
  -1  -8   0    2.29    0.34
  -1  -8   0    2.18    0.24
  -2  -8   0    9.00    0.49
  -2  -8   0    9.61    0.60
  -3  -8   0    3.46    0.38
  -3  -8   0    3.77    0.45
   5  -9   0    0.10    0.46
   4  -9   0    1.24    0.39
   4  -9   0    0.81    0.34
   3  -9   0    2.33    0.30
   3  -9   0    2.05    0.34
   2  -9   0    4.36    0.33
   2  -9   0    4.60    0.30
   2  -9   0    4.12    0.35
   1  -9   0   19.67    0.67
   1  -9   0   19.12    0.59
   0  -9   0    8.33    0.40
   0  -9   0    8.99    0.41
   0  -9   0    8.95    0.51
  -1  -9   0    0.18    0.34
  -1  -9   0    0.44    0.25
  -2  -9   0    1.77    0.43
  -2  -9   0    1.59    0.32
  -3  -9   0   -0.07    0.44
  -3  -9   0   -0.09    0.34
   4 -10   0    0.33    0.34
   4 -10   0   -0.24    0.38
   3 -10   0    1.64    0.34
   2 -10   0    7.00    0.52
   1 -10   0   16.78    0.60
   1 -10   0   16.67    0.67
   0 -10   0    7.39    0.51
   0 -10   0    7.21    0.41
  -1 -10   0   14.16    0.57
  -1 -10   0   14.71    0.75
  -2 -10   0    4.01    0.41
  -2 -10   0    3.57    0.54
   2 -11   0    2.88    0.40
   2 -11   0    3.15    0.41
   1 -11   0    1.34    0.35
   1 -11   0    2.11    0.41
   0 -11   0    0.58    0.40
  -1 -11   0    5.40    0.56
  -1 -11   0    5.12    0.41
  -2 -11   0    2.48    0.57
  -2 -11   0    1.64    0.41
   3 -12   0    0.54    0.45
   2 -12   0    0.41    0.39
   2 -12   0    0.96    0.41
   1 -12   0    2.97    0.41
   1 -12   0    2.78    0.46
   0 -12   0    0.27    0.42
  -1 -12   0    0.83    0.53
   2 -13   0    1.20    0.45
   2 -13   0    0.97    0.45
   1 -13   0    2.47    0.49
   0 -13   0    0.99    0.51
   0 -13   1    2.99    0.53
   1 -13   1    0.68    0.44
   1 -13   1   -0.49    0.41
   2 -13   1    1.41    0.44
   2 -13   1    0.99    0.43
   3 -13   1    0.87    0.48
  -1 -12   1    1.02    0.37
  -1 -12   1    1.12    0.51
   0 -12   1    1.46    0.45
   1 -12   1    0.95    0.41
   1 -12   1    0.60    0.39
   2 -12   1    2.11    0.42
   2 -12   1    2.36    0.41
   3 -12   1    0.68    0.43
  -2 -11   1    1.44    0.54
  -2 -11   1    1.02    0.39
  -1 -11   1    1.66    0.34
  -1 -11   1    1.87    0.47
   0 -11   1    5.01    0.47
   0 -11   1    4.05    0.34
   1 -11   1    1.04    0.36
   1 -11   1    0.64    0.33
   2 -11   1    0.58    0.35
   2 -11   1    1.06    0.36
   3 -11   1   -0.08    0.39
  -3 -10   1    4.97    0.48
  -3 -10   1    5.39    0.59
  -2 -10   1   11.32    0.78
  -2 -10   1   10.39    0.60
  -1 -10   1   13.36    0.72
  -1 -10   1   14.10    0.56
   0 -10   1    7.01    0.39
   0 -10   1    6.46    0.47
   0 -10   1    6.05    0.40
   1 -10   1   16.48    0.59
   1 -10   1   16.24    0.66
   2 -10   1    7.46    0.52
   2 -10   1    6.38    0.41
   4 -10   1    0.52    0.38
  -3  -9   1    2.49    0.40
  -3  -9   1    3.06    0.49
  -2  -9   1   10.62    0.63
  -2  -9   1   10.30    0.53
  -1  -9   1    0.43    0.25
  -1  -9   1    0.40    0.35
   0  -9   1   18.38    0.54
   0  -9   1   18.43    0.67
   0  -9   1   18.84    0.55
   1  -9   1   29.52    0.84
   1  -9   1   30.20    0.72
   1  -9   1   30.91    0.76
   2  -9   1   10.93    0.49
   3  -9   1    6.15    0.41
   3  -9   1    6.45    0.45
   4  -9   1    2.21    0.39
   4  -9   1    2.65    0.36
   5  -9   1   -0.09    0.48
  -3  -8   1    1.93    0.41
  -3  -8   1    1.54    0.35
  -2  -8   1    5.47    0.44
  -2  -8   1    4.76    0.34
  -1  -8   1   12.14    0.57
  -1  -8   1   12.40    0.45
   0  -8   1    1.57    0.28
   0  -8   1    1.93    0.22
   0  -8   1    2.14    0.23
   1  -8   1    9.41    0.39
   1  -8   1    8.79    0.32
   1  -8   1    9.02    0.34
   1  -8   1    9.55    0.44
   2  -8   1    0.41    0.21
   2  -8   1    1.14    0.23
   2  -8   1    0.64    0.20
   3  -8   1    0.06    0.24
   3  -8   1    0.22    0.24
   4  -8   1    0.59    0.35
   4  -8   1    0.49    0.32
   5  -8   1   -0.57    0.43
   5  -8   1   -0.12    0.41
  -4  -7   1    1.78    0.41
  -4  -7   1    1.92    0.34
  -3  -7   1    9.63    0.50
  -3  -7   1    9.94    0.55
  -2  -7   1   83.49    1.87
  -2  -7   1   85.83    1.75
  -1  -7   1   42.02    0.92
  -1  -7   1   41.36    1.03
   0  -7   1   38.28    0.83
   0  -7   1   38.00    0.80
   0  -7   1   38.52    0.93
   1  -7   1   33.69    0.75
   1  -7   1   33.06    0.72
   1  -7   1   33.67    0.81
   1  -7   1   33.50    0.75
   1  -7   1   33.10    0.68
  -2   7  -1    0.92    0.16
   2  -7   1    0.77    0.17
   2  -7   1    0.78    0.20
   2  -7   1    0.83    0.20
   3  -7   1   44.92    0.97
   3  -7   1   45.13    1.06
   4  -7   1   -0.03    0.30
   4  -7   1    0.21    0.31
   5  -7   1    0.58    0.42
   5  -7   1   -0.22    0.43
  -4  -6   1    4.35    0.34
  -4  -6   1    4.24    0.41
  -3  -6   1   24.44    0.72
  -3  -6   1   23.24    0.68
  -2  -6   1   11.03    0.43
  -2  -6   1   10.38    0.34
  -2  -6   1   10.15    0.46
  -1  -6   1   73.67    1.46
  -1  -6   1   71.06    1.58
  -1  -6   1   74.05    1.48
   0  -6   1   42.52    0.88
   0  -6   1   41.67    0.97
   1  -6   1  262.52    5.01
   1  -6   1  266.32    5.32
   1  -6   1  270.33    4.74
  -2   6  -1   46.62    0.94
   2  -6   1   45.18    0.92
   2  -6   1   46.43    1.01
   2  -6   1   45.70    1.01
   3  -6   1   54.88    1.23
   3  -6   1   54.45    1.12
  -4   6  -1    2.94    0.33
   4  -6   1    2.93    0.33
  -5   6  -1    0.56    0.39
   5  -6   1    0.62    0.41
  -4  -5   1   -0.03    0.29
  -4  -5   1   -0.36    0.23
  -4  -5   1    0.11    0.30
  -3  -5   1    5.64    0.41
  -3  -5   1    5.26    0.34
  -3  -5   1    6.68    0.37
  -2  -5   1    0.33    0.15
  -2  -5   1    0.30    0.19
  -2  -5   1    0.15    0.17
  -1  -5   1   26.71    0.61
  -1  -5   1   27.68    0.67
   0  -5   1    2.93    0.20
   0  -5   1    3.45    0.18
   1  -5   1   25.98    0.52
   1  -5   1   26.34    0.62
  -2   5  -1  194.48    3.55
   2  -5   1  189.35    3.39
   2  -5   1  185.28    3.74
   2  -5   1  181.91    3.72
  -3   5  -1    9.50    0.31
  -3   5  -1    9.04    0.36
  -4   5  -1    0.59    0.30
  -5   5  -1    0.16    0.41
  -5  -4   1    0.58    0.38
  -5  -4   1    0.97    0.34
  -5  -4   1    0.36    0.37
  -4  -4   1    2.98    0.27
  -4  -4   1    2.93    0.34
  -4  -4   1    3.16    0.33
  -3  -4   1   96.47    1.82
  -3  -4   1   95.60    1.97
  -3  -4   1   96.49    1.93
  -2  -4   1   59.59    1.22
  -2  -4   1   59.33    1.27
  -2  -4   1   59.26    1.22
  -1  -4   1   80.31    1.65
  -1  -4   1   78.42    1.55
   0  -4   1    5.79    0.19
   0  -4   1    6.23    0.23
   1  -4   1   71.47    1.31
  -2   4  -1   38.61    0.79
  -2   4  -1   38.78    0.83
  -3   4  -1    2.56    0.23
  -3   4  -1    1.74    0.16
  -4   4  -1    0.04    0.28
  -5   4  -1   -0.29    0.38
  -5  -3   1    1.94    0.40
  -5  -3   1    1.35    0.37
  -5  -3   1    1.46    0.32
  -4  -3   1   21.66    0.65
  -4  -3   1   20.75    0.55
  -4  -3   1   21.67    0.67
  -3  -3   1   32.68    0.77
  -3  -3   1   33.52    0.71
  -3  -3   1   33.48    0.78
  -2  -3   1   94.18    1.92
  -2  -3   1   94.85    1.89
  -2  -3   1   93.62    1.84
  -1  -3   1  260.06    4.93
  -1  -3   1  261.87    5.21
  -2   3  -1  140.76    2.70
  -2   3  -1  144.18    2.82
  -3   3  -1   45.34    0.95
  -3   3  -1   46.85    1.01
  -4   3  -1    6.24    0.36
  -4   3  -1    6.62    0.40
  -5   3  -1    0.82    0.37
  -5  -2   1    0.01    0.30
  -5  -2   1   -0.34    0.33
  -5  -2   1    0.51    0.37
  -4  -2   1    2.61    0.29
  -4  -2   1    2.37    0.29
  -4  -2   1    1.79    0.24
  -3  -2   1    6.28    0.32
  -3  -2   1    6.29    0.27
  -3  -2   1    6.33    0.29
  -2  -2   1    5.79    0.20
  -2  -2   1    6.04    0.23
  -1  -2   1   11.90    0.28
  -2   2  -1   37.31    0.78
  -2   2  -1   36.10    0.74
  -3   2  -1   24.75    0.54
  -3   2  -1   24.79    0.60
  -3   2  -1   24.63    0.57
  -4   2  -1    3.45    0.27
  -4   2  -1    3.48    0.27
  -4   2  -1    4.38    0.32
  -5   2  -1    2.33    0.40
  -5   2  -1    2.46    0.35
  -5  -1   1    2.62    0.39
  -5  -1   1    2.12    0.37
  -5  -1   1    2.71    0.33
  -4  -1   1    6.62    0.35
  -4  -1   1    6.00    0.38
  -4  -1   1    6.36    0.40
  -3  -1   1   16.07    0.40
  -3  -1   1   15.96    0.43
  -3  -1   1   15.17    0.43
  -2  -1   1  138.05    2.74
  -2  -1   1  136.33    2.63
  -2  -1   1  140.82    2.52
  -2   1  -1    0.04    0.09
  -2   1  -1    0.06    0.10
  -3   1  -1    0.56    0.15
  -3   1  -1    0.70    0.16
  -3   1  -1    0.78    0.18
  -4   1  -1    0.27    0.22
  -4   1  -1    0.78    0.26
  -4   1  -1    0.03    0.21
  -5   1  -1    2.62    0.32
  -5   1  -1    2.71    0.36
  -5   1  -1    2.49    0.40
  -5   0   1    8.68    0.54
  -5   0   1    8.08    0.56
  -5   0   1    9.71    0.50
  -4   0   1   13.74    0.42
  -4   0   1   13.15    0.47
  -4   0   1   12.97    0.48
  -3   0   1   51.79    1.12
  -3   0   1   51.86    1.07
  -3   0   1   52.91    1.01
  -2   0   1  273.89    5.28
  -2   0   1  280.03    5.42
  -2   0  -1  128.34    2.54
  -2   0  -1  127.43    2.33
  -2   0  -1  128.45    2.44
  -3   0  -1   24.87    0.60
  -3   0  -1   24.49    0.54
  -3   0  -1   24.94    0.59
  -4   0  -1    2.75    0.28
  -4   0  -1    3.01    0.30
  -4   0  -1    3.01    0.25
  -5   0  -1    0.86    0.30
  -5   0  -1    1.21    0.34
  -5   0  -1    0.70    0.35
  -5   1   1    1.00    0.30
  -5   1   1    1.26    0.37
  -4   1   1    5.74    0.36
  -4   1   1    6.16    0.42
  -4   1   1    5.82    0.34
  -3   1   1   15.61    0.39
  -3   1   1   15.96    0.45
  -3   1   1   15.39    0.41
  -2   1   1   12.86    0.30
  -2   1   1   13.21    0.34
   1  -1  -1  747.25   13.38
   0  -1  -1  153.37    2.76
  -1  -1  -1  361.33    6.85
  -2  -1  -1  238.95    4.79
  -2  -1  -1  239.44    4.61
  -2  -1  -1  255.62    4.41
  -3  -1  -1   66.03    1.26
  -3  -1  -1   64.42    1.34
  -3  -1  -1   66.78    1.39
  -4  -1  -1   -0.09    0.23
  -4  -1  -1    0.21    0.20
  -4  -1  -1    0.18    0.26
  -5  -1  -1    1.49    0.31
  -5  -1  -1    1.56    0.36
  -5  -1  -1    0.92    0.38
  -5   2   1    0.14    0.34
  -4   2   1    1.87    0.27
  -3   2   1    1.92    0.20
  -3   2   1    1.56    0.15
  -2   2   1  111.00    2.22
   1  -2  -1  524.50    9.41
   0  -2  -1   46.41    0.86
  -1  -2  -1   83.59    1.60
  -2  -2  -1    0.61    0.12
  -2  -2  -1    0.92    0.13
  -2  -2  -1    0.89    0.11
  -2  -2  -1    0.63    0.13
  -3  -2  -1    8.04    0.35
  -3  -2  -1    8.09    0.29
  -3  -2  -1    7.72    0.33
  -4  -2  -1    0.73    0.29
  -4  -2  -1    0.85    0.26
  -4  -2  -1    0.41    0.22
  -5  -2  -1    1.10    0.39
  -5  -2  -1    0.55    0.38
  -5  -2  -1    1.21    0.30
   5  -3  -1    0.91    0.42
  -5   3   1    0.66    0.38
  -4   3   1   21.80    0.66
   3  -3  -1   26.80    0.63
  -3   3   1   25.97    0.64
  -3   3   1   25.74    0.57
   2  -3  -1    7.32    0.28
   2  -3  -1    7.06    0.26
   1  -3  -1   86.50    1.58
   0  -3  -1  213.47    4.27
  -1  -3  -1   19.58    0.51
  -1  -3  -1   22.09    0.46
  -2  -3  -1   33.16    0.76
  -2  -3  -1   32.89    0.72
  -2  -3  -1   32.82    0.73
  -3  -3  -1    7.07    0.35
  -3  -3  -1    7.53    0.31
  -3  -3  -1    7.52    0.34
  -4  -3  -1    0.34    0.27
  -4  -3  -1    0.30    0.28
  -4  -3  -1    0.10    0.23
  -5  -3  -1   -0.18    0.29
  -5  -3  -1   -0.18    0.38
  -5  -3  -1    0.52    0.39
   5  -4  -1    0.84    0.42
   4  -4  -1    8.25    0.47
   3  -4  -1   32.46    0.81
   3  -4  -1   31.68    0.73
   2  -4  -1   23.53    0.56
   2  -4  -1   23.85    0.55
   2  -4  -1   24.63    0.59
   1  -4  -1   39.38    0.87
   1  -4  -1   40.00    0.77
   0  -4  -1  192.15    3.89
   0  -4  -1  195.15    3.64
  -1  -4  -1  331.04    6.81
  -1  -4  -1  351.14    6.70
  -1  -4  -1  346.64    6.43
  -2  -4  -1  140.00    2.78
  -2  -4  -1  139.46    2.85
  -2  -4  -1  138.26    2.69
  -3  -4  -1    1.28    0.23
  -3  -4  -1    1.32    0.20
  -3  -4  -1    0.97    0.22
  -4  -4  -1    5.01    0.38
  -4  -4  -1    4.37    0.30
  -4  -4  -1    4.86    0.36
  -5  -4  -1    1.24    0.42
  -5  -4  -1    0.96    0.34
  -5  -4  -1    0.27    0.38
   5  -5  -1   -0.05    0.39
   5  -5  -1   -0.85    0.42
   4  -5  -1   -0.04    0.30
   4  -5  -1    0.03    0.30
   3  -5  -1    0.26    0.24
   3  -5  -1    0.02    0.22
   2  -5  -1   12.41    0.37
   2  -5  -1   13.02    0.40
   2  -5  -1   12.98    0.42
   1  -5  -1   32.54    0.72
   1  -5  -1   32.02    0.65
   1  -5  -1   30.07    0.74
   0  -5  -1   61.35    1.34
   0  -5  -1   61.53    1.28
   0  -5  -1   62.67    1.22
  -1  -5  -1   29.47    0.75
  -1  -5  -1   31.09    0.69
  -1  -5  -1   30.63    0.67
  -2  -5  -1   12.47    0.42
  -2  -5  -1   11.02    0.46
  -2  -5  -1   12.41    0.40
  -3  -5  -1    6.49    0.40
  -3  -5  -1    6.36    0.43
  -3  -5  -1    5.97    0.45
  -4  -5  -1    0.79    0.33
  -4  -5  -1    0.41    0.33
  -4  -5  -1    0.29    0.27
   5  -6  -1    1.28    0.41
   5  -6  -1    1.41    0.48
   4  -6  -1    3.69    0.35
   4  -6  -1    2.57    0.37
   3  -6  -1    1.75    0.29
   3  -6  -1    1.48    0.25
   2  -6  -1   62.57    1.36
   2  -6  -1   60.93    1.22
   2  -6  -1   63.64    1.36
   1  -6  -1    3.94    0.25
   1  -6  -1    3.93    0.19
   1  -6  -1    4.28    0.31
   1  -6  -1    4.00    0.24
   0  -6  -1    0.73    0.21
   0  -6  -1    0.87    0.13
   0  -6  -1    0.81    0.17
  -1  -6  -1    0.86    0.25
  -1  -6  -1    0.99    0.18
  -1  -6  -1    1.39    0.18
  -2  -6  -1   47.88    1.16
  -2  -6  -1   48.54    1.07
  -2  -6  -1   47.77    1.06
  -3  -6  -1    0.62    0.27
  -3  -6  -1    0.21    0.30
  -3  -6  -1    0.61    0.28
  -4  -6  -1    0.57    0.35
  -4  -6  -1   -0.25    0.35
  -4  -6  -1    0.14    0.30
   5  -7  -1   -0.02    0.44
   5  -7  -1    0.31    0.41
   4  -7  -1    2.62    0.39
   4  -7  -1    2.97    0.35
   3  -7  -1    0.44    0.23
   3  -7  -1    0.34    0.28
   2  -7  -1   26.25    0.63
   2  -7  -1   26.34    0.72
   2  -7  -1   27.20    0.71
   1  -7  -1   29.86    0.78
   1  -7  -1   29.64    0.66
   1  -7  -1   30.96    0.74
   1  -7  -1   29.58    0.67
   0  -7  -1  109.56    2.32
   0  -7  -1  107.80    2.05
   0  -7  -1  111.72    2.14
   0  -7  -1  110.05    2.24
  -1  -7  -1   27.46    0.69
  -1  -7  -1   27.17    0.80
  -1  -7  -1   27.42    0.67
  -2  -7  -1   20.47    0.59
  -2  -7  -1   19.84    0.72
  -2  -7  -1   19.58    0.59
  -3  -7  -1    7.62    0.48
  -3  -7  -1    7.53    0.57
  -4  -7  -1    0.27    0.39
  -4  -7  -1    0.15    0.33
   5  -8  -1   -0.42    0.48
   4  -8  -1    0.08    0.30
   4  -8  -1    0.04    0.38
   3  -8  -1    0.84    0.30
   3  -8  -1    1.26    0.28
   2  -8  -1    1.33    0.25
   2  -8  -1    1.91    0.29
   2  -8  -1    1.42    0.27
   1  -8  -1   11.17    0.40
   1  -8  -1   11.07    0.48
   1  -8  -1   10.97    0.45
   0  -8  -1   40.22    0.87
   0  -8  -1   40.85    1.04
   0  -8  -1   40.79    0.89
   0  -8  -1   39.38    0.94
  -1  -8  -1    6.31    0.45
  -1  -8  -1    5.80    0.37
  -2  -8  -1    9.18    0.63
  -2  -8  -1    8.53    0.46
  -3  -8  -1    5.27    0.44
  -3  -8  -1    5.45    0.52
   5  -9  -1   -0.32    0.51
   4  -9  -1    0.18    0.32
   4  -9  -1    0.40    0.41
   3  -9  -1    1.18    0.30
   3  -9  -1    0.43    0.32
   2  -9  -1    0.27    0.29
   2  -9  -1   -0.05    0.24
   2  -9  -1    0.25    0.28
   1  -9  -1   -0.10    0.27
   1  -9  -1    0.06    0.23
   1  -9  -1    0.52    0.31
   0  -9  -1    6.31    0.38
   0  -9  -1    8.14    0.52
  -1  -9  -1    1.93    0.41
  -1  -9  -1    1.66    0.27
  -2  -9  -1   -0.09    0.43
  -2  -9  -1   -0.17    0.30
  -3  -9  -1    0.20    0.38
  -3  -9  -1    0.56    0.47
   4 -10  -1    0.76    0.43
   4 -10  -1    0.53    0.37
   3 -10  -1    1.16    0.34
   3 -10  -1    1.54    0.37
   2 -10  -1    3.15    0.39
   1 -10  -1    4.00    0.42
   1 -10  -1    4.41    0.37
   0 -10  -1   24.86    0.83
  -1 -10  -1   10.98    0.53
  -1 -10  -1   11.33    0.73
  -2 -10  -1    6.46    0.45
  -2 -10  -1    6.93    0.62
   4 -11  -1    0.31    0.44
   2 -11  -1    2.82    0.42
   1 -11  -1    3.83    0.45
   1 -11  -1    4.62    0.41
   0 -11  -1    5.97    0.53
  -1 -11  -1    4.57    0.56
  -1 -11  -1    3.96    0.40
   2 -12  -1   -0.16    0.42
   2 -12  -1   -0.22    0.39
   1 -12  -1    2.89    0.48
   0 -12  -1    1.62    0.48
  -1 -12  -1   -0.13    0.51
   2 -13  -1    0.16    0.45
   1 -13  -1    4.12    0.53
   0 -13   2    3.74    0.52
   1 -13   2    3.57    0.49
   1 -13   2    3.12    0.46
   2 -13   2    1.48    0.43
   2 -13   2    1.66    0.46
   3 -13   2    0.99    0.47
  -1 -12   2    4.35    0.55
  -1 -12   2    3.61    0.41
   0 -12   2    6.71    0.43
   0 -12   2    7.32    0.55
   1 -12   2    2.54    0.40
   1 -12   2    2.27    0.43
   2 -12   2    4.43    0.45
   2 -12   2    3.58    0.44
   3 -12   2    1.05    0.43
   4 -12   2    0.00    0.49
  -2 -11   2   -0.11    0.48
  -2 -11   2   -0.23    0.37
  -1 -11   2    0.61    0.42
  -1 -11   2    0.80    0.33
   0 -11   2    6.07    0.45
   0 -11   2    6.64    0.44
   0 -11   2    6.90    0.51
   1 -11   2    0.62    0.35
   1 -11   2    0.44    0.34
   2 -11   2    0.98    0.36
   2 -11   2    0.60    0.33
   3 -11   2    1.60    0.39
   4 -11   2    0.51    0.43
  -3 -10   2    1.65    0.43
  -3 -10   2    0.76    0.50
  -2 -10   2   12.55    0.78
  -2 -10   2   13.34    0.59
  -1 -10   2   26.93    0.88
  -1 -10   2   26.41    0.76
   0 -10   2   22.95    0.65
   0 -10   2   22.15    0.78
   0 -10   2   21.38    0.64
   1 -10   2    3.77    0.37
   1 -10   2    3.16    0.29
   1 -10   2    3.23    0.34
   2 -10   2    3.83    0.37
   2 -10   2    3.81    0.35
   3 -10   2    0.94    0.37
   4 -10   2    0.39    0.41
  -3  -9   2    2.74    0.39
  -3  -9   2    2.35    0.46
  -2  -9   2    8.89    0.55
  -2  -9   2    8.76    0.52
  -1  -9   2   91.07    1.83
  -1  -9   2   86.82    1.99
   0  -9   2   35.26    0.95
   0  -9   2   36.45    0.84
   0  -9   2   35.88    0.82
   1  -9   2   24.22    0.65
   1  -9   2   22.69    0.68
   1  -9   2   23.11    0.61
   2  -9   2   10.16    0.47
   2  -9   2   11.27    0.52
   3  -9   2    2.85    0.32
   3  -9   2    3.27    0.28
   4  -9   2    8.23    0.56
   4  -9   2    7.51    0.51
   5  -9   2   -0.40    0.47
   5  -9   2    0.57    0.41
  -4  -8   2    0.20    0.40
  -4  -8   2    0.31    0.37
  -3  -8   2    2.92    0.37
  -3  -8   2    4.09    0.43
  -2  -8   2    2.67    0.38
  -2  -8   2    2.85    0.31
  -1  -8   2    1.38    0.24
  -1  -8   2    1.14    0.28
   0  -8   2    9.47    0.38
   0  -8   2   11.49    0.49
   0  -8   2   10.20    0.38
   1  -8   2    4.30    0.30
   1  -8   2    4.07    0.29
   1  -8   2    3.84    0.24
  -2   8  -2   23.77    0.57
   2  -8   2   21.64    0.54
   2  -8   2   22.62    0.62
   2  -8   2   22.37    0.60
   2  -8   2   22.72    0.62
   3  -8   2    7.27    0.39
   3  -8   2    7.40    0.42
   4  -8   2    4.87    0.36
   4  -8   2    5.05    0.42
   5  -8   2   -0.60    0.40
   5  -8   2    0.08    0.46
  -4  -7   2    1.84    0.35
  -4  -7   2    2.84    0.42
  -3  -7   2    3.87    0.37
  -3  -7   2    3.43    0.35
  -2  -7   2   42.67    1.04
  -2  -7   2   42.14    0.97
  -1  -7   2   38.60    0.86
  -1  -7   2   37.78    0.94
   0  -7   2    5.21    0.27
   0  -7   2    5.04    0.32
   0  -7   2    4.96    0.28
   1  -7   2   54.36    1.20
   1  -7   2   54.45    1.02
   1  -7   2   53.76    1.09
  -2   7  -2    1.34    0.18
   2  -7   2    1.18    0.17
   2  -7   2    1.37    0.19
   2  -7   2    1.29    0.19
   3  -7   2    9.27    0.43
   3  -7   2   10.21    0.41
   4  -7   2   -0.66    0.30
   5  -7   2   -0.21    0.42
  -4  -6   2    1.88    0.37
  -4  -6   2    1.80    0.31
  -3  -6   2   31.34    0.82
  -2  -6   2  115.87    2.44
  -2  -6   2  118.18    2.32
  -1  -6   2  142.89    2.75
  -1  -6   2  141.42    2.91
   0  -6   2  163.75    3.11
   0  -6   2  162.22    3.31
   1  -6   2   32.10    0.72
   1  -6   2   29.37    0.67
   1  -6   2   30.32    0.60
  -2   6  -2   57.82    1.17
   2  -6   2   56.80    1.22
   2  -6   2   58.34    1.11
   2  -6   2   57.46    1.22
  -3   6  -2   13.54    0.44
  -3   6  -2   13.49    0.41
  -4   6  -2    2.51    0.34
  -5   6  -2    0.28    0.39
  -5  -5   2    0.52    0.43
  -4  -5   2   -0.37    0.23
  -4  -5   2   -0.18    0.30
  -3  -5   2   31.26    0.80
  -3  -5   2   30.78    0.75
  -2  -5   2   25.99    0.67
  -2  -5   2   28.82    0.66
  -2  -5   2   27.18    0.62
  -1  -5   2   50.18    1.08
  -1  -5   2   48.58    1.01
   0  -5   2  213.09    4.29
   0  -5   2  216.23    4.06
  -1   5  -2   10.18    0.29
   1  -5   2    9.86    0.25
   1  -5   2    9.89    0.31
  -2   5  -2  153.89    2.95
  -2   5  -2  155.72    3.07
  -3   5  -2   25.90    0.63
  -3   5  -2   24.78    0.60
  -4   5  -2    6.87    0.46
  -5   5  -2    0.56    0.41
  -5  -4   2    0.47    0.39
  -5  -4   2    0.29    0.41
  -5  -4   2    0.01    0.33
  -4  -4   2    0.44    0.22
  -4  -4   2    0.32    0.28
  -4  -4   2    0.47    0.29
  -3  -4   2    5.67    0.35
  -3  -4   2    4.83    0.31
  -3  -4   2    4.84    0.26
  -2  -4   2   10.51    0.28
  -2  -4   2    8.12    0.34
  -2  -4   2    8.01    0.32
  -1  -4   2  110.09    2.24
  -1  -4   2  110.71    2.13
   0  -4   2   16.47    0.38
   0  -4   2   16.88    0.41
  -2   4  -2   77.97    1.51
  -2   4  -2   76.75    1.56
  -3   4  -2    0.10    0.16
  -3   4  -2   -0.07    0.18
  -4   4  -2    1.52    0.24
  -4   4  -2    2.18    0.31
  -5   4  -2    0.32    0.40
  -5  -3   2    0.89    0.39
  -5  -3   2    0.73    0.31
  -5  -3   2    0.18    0.37
  -4  -3   2   19.64    0.63
  -4  -3   2   19.67    0.53
  -4  -3   2   20.40    0.63
  -3  -3   2   26.97    0.59
  -3  -3   2   27.22    0.67
  -3  -3   2   26.33    0.65
  -2  -3   2   99.97    1.99
  -2  -3   2   99.45    1.94
  -1  -3   2  515.30    9.62
  -1  -3   2  497.63   10.14
   0  -3   2  525.24    9.97
  -1   3  -2    3.23    0.15
  -2   3  -2   17.30    0.42
  -2   3  -2   18.34    0.43
  -3   3  -2   15.26    0.43
  -3   3  -2   15.97    0.45
  -4   3  -2    2.74    0.30
  -4   3  -2    2.41    0.26
  -5   3  -2    0.42    0.32
  -5   3  -2    1.15    0.39
  -5  -2   2    0.23    0.28
  -5  -2   2   -0.62    0.35
  -5  -2   2   -0.18    0.35
  -4  -2   2   14.88    0.54
  -4  -2   2   14.66    0.53
  -4  -2   2   14.06    0.44
  -3  -2   2   28.88    0.60
  -3  -2   2   28.46    0.67
  -3  -2   2   28.13    0.67
  -2  -2   2  226.59    4.52
  -2  -2   2  230.58    4.36
  -2  -2   2  235.39    4.16
  -1  -2   2  264.65    5.03
  -2   2  -2  163.10    3.11
  -2   2  -2  165.37    3.24
  -3   2  -2   60.76    1.22
  -3   2  -2   58.94    1.16
  -3   2  -2   60.48    1.27
  -4   2  -2    5.38    0.35
  -4   2  -2    5.08    0.31
  -4   2  -2    5.13    0.36
  -5   2  -2    0.31    0.35
  -5   2  -2    0.42    0.33
  -5  -1   2    1.65    0.34
  -5  -1   2    1.12    0.35
  -5  -1   2    0.95    0.30
  -4  -1   2    2.45    0.29
  -4  -1   2    2.36    0.23
  -4  -1   2    2.41    0.27
  -3  -1   2    0.35    0.13
  -3  -1   2    0.31    0.16
  -3  -1   2    0.12    0.17
  -2  -1   2    0.86    0.11
  -2  -1   2    0.99    0.12
  -2   1  -2   22.34    0.51
  -2   1  -2   23.31    0.50
  -2   1  -2   21.68    0.46
  -3   1  -2   44.83    0.97
  -3   1  -2   47.03    0.92
  -3   1  -2   46.16    1.00
  -4   1  -2   12.28    0.49
  -4   1  -2   12.14    0.41
  -4   1  -2   13.20    0.49
  -5   1  -2    2.69    0.34
  -5   1  -2    2.88    0.39
  -5   1  -2    3.38    0.40
  -5   0   2   -0.06    0.34
  -5   0   2    0.12    0.29
  -4   0   2    4.63    0.30
  -4   0   2    4.60    0.32
  -4   0   2    4.39    0.32
  -3   0   2   40.47    0.79
  -3   0   2   38.70    0.84
  -3   0   2   38.82    0.88
  -2   0   2  129.57    2.46
  -2   0   2  130.14    2.58
   1   0  -2 1000.00   17.81
  -1   0  -2   58.63    1.13
  -2   0  -2    2.52    0.17
  -2   0  -2    2.26    0.14
  -2   0  -2    2.33    0.17
  -3   0  -2   26.57    0.64
  -3   0  -2   26.58    0.62
  -3   0  -2   26.18    0.57
  -4   0  -2   -0.01    0.20
  -4   0  -2    0.04    0.26
  -4   0  -2    0.38    0.25
  -5   0  -2    0.43    0.34
  -5   0  -2    0.60    0.29
  -5   0  -2    0.61    0.36
  -5   1   2    0.54    0.37
  -4   1   2    2.29    0.23
  -4   1   2    2.71    0.27
  -4   1   2    1.96    0.28
  -3   1   2  131.20    2.39
  -3   1   2  130.54    2.50
  -3   1   2  129.18    2.62
   2  -1  -2  102.87    1.89
  -2   1   2  102.89    2.06
   1  -1  -2   19.63    0.41
   0  -1  -2  479.18    8.61
  -1  -1  -2  368.50    7.01
  -2  -1  -2   29.18    0.59
  -2  -1  -2   29.29    0.65
  -2  -1  -2   28.50    0.63
  -3  -1  -2   45.51    0.98
  -3  -1  -2   44.27    0.90
  -3  -1  -2   44.85    0.99
  -4  -1  -2    7.15    0.37
  -4  -1  -2    6.03    0.41
  -4  -1  -2    6.68    0.44
  -5  -1  -2    0.41    0.31
  -5  -1  -2    0.15    0.38
  -5  -1  -2   -0.04    0.35
   5  -2  -2   -0.31    0.37
  -5   2   2    0.23    0.34
   4  -2  -2    0.16    0.27
  -4   2   2    0.88    0.26
   3  -2  -2    7.67    0.34
  -3   2   2    6.76    0.25
  -3   2   2    7.51    0.32
   2  -2  -2   47.09    0.92
   2  -2  -2   47.17    1.01
   1  -2  -2    1.70    0.12
  -1  -2  -2   84.54    1.58
  -1  -2  -2   80.28    1.65
  -2  -2  -2  139.16    2.71
  -2  -2  -2  142.38    2.59
  -2  -2  -2  138.72    2.85
  -2  -2  -2  146.93    2.82
  -3  -2  -2   20.04    0.54
  -3  -2  -2   20.65    0.50
  -3  -2  -2   20.10    0.55
  -4  -2  -2    0.34    0.22
  -4  -2  -2    0.10    0.29
  -4  -2  -2    0.29    0.25
  -5  -2  -2    0.13    0.37
  -5  -2  -2    0.14    0.38
  -5  -2  -2    0.33    0.31
   5  -3  -2    0.13    0.38
   4  -3  -2    0.89    0.31
   3  -3  -2   30.07    0.71
   3  -3  -2   32.62    0.79
   3  -3  -2   30.32    0.69
   2  -3  -2   23.10    0.52
   2  -3  -2   23.70    0.57
   2  -3  -2   21.52    0.52
   1  -3  -2   41.92    0.82
   1  -3  -2   42.16    0.90
   1  -3  -2   42.69    0.90
   0  -3  -2   58.92    1.25
  -1  -3  -2    1.10    0.18
  -1  -3  -2    1.52    0.14
  -1  -3  -2    1.55    0.12
  -2  -3  -2    3.57    0.24
  -2  -3  -2    3.10    0.23
  -2  -3  -2    3.11    0.23
  -3  -3  -2    6.35    0.34
  -3  -3  -2    6.96    0.32
  -3  -3  -2    7.18    0.36
  -4  -3  -2   -0.30    0.23
  -4  -3  -2    0.21    0.27
  -4  -3  -2    0.29    0.31
  -5  -3  -2    0.27    0.38
  -5  -3  -2    0.03    0.31
  -5  -3  -2   -0.14    0.39
   5  -4  -2    0.61    0.42
   5  -4  -2   -0.15    0.40
   4  -4  -2    6.11    0.43
   4  -4  -2    6.06    0.39
   3  -4  -2   27.43    0.66
   3  -4  -2   27.45    0.73
   3  -4  -2   27.72    0.65
   2  -4  -2   15.40    0.43
   2  -4  -2   16.92    0.44
   2  -4  -2   16.58    0.47
   1  -4  -2  265.72    4.77
   1  -4  -2  268.28    5.30
   1  -4  -2  266.04    5.25
   0  -4  -2   47.54    1.01
   0  -4  -2   47.58    0.94
   0  -4  -2   47.75    1.05
  -1  -4  -2   64.59    1.27
  -1  -4  -2   62.96    1.39
  -1  -4  -2   64.29    1.33
  -2  -4  -2   36.29    0.90
  -2  -4  -2   37.39    0.82
  -2  -4  -2   37.67    0.84
  -3  -4  -2   42.36    0.98
  -3  -4  -2   40.75    0.87
  -3  -4  -2   41.36    0.96
  -4  -4  -2    0.99    0.34
  -4  -4  -2    1.15    0.26
  -4  -4  -2    1.42    0.31
   5  -5  -2    0.43    0.42
   5  -5  -2    0.71    0.40
   4  -5  -2    1.21    0.31
   4  -5  -2    0.62    0.35
   3  -5  -2    0.29    0.23
   3  -5  -2    0.03    0.20
   3  -5  -2    0.26    0.24
   2  -5  -2    5.74    0.29
   2  -5  -2    5.04    0.31
   2  -5  -2    5.22    0.30
   1  -5  -2   51.67    1.13
   1  -5  -2   49.64    1.09
   1  -5  -2   50.76    1.00
   0  -5  -2   20.96    0.58
   0  -5  -2   21.18    0.54
   0  -5  -2   21.23    0.47
  -1  -5  -2   85.73    1.74
  -1  -5  -2   83.01    1.81
  -1  -5  -2   84.98    1.66
  -2  -5  -2   17.03    0.57
  -2  -5  -2   16.85    0.50
  -2  -5  -2   16.22    0.49
  -3  -5  -2   22.08    0.64
  -3  -5  -2   22.00    0.58
  -3  -5  -2   22.19    0.66
  -4  -5  -2    3.52    0.40
  -4  -5  -2    3.84    0.40
  -4  -5  -2    3.33    0.33
   5  -6  -2   -0.21    0.42
   5  -6  -2   -0.01    0.43
   4  -6  -2    0.91    0.32
   4  -6  -2    0.19    0.34
   3  -6  -2    5.59    0.34
   3  -6  -2    5.38    0.37
   3  -6  -2    5.46    0.39
   2  -6  -2    6.90    0.37
   2  -6  -2    6.14    0.35
   2  -6  -2    6.10    0.33
   1  -6  -2   11.12    0.38
   1  -6  -2   11.57    0.45
   1  -6  -2   11.39    0.42
   0  -6  -2    3.94    0.28
   0  -6  -2    4.61    0.32
   0  -6  -2    4.08    0.22
  -1  -6  -2   22.60    0.56
  -1  -6  -2   22.65    0.69
  -1  -6  -2   22.17    0.60
  -2  -6  -2    3.16    0.27
  -2  -6  -2    3.30    0.36
  -2  -6  -2    2.91    0.27
  -3  -6  -2    0.34    0.28
  -3  -6  -2    0.45    0.31
  -4  -6  -2    0.32    0.35
  -4  -6  -2    0.00    0.30
  -4  -6  -2    0.08    0.37
   5  -7  -2   -0.20    0.45
   4  -7  -2    1.21    0.33
   4  -7  -2    1.48    0.40
   3  -7  -2    9.83    0.54
   3  -7  -2    9.96    0.50
   3  -7  -2    8.97    0.44
   2  -7  -2   27.28    0.75
   2  -7  -2   26.07    0.65
   2  -7  -2   26.64    0.73
   1  -7  -2    9.26    0.47
   1  -7  -2    8.35    0.39
   1  -7  -2    9.48    0.38
   0  -7  -2   29.52    0.67
   0  -7  -2   30.72    0.82
   0  -7  -2   30.04    0.76
  -1  -7  -2   83.33    1.74
  -1  -7  -2   81.73    1.83
  -1  -7  -2   81.90    1.66
  -2  -7  -2    3.41    0.40
  -2  -7  -2    2.71    0.30
  -2  -7  -2    3.01    0.30
  -3  -7  -2    4.55    0.39
  -3  -7  -2    4.64    0.39
   5  -8  -2    0.49    0.52
   4  -8  -2    0.73    0.39
   4  -8  -2    0.51    0.36
   3  -8  -2    4.57    0.37
   3  -8  -2    3.74    0.37
   3  -8  -2    5.08    0.39
   2  -8  -2    6.99    0.48
   2  -8  -2    6.37    0.44
   2  -8  -2    6.32    0.38
   1  -8  -2   16.89    0.52
   1  -8  -2   17.00    0.58
   1  -8  -2   16.61    0.61
   0  -8  -2    2.91    0.35
   0  -8  -2    2.39    0.22
   0  -8  -2    2.10    0.29
  -1  -8  -2   64.32    1.53
  -1  -8  -2   65.25    1.37
  -1  -8  -2   64.35    1.44
  -2  -8  -2   16.20    0.75
  -2  -8  -2   15.37    0.59
  -3  -8  -2    8.17    0.60
   4  -9  -2    0.48    0.43
   4  -9  -2    0.76    0.38
   3  -9  -2   -0.11    0.30
   3  -9  -2    0.02    0.33
   3  -9  -2   -0.11    0.36
   2  -9  -2    4.38    0.40
   2  -9  -2    4.48    0.41
   2  -9  -2    4.86    0.35
   1  -9  -2    1.37    0.34
   1  -9  -2    1.61    0.31
   0  -9  -2    1.35    0.36
   0  -9  -2    0.87    0.30
  -1  -9  -2    0.48    0.26
  -1  -9  -2    0.35    0.40
  -2  -9  -2    1.85    0.35
  -2  -9  -2    1.94    0.47
  -3  -9  -2    0.56    0.40
   4 -10  -2    0.27    0.44
   4 -10  -2    0.29    0.39
   3 -10  -2    1.41    0.39
   3 -10  -2    0.86    0.34
   3 -10  -2    1.52    0.39
   2 -10  -2    2.20    0.40
   2 -10  -2    2.28    0.40
   1 -10  -2    9.51    0.59
   0 -10  -2   15.90    0.71
  -1 -10  -2    0.72    0.31
  -1 -10  -2    0.92    0.46
  -2 -10  -2    2.47    0.56
  -2 -10  -2    2.18    0.38
   3 -11  -2   -0.18    0.38
   2 -11  -2    1.35    0.41
   1 -11  -2    5.79    0.52
   0 -11  -2   12.59    0.76
  -1 -11  -2    6.15    0.62
   2 -12  -2   -0.40    0.43
   1 -12  -2    3.14    0.48
   0 -12  -2   -0.01    0.48
   1 -14   3    0.27    0.47
   1 -14   3    0.25    0.47
   2 -14   3    0.18    0.48
  -1 -13   3    0.00    0.55
  -1 -13   3    0.64    0.40
   0 -13   3    2.20    0.40
   0 -13   3    2.45    0.51
   1 -13   3    5.93    0.52
   1 -13   3    5.88    0.50
   2 -13   3    0.56    0.44
   2 -13   3    0.56    0.40
   3 -13   3    0.41    0.46
  -2 -12   3    2.97    0.61
  -2 -12   3    2.91    0.44
  -1 -12   3    4.85    0.58
  -1 -12   3    5.74    0.44
   0 -12   3   23.51    0.87
   0 -12   3   23.63    0.76
   1 -12   3   10.68    0.65
   1 -12   3   10.69    0.67
   2 -12   3    1.62    0.38
   2 -12   3    1.92    0.43
   3 -12   3    1.83    0.43
   4 -12   3    0.35    0.48
  -2 -11   3   -0.25    0.46
  -2 -11   3    0.22    0.37
  -1 -11   3    3.22    0.48
  -1 -11   3    3.32    0.38
   0 -11   3   16.46    0.61
   0 -11   3   14.91    0.69
   0 -11   3   15.34    0.58
   1 -11   3    7.03    0.48
   1 -11   3    6.68    0.44
   2 -11   3    1.78    0.34
   2 -11   3    1.28    0.36
   3 -11   3    0.27    0.37
   4 -11   3    0.23    0.43
  -3 -10   3    4.86    0.48
  -2 -10   3    1.05    0.35
  -2 -10   3    0.84    0.44
  -1 -10   3    5.70    0.47
  -1 -10   3    5.04    0.37
   0 -10   3    3.86    0.32
   0 -10   3    3.99    0.31
   0 -10   3    4.05    0.40
   1 -10   3    0.97    0.30
   1 -10   3    1.39    0.31
   2 -10   3    1.75    0.30
   2 -10   3    1.38    0.32
   3 -10   3   -0.11    0.35
   4 -10   3    1.29    0.44
  -3  -9   3   10.52    0.63
  -2  -9   3    5.21    0.38
  -2  -9   3    5.85    0.46
  -1  -9   3   65.78    1.40
  -1  -9   3   64.13    1.53
   0  -9   3   41.00    0.91
   0  -9   3   42.07    0.94
   0  -9   3   40.72    1.04
   1  -9   3   39.55    0.90
   1  -9   3   39.75    0.98
  -2   9  -3   19.37    0.55
   2  -9   3   17.32    0.56
   2  -9   3   17.70    0.61
   3  -9   3    2.28    0.35
   4  -9   3   -0.25    0.33
   4  -9   3    0.27    0.37
   4  -9   3    0.30    0.31
   5  -9   3   -0.52    0.46
   5  -9   3   -0.34    0.40
   5  -9   3   -0.07    0.42
  -4  -8   3    0.85    0.42
  -4  -8   3    1.11    0.37
  -3  -8   3    0.92    0.33
  -2  -8   3   46.20    1.09
  -2  -8   3   46.95    1.17
  -1  -8   3   30.24    0.75
  -1  -8   3   30.29    0.69
  -1  -8   3   31.35    0.85
   0  -8   3   43.84    0.94
   0  -8   3   44.61    0.98
   0  -8   3   45.88    1.08
   1  -8   3   52.92    1.20
   1  -8   3   53.28    1.12
  -2   8  -3   23.44    0.60
   2  -8   3   22.55    0.61
   2  -8   3   22.26    0.54
   2  -8   3   23.33    0.65
   3  -8   3    3.87    0.28
   3  -8   3    4.05    0.35
   3  -8   3    4.48    0.31
   4  -8   3    2.16    0.40
   4  -8   3    2.43    0.34
   5  -8   3    0.41    0.40
   5  -8   3    0.08    0.44
  -4  -7   3    0.49    0.32
  -4  -7   3    0.93    0.38
  -3  -7   3   16.70    0.59
  -2  -7   3    4.88    0.36
  -2  -7   3    6.09    0.37
  -1  -7   3    0.64    0.19
  -1  -7   3    0.64    0.22
  -1  -7   3    0.92    0.17
   0  -7   3    1.26    0.18
   0  -7   3    1.10    0.18
   0  -7   3    1.47    0.20
   1  -7   3    0.62    0.11
   1  -7   3    0.90    0.20
   1  -7   3    0.55    0.17
  -2   7  -3    1.05    0.19
   2  -7   3    1.00    0.17
   2  -7   3    1.19    0.17
   2  -7   3    1.23    0.23
   2  -7   3    1.41    0.18
  -3   7  -3   12.17    0.44
  -3   7  -3   13.11    0.45
   3  -7   3   11.39    0.41
   3  -7   3   12.79    0.53
  -4   7  -3    0.53    0.32
   4  -7   3    0.27    0.34
  -5   7  -3    1.62    0.44
   5  -7   3    0.75    0.44
  -4  -6   3    2.81    0.30
  -4  -6   3    2.79    0.38
  -3  -6   3    6.84    0.45
  -2  -6   3   51.18    1.12
  -2  -6   3   52.00    1.18
  -1  -6   3   54.25    1.20
  -1  -6   3   54.24    1.13
   0  -6   3  267.04    5.32
   0  -6   3  266.17    5.04
  -1   6  -3   64.79    1.29
   1  -6   3   63.08    1.25
   1  -6   3   63.67    1.18
   1  -6   3   64.80    1.35
  -2   6  -3    2.66    0.20
  -2   6  -3    3.07    0.22
   2  -6   3    2.73    0.24
   2  -6   3    2.70    0.19
  -3   6  -3   -0.09    0.21
  -3   6  -3    0.49    0.20
   3  -6   3    0.14    0.24
  -4   6  -3    3.58    0.33
   4  -6   3    2.86    0.35
  -5   6  -3    0.35    0.43
  -5  -5   3    0.46    0.35
  -5  -5   3    0.09    0.42
  -4  -5   3    3.75    0.39
  -4  -5   3    3.20    0.29
  -3  -5   3   26.76    0.73
  -2  -5   3   33.14    0.73
  -2  -5   3   33.70    0.77
  -1  -5   3  108.10    2.12
  -1  -5   3  109.62    2.23
   0  -5   3  360.34    6.63
   0  -5   3  345.67    7.17
  -1   5  -3  314.93    5.84
   1  -5   3  305.97    6.27
  -2   5  -3    2.94    0.20
  -2   5  -3    3.03    0.19
   2  -5   3    3.02    0.22
  -3   5  -3   11.06    0.39
  -3   5  -3   11.43    0.39
  -4   5  -3    4.14    0.31
  -4   5  -3    4.24    0.35
  -5   5  -3    1.25    0.40
  -5  -4   3    0.59    0.32
  -5  -4   3    0.93    0.41
  -4  -4   3    0.42    0.31
  -4  -4   3    0.88    0.29
  -4  -4   3    0.37    0.23
  -3  -4   3    1.05    0.17
  -3  -4   3    0.97    0.24
  -3  -4   3    0.86    0.20
  -2  -4   3    2.42    0.15
  -2  -4   3    0.36    0.16
  -1  -4   3  203.00    3.85
   0  -4   3    2.71    0.15
   0  -4   3    2.49    0.16
  -1   4  -3    0.30    0.11
  -2   4  -3   23.94    0.56
  -2   4  -3   24.38    0.55
  -3   4  -3   11.70    0.38
  -3   4  -3   11.28    0.41
  -4   4  -3    5.12    0.36
  -4   4  -3    5.27    0.33
  -5   4  -3    0.67    0.38
  -5   4  -3    0.74    0.33
  -5  -3   3    2.29    0.40
  -5  -3   3    1.83    0.33
  -5  -3   3    2.55    0.43
  -4  -3   3    0.48    0.22
  -4  -3   3    0.51    0.29
  -4  -3   3    0.45    0.27
  -3  -3   3   35.17    0.80
  -3  -3   3   33.30    0.70
  -3  -3   3   32.94    0.78
  -2  -3   3   27.97    0.62
  -2  -3   3   28.36    0.64
  -1  -3   3  117.14    2.24
   0  -3   3   87.04    1.67
  -1   3  -3   25.88    0.56
  -2   3  -3   37.62    0.79
  -2   3  -3   36.63    0.78
  -3   3  -3    1.48    0.21
  -3   3  -3    1.04    0.19
   3  -3   3    1.02    0.21
  -4   3  -3    0.39    0.27
  -4   3  -3    0.67    0.25
  -5   3  -3    0.50    0.37
  -5   3  -3    0.05    0.32
  -5  -2   3    3.05    0.41
  -5  -2   3    2.92    0.39
  -5  -2   3    2.76    0.32
  -4  -2   3    1.95    0.29
  -4  -2   3    2.19    0.24
  -4  -2   3    1.64    0.29
  -3  -2   3   18.93    0.52
  -3  -2   3   18.54    0.49
  -3  -2   3   18.95    0.44
  -3  -2   3   18.74    0.45
  -2  -2   3  127.11    2.55
  -2  -2   3  126.27    2.46
  -2  -2   3  132.07    2.34
   1   2  -3  451.36    8.03
  -1  -2   3  443.52    8.50
  -1   2  -3   96.38    1.85
  -2   2  -3  109.60    2.19
  -2   2  -3  114.14    2.09
  -2   2  -3  118.41    2.27
  -3   2  -3    2.92    0.20
  -3   2  -3    2.53    0.23
  -3   2  -3    2.12    0.21
  -4   2  -3   12.03    0.48
  -4   2  -3   10.94    0.42
  -4   2  -3   11.13    0.48
  -5   2  -3    0.47    0.39
  -5   2  -3    0.12    0.34
  -5  -1   3    0.77    0.37
  -5  -1   3    0.53    0.29
  -4  -1   3    0.08    0.23
  -4  -1   3    0.00    0.20
  -4  -1   3   -0.03    0.26
  -3  -1   3    0.36    0.17
  -3  -1   3    0.23    0.16
  -3  -1   3    0.25    0.15
  -3  -1   3    0.32    0.14
   2   1  -3  108.61    1.96
  -2  -1   3  104.10    2.05
  -2  -1   3  108.26    2.14
   1   1  -3  194.68    3.47
  -1   1  -3  100.94    1.93
  -2   1  -3   70.54    1.42
  -2   1  -3   71.84    1.47
  -2   1  -3   73.90    1.35
  -3   1  -3    2.20    0.21
  -3   1  -3    2.57    0.22
  -3   1  -3    2.59    0.19
  -4   1  -3   10.01    0.46
  -4   1  -3    9.80    0.44
  -4   1  -3   10.18    0.39
  -5   1  -3    0.32    0.31
  -5   1  -3   -0.13    0.36
  -5   1  -3   -0.21    0.34
   5   0  -3    0.69    0.38
  -5   0   3    0.63    0.37
  -5   0   3    0.42    0.29
  -4   0   3    4.91    0.36
  -4   0   3    5.45    0.32
  -4   0   3    5.23    0.34
   3   0  -3    0.67    0.21
  -3   0   3    1.04    0.18
  -3   0   3    0.67    0.15
  -3   0   3    0.67    0.17
  -3   0   3    0.84    0.14
   2   0  -3    9.91    0.30
  -2   0   3    9.41    0.26
   1   0  -3   74.18    1.36
  -1   0  -3  101.93    1.95
  -2   0  -3    2.37    0.15
  -2   0  -3    2.56    0.19
  -2   0  -3    2.60    0.20
  -3   0  -3    4.12    0.23
  -3   0  -3    3.97    0.24
  -3   0  -3    3.85    0.28
  -4   0  -3    0.50    0.28
  -4   0  -3    0.80    0.24
  -4   0  -3    0.44    0.26
  -5   0  -3    0.31    0.36
  -5   0  -3   -0.12    0.37
  -5   0  -3    0.35    0.31
   5  -1  -3    1.53    0.41
  -5   1   3    1.97    0.37
   4  -1  -3    6.17    0.39
  -4   1   3    6.17    0.33
  -4   1   3    5.61    0.43
   3  -1  -3   18.88    0.51
  -3   1   3   19.00    0.44
  -3   1   3   18.43    0.45
  -3   1   3   18.29    0.45
   2  -1  -3  125.30    2.54
   2  -1  -3  126.88    2.31
   1  -1  -3  178.35    3.20
  -1  -1  -3  325.48    6.26
  -1  -1  -3  315.80    6.11
  -2  -1  -3   61.46    1.26
  -2  -1  -3   59.93    1.14
  -2  -1  -3   59.33    1.21
  -3  -1  -3    0.73    0.21
  -3  -1  -3    0.33    0.19
  -3  -1  -3    0.25    0.16
  -4  -1  -3   19.74    0.62
  -4  -1  -3   19.33    0.63
  -4  -1  -3   19.10    0.55
  -5  -1  -3    0.87    0.39
  -5  -1  -3    0.48    0.37
  -5  -1  -3    0.92    0.32
   5  -2  -3    0.14    0.38
   4  -2  -3    1.43    0.30
   3  -2  -3    5.29    0.33
   3  -2  -3    6.06    0.35
   2  -2  -3   64.26    1.36
   2  -2  -3   64.99    1.24
  -2   2   3   64.15    1.22
   1  -2  -3   54.96    1.15
   1  -2  -3   56.31    1.05
   1  -2  -3   54.75    1.14
   0  -2  -3  407.58    8.09
  -1  -2  -3   10.59    0.31
  -1  -2  -3   10.12    0.34
  -1  -2  -3   10.66    0.28
  -2  -2  -3   94.68    1.73
  -2  -2  -3   95.48    1.90
  -2  -2  -3   89.72    1.93
  -2  -2  -3   93.52    1.83
  -3  -2  -3   26.41    0.67
  -3  -2  -3   26.38    0.60
  -3  -2  -3   26.33    0.67
  -4  -2  -3    8.38    0.46
  -4  -2  -3    7.41    0.46
  -4  -2  -3    8.15    0.42
  -5  -2  -3    0.59    0.30
  -5  -2  -3    1.04    0.40
  -5  -2  -3    0.70    0.42
   5  -3  -3    0.11    0.40
   5  -3  -3    0.55    0.40
   4  -3  -3    0.27    0.30
   4  -3  -3    0.22    0.29
   3  -3  -3    0.59    0.22
   3  -3  -3    0.87    0.18
   3  -3  -3    0.72    0.24
   2  -3  -3   65.07    1.36
   2  -3  -3   61.28    1.23
   2  -3  -3   64.19    1.32
   1  -3  -3   -0.11    0.12
   1  -3  -3    0.17    0.13
   1  -3  -3    0.12    0.12
   0  -3  -3    5.19    0.24
   0  -3  -3    5.57    0.17
   0  -3  -3    5.70    0.26
  -1  -3  -3    1.77    0.14
  -1  -3  -3    1.74    0.18
  -1  -3  -3    1.72    0.20
  -2  -3  -3    0.27    0.15
  -2  -3  -3   -0.03    0.17
  -2  -3  -3    0.02    0.20
  -3  -3  -3    1.03    0.23
  -3  -3  -3    0.96    0.27
  -3  -3  -3    0.88    0.18
  -4  -3  -3    2.13    0.33
  -4  -3  -3    2.56    0.32
  -4  -3  -3    1.77    0.27
   5  -4  -3    0.40    0.39
   5  -4  -3   -0.48    0.41
   4  -4  -3    3.52    0.38
   4  -4  -3    3.77    0.36
   3  -4  -3    8.82    0.36
   3  -4  -3    9.42    0.44
   3  -4  -3    9.17    0.41
   2  -4  -3   56.75    1.13
   2  -4  -3   56.91    1.20
   2  -4  -3   55.26    1.23
   1  -4  -3  122.59    2.50
   1  -4  -3  120.71    2.28
   1  -4  -3  128.06    2.53
   0  -4  -3  210.42    4.05
   0  -4  -3  195.90    4.11
   0  -4  -3  206.06    3.84
  -1  -4  -3   49.35    1.07
  -1  -4  -3   47.97    1.12
  -1  -4  -3   50.26    1.00
  -2  -4  -3    5.29    0.38
  -2  -4  -3    5.37    0.32
  -2  -4  -3    5.09    0.28
  -3  -4  -3   15.05    0.44
  -3  -4  -3   14.88    0.55
  -3  -4  -3   14.46    0.52
  -4  -4  -3    1.08    0.28
  -4  -4  -3    0.62    0.34
  -4  -4  -3    0.84    0.31
   5  -5  -3   -0.17    0.40
   5  -5  -3   -0.34    0.42
   4  -5  -3    1.05    0.35
   4  -5  -3    0.33    0.31
   3  -5  -3    9.09    0.45
   3  -5  -3    7.45    0.45
   3  -5  -3    7.91    0.38
   2  -5  -3   30.06    0.77
   2  -5  -3   30.32    0.75
   2  -5  -3   31.31    0.70
   1  -5  -3  106.29    2.20
   1  -5  -3  102.72    2.17
   1  -5  -3  107.16    1.98
   0  -5  -3   19.37    0.53
   0  -5  -3   19.61    0.58
   0  -5  -3   19.54    0.44
  -1  -5  -3   74.43    1.65
  -1  -5  -3   73.48    1.57
  -1  -5  -3   75.85    1.49
  -2  -5  -3   93.86    1.99
  -2  -5  -3   89.79    1.91
  -2  -5  -3   90.70    1.83
  -3  -5  -3    4.06    0.28
  -3  -5  -3    3.95    0.36
  -3  -5  -3    3.97    0.33
  -4  -5  -3    3.02    0.39
  -4  -5  -3    2.56    0.31
  -4  -5  -3    3.66    0.41
   5  -6  -3   -0.28    0.47
   5  -6  -3    0.10    0.41
   4  -6  -3   -0.03    0.38
   4  -6  -3   -0.05    0.31
   3  -6  -3    3.55    0.32
   3  -6  -3    3.79    0.32
   3  -6  -3    4.29    0.36
   2  -6  -3    2.86    0.27
   2  -6  -3    2.30    0.27
   2  -6  -3    2.90    0.30
   1  -6  -3    0.36    0.22
   1  -6  -3   -0.01    0.19
   1  -6  -3    0.00    0.24
   0  -6  -3    8.21    0.40
   0  -6  -3    8.21    0.28
   0  -6  -3    8.99    0.47
  -1  -6  -3    3.02    0.28
  -1  -6  -3    2.81    0.34
  -1  -6  -3    2.71    0.22
  -2  -6  -3   27.88    0.77
  -2  -6  -3   29.67    0.86
  -2  -6  -3   28.65    0.72
  -3  -6  -3    2.84    0.34
  -3  -6  -3    2.27    0.36
  -4  -6  -3    2.03    0.40
  -4  -6  -3    2.24    0.39
  -4  -6  -3    1.84    0.33
   5  -7  -3    0.46    0.51
   4  -7  -3    5.04    0.49
   4  -7  -3    4.00    0.42
   3  -7  -3    5.67    0.41
   3  -7  -3    5.74    0.38
   3  -7  -3    6.32    0.42
   2  -7  -3    7.94    0.43
   2  -7  -3    7.73    0.49
   2  -7  -3    8.27    0.47
   1  -7  -3   67.11    1.33
   1  -7  -3   64.42    1.45
   1  -7  -3   65.98    1.51
   0  -7  -3    3.17    0.31
   0  -7  -3    3.78    0.35
   0  -7  -3    3.69    0.22
  -1  -7  -3   17.37    0.69
  -1  -7  -3   17.01    0.59
  -1  -7  -3   16.57    0.51
  -2  -7  -3    6.65    0.49
  -2  -7  -3    5.51    0.35
  -2  -7  -3    5.78    0.40
  -3  -7  -3    0.12    0.32
  -3  -7  -3   -0.47    0.35
   5  -8  -3    0.78    0.53
   4  -8  -3    2.10    0.41
   4  -8  -3    2.35    0.47
   3  -8  -3    4.20    0.41
   3  -8  -3    3.96    0.37
   3  -8  -3    3.48    0.39
   2  -8  -3    8.86    0.45
   2  -8  -3    9.35    0.49
   2  -8  -3    9.57    0.52
   1  -8  -3   24.22    0.77
   1  -8  -3   24.81    0.74
   1  -8  -3   23.65    0.66
   0  -8  -3   43.00    1.05
   0  -8  -3   42.13    1.11
  -1  -8  -3   27.47    0.80
  -1  -8  -3   27.43    0.72
  -1  -8  -3   28.24    0.92
  -2  -8  -3    8.14    0.54
  -2  -8  -3    8.29    0.50
  -2  -8  -3    9.42    0.70
  -3  -8  -3    6.88    0.48
   4  -9  -3   -0.09    0.44
   4  -9  -3   -0.12    0.38
   3  -9  -3    0.07    0.33
   3  -9  -3    0.11    0.36
   3  -9  -3    0.18    0.38
   2  -9  -3   -0.27    0.31
   2  -9  -3   -0.37    0.36
   2  -9  -3    0.00    0.35
   1  -9  -3    0.56    0.34
   1  -9  -3    0.31    0.33
   0  -9  -3   20.17    0.75
   0  -9  -3   18.78    0.68
  -1  -9  -3    6.22    0.46
  -1  -9  -3    6.40    0.44
  -1  -9  -3    7.72    0.55
  -2  -9  -3    2.68    0.52
  -2  -9  -3    2.29    0.37
   4 -10  -3   -0.09    0.49
   3 -10  -3    2.02    0.44
   3 -10  -3    2.19    0.41
   3 -10  -3    2.60    0.46
   2 -10  -3    1.59    0.39
   2 -10  -3    1.35    0.43
   2 -10  -3    2.01    0.37
   1 -10  -3    2.88    0.40
   1 -10  -3    3.19    0.45
   0 -10  -3    0.62    0.44
  -1 -10  -3    2.21    0.51
  -2 -10  -3    0.43    0.37
  -2 -10  -3    1.03    0.55
   3 -11  -3    2.40    0.47
   3 -11  -3    2.30    0.52
   2 -11  -3    2.43    0.46
   1 -11  -3    5.64    0.54
   0 -11  -3    3.68    0.52
  -1 -11  -3    6.68    0.64
   2 -12  -3    0.00    0.46
   1 -12  -3    4.84    0.56
   1 -14   4    6.24    0.56
   1 -14   4    5.40    0.57
   2 -14   4    0.88    0.44
   2 -14   4    1.81    0.49
  -1 -13   4    0.63    0.39
  -1 -13   4   -0.15    0.52
   0 -13   4    0.28    0.45
   0 -13   4   -0.09    0.35
   1 -13   4    0.37    0.42
   1 -13   4    0.14    0.42
   2 -13   4    0.54    0.42
   2 -13   4   -0.05    0.39
   3 -13   4    0.57    0.47
  -2 -12   4    4.57    0.47
  -2 -12   4    4.78    0.63
  -1 -12   4    9.63    0.60
  -1 -12   4    9.94    0.73
   0 -12   4    6.14    0.54
   0 -12   4    6.68    0.46
   0 -12   4    6.41    0.43
   1 -12   4    6.10    0.50
   1 -12   4    5.79    0.48
   2 -12   4    1.93    0.43
   2 -12   4    2.00    0.38
   3 -12   4    1.95    0.44
   4 -12   4    0.87    0.51
  -2 -11   4    3.50    0.44
  -2 -11   4    2.90    0.54
  -1 -11   4    2.51    0.35
  -1 -11   4    3.26    0.47
   0 -11   4   23.70    0.72
   0 -11   4   22.93    0.71
   0 -11   4   23.53    0.85
   1 -11   4    7.61    0.56
   1 -11   4    9.45    0.58
   2 -11   4   14.38    0.60
   2 -11   4   14.46    0.64
   3 -11   4    1.30    0.40
   4 -11   4    1.12    0.47
  -3 -10   4    5.72    0.50
  -2 -10   4    0.69    0.41
  -2 -10   4    1.13    0.34
  -1 -10   4    7.67    0.56
  -1 -10   4    8.24    0.49
   0 -10   4    0.31    0.30
   0 -10   4   -0.08    0.27
   0 -10   4    0.45    0.26
   1 -10   4   -0.05    0.27
   1 -10   4    0.39    0.30
  -2  10  -4    3.57    0.32
   2 -10   4    3.76    0.38
   2 -10   4    3.32    0.33
   3 -10   4    1.74    0.37
   4 -10   4   -0.42    0.40
  -3  -9   4    5.50    0.45
  -2  -9   4   40.57    1.01
  -2  -9   4   41.89    1.12
  -1  -9   4    3.75    0.29
  -1  -9   4    4.77    0.39
  -1  -9   4    4.82    0.34
   0  -9   4   20.24    0.65
   0  -9   4   19.67    0.58
   0  -9   4   20.77    0.59
   1  -9   4    4.64    0.33
   1  -9   4    4.88    0.33
  -2   9  -4   14.14    0.49
   2  -9   4   13.94    0.50
   2  -9   4   14.22    0.58
   3  -9   4    0.85    0.34
   4  -9   4    0.35    0.39
   5  -9   4   -0.03    0.46
   5  -9   4   -0.04    0.46
  -4  -8   4   11.80    0.60
  -4  -8   4   12.80    0.75
  -3  -8   4    2.96    0.38
  -2  -8   4   14.58    0.56
  -1  -8   4   42.23    1.05
  -1  -8   4   42.81    0.97
  -1  -8   4   41.97    0.89
   0  -8   4   57.47    1.22
   0  -8   4   58.23    1.30
   0  -8   4   56.53    1.16
   1  -8   4   71.10    1.52
   1  -8   4   68.74    1.40
  -2   8  -4   32.23    0.76
   2  -8   4   31.91    0.77
   2  -8   4   31.63    0.79
  -3   8  -4    0.80    0.25
   3  -8   4    0.60    0.23
   3  -8   4    0.91    0.31
  -4   8  -4    0.69    0.34
   4  -8   4   -0.28    0.35
  -5   8  -4    0.10    0.45
   5  -8   4    0.39    0.44
   5  -8   4    0.91    0.44
  -4  -7   4   -0.28    0.30
  -4  -7   4   -0.51    0.37
  -3  -7   4    0.89    0.32
  -2  -7   4    1.79    0.26
  -1  -7   4    0.28    0.20
  -1  -7   4    0.16    0.16
  -1  -7   4    0.26    0.19
   0  -7   4   30.52    0.68
   0  -7   4   31.19    0.72
   0  -7   4   31.66    0.76
  -1   7  -4   56.53    1.18
   1  -7   4   56.77    1.22
   1  -7   4   56.26    1.14
  -2   7  -4   13.38    0.38
  -2   7  -4   13.07    0.43
   2  -7   4   13.30    0.47
   2  -7   4   13.24    0.39
  -3   7  -4    0.59    0.22
  -3   7  -4    0.03    0.22
   3  -7   4    0.21    0.27
  -4   7  -4    0.22    0.33
   4  -7   4   -0.02    0.32
  -5   7  -4    0.58    0.42
  -4  -6   4   10.62    0.62
  -4  -6   4   10.01    0.45
  -3  -6   4    3.87    0.33
  -2  -6   4   23.78    0.64
  -2  -6   4   24.94    0.56
  -1  -6   4   48.48    0.96
  -1  -6   4   48.39    1.03
  -1  -6   4   48.00    1.08
   0  -6   4    0.45    0.16
   0  -6   4    0.57    0.14
   0  -6   4    0.50    0.15
  -1   6  -4    7.85    0.30
   1  -6   4    8.33    0.31
   1  -6   4    8.25    0.28
   1  -6   4    7.89    0.21
  -2   6  -4   21.56    0.55
  -2   6  -4   21.12    0.52
   2  -6   4   21.71    0.56
  -3   6  -4    0.83    0.23
  -3   6  -4    0.76    0.22
   3  -6   4    1.00    0.25
  -4   6  -4   -0.14    0.26
  -4   6  -4   -0.01    0.29
   4  -6   4   -0.08    0.28
  -5   6  -4    0.14    0.41
  -5  -5   4    0.55    0.32
  -5  -5   4    1.12    0.43
  -4  -5   4    9.08    0.43
  -4  -5   4   10.01    0.54
  -3  -5   4   12.16    0.50
  -2  -5   4  101.69    2.06
  -2  -5   4  104.80    1.92
   1   5  -4   40.42    0.73
  -1  -5   4   39.47    0.86
   0  -5   4  156.57    3.00
  -1   5  -4  148.73    2.85
  -2   5  -4   28.26    0.67
  -2   5  -4   29.74    0.66
   2  -5   4   30.44    0.65
  -3   5  -4   27.97    0.70
  -3   5  -4   28.70    0.71
   3  -5   4   29.22    0.69
  -4   5  -4    0.12    0.29
  -4   5  -4    0.05    0.25
  -5   5  -4    0.12    0.39
  -5   5  -4    0.75    0.35
  -5  -4   4   -0.02    0.39
  -5  -4   4    0.38    0.32
  -4  -4   4   -0.08    0.22
  -4  -4   4    0.37    0.28
  -4  -4   4    0.10    0.30
  -3  -4   4    0.30    0.19
  -3  -4   4    0.39    0.16
  -3  -4   4    0.26    0.22
  -2  -4   4    4.06    0.20
  -2  -4   4    4.08    0.24
   1   4  -4  114.39    2.01
  -1  -4   4  110.60    2.18
   0  -4   4  182.17    3.45
  -1   4  -4   29.64    0.64
  -2   4  -4   29.11    0.64
  -2   4  -4   28.70    0.65
  -3   4  -4   27.26    0.67
  -3   4  -4   27.15    0.67
   3  -4   4   26.78    0.63
  -4   4  -4    0.51    0.26
  -4   4  -4    0.25    0.29
  -5   4  -4    0.47    0.38
  -5   4  -4   -0.22    0.33
  -5  -3   4    1.39    0.41
  -5  -3   4    0.96    0.39
  -5  -3   4    1.54    0.31
  -4  -3   4    0.27    0.21
  -4  -3   4    0.19    0.25
  -4  -3   4    0.62    0.28
  -3  -3   4   20.21    0.47
  -3  -3   4   19.66    0.53
  -3  -3   4   20.77    0.49
  -3  -3   4   20.25    0.57
   2   3  -4   30.28    0.62
  -2  -3   4   29.00    0.67
  -2  -3   4   29.75    0.65
   1   3  -4   23.86    0.46
  -1  -3   4   22.47    0.52
  -1   3  -4   53.26    1.07
  -2   3  -4    0.19    0.13
  -2   3  -4    0.54    0.15
  -3   3  -4    1.05    0.20
  -3   3  -4    1.02    0.20
  -4   3  -4    0.12    0.31
  -4   3  -4    0.12    0.26
  -5   3  -4   -0.07    0.38
  -5   3  -4    0.41    0.35
   5   2  -4    0.34    0.40
  -5  -2   4    0.12    0.29
  -5  -2   4    0.36    0.35
  -4  -2   4   11.80    0.51
  -4  -2   4   12.32    0.41
  -4  -2   4   11.76    0.50
   3   2  -4   61.48    1.25
  -3  -2   4   62.57    1.30
  -3  -2   4   64.07    1.21
  -3  -2   4   61.76    1.33
  -3  -2   4   63.58    1.20
   2   2  -4    3.89    0.22
  -2  -2   4    3.60    0.22
   1   2  -4  179.42    3.15
  -1  -2   4  174.47    3.34
   0   2  -4  614.25   11.57
  -1   2  -4  147.52    2.81
  -2   2  -4   98.88    1.94
  -2   2  -4   95.61    1.78
  -2   2  -4   94.77    1.88
  -3   2  -4    5.60    0.31
  -3   2  -4    5.73    0.28
  -3   2  -4    5.53    0.32
  -4   2  -4    2.12    0.29
  -4   2  -4    1.70    0.30
  -4   2  -4    2.16    0.27
  -5   2  -4    1.55    0.38
  -5   2  -4    1.96    0.40
   5   1  -4    0.89    0.39
  -5  -1   4    1.78    0.30
  -5  -1   4    1.37    0.38
   4   1  -4    4.53    0.36
  -4  -1   4    4.94    0.32
  -4  -1   4    4.53    0.32
  -4  -1   4    5.37    0.34
  -4  -1   4    5.26    0.34
   3   1  -4    6.38    0.34
  -3  -1   4    6.88    0.25
  -3  -1   4    6.61    0.31
  -3  -1   4    6.28    0.30
  -3  -1   4    6.62    0.29
   2   1  -4   77.78    1.45
   2   1  -4   77.15    1.59
  -2  -1   4   76.24    1.50
   1   1  -4   21.86    0.45
   0   1  -4  268.82    5.10
  -1   1  -4  229.35    4.32
  -2   1  -4  130.57    2.62
  -2   1  -4  130.21    2.40
  -2   1  -4  133.97    2.53
  -3   1  -4   24.48    0.63
  -3   1  -4   25.15    0.57
  -3   1  -4   25.39    0.63
  -4   1  -4   -0.34    0.23
  -4   1  -4    0.36    0.27
  -4   1  -4   -0.04    0.27
  -5   1  -4    4.56    0.44
  -5   1  -4    4.79    0.39
  -5   1  -4    4.07    0.44
   5   0  -4    0.80    0.37
  -5   0   4    0.76    0.29
   4   0  -4    2.03    0.31
  -4   0   4    2.08    0.22
  -4   0   4    2.51    0.25
   3   0  -4   10.70    0.41
   3   0  -4   10.05    0.38
  -3   0   4    9.68    0.34
  -3   0   4    9.59    0.29
  -3   0   4    9.70    0.33
   2   0  -4    1.44    0.18
  -2   0   4    1.25    0.12
   1   0  -4   12.26    0.31
  -1   0  -4  159.54    2.98
  -1   0  -4  155.21    3.11
  -2   0  -4   64.94    1.34
  -2   0  -4   68.69    1.40
  -2   0  -4   68.16    1.27
  -3   0  -4   12.43    0.42
  -3   0  -4   12.35    0.37
  -3   0  -4   12.30    0.42
  -4   0  -4    2.48    0.26
  -4   0  -4    2.12    0.30
  -4   0  -4    2.59    0.33
  -5   0  -4   -0.13    0.38
  -5   0  -4    0.24    0.32
  -5   0  -4    0.26    0.39
   5  -1  -4    0.61    0.40
   5  -1  -4    1.32    0.40
   4  -1  -4    6.69    0.40
   4  -1  -4    5.58    0.40
   3  -1  -4   13.57    0.47
   3  -1  -4   13.29    0.47
  -3   1   4   12.77    0.38
   2  -1  -4   79.94    1.52
   2  -1  -4   80.35    1.68
  -2   1   4   82.45    1.51
   1  -1  -4  344.98    6.21
   1  -1  -4  351.10    6.81
   0  -1  -4  201.01    4.01
   0  -1  -4  203.14    4.03
   0  -1  -4  205.93    3.85
  -1  -1  -4   41.24    0.87
  -1  -1  -4   39.30    0.87
  -1  -1  -4   40.30    0.81
  -2  -1  -4   54.31    1.09
  -2  -1  -4   51.83    1.12
  -2  -1  -4   54.33    1.01
  -2  -1  -4   50.01    1.14
  -3  -1  -4   19.54    0.48
  -3  -1  -4   19.13    0.54
  -3  -1  -4   19.62    0.56
  -4  -1  -4    0.86    0.23
  -4  -1  -4    1.02    0.29
  -4  -1  -4    0.90    0.31
  -5  -1  -4    0.06    0.37
  -5  -1  -4    0.56    0.32
  -5  -1  -4   -0.50    0.40
   5  -2  -4    0.84    0.42
   5  -2  -4    1.57    0.43
   4  -2  -4    0.37    0.31
   4  -2  -4    0.25    0.31
   3  -2  -4   16.81    0.55
   3  -2  -4   16.89    0.50
  -3   2   4   17.17    0.47
   2  -2  -4   61.73    1.22
   2  -2  -4   63.08    1.35
  -2   2   4   64.20    1.21
   1  -2  -4  106.11    2.18
   1  -2  -4  108.57    2.19
   1  -2  -4  109.78    1.99
   0  -2  -4  224.78    4.22
   0  -2  -4  222.00    4.45
   0  -2  -4  224.32    4.42
  -1  -2  -4  334.44    6.40
  -1  -2  -4  329.41    6.54
  -1  -2  -4  336.36    6.62
  -2  -2  -4   32.39    0.80
  -2  -2  -4   33.73    0.74
  -2  -2  -4   33.30    0.68
  -2  -2  -4   33.73    0.77
  -3  -2  -4   30.67    0.77
  -3  -2  -4   30.61    0.74
  -3  -2  -4   29.30    0.66
  -4  -2  -4    7.43    0.51
  -4  -2  -4    7.86    0.42
  -4  -2  -4    7.37    0.47
  -5  -2  -4   -0.10    0.42
  -5  -2  -4    0.45    0.33
  -5  -2  -4    0.23    0.40
   5  -3  -4   -0.50    0.41
   5  -3  -4    0.42    0.42
   4  -3  -4    0.72    0.31
   4  -3  -4    0.40    0.32
   3  -3  -4    0.66    0.26
   3  -3  -4    0.43    0.20
   3  -3  -4    0.58    0.23
   2  -3  -4    0.18    0.16
   2  -3  -4    0.34    0.17
   2  -3  -4    0.16    0.19
  -2   3   4   -0.08    0.18
   1  -3  -4   10.46    0.35
   1  -3  -4    9.66    0.32
   1  -3  -4    9.06    0.32
   0  -3  -4   37.54    0.72
   0  -3  -4   35.71    0.82
   0  -3  -4   35.15    0.82
  -1  -3  -4   23.87    0.63
  -1  -3  -4   24.03    0.61
  -1  -3  -4   24.63    0.54
  -2  -3  -4   13.89    0.50
  -2  -3  -4   14.15    0.46
  -2  -3  -4   14.64    0.42
  -3  -3  -4   21.08    0.54
  -3  -3  -4   21.90    0.62
  -3  -3  -4   23.36    0.67
  -4  -3  -4    0.65    0.25
  -4  -3  -4    1.19    0.36
  -4  -3  -4    0.96    0.32
   5  -4  -4   -0.04    0.41
   5  -4  -4   -0.40    0.42
   4  -4  -4    2.43    0.40
   4  -4  -4    2.10    0.36
   3  -4  -4   25.11    0.73
   3  -4  -4   24.24    0.66
   3  -4  -4   25.16    0.65
   2  -4  -4   47.10    1.03
   2  -4  -4   45.95    1.07
   2  -4  -4   45.34    0.96
   1  -4  -4   12.08    0.38
   1  -4  -4   12.34    0.44
   1  -4  -4   12.46    0.40
   0  -4  -4  103.77    2.01
   0  -4  -4  107.54    2.20
   0  -4  -4  105.10    2.17
  -1  -4  -4   18.82    0.56
  -1  -4  -4   19.80    0.48
  -1  -4  -4   19.08    0.60
  -2  -4  -4    7.32    0.33
  -2  -4  -4    7.41    0.44
  -2  -4  -4    7.09    0.38
  -3  -4  -4    0.20    0.24
  -3  -4  -4   -0.12    0.21
  -3  -4  -4    0.37    0.28
  -4  -4  -4    0.66    0.34
  -4  -4  -4    0.33    0.35
  -4  -4  -4   -0.04    0.27
   5  -5  -4   -0.01    0.44
   5  -5  -4   -0.01    0.44
   4  -5  -4    0.27    0.33
   4  -5  -4    0.79    0.37
   3  -5  -4   38.33    0.90
   3  -5  -4   37.85    0.99
   3  -5  -4   40.28    0.93
   2  -5  -4   32.37    0.78
   2  -5  -4   28.83    0.72
   2  -5  -4   30.59    0.80
   1  -5  -4   65.56    1.43
   1  -5  -4   64.58    1.29
   1  -5  -4   63.23    1.41
   0  -5  -4  136.63    2.85
   0  -5  -4  140.48    2.79
   0  -5  -4  133.63    2.61
  -1  -5  -4   48.44    1.12
  -1  -5  -4   50.13    1.19
  -1  -5  -4   49.18    1.03
  -2  -5  -4   54.68    1.29
  -2  -5  -4   51.33    1.14
  -2  -5  -4   52.19    1.20
  -3  -5  -4   10.34    0.41
  -3  -5  -4    9.78    0.48
  -3  -5  -4   10.02    0.55
  -4  -5  -4    1.09    0.38
  -4  -5  -4    1.36    0.39
  -4  -5  -4    1.06    0.30
   5  -6  -4   -0.08    0.47
   4  -6  -4    0.29    0.39
   4  -6  -4    0.05    0.34
   3  -6  -4    1.49    0.32
   3  -6  -4    1.09    0.31
   3  -6  -4    1.57    0.34
   2  -6  -4    5.01    0.32
   2  -6  -4    4.72    0.35
   2  -6  -4    4.66    0.34
   1  -6  -4   15.24    0.58
   1  -6  -4   13.62    0.47
   1  -6  -4   15.02    0.56
   0  -6  -4   40.39    1.02
   0  -6  -4   39.21    0.84
   0  -6  -4   40.09    0.97
  -1  -6  -4   38.92    1.05
  -1  -6  -4   38.50    0.86
  -1  -6  -4   38.64    0.97
  -2  -6  -4   17.05    0.69
  -2  -6  -4   16.35    0.59
  -2  -6  -4   16.73    0.55
  -3  -6  -4    3.15    0.40
  -3  -6  -4    4.21    0.37
  -3  -6  -4    3.21    0.30
   5  -7  -4    0.23    0.52
   4  -7  -4    0.65    0.39
   4  -7  -4   -0.13    0.40
   3  -7  -4    3.55    0.35
   3  -7  -4    3.88    0.41
   3  -7  -4    3.57    0.40
   2  -7  -4    1.78    0.34
   2  -7  -4    2.05    0.35
   2  -7  -4    2.22    0.30
   1  -7  -4   16.74    0.63
   1  -7  -4   16.77    0.62
   1  -7  -4   16.88    0.57
   0  -7  -4    8.18    0.53
   0  -7  -4    9.12    0.50
  -1  -7  -4   10.49    0.42
  -1  -7  -4   11.16    0.64
  -1  -7  -4    9.77    0.50
  -2  -7  -4    0.24    0.34
  -2  -7  -4    0.20    0.38
  -2  -7  -4    0.07    0.27
  -3  -7  -4    0.15    0.39
  -3  -7  -4    0.13    0.29
  -3  -7  -4    0.09    0.34
   4  -8  -4    1.78    0.48
   4  -8  -4    1.28    0.39
   3  -8  -4    2.57    0.41
   3  -8  -4    3.03    0.44
   3  -8  -4    2.92    0.37
   2  -8  -4   27.51    0.88
   2  -8  -4   26.50    0.84
   2  -8  -4   30.00    0.79
   1  -8  -4    8.14    0.50
   1  -8  -4    8.54    0.55
   0  -8  -4   29.69    0.91
   0  -8  -4   28.39    0.84
  -1  -8  -4   13.49    0.59
  -1  -8  -4   14.59    0.52
  -1  -8  -4   14.76    0.70
  -2  -8  -4   10.51    0.55
  -2  -8  -4   11.55    0.74
  -2  -8  -4   10.04    0.61
   4  -9  -4    0.20    0.46
   4  -9  -4   -0.08    0.39
   3  -9  -4   -0.02    0.35
   3  -9  -4    0.08    0.42
   3  -9  -4    0.32    0.40
   2  -9  -4    9.88    0.62
   2  -9  -4   10.61    0.68
   2  -9  -4    9.81    0.53
   1  -9  -4    7.61    0.54
   1  -9  -4    8.03    0.59
   0  -9  -4    9.89    0.68
   0  -9  -4    7.64    0.53
  -1  -9  -4   10.04    0.75
  -1  -9  -4    9.43    0.61
  -2  -9  -4    9.56    0.69
  -2  -9  -4    8.74    0.61
   3 -10  -4    0.11    0.49
   3 -10  -4   -0.28    0.44
   3 -10  -4    0.29    0.40
   2 -10  -4    0.50    0.38
   2 -10  -4    0.57    0.44
   2 -10  -4    1.48    0.45
   1 -10  -4    0.15    0.41
   1 -10  -4    0.18    0.41
   0 -10  -4    2.43    0.50
   0 -10  -4    2.11    0.43
  -1 -10  -4    0.41    0.50
   3 -11  -4    1.98    0.49
   3 -11  -4    1.94    0.56
   2 -11  -4    0.72    0.47
   2 -11  -4    1.65    0.50
   1 -11  -4    1.21    0.48
   0 -11  -4    2.32    0.52
   0 -14   5    3.26    0.45
   0 -14   5    3.34    0.57
   1 -14   5    1.85    0.51
   1 -14   5    1.75    0.49
   2 -14   5    0.52    0.48
  -1 -13   5    0.52    0.39
  -1 -13   5   -0.05    0.52
   0 -13   5   -0.16    0.43
   0 -13   5    0.73    0.43
   0 -13   5   -0.17    0.36
   1 -13   5    1.34    0.44
   1 -13   5    1.91    0.46
   2 -13   5    0.64    0.46
   3 -13   5    1.19    0.49
  -2 -12   5    5.64    0.51
  -1 -12   5    6.39    0.58
  -1 -12   5    5.78    0.45
   0 -12   5    0.02    0.36
   0 -12   5    0.32    0.33
   0 -12   5    0.35    0.42
   1 -12   5    3.07    0.44
   1 -12   5    3.07    0.41
   2 -12   5    0.76    0.42
   3 -12   5    0.31    0.44
   4 -12   5    0.23    0.50
  -2 -11   5    9.28    0.64
  -1 -11   5   14.62    0.63
  -1 -11   5   13.90    0.70
   0 -11   5    5.82    0.49
   0 -11   5    6.70    0.43
   0 -11   5    6.39    0.41
   1 -11   5   10.60    0.60
   1 -11   5   12.40    0.63
  -2  11  -5    3.79    0.37
   2 -11   5    3.48    0.41
   3 -11   5    2.40    0.43
   4 -11   5    0.19    0.48
  -3 -10   5    3.28    0.46
  -2 -10   5    0.80    0.33
  -1 -10   5    3.79    0.34
  -1 -10   5    3.42    0.31
  -1 -10   5    2.99    0.40
   0 -10   5    3.40    0.32
   0 -10   5    4.20    0.39
   0 -10   5    4.01    0.35
   1 -10   5    7.79    0.52
   1 -10   5    8.27    0.48
  -2  10  -5    4.07    0.34
   2 -10   5    4.35    0.35
   2 -10   5    4.63    0.39
   3 -10   5    3.54    0.42
   4 -10   5    0.75    0.45
  -3  -9   5    0.98    0.37
  -2  -9   5    7.26    0.52
  -1  -9   5    8.77    0.42
  -1  -9   5    8.70    0.49
  -1  -9   5    8.02    0.43
   0  -9   5   28.88    0.75
   0  -9   5   28.68    0.80
   0  -9   5   28.65    0.73
  -1   9  -5    3.06    0.30
   1  -9   5    3.06    0.30
   1  -9   5    3.25    0.29
  -2   9  -5    0.10    0.25
   2  -9   5   -0.06    0.28
  -3   9  -5    1.75    0.31
   3  -9   5    1.02    0.35
   4  -9   5    0.17    0.40
  -5   9  -5    0.66    0.46
   5  -9   5   -0.53    0.49
  -4  -8   5    3.44    0.38
  -4  -8   5    3.59    0.49
  -3  -8   5   22.21    0.78
  -2  -8   5    6.65    0.44
  -1  -8   5   45.16    0.96
  -1  -8   5   47.28    1.05
   0  -8   5   59.00    1.24
   0  -8   5   57.85    1.30
   0  -8   5   56.17    1.17
  -1   8  -5   35.38    0.82
   1  -8   5   33.47    0.78
   1  -8   5   33.51    0.82
  -2   8  -5    4.34    0.31
   2  -8   5    4.21    0.32
  -3   8  -5   13.70    0.53
   3  -8   5   13.33    0.59
  -4   8  -5    0.76    0.36
   4  -8   5    0.55    0.36
  -5   8  -5    0.29    0.45
  -4  -7   5    0.89    0.41
  -4  -7   5    1.04    0.31
  -3  -7   5    6.88    0.44
  -2  -7   5    8.79    0.39
  -2  -7   5    9.24    0.47
  -1  -7   5   70.19    1.36
  -1  -7   5   69.31    1.45
   0  -7   5    1.09    0.20
   0  -7   5    0.96    0.18
  -1   7  -5   60.60    1.26
   1  -7   5   59.16    1.19
  -2   7  -5   21.62    0.60
   2  -7   5   22.07    0.60
  -3   7  -5    3.15    0.28
  -3   7  -5    2.80    0.29
   3  -7   5    3.25    0.32
  -4   7  -5    4.60    0.36
  -4   7  -5    4.29    0.40
   4  -7   5    3.83    0.39
  -5   7  -5    0.68    0.44
  -4  -6   5    0.44    0.37
  -4  -6   5    0.01    0.27
  -3  -6   5    6.98    0.50
  -2  -6   5   19.81    0.51
  -2  -6   5   20.53    0.60
  -1  -6   5   10.04    0.37
  -1  -6   5   10.15    0.34
   0  -6   5    0.65    0.15
   0  -6   5    0.66    0.17
  -1   6  -5    0.17    0.17
   1  -6   5    0.56    0.16
  -2   6  -5    5.30    0.26
  -2   6  -5    5.84    0.34
   2  -6   5    5.53    0.31
  -3   6  -5    0.43    0.24
  -3   6  -5   -0.12    0.22
   3  -6   5    0.10    0.24
  -4   6  -5    1.13    0.34
  -4   6  -5    1.66    0.31
   4  -6   5    1.29    0.32
  -5   6  -5   -0.40    0.43
  -4  -5   5    3.13    0.38
  -4  -5   5    3.20    0.28
  -3  -5   5    8.19    0.47
  -2  -5   5   99.78    1.84
  -2  -5   5   96.55    1.96
   1   5  -5  112.26    2.01
  -1  -5   5  114.78    2.09
  -1  -5   5  112.28    2.21
   0  -5   5  113.84    2.08
   0  -5   5  111.64    2.19
  -1   5  -5   59.34    1.22
   1  -5   5   60.38    1.15
  -2   5  -5   50.52    1.07
  -2   5  -5   50.30    1.08
   2  -5   5   52.55    1.03
  -3   5  -5    4.71    0.30
  -3   5  -5    4.86    0.34
   3  -5   5    4.46    0.28
  -4   5  -5    6.39    0.45
  -4   5  -5    6.00    0.38
  -5   5  -5   -0.57    0.39
  -5   5  -5   -0.27    0.35
  -5  -4   5   -0.21    0.30
  -5  -4   5   -0.02    0.40
  -4  -4   5    0.48    0.31
  -4  -4   5    0.22    0.23
   3   4  -5   20.24    0.55
  -3  -4   5   20.86    0.53
  -3  -4   5   19.56    0.48
  -3  -4   5   20.46    0.61
   2   4  -5   85.60    1.58
  -2  -4   5   88.03    1.61
  -2  -4   5   82.24    1.71
   1   4  -5    5.68    0.17
  -1  -4   5    4.97    0.24
  -1   4  -5  212.10    4.03
  -2   4  -5   69.91    1.43
  -2   4  -5   70.20    1.45
   2  -4   5   72.33    1.35
  -3   4  -5   15.63    0.50
  -3   4  -5   15.86    0.49
   3  -4   5   16.28    0.44
  -4   4  -5    2.93    0.36
  -4   4  -5    2.62    0.32
  -5   4  -5   -0.04    0.39
  -5   4  -5    0.13    0.36
  -5  -3   5   -0.12    0.29
   4   3  -5    5.67    0.39
  -4  -3   5    6.48    0.44
  -4  -3   5    7.01    0.47
  -4  -3   5    5.97    0.36
   3   3  -5    0.55    0.22
  -3  -3   5    0.28    0.15
  -3  -3   5    0.86    0.23
  -3  -3   5    0.89    0.19
   2   3  -5   10.96    0.35
   2   3  -5   10.96    0.33
  -2  -3   5   10.85    0.34
  -2  -3   5   10.73    0.36
   1   3  -5    6.55    0.20
  -1  -3   5    6.46    0.25
   0   3  -5   44.64    0.91
  -1   3  -5    1.32    0.15
  -2   3  -5   30.20    0.69
  -2   3  -5   30.61    0.70
  -3   3  -5    2.95    0.26
  -3   3  -5    3.59    0.27
  -4   3  -5    0.63    0.30
  -4   3  -5    0.43    0.29
  -5   3  -5   -0.04    0.37
  -5   3  -5    0.28    0.40
   5   2  -5    0.42    0.40
  -5  -2   5    0.72    0.29
   4   2  -5    6.83    0.40
  -4  -2   5    7.68    0.44
  -4  -2   5    6.80    0.34
   3   2  -5   30.42    0.71
   3   2  -5   28.62    0.76
  -3  -2   5   30.71    0.63
  -3  -2   5   30.77    0.72
  -3  -2   5   30.32    0.67
   2   2  -5  136.63    2.47
   2   2  -5  134.57    2.71
  -2  -2   5  136.26    2.48
  -2  -2   5  134.37    2.60
   1   2  -5   41.94    0.79
  -1  -2   5   40.29    0.84
   0   2  -5  525.00    9.91
  -1   2  -5   79.09    1.59
  -1   2  -5   83.26    1.63
  -2   2  -5    3.98    0.25
  -2   2  -5    4.48    0.26
  -3   2  -5   32.30    0.77
  -3   2  -5   32.17    0.71
  -3   2  -5   33.24    0.79
  -4   2  -5    1.58    0.27
  -4   2  -5    0.83    0.29
  -4   2  -5    0.96    0.30
  -5   2  -5    0.35    0.43
  -5   2  -5   -0.47    0.36
   5   1  -5   -0.13    0.39
   5   1  -5   -0.14    0.39
  -5  -1   5    0.71    0.29
   4   1  -5    6.68    0.40
   4   1  -5    6.04    0.41
  -4  -1   5    6.57    0.39
  -4  -1   5    7.91    0.34
   3   1  -5    6.51    0.35
   3   1  -5    6.48    0.36
  -3  -1   5    7.16    0.33
  -3  -1   5    6.96    0.26
  -3  -1   5    7.08    0.33
   2   1  -5  135.35    2.47
   2   1  -5  136.67    2.72
  -2  -1   5  133.95    2.58
  -2  -1   5  135.28    2.48
   1   1  -5  280.96    5.00
   0   1  -5  325.33    6.19
  -1   1  -5  165.08    3.20
  -1   1  -5  158.48    3.08
  -2   1  -5  111.14    2.19
  -2   1  -5  110.31    2.11
  -2   1  -5  103.80    1.99
  -3   1  -5   32.54    0.79
  -3   1  -5   32.54    0.70
  -3   1  -5   31.50    0.77
  -4   1  -5    8.45    0.42
  -4   1  -5    7.41    0.49
  -4   1  -5    7.53    0.47
  -5   1  -5    0.26    0.40
  -5   1  -5    1.44    0.35
  -5   1  -5    1.25    0.44
   5   0  -5    0.16    0.42
   5   0  -5   -0.22    0.37
   4   0  -5    2.09    0.34
   4   0  -5    1.61    0.31
  -4   0   5    1.84    0.25
  -4   0   5    2.05    0.23
   3   0  -5    5.11    0.35
   3   0  -5    5.41    0.36
  -3   0   5    5.11    0.29
  -3   0   5    5.24    0.24
   2   0  -5    0.30    0.18
   2   0  -5    0.13    0.16
  -2   0   5    0.14    0.10
  -2   0   5    0.51    0.16
   1   0  -5   86.23    1.77
   1   0  -5   87.56    1.61
   0   0  -5   14.43    0.34
   0   0  -5   14.65    0.39
  -1   0  -5   72.26    1.50
  -1   0  -5   72.36    1.50
  -1   0  -5   75.04    1.44
  -2   0  -5   46.13    0.92
  -2   0  -5   50.09    1.04
  -2   0  -5   46.62    1.03
  -2   0  -5   46.71    0.99
  -3   0  -5    7.58    0.38
  -3   0  -5    7.58    0.30
  -3   0  -5    7.29    0.37
  -4   0  -5    8.79    0.41
  -4   0  -5    9.38    0.53
  -4   0  -5    8.71    0.49
  -5   0  -5    0.65    0.41
  -5   0  -5    1.50    0.34
  -5   0  -5    1.42    0.41
   5  -1  -5    0.80    0.42
   5  -1  -5    0.73    0.39
   4  -1  -5   11.65    0.61
   4  -1  -5   12.93    0.59
  -4   1   5   12.31    0.49
   3  -1  -5    4.25    0.30
   3  -1  -5    3.56    0.30
  -3   1   5    4.18    0.26
   2  -1  -5   77.01    1.62
   2  -1  -5   76.74    1.47
  -2   1   5   77.73    1.46
   1  -1  -5  154.34    2.82
   1  -1  -5  155.68    3.10
   0  -1  -5   62.26    1.29
   0  -1  -5   61.05    1.28
   0  -1  -5   61.39    1.19
  -1  -1  -5   35.73    0.81
  -1  -1  -5   36.14    0.76
  -1  -1  -5   36.86    0.81
  -2  -1  -5    0.19    0.19
  -2  -1  -5    0.09    0.12
  -2  -1  -5   -0.02    0.16
  -2  -1  -5    0.10    0.20
  -3  -1  -5    1.10    0.23
  -3  -1  -5    0.58    0.18
  -3  -1  -5    1.29    0.29
  -4  -1  -5    0.47    0.35
  -4  -1  -5    0.65    0.26
  -4  -1  -5    0.78    0.30
  -5  -1  -5    0.46    0.33
  -5  -1  -5    0.25    0.41
  -5  -1  -5    0.21    0.43
   5  -2  -5   -0.02    0.43
   5  -2  -5   -0.10    0.39
   4  -2  -5    6.68    0.42
   4  -2  -5    5.28    0.44
   3  -2  -5   27.08    0.74
   3  -2  -5   25.75    0.66
  -3   2   5   26.23    0.62
   2  -2  -5  143.15    2.91
   2  -2  -5  139.78    2.64
  -2   2   5  146.85    2.63
   1  -2  -5  186.68    3.80
   1  -2  -5  189.84    3.45
   1  -2  -5  191.22    3.80
  -1   2   5  193.55    3.45
   0  -2  -5   51.42    0.99
   0  -2  -5   50.11    1.09
   0  -2  -5   49.29    1.08
  -1  -2  -5  328.86    6.29
  -1  -2  -5  323.31    6.59
  -1  -2  -5  342.71    6.53
  -2  -2  -5   62.36    1.33
  -2  -2  -5   60.85    1.37
  -2  -2  -5   61.95    1.27
  -2  -2  -5   60.96    1.18
  -3  -2  -5    8.82    0.35
  -3  -2  -5    8.19    0.41
  -3  -2  -5    8.46    0.48
  -4  -2  -5    2.14    0.37
  -4  -2  -5    1.86    0.35
  -4  -2  -5    1.76    0.27
   5  -3  -5    0.85    0.47
   5  -3  -5   -0.57    0.41
   4  -3  -5    0.00    0.36
   4  -3  -5    0.43    0.31
   3  -3  -5    2.84    0.30
   3  -3  -5    2.65    0.26
   3  -3  -5    2.40    0.32
   2  -3  -5   72.24    1.56
   2  -3  -5   74.56    1.60
   2  -3  -5   74.40    1.45
  -2   3   5   77.05    1.43
   1  -3  -5   33.08    0.76
   1  -3  -5   30.93    0.78
   1  -3  -5   33.28    0.72
  -1   3   5   32.95    0.68
   0  -3  -5  106.82    2.19
   0  -3  -5  106.41    2.02
   0  -3  -5  103.85    2.17
  -1  -3  -5   35.90    0.88
  -1  -3  -5   34.81    0.84
  -1  -3  -5   35.94    0.76
  -2  -3  -5   49.76    1.06
  -2  -3  -5   50.97    1.13
  -2  -3  -5   49.81    1.17
  -2  -3  -5   48.69    0.98
  -3  -3  -5   24.84    0.68
  -3  -3  -5   24.14    0.60
  -3  -3  -5   25.25    0.74
  -4  -3  -5    3.45    0.43
  -4  -3  -5    3.47    0.32
  -4  -3  -5    4.19    0.40
   5  -4  -5    3.75    0.48
   5  -4  -5    2.81    0.50
   4  -4  -5    0.82    0.34
   4  -4  -5    0.60    0.37
   3  -4  -5    2.70    0.29
   3  -4  -5    2.52    0.34
   3  -4  -5    3.53    0.32
   2  -4  -5    9.82    0.41
   2  -4  -5    9.94    0.48
   2  -4  -5   10.16    0.39
   1  -4  -5   17.41    0.54
   1  -4  -5   17.12    0.51
   1  -4  -5   16.62    0.51
   0  -4  -5   -0.01    0.23
   0  -4  -5   -0.22    0.21
   0  -4  -5   -0.01    0.11
  -1  -4  -5    0.36    0.24
  -1  -4  -5    0.41    0.16
  -1  -4  -5    0.62    0.28
  -2  -4  -5    4.76    0.40
  -2  -4  -5    4.69    0.34
  -2  -4  -5    4.58    0.34
  -3  -4  -5    1.45    0.29
  -3  -4  -5    1.24    0.32
  -3  -4  -5    1.32    0.23
  -4  -4  -5    0.26    0.28
  -4  -4  -5    0.00    0.35
  -4  -4  -5    0.04    0.38
   5  -5  -5    1.02    0.51
   4  -5  -5    4.83    0.46
   4  -5  -5    5.77    0.44
   3  -5  -5    8.19    0.47
   3  -5  -5    7.59    0.50
   3  -5  -5    7.16    0.47
   2  -5  -5   40.95    1.02
   2  -5  -5   41.00    0.92
   2  -5  -5   40.99    0.98
   1  -5  -5   55.65    1.26
   1  -5  -5   51.58    1.24
   1  -5  -5   56.27    1.14
   0  -5  -5  103.02    1.98
   0  -5  -5  102.43    2.20
   0  -5  -5  101.92    2.15
  -1  -5  -5   34.08    0.76
  -1  -5  -5   34.16    0.93
  -1  -5  -5   33.08    0.86
  -2  -5  -5    1.72    0.31
  -2  -5  -5    1.71    0.25
  -2  -5  -5    1.72    0.37
  -3  -5  -5    4.05    0.30
  -3  -5  -5    3.64    0.38
  -3  -5  -5    4.04    0.36
   5  -6  -5    0.19    0.52
   4  -6  -5    3.22    0.44
   4  -6  -5    3.09    0.46
   3  -6  -5    4.38    0.37
   3  -6  -5    4.03    0.43
   3  -6  -5    3.69    0.38
   2  -6  -5   12.25    0.56
   2  -6  -5   11.45    0.50
   2  -6  -5   10.59    0.58
   1  -6  -5   77.98    1.71
   1  -6  -5   77.65    1.72
   1  -6  -5   75.83    1.54
   0  -6  -5   22.51    0.72
   0  -6  -5   22.80    0.74
  -1  -6  -5   29.00    0.83
  -1  -6  -5   30.76    0.72
  -1  -6  -5   30.04    0.90
  -2  -6  -5   21.27    0.80
  -2  -6  -5   19.89    0.63
  -2  -6  -5   19.92    0.72
  -3  -6  -5   11.58    0.51
  -3  -6  -5   12.22    0.60
  -3  -6  -5   11.28    0.64
   4  -7  -5   -0.04    0.38
   4  -7  -5    0.64    0.42
   3  -7  -5   -0.13    0.32
   3  -7  -5   -0.12    0.36
   3  -7  -5    0.01    0.36
   2  -7  -5   -0.01    0.31
   2  -7  -5    0.08    0.34
   2  -7  -5    0.07    0.35
   1  -7  -5    2.10    0.31
   1  -7  -5    2.31    0.35
   1  -7  -5    2.87    0.40
   0  -7  -5    1.12    0.38
   0  -7  -5    1.36    0.35
  -1  -7  -5    3.00    0.27
  -1  -7  -5    2.23    0.39
  -1  -7  -5    3.57    0.47
  -2  -7  -5    2.44    0.34
  -2  -7  -5    2.51    0.42
  -2  -7  -5    3.39    0.50
  -3  -7  -5    3.60    0.35
  -3  -7  -5    3.92    0.47
  -3  -7  -5    3.87    0.43
   4  -8  -5    0.06    0.50
   4  -8  -5    0.28    0.40
   3  -8  -5    3.35    0.48
   3  -8  -5    2.66    0.40
   3  -8  -5    3.19    0.45
   2  -8  -5    4.22    0.46
   2  -8  -5    4.72    0.42
   2  -8  -5    4.74    0.49
   1  -8  -5   15.20    0.69
   1  -8  -5   16.11    0.70
   0  -8  -5    3.28    0.47
   0  -8  -5    3.46    0.42
  -1  -8  -5    0.98    0.45
  -1  -8  -5    1.12    0.41
  -2  -8  -5    4.54    0.56
  -2  -8  -5    3.93    0.40
  -2  -8  -5    3.37    0.47
   4  -9  -5    0.54    0.52
   3  -9  -5    1.70    0.46
   3  -9  -5    1.65    0.40
   3  -9  -5    2.01    0.49
   2  -9  -5    9.68    0.67
   2  -9  -5   11.34    0.64
   2  -9  -5   10.82    0.69
   1  -9  -5   10.96    0.74
   1  -9  -5   11.80    0.69
   0  -9  -5    5.20    0.55
   0  -9  -5    4.93    0.48
  -1  -9  -5    6.67    0.52
  -1  -9  -5    6.92    0.62
   3 -10  -5    0.45    0.47
   3 -10  -5    0.69    0.51
   2 -10  -5    0.41    0.49
   2 -10  -5    0.59    0.39
   2 -10  -5    0.95    0.48
   1 -10  -5    0.37    0.44
   1 -10  -5    0.40    0.46
   0 -10  -5    0.61    0.50
   0 -10  -5    0.29    0.43
  -1 -10  -5    5.73    0.65
   2 -11  -5   -0.16    0.50
   2 -11  -5    0.69    0.51
   1 -11  -5    0.49    0.50
   1 -11  -5    0.23    0.48
   0 -14   6    3.49    0.53
   0 -14   6    3.00    0.47
   1 -14   6    0.25    0.49
   1 -14   6    0.14    0.45
   2 -14   6    2.34    0.53
  -1 -13   6    1.72    0.43
   0 -13   6    0.72    0.48
   0 -13   6    1.24    0.39
   0 -13   6    1.26    0.45
  -1  13  -6   -0.05    0.37
   1 -13   6   -0.52    0.40
   1 -13   6    0.06    0.45
   2 -13   6    1.48    0.49
   3 -13   6    0.76    0.50
  -2 -12   6    1.23    0.44
  -1 -12   6    2.25    0.40
   0 -12   6   -0.06    0.39
   0 -12   6    0.19    0.34
   0 -12   6    0.24    0.41
  -1  12  -6    0.20    0.35
   1 -12   6    0.92    0.41
   1 -12   6   -0.35    0.35
  -2  12  -6    0.02    0.35
   2 -12   6    0.14    0.40
   3 -12   6   -0.06    0.43
  -2 -11   6    3.39    0.42
  -1 -11   6   10.72    0.55
  -1 -11   6    9.86    0.58
   0 -11   6   12.96    0.59
   0 -11   6   12.95    0.62
   0 -11   6   12.95    0.66
  -1  11  -6   17.30    0.65
   1 -11   6   16.90    0.67
   1 -11   6   17.08    0.70
  -2  11  -6    0.06    0.32
   2 -11   6    0.39    0.38
   3 -11   6    0.91    0.43
   4 -11   6    1.08    0.49
  -3 -10   6    3.90    0.47
  -2 -10   6    7.03    0.52
  -1 -10   6    1.85    0.31
  -1 -10   6    1.53    0.32
   0 -10   6   13.41    0.56
   0 -10   6   13.35    0.57
  -1  10  -6    9.98    0.52
   1 -10   6    9.93    0.55
   1 -10   6    9.89    0.50
  -2  10  -6    5.73    0.39
   2 -10   6    5.89    0.42
  -3  10  -6    0.53    0.33
   3 -10   6    0.66    0.37
   4 -10   6    1.64    0.46
  -3  -9   6    6.20    0.49
  -2  -9   6    1.15    0.33
  -1  -9   6    0.68    0.26
  -1  -9   6    1.17    0.26
   0  -9   6    4.82    0.33
   0  -9   6    4.44    0.33
  -1   9  -6   15.86    0.58
   1  -9   6   16.08    0.57
  -2   9  -6    1.83    0.30
   2  -9   6    1.90    0.32
  -3   9  -6   -0.20    0.30
   3  -9   6    0.34    0.34
   4  -9   6    0.14    0.41
  -4  -8   6    0.41    0.45
  -4  -8   6   -0.22    0.32
  -3  -8   6    7.68    0.50
  -2  -8   6   20.37    0.59
  -2  -8   6   19.78    0.67
  -1  -8   6   65.97    1.34
  -1  -8   6   68.39    1.44
   0  -8   6   16.36    0.53
   0  -8   6   16.12    0.51
  -1   8  -6   24.82    0.68
   1  -8   6   24.35    0.63
  -2   8  -6   13.11    0.51
   2  -8   6   12.79    0.52
  -3   8  -6    9.08    0.50
   3  -8   6    8.68    0.49
  -4   8  -6    1.10    0.36
  -4   8  -6    0.66    0.34
   4  -8   6    0.77    0.38
  -5   8  -6    0.07    0.46
  -4  -7   6    2.45    0.45
  -4  -7   6    2.40    0.32
  -3  -7   6    3.16    0.37
  -2  -7   6    6.28    0.44
  -2  -7   6    5.41    0.36
  -1  -7   6  104.66    2.00
  -1  -7   6  107.14    2.12
   0  -7   6   49.01    1.01
   0  -7   6   50.21    1.08
  -1   7  -6   31.00    0.75
   1  -7   6   29.26    0.69
  -2   7  -6   46.80    1.06
   2  -7   6   46.85    1.00
  -3   7  -6   11.44    0.52
  -3   7  -6   12.07    0.47
   3  -7   6   12.14    0.52
  -4   7  -6    0.25    0.35
  -4   7  -6    0.75    0.32
   4  -7   6    0.97    0.33
  -5   7  -6    1.21    0.44
  -4  -6   6    0.42    0.39
  -4  -6   6    0.48    0.27
  -3  -6   6    2.77    0.35
  -2  -6   6    2.33    0.24
  -2  -6   6    1.26    0.25
  -1  -6   6    0.84    0.18
  -1  -6   6    0.95    0.20
   0  -6   6    5.61    0.27
  -1   6  -6    1.91    0.23
   1  -6   6    1.75    0.19
  -2   6  -6   12.35    0.44
  -2   6  -6   12.47    0.38
   2  -6   6   13.40    0.44
  -3   6  -6    3.68    0.31
  -3   6  -6    3.12    0.27
   3  -6   6    2.89    0.28
  -4   6  -6    0.06    0.34
  -4   6  -6    0.48    0.31
  -5   6  -6   -0.01    0.44
  -5   6  -6    0.49    0.41
  -4  -5   6    8.39    0.59
  -4  -5   6    7.48    0.40
  -3  -5   6   32.92    0.76
  -3  -5   6   33.19    0.85
  -3  -5   6   31.18    0.70
  -2  -5   6    2.70    0.24
  -2  -5   6    2.42    0.26
   1   5  -6  148.54    2.61
  -1  -5   6  143.91    2.68
  -1  -5   6  145.78    2.83
   0  -5   6   63.24    1.22
  -1   5  -6   68.27    1.40
   1  -5   6   68.88    1.31
  -2   5  -6   28.66    0.69
  -2   5  -6   28.62    0.65
   2  -5   6   28.19    0.64
  -3   5  -6    0.03    0.24
  -3   5  -6    0.29    0.24
   3  -5   6    0.29    0.20
  -4   5  -6    4.09    0.40
  -4   5  -6    2.91    0.36
  -5   5  -6    0.38    0.39
  -5   5  -6    0.33    0.44
  -5  -4   6    0.27    0.32
  -4  -4   6    2.65    0.36
  -4  -4   6    2.49    0.25
   3   4  -6   23.80    0.67
  -3  -4   6   24.21    0.61
  -3  -4   6   25.45    0.69
  -3  -4   6   24.23    0.56
   2   4  -6   86.64    1.61
   2   4  -6   85.67    1.77
  -2  -4   6   87.14    1.65
  -2  -4   6   87.15    1.75
   1   4  -6  147.52    2.67
  -1  -4   6  149.14    2.88
  -1  -4   6  151.98    2.74
   0   4  -6  123.90    2.43
   0  -4   6  127.44    2.31
  -1   4  -6  358.63    6.71
   1  -4   6  353.18    6.43
  -2   4  -6   64.82    1.33
  -2   4  -6   63.23    1.33
   2  -4   6   64.87    1.24
  -3   4  -6   16.46    0.53
  -3   4  -6   16.78    0.53
  -4   4  -6    5.76    0.40
  -4   4  -6    5.91    0.43
  -5   4  -6    1.59    0.42
  -5   4  -6    0.93    0.42
   4   3  -6    0.40    0.30
   4   3  -6    0.79    0.33
  -4  -3   6    0.35    0.30
  -4  -3   6    0.54    0.23
   3   3  -6    1.07    0.26
   3   3  -6    1.20    0.24
  -3  -3   6    1.62    0.16
  -3  -3   6    1.48    0.22
  -3  -3   6    1.12    0.24
   2   3  -6    5.50    0.27
   2   3  -6    5.89    0.29
  -2  -3   6    5.42    0.28
  -2  -3   6    5.72    0.30
   1   3  -6  148.13    2.65
  -1  -3   6  144.75    2.82
  -1  -3   6  148.85    2.70
   0   3  -6  121.87    2.35
  -1   3  -6   97.50    1.93
  -1   3  -6   95.66    1.90
  -2   3  -6    4.41    0.29
  -2   3  -6    4.69    0.28
  -3   3  -6   35.39    0.84
  -3   3  -6   35.26    0.83
  -4   3  -6    1.87    0.35
  -4   3  -6    2.19    0.35
  -5   3  -6    0.83    0.41
  -5   3  -6    1.10    0.43
   5   2  -6    1.73    0.45
   5   2  -6    3.23    0.45
   4   2  -6    6.76    0.41
   4   2  -6    6.68    0.44
  -4  -2   6    7.35    0.42
   3   2  -6    2.09    0.27
   3   2  -6    2.02    0.25
  -3  -2   6    2.49    0.19
  -3  -2   6    2.96    0.24
  -3  -2   6    2.27    0.24
   2   2  -6  102.13    1.88
   2   2  -6  102.55    2.07
  -2  -2   6  100.35    1.98
  -2  -2   6  101.23    1.90
   1   2  -6  110.58    2.00
  -1  -2   6  108.28    2.02
   0   2  -6    1.36    0.15
  -1   2  -6   19.71    0.50
  -1   2  -6   21.66    0.50
  -2   2  -6    2.36    0.22
  -2   2  -6    2.46    0.21
  -3   2  -6    1.69    0.26
  -3   2  -6    1.88    0.27
  -3   2  -6    2.09    0.21
  -4   2  -6    0.29    0.32
  -4   2  -6    0.24    0.31
  -5   2  -6    0.22    0.41
  -5   2  -6    0.31    0.45
   5   1  -6    1.51    0.45
   5   1  -6    1.62    0.40
   4   1  -6    4.80    0.37
   4   1  -6    4.42    0.41
  -4  -1   6    5.48    0.33
   3   1  -6   82.89    1.79
   3   1  -6   82.55    1.63
  -3  -1   6   85.66    1.61
   2   1  -6   10.19    0.34
   2   1  -6   10.57    0.39
  -2  -1   6    9.66    0.34
  -2  -1   6   10.34    0.31
   1   1  -6  418.39    7.37
   1   1  -6  415.52    7.77
   1   1  -6  408.39    8.11
  -1  -1   6  416.45    7.41
   0   1  -6  381.76    7.39
   0   1  -6  398.20    7.62
  -1   1  -6  222.40    4.24
  -1   1  -6  225.84    4.42
  -2   1  -6   74.50    1.49
  -2   1  -6   73.81    1.38
  -2   1  -6   72.50    1.53
  -3   1  -6   16.24    0.52
  -3   1  -6   15.08    0.44
  -3   1  -6   15.30    0.51
  -4   1  -6    0.84    0.31
  -4   1  -6    1.49    0.34
  -4   1  -6    1.24    0.27
  -5   1  -6    0.14    0.39
  -5   1  -6    0.00    0.34
  -5   1  -6    0.49    0.43
   5   0  -6    0.00    0.39
   5   0  -6    0.29    0.41
   4   0  -6    1.25    0.34
   4   0  -6    0.56    0.32
  -4   0   6    1.13    0.27
   3   0  -6   14.49    0.52
   3   0  -6   14.82    0.48
  -3   0   6   13.94    0.46
   2   0  -6   31.36    0.75
   2   0  -6   30.92    0.69
  -2   0   6   29.57    0.67
  -2   0   6   29.93    0.64
   1   0  -6  226.57    4.14
   1   0  -6  228.01    4.33
   1   0  -6  238.06    4.57
  -1   0   6  229.73    4.16
   0   0  -6  208.52    4.12
   0   0  -6  208.18    3.93
  -1   0  -6   58.66    1.24
  -1   0  -6   58.94    1.17
  -1   0  -6   57.33    1.23
  -2   0  -6  131.15    2.42
  -2   0  -6  135.66    2.68
  -2   0  -6  130.04    2.57
  -3   0  -6   22.32    0.53
  -3   0  -6   21.99    0.64
  -3   0  -6   20.54    0.63
  -4   0  -6    2.21    0.29
  -4   0  -6    3.21    0.36
  -4   0  -6    2.85    0.37
   5  -1  -6    0.04    0.40
   5  -1  -6   -0.05    0.42
   4  -1  -6    7.80    0.54
   4  -1  -6    7.82    0.51
  -4   1   6    8.35    0.45
   3  -1  -6   17.48    0.60
   3  -1  -6   18.63    0.56
  -3   1   6   18.10    0.53
   2  -1  -6    0.52    0.21
   2  -1  -6    0.35    0.19
  -2   1   6    0.08    0.18
   1  -1  -6    8.30    0.34
   1  -1  -6    8.11    0.23
   1  -1  -6    8.30    0.32
  -1   1   6    8.76    0.29
   0  -1  -6    6.16    0.22
   0  -1  -6    5.56    0.29
   0  -1  -6    6.00    0.26
  -1  -1  -6   16.92    0.49
  -1  -1  -6   18.01    0.44
  -1  -1  -6   17.48    0.50
  -2  -1  -6    0.01    0.19
  -2  -1  -6    0.12    0.23
  -2  -1  -6    0.31    0.24
  -2  -1  -6    0.13    0.13
  -3  -1  -6    3.21    0.32
  -3  -1  -6    3.00    0.29
  -3  -1  -6    3.21    0.24
  -4  -1  -6    3.14    0.39
  -4  -1  -6    2.49    0.29
  -4  -1  -6    2.26    0.36
   5  -2  -6    1.30    0.42
   5  -2  -6    1.18    0.48
   4  -2  -6   15.84    0.61
   4  -2  -6   14.57    0.69
   3  -2  -6   23.45    0.68
   3  -2  -6   23.51    0.71
  -3   2   6   23.78    0.60
   2  -2  -6   41.16    0.89
   2  -2  -6   39.71    0.97
  -2   2   6   41.62    0.86
   1  -2  -6  108.77    2.06
   1  -2  -6  111.61    2.24
   1  -2  -6  107.98    2.26
  -1   2   6  109.87    2.03
   0  -2  -6  167.16    3.32
   0  -2  -6  162.61    3.33
   0  -2  -6  165.58    3.12
  -1  -2  -6   55.02    1.02
  -1  -2  -6   54.65    1.10
  -1  -2  -6   53.16    1.21
  -1  -2  -6   53.54    1.20
  -2  -2  -6   23.61    0.70
  -2  -2  -6   23.91    0.53
  -2  -2  -6   24.09    0.61
  -2  -2  -6   22.92    0.66
  -3  -2  -6    1.19    0.21
  -3  -2  -6    0.74    0.31
  -3  -2  -6    1.42    0.28
  -4  -2  -6    0.25    0.37
  -4  -2  -6    0.11    0.26
  -4  -2  -6    0.10    0.33
   5  -3  -6    0.85    0.43
   5  -3  -6    0.84    0.47
   4  -3  -6    1.54    0.36
   4  -3  -6    1.45    0.39
   3  -3  -6   11.66    0.46
   3  -3  -6   11.25    0.53
   3  -3  -6   11.90    0.55
  -3   3   6   11.41    0.46
   2  -3  -6   34.58    0.81
   2  -3  -6   33.84    0.85
   2  -3  -6   32.54    0.78
  -2   3   6   33.94    0.74
   1  -3  -6  107.79    2.20
   1  -3  -6  104.90    2.21
   1  -3  -6  104.21    2.01
  -1   3   6  106.97    1.97
   0  -3  -6  163.21    3.25
   0  -3  -6  158.96    3.03
   0  -3  -6  158.16    3.26
  -1  -3  -6  120.05    2.46
  -1  -3  -6  119.34    2.30
  -1  -3  -6  117.42    2.49
  -2  -3  -6   22.97    0.68
  -2  -3  -6   22.93    0.53
  -2  -3  -6   23.92    0.73
  -2  -3  -6   22.23    0.61
  -3  -3  -6    5.93    0.36
  -3  -3  -6    5.59    0.37
  -3  -3  -6    5.77    0.41
  -4  -3  -6    4.20    0.45
  -4  -3  -6    4.43    0.43
  -4  -3  -6    4.06    0.34
   5  -4  -6    0.15    0.47
   4  -4  -6    1.03    0.40
   4  -4  -6    1.36    0.37
   3  -4  -6    2.21    0.34
   3  -4  -6    1.75    0.30
   3  -4  -6    1.83    0.33
   2  -4  -6    0.33    0.25
   2  -4  -6    0.22    0.27
   2  -4  -6    0.40    0.26
   1  -4  -6    2.54    0.27
   1  -4  -6    1.28    0.26
   1  -4  -6    0.85    0.27
   0  -4  -6   42.92    1.04
   0  -4  -6   43.67    1.05
   0  -4  -6   44.38    0.89
  -1  -4  -6   12.50    0.52
  -1  -4  -6   12.85    0.41
  -1  -4  -6   12.55    0.58
  -2  -4  -6    3.32    0.36
  -2  -4  -6    2.90    0.27
  -2  -4  -6    3.45    0.40
  -2  -4  -6    3.60    0.23
  -3  -4  -6    2.90    0.41
  -3  -4  -6    2.58    0.34
  -3  -4  -6    3.16    0.27
  -4  -4  -6    2.71    0.47
  -4  -4  -6    3.09    0.34
  -4  -4  -6    2.78    0.41
   5  -5  -6    0.94    0.51
   4  -5  -6    4.05    0.46
   4  -5  -6    3.82    0.46
   3  -5  -6    2.92    0.35
   3  -5  -6    3.00    0.40
   3  -5  -6    2.85    0.35
   2  -5  -6   15.00    0.54
   2  -5  -6   13.51    0.54
   2  -5  -6   15.48    0.64
   1  -5  -6    5.68    0.38
   1  -5  -6    4.61    0.36
   1  -5  -6    4.95    0.35
   0  -5  -6   29.05    0.87
   0  -5  -6   30.20    0.84
  -1  -5  -6   12.45    0.64
  -1  -5  -6   11.98    0.41
  -1  -5  -6   11.45    0.54
  -2  -5  -6    1.36    0.39
  -2  -5  -6    0.56    0.34
  -2  -5  -6    1.26    0.26
  -3  -5  -6   -0.08    0.30
  -3  -5  -6   -0.03    0.37
  -3  -5  -6    0.18    0.25
   4  -6  -6   -0.02    0.42
   4  -6  -6    0.57    0.43
   3  -6  -6    5.05    0.43
   3  -6  -6    4.47    0.46
   3  -6  -6    4.75    0.41
   2  -6  -6   22.90    0.74
   2  -6  -6   23.33    0.70
   2  -6  -6   23.84    0.82
   1  -6  -6   27.62    0.82
   1  -6  -6   29.46    0.85
   1  -6  -6   26.74    0.74
   0  -6  -6   46.18    1.14
   0  -6  -6   46.14    1.22
  -1  -6  -6   19.74    0.57
  -1  -6  -6   20.43    0.78
  -1  -6  -6   18.89    0.70
  -2  -6  -6    8.04    0.56
  -2  -6  -6    7.57    0.46
  -2  -6  -6    6.13    0.49
  -3  -6  -6    6.49    0.37
  -3  -6  -6    6.00    0.51
  -3  -6  -6    7.49    0.47
   4  -7  -6   -0.23    0.46
   4  -7  -6    0.40    0.44
   3  -7  -6    0.49    0.36
   3  -7  -6    0.04    0.40
   3  -7  -6   -0.07    0.40
   2  -7  -6    2.23    0.37
   2  -7  -6    2.40    0.44
   2  -7  -6    1.98    0.40
   1  -7  -6   18.77    0.73
   1  -7  -6   17.65    0.76
   0  -7  -6    8.47    0.62
   0  -7  -6    8.34    0.60
  -1  -7  -6    5.75    0.48
  -1  -7  -6    5.34    0.54
  -2  -7  -6    3.72    0.37
  -2  -7  -6    4.34    0.46
  -2  -7  -6    4.44    0.56
   4  -8  -6    0.70    0.52
   3  -8  -6    1.13    0.50
   3  -8  -6    1.17    0.43
   3  -8  -6    0.63    0.47
   2  -8  -6    0.76    0.46
   2  -8  -6    0.21    0.43
   2  -8  -6    0.91    0.37
   1  -8  -6    1.58    0.43
   1  -8  -6    1.07    0.42
   0  -8  -6    3.84    0.52
   0  -8  -6    3.61    0.44
  -1  -8  -6    0.46    0.40
  -1  -8  -6    1.54    0.51
  -2  -8  -6    1.91    0.54
  -2  -8  -6    1.70    0.48
   3  -9  -6    0.13    0.51
   3  -9  -6    0.41    0.50
   3  -9  -6    0.99    0.44
   2  -9  -6    1.93    0.50
   2  -9  -6    1.49    0.50
   2  -9  -6    0.98    0.40
   1  -9  -6    4.00    0.54
   1  -9  -6    4.75    0.53
   0  -9  -6    6.09    0.61
   0  -9  -6    6.95    0.55
  -1  -9  -6    7.16    0.67
  -1  -9  -6    7.08    0.57
   2 -10  -6    0.97    0.49
   2 -10  -6    1.24    0.50
   1 -10  -6    1.62    0.48
   1 -10  -6    0.79    0.50
   0 -10  -6    2.93    0.51
   0 -10  -6    3.29    0.58
  -1  14  -7    0.72    0.43
   1 -14   7    1.30    0.54
  -1 -13   7    1.13    0.42
   0 -13   7    2.52    0.47
  -1  13  -7    3.21    0.44
   1 -13   7    4.11    0.53
  -2  13  -7    0.85    0.40
   2 -13   7    1.16    0.49
   3 -13   7    0.12    0.51
  -2 -12   7   -0.30    0.40
  -1 -12   7    0.42    0.38
  -1 -12   7   -0.04    0.35
   0 -12   7    2.86    0.43
  -1  12  -7    1.04    0.38
   1 -12   7    1.58    0.42
  -2  12  -7    0.77    0.39
   2 -12   7    0.25    0.41
   3 -12   7   -0.39    0.44
  -2 -11   7    7.63    0.52
  -1 -11   7    8.60    0.55
  -1 -11   7    8.92    0.55
   0 -11   7   10.96    0.62
  -1  11  -7    2.86    0.39
   1 -11   7    3.20    0.41
  -2  11  -7    4.79    0.42
   2 -11   7    5.19    0.45
  -3  11  -7    1.00    0.37
   3 -11   7    0.15    0.41
   4 -11   7   -0.46    0.50
  -3 -10   7    1.94    0.44
  -2 -10   7    9.16    0.61
  -1 -10   7   13.35    0.57
  -1 -10   7   13.37    0.56
   0 -10   7   25.87    0.76
  -1  10  -7    7.03    0.48
   1 -10   7    6.88    0.42
  -2  10  -7    9.11    0.56
   2 -10   7    8.79    0.60
  -3  10  -7    3.30    0.39
   3 -10   7    2.82    0.44
   4 -10   7    2.09    0.49
  -3  -9   7    0.01    0.39
  -2  -9   7    0.30    0.32
  -2  -9   7    0.09    0.28
  -1  -9   7    0.89    0.29
  -1  -9   7    1.32    0.28
   0  -9   7   24.06    0.68
  -1   9  -7    0.93    0.29
   1  -9   7    0.25    0.26
  -2   9  -7    0.50    0.30
   2  -9   7    0.90    0.30
  -3   9  -7    4.21    0.39
   3  -9   7    5.13    0.42
  -4   9  -7    0.91    0.37
   4  -9   7    0.97    0.41
  -4  -8   7    0.99    0.45
  -4  -8   7    0.93    0.33
  -3  -8   7    9.65    0.63
  -2  -8   7   19.25    0.67
  -2  -8   7   18.37    0.58
  -1  -8   7   14.73    0.53
  -1  -8   7   14.06    0.50
   0  -8   7   69.48    1.40
  -1   8  -7    1.92    0.30
   1  -8   7    1.34    0.26
  -2   8  -7    7.63    0.45
   2  -8   7    7.21    0.45
  -3   8  -7   -0.08    0.31
   3  -8   7    0.53    0.32
  -4   8  -7    0.52    0.35
   4  -8   7    0.50    0.38
  -4  -7   7    3.48    0.33
  -4  -7   7    4.40    0.50
  -3  -7   7   20.58    0.74
  -2  -7   7   68.44    1.49
  -2  -7   7   69.14    1.39
  -1  -7   7    1.88    0.27
  -1  -7   7    2.55    0.25
   0  -7   7  179.79    3.31
  -1   7  -7   53.88    1.19
   1  -7   7   55.61    1.12
  -2   7  -7   37.79    0.93
   2  -7   7   39.72    0.88
  -3   7  -7    8.57    0.51
  -3   7  -7    8.76    0.42
   3  -7   7    9.21    0.48
  -4   7  -7    1.56    0.35
  -4   7  -7    1.62    0.37
  -5   7  -7    1.15    0.46
  -5   7  -7    1.44    0.42
  -4  -6   7    0.33    0.39
  -3  -6   7    0.31    0.27
  -3  -6   7    0.11    0.30
  -2  -6   7   18.02    0.58
  -2  -6   7   17.71    0.53
  -1  -6   7   26.89    0.65
  -1  -6   7   26.87    0.69
   0   6  -7    7.30    0.38
   0  -6   7    7.38    0.34
  -1   6  -7   46.29    1.03
   1  -6   7   46.68    0.96
  -2   6  -7   61.92    1.29
  -2   6  -7   56.25    1.23
   2  -6   7   60.28    1.20
  -3   6  -7    7.55    0.48
  -3   6  -7    7.12    0.44
   3  -6   7    7.64    0.41
  -4   6  -7    3.28    0.40
  -4   6  -7    3.68    0.38
  -5   6  -7    0.41    0.42
  -5   6  -7    0.73    0.47
  -4  -5   7    2.42    0.41
  -3  -5   7   14.28    0.57
  -3  -5   7   14.09    0.50
  -2  -5   7   27.54    0.66
  -2  -5   7   28.05    0.72
  -1  -5   7   70.58    1.46
  -1  -5   7   71.39    1.39
   0   5  -7    1.42    0.22
   0  -5   7    0.74    0.18
  -1   5  -7    0.79    0.20
   1  -5   7    0.59    0.17
  -2   5  -7    0.20    0.22
  -2   5  -7    0.53    0.19
   2  -5   7    0.45    0.18
  -3   5  -7    3.71    0.31
  -3   5  -7    4.11    0.33
   3  -5   7    4.51    0.28
  -4   5  -7    2.26    0.37
  -4   5  -7    1.84    0.36
  -5   5  -7    0.17    0.42
  -5   5  -7    0.06    0.41
  -4  -4   7   13.31    0.64
  -3  -4   7   21.29    0.60
  -3  -4   7   22.38    0.65
   2   4  -7   69.85    1.34
  -2  -4   7   72.25    1.39
  -2  -4   7   69.92    1.45
   1   4  -7  248.76    4.37
  -1  -4   7  242.20    4.67
  -1  -4   7  245.97    4.45
   0   4  -7  149.72    2.94
   0  -4   7  155.07    2.80
  -1   4  -7   76.62    1.51
  -1   4  -7   73.43    1.51
   1  -4   7   73.04    1.42
  -2   4  -7   42.96    0.96
  -2   4  -7   42.19    0.93
   2  -4   7   42.41    0.87
  -3   4  -7   13.44    0.47
  -3   4  -7   12.81    0.50
  -4   4  -7    4.61    0.39
  -4   4  -7    5.49    0.42
  -5   4  -7    0.18    0.42
  -5   4  -7    0.83    0.43
  -4  -3   7    4.83    0.35
   3   3  -7    4.48    0.30
   3   3  -7    4.43    0.32
  -3  -3   7    4.83    0.31
  -3  -3   7    5.19    0.31
   2   3  -7   91.38    1.71
   2   3  -7   90.67    1.88
  -2  -3   7   91.17    1.74
  -2  -3   7   92.46    1.82
   1   3  -7    5.76    0.26
   1   3  -7    5.73    0.25
  -1  -3   7    5.62    0.30
   0   3  -7  291.30    5.64
   0  -3   7  306.33    5.38
  -1   3  -7  189.29    3.66
  -1   3  -7  186.06    3.55
   1  -3   7  180.69    3.36
  -2   3  -7   74.60    1.56
  -2   3  -7   74.77    1.54
   2  -3   7   76.34    1.43
  -3   3  -7   28.92    0.74
  -3   3  -7   26.55    0.73
  -4   3  -7    6.89    0.50
  -4   3  -7    7.02    0.45
  -5   3  -7   -0.75    0.44
  -5   3  -7   -0.11    0.42
   5   2  -7    0.49    0.43
   4   2  -7    0.45    0.32
   4   2  -7    0.23    0.33
  -4  -2   7    0.51    0.29
   3   2  -7   17.45    0.54
   3   2  -7   16.50    0.57
  -3  -2   7   16.62    0.51
   2   2  -7    0.16    0.19
   2   2  -7    0.25    0.18
  -2  -2   7    0.52    0.17
  -2  -2   7    0.18    0.19
   1   2  -7   13.05    0.37
   1   2  -7   12.89    0.39
   1   2  -7   12.86    0.38
  -1  -2   7   12.93    0.39
   0   2  -7   42.55    0.92
   0   2  -7   45.18    0.94
   0  -2   7   43.90    0.88
  -1   2  -7    5.71    0.28
  -1   2  -7    5.74    0.30
  -2   2  -7   21.27    0.58
  -2   2  -7   20.42    0.55
  -3   2  -7    5.78    0.42
  -3   2  -7    5.45    0.39
  -4   2  -7    1.23    0.37
  -4   2  -7    1.44    0.35
  -5   2  -7   -0.21    0.42
  -5   2  -7   -0.34    0.43
   5   1  -7    1.14    0.44
   5   1  -7    1.68    0.44
   4   1  -7    1.60    0.35
   4   1  -7    2.07    0.38
  -4  -1   7    1.92    0.31
   3   1  -7   91.74    1.79
   3   1  -7   92.09    1.97
  -3  -1   7   92.17    1.77
   2   1  -7  108.30    2.21
   2   1  -7  107.64    2.01
  -2  -1   7  105.99    2.01
   1   1  -7   31.77    0.67
   1   1  -7   30.43    0.73
   1   1  -7   30.83    0.68
  -1  -1   7   30.66    0.67
   0   1  -7   37.48    0.82
   0   1  -7   40.27    0.87
   0  -1   7   39.38    0.80
  -1   1  -7  156.63    3.03
  -1   1  -7  158.97    3.15
  -2   1  -7    3.41    0.26
  -2   1  -7    3.16    0.26
  -2   1  -7    3.05    0.18
  -3   1  -7    6.42    0.42
  -3   1  -7    6.42    0.33
  -3   1  -7    6.71    0.42
  -4   1  -7    1.27    0.36
  -4   1  -7    1.20    0.28
  -4   1  -7    1.27    0.36
   5   0  -7    0.80    0.43
   5   0  -7    0.57    0.46
   4   0  -7    5.11    0.44
   4   0  -7    5.50    0.40
  -4   0   7    5.23    0.37
   3   0  -7   26.45    0.77
   3   0  -7   26.59    0.71
  -3   0   7   25.01    0.65
   2   0  -7   78.86    1.68
   2   0  -7   80.16    1.53
  -2   0   7   78.27    1.52
   1   0  -7  109.42    2.12
   1   0  -7  110.43    2.07
   1   0  -7  112.16    2.28
  -1   0   7  111.43    2.06
   0   0  -7  154.88    3.10
   0   0  -7  153.85    2.94
   0   0   7  153.68    2.82
  -1   0  -7  119.40    2.45
  -1   0  -7  119.10    2.33
  -1   0  -7  122.82    2.45
  -2   0  -7  103.07    2.02
  -2   0  -7  103.42    2.10
  -2   0  -7   97.54    1.88
  -3   0  -7   14.66    0.56
  -3   0  -7   14.30    0.45
  -3   0  -7   14.31    0.55
  -4   0  -7    1.83    0.38
  -4   0  -7    1.74    0.35
  -4   0  -7    1.79    0.29
   5  -1  -7    0.84    0.44
   5  -1  -7    1.19    0.45
   4  -1  -7    6.54    0.44
   4  -1  -7    5.79    0.46
  -4   1   7    6.81    0.39
   3  -1  -7    2.62    0.31
   3  -1  -7    2.47    0.34
  -3   1   7    2.65    0.28
   2  -1  -7    0.12    0.23
   2  -1  -7    0.18    0.21
  -2   1   7    0.11    0.21
   1  -1  -7    7.32    0.39
   1  -1  -7    6.87    0.23
   1  -1  -7    7.62    0.34
  -1   1   7    6.65    0.30
   0  -1  -7   64.52    1.42
   0  -1  -7   66.19    1.41
   0  -1  -7   66.66    1.30
   0   1   7   66.94    1.26
  -1  -1  -7   67.33    1.43
  -1  -1  -7   65.09    1.43
  -1  -1  -7   67.11    1.34
  -2  -1  -7   35.10    0.88
  -2  -1  -7   34.63    0.72
  -2  -1  -7   34.99    0.82
  -3  -1  -7    2.90    0.24
  -3  -1  -7    2.26    0.31
  -3  -1  -7    2.43    0.34
  -4  -1  -7    0.32    0.40
  -4  -1  -7    0.31    0.28
  -4  -1  -7    0.27    0.35
   5  -2  -7    1.14    0.48
   4  -2  -7    4.74    0.44
   4  -2  -7    4.53    0.46
  -4   2   7    4.77    0.40
   3  -2  -7   15.68    0.57
   3  -2  -7   15.26    0.64
  -3   2   7   16.03    0.52
   2  -2  -7    8.00    0.47
   2  -2  -7    8.26    0.41
  -2   2   7    8.01    0.40
   1  -2  -7   39.35    0.96
   1  -2  -7   40.60    0.91
   1  -2  -7   38.06    0.87
  -1   2   7   40.48    0.83
   0  -2  -7   22.28    0.61
   0  -2  -7   22.34    0.63
   0  -2  -7   21.32    0.50
   0   2   7   22.22    0.51
  -1  -2  -7    0.27    0.16
  -1  -2  -7    0.06    0.25
  -1  -2  -7    0.51    0.27
  -2  -2  -7    2.62    0.19
  -2  -2  -7    2.76    0.26
  -2  -2  -7    2.67    0.32
  -3  -2  -7    0.82    0.34
  -3  -2  -7    0.60    0.28
  -3  -2  -7    1.01    0.23
  -4  -2  -7    0.48    0.37
  -4  -2  -7    0.19    0.27
  -4  -2  -7    0.87    0.40
   5  -3  -7    1.05    0.49
   4  -3  -7    6.36    0.50
   4  -3  -7    5.97    0.46
   4  -3  -7    6.40    0.51
   3  -3  -7   18.30    0.64
   3  -3  -7   19.96    0.70
   3  -3  -7   19.65    0.63
  -3   3   7   19.48    0.61
   2  -3  -7   24.87    0.70
   2  -3  -7   24.75    0.75
   2  -3  -7   24.11    0.68
  -2   3   7   23.92    0.63
   1  -3  -7   78.92    1.70
   1  -3  -7   79.02    1.73
   1  -3  -7   81.60    1.59
  -1   3   7   79.36    1.53
   0  -3  -7   15.95    0.56
   0  -3  -7   16.72    0.57
   0  -3  -7   16.66    0.41
   0   3   7   15.58    0.43
  -1  -3  -7   86.85    1.74
  -1  -3  -7   88.07    1.92
  -1  -3  -7   88.37    1.89
  -2  -3  -7   35.18    0.98
  -2  -3  -7   33.36    0.82
  -2  -3  -7   34.55    0.91
  -2  -3  -7   32.62    0.72
  -3  -3  -7    7.24    0.40
  -3  -3  -7    6.92    0.47
  -3  -3  -7    6.22    0.46
  -4  -3  -7    0.17    0.29
  -4  -3  -7    0.59    0.42
  -4  -3  -7    0.64    0.40
   5  -4  -7    1.25    0.51
   4  -4  -7    0.58    0.41
   4  -4  -7    0.37    0.39
   4  -4  -7    0.40    0.37
   3  -4  -7    0.40    0.37
   3  -4  -7    0.32    0.32
   3  -4  -7   -0.19    0.31
   2  -4  -7    3.10    0.39
   2  -4  -7    3.15    0.32
   2  -4  -7    3.02    0.34
  -2   4   7    3.30    0.32
   1  -4  -7   29.73    0.78
   1  -4  -7   27.27    0.80
   1  -4  -7   28.63    0.74
   0  -4  -7   30.33    0.84
   0  -4  -7   30.95    0.84
  -1  -4  -7   35.21    0.99
  -1  -4  -7   34.99    0.79
  -1  -4  -7   35.17    0.96
  -2  -4  -7   11.28    0.68
  -2  -4  -7   10.63    0.38
  -2  -4  -7   10.68    0.47
  -2  -4  -7   10.29    0.62
  -3  -4  -7    4.00    0.31
  -3  -4  -7    3.38    0.44
  -3  -4  -7    3.96    0.37
   4  -5  -7    0.38    0.43
   4  -5  -7   -0.09    0.45
   3  -5  -7    4.73    0.42
   3  -5  -7    5.47    0.46
   3  -5  -7    5.47    0.42
   2  -5  -7    6.43    0.46
   2  -5  -7    5.29    0.40
   2  -5  -7    5.07    0.41
   1  -5  -7    1.26    0.30
   1  -5  -7    1.20    0.35
   1  -5  -7    1.57    0.34
   0  -5  -7    4.09    0.41
   0  -5  -7    3.47    0.38
  -1  -5  -7    1.91    0.38
  -1  -5  -7    1.87    0.24
  -1  -5  -7    1.72    0.43
  -2  -5  -7   -0.18    0.40
  -2  -5  -7    0.01    0.26
  -2  -5  -7    0.27    0.38
  -3  -5  -7    0.21    0.42
  -3  -5  -7   -0.41    0.33
  -3  -5  -7    0.46    0.26
   4  -6  -7    0.30    0.46
   3  -6  -7    7.57    0.51
   3  -6  -7    6.10    0.49
   3  -6  -7    6.91    0.53
   2  -6  -7    9.96    0.60
   2  -6  -7    9.80    0.63
   2  -6  -7    9.02    0.62
   1  -6  -7    5.65    0.45
   1  -6  -7    5.92    0.48
   0  -6  -7   12.44    0.66
   0  -6  -7   12.08    0.70
  -1  -6  -7   21.11    0.77
  -1  -6  -7   20.54    0.84
  -2  -6  -7   12.68    0.76
  -2  -6  -7   10.66    0.54
  -2  -6  -7   10.22    0.65
   4  -7  -7   -0.45    0.47
   3  -7  -7    2.30    0.48
   3  -7  -7    2.28    0.44
   3  -7  -7    2.50    0.52
   2  -7  -7   -0.44    0.44
   2  -7  -7    0.60    0.38
   2  -7  -7   -0.13    0.40
   1  -7  -7    7.67    0.53
   1  -7  -7    6.74    0.54
   0  -7  -7   14.30    0.81
   0  -7  -7   14.78    0.69
  -1  -7  -7    9.87    0.67
  -1  -7  -7    8.29    0.58
  -2  -7  -7    7.97    0.65
  -2  -7  -7    7.16    0.58
   3  -8  -7   -0.23    0.50
   3  -8  -7   -0.01    0.54
   2  -8  -7    1.05    0.46
   2  -8  -7    0.75    0.43
   2  -8  -7    0.03    0.45
   1  -8  -7    0.77    0.45
   1  -8  -7   -0.09    0.42
   0  -8  -7    0.18    0.48
   0  -8  -7    0.20    0.45
  -1  -8  -7    1.14    0.56
  -1  -8  -7    0.17    0.48
   3  -9  -7    0.76    0.56
   2  -9  -7    0.69    0.52
   2  -9  -7    0.35    0.51
   1  -9  -7    2.75    0.53
   1  -9  -7    2.68    0.56
   0  -9  -7    2.94    0.60
   0  -9  -7    1.33    0.50
   1 -14   8    4.85    0.61
  -1 -13   8    5.76    0.51
  -1 -13   8    5.84    0.56
   0 -13   8    1.74    0.48
   1 -13   8    7.09    0.60
  -2  13  -8    1.21    0.44
   2 -13   8    1.39    0.51
  -1 -12   8    1.88    0.44
  -1 -12   8    1.77    0.41
   0 -12   8    1.98    0.44
  -1  12  -8   -0.14    0.39
   1 -12   8    0.28    0.43
  -2  12  -8    0.41    0.40
   2 -12   8    0.54    0.45
  -3  12  -8    0.64    0.42
   3 -12   8   -0.25    0.46
  -2 -11   8    4.36    0.46
  -1 -11   8    9.12    0.60
  -1 -11   8    9.96    0.58
   0 -11   8    4.35    0.43
  -1  11  -8    0.60    0.38
   1 -11   8    1.18    0.39
  -2  11  -8    8.61    0.62
   2 -11   8    6.28    0.50
  -3  11  -8   -0.05    0.39
   3 -11   8    0.11    0.44
   4 -11   8   -0.27    0.52
  -3 -10   8    1.41    0.46
  -2 -10   8   15.68    0.64
  -2 -10   8   13.79    0.65
  -1 -10   8   22.60    0.75
  -1 -10   8   22.27    0.71
   0 -10   8   20.18    0.66
  -1  10  -8   39.44    1.02
   1 -10   8   41.12    1.00
  -2  10  -8    5.77    0.44
   2 -10   8    6.61    0.46
  -3  10  -8    2.51    0.40
   3 -10   8    2.57    0.44
  -4  10  -8    0.14    0.40
   4 -10   8    0.05    0.46
  -3  -9   8    1.32    0.42
  -2  -9   8    9.20    0.53
  -2  -9   8    9.19    0.54
  -1  -9   8   22.04    0.67
  -1  -9   8   22.81    0.70
   0  -9   8    0.26    0.27
  -1   9  -8   38.39    0.98
   1  -9   8   37.44    0.92
  -2   9  -8    5.86    0.43
   2  -9   8    7.29    0.48
  -3   9  -8    5.78    0.44
   3  -9   8    5.00    0.44
  -4   9  -8    0.21    0.38
   4  -9   8    0.07    0.42
  -3  -8   8    1.14    0.39
  -2  -8   8   13.87    0.55
  -2  -8   8   13.94    0.58
  -1  -8   8    0.28    0.27
  -1  -8   8    0.26    0.25
   0  -8   8    8.24    0.44
  -1   8  -8    5.93    0.40
   1  -8   8    6.66    0.43
  -2   8  -8   -0.20    0.30
   2  -8   8    0.34    0.27
  -3   8  -8    2.52    0.37
   3  -8   8    2.88    0.35
  -4   8  -8   -0.19    0.37
   4  -8   8    0.78    0.42
  -4  -7   8    3.63    0.49
  -3  -7   8    7.11    0.50
  -3  -7   8    7.49    0.53
  -2  -7   8   47.93    1.13
  -2  -7   8   46.96    1.05
  -1  -7   8   76.52    1.57
  -1  -7   8   72.68    1.48
   0   7  -8   97.00    1.94
   0  -7   8   93.93    1.83
  -1   7  -8   39.72    0.95
   1  -7   8   38.46    0.87
  -2   7  -8    8.67    0.51
   2  -7   8    9.18    0.45
  -3   7  -8    1.50    0.34
   3  -7   8    2.33    0.31
  -4   7  -8    0.96    0.37
  -4   7  -8    1.82    0.40
  -4  -6   8    2.40    0.44
  -3  -6   8   13.04    0.54
  -3  -6   8   13.18    0.61
  -2  -6   8    8.21    0.47
  -2  -6   8    7.84    0.44
  -1  -6   8  146.49    2.82
  -1  -6   8  157.17    2.98
   0   6  -8   97.45    1.91
   0  -6   8   91.52    1.80
  -1   6  -8   47.21    1.07
   1  -6   8   47.26    0.98
  -2   6  -8   19.32    0.62
   2  -6   8   18.25    0.54
  -3   6  -8   16.33    0.58
  -3   6  -8   18.48    0.65
   3  -6   8   16.69    0.55
  -4   6  -8    1.52    0.38
  -4   6  -8    1.15    0.40
  -4  -5   8    0.64    0.38
  -3  -5   8    2.34    0.32
  -3  -5   8    2.19    0.32
  -2  -5   8    5.43    0.37
  -2  -5   8    5.67    0.33
  -1  -5   8    3.87    0.27
   0   5  -8    1.91    0.25
   0  -5   8    1.89    0.22
  -1   5  -8   20.51    0.59
   1  -5   8   21.28    0.53
  -2   5  -8    4.96    0.34
  -2   5  -8    4.84    0.33
   2  -5   8    5.08    0.33
  -3   5  -8    4.43    0.33
  -3   5  -8    4.15    0.35
  -4   5  -8    4.08    0.42
  -4   5  -8    4.05    0.42
  -4  -4   8    6.54    0.43
  -3  -4   8   19.29    0.61
  -3  -4   8   18.89    0.60
  -2  -4   8   49.60    1.08
  -2  -4   8   49.03    1.05
   1   4  -8   95.09    1.76
  -1  -4   8   96.33    1.83
   0   4  -8  118.05    2.32
   0   4  -8  114.23    2.29
   0  -4   8  117.98    2.19
  -1   4  -8   13.60    0.45
  -1   4  -8   13.23    0.38
   1  -4   8   12.91    0.41
  -2   4  -8   14.04    0.45
  -2   4  -8   14.19    0.49
   2  -4   8   14.14    0.42
  -3   4  -8    0.91    0.29
  -3   4  -8    1.22    0.29
  -4   4  -8   -0.25    0.34
  -4   4  -8   -0.11    0.37
  -4  -3   8    2.33    0.35
   3   3  -8   14.04    0.51
   3   3  -8   13.41    0.59
  -3  -3   8   13.09    0.52
  -3  -3   8   13.96    0.51
   2   3  -8  207.11    3.77
   2   3  -8  204.73    4.14
  -2  -3   8  212.89    3.81
  -2  -3   8  207.66    3.98
   1   3  -8  158.33    3.07
   1   3  -8  160.53    3.17
   1   3  -8  161.68    2.89
  -1  -3   8  156.19    2.93
   0   3  -8   80.59    1.60
   0   3  -8   74.89    1.58
   0  -3   8   80.00    1.51
  -1   3  -8   46.61    1.01
  -1   3  -8   45.88    1.01
   1  -3   8   47.92    0.95
  -2   3  -8   99.24    2.14
  -2   3  -8  105.53    2.10
   2  -3   8  110.03    1.99
  -3   3  -8    3.46    0.33
  -3   3  -8    2.78    0.31
  -4   3  -8    3.06    0.41
  -4   3  -8    2.65    0.40
   4   2  -8   -0.08    0.35
   4   2  -8    0.16    0.34
  -4  -2   8    0.09    0.32
   3   2  -8    3.85    0.32
   3   2  -8    4.16    0.35
  -3  -2   8    3.60    0.32
   2   2  -8   12.14    0.42
   2   2  -8   12.17    0.45
  -2  -2   8   11.80    0.43
   1   2  -8   23.40    0.56
   1   2  -8   23.21    0.60
   1   2  -8   23.35    0.57
  -1  -2   8   23.69    0.57
   0   2  -8   39.44    0.88
   0   2  -8   41.26    0.90
   0  -2   8   40.58    0.84
  -1   2  -8   27.48    0.68
  -1   2  -8   27.97    0.67
   1  -2   8   28.52    0.63
  -2   2  -8   11.62    0.45
  -2   2  -8   11.22    0.44
  -3   2  -8   27.33    0.75
  -3   2  -8   27.47    0.75
  -4   2  -8    0.33    0.37
  -4   2  -8    1.66    0.40
   5   1  -8   -0.01    0.47
   5   1  -8    0.32    0.42
  -5  -1   8    1.28    0.38
   4   1  -8   10.27    0.59
   4   1  -8    9.86    0.63
  -4  -1   8   10.03    0.55
   3   1  -8    1.80    0.32
   3   1  -8    1.87    0.30
  -3  -1   8    2.12    0.29
   2   1  -8   60.99    1.36
   2   1  -8   62.60    1.24
  -2  -1   8   61.52    1.25
   1   1  -8   51.20    1.07
   1   1  -8   52.12    1.15
   1   1  -8   51.64    1.06
  -1  -1   8   53.54    1.06
   0   1  -8   58.55    1.21
   0   1  -8   59.62    1.27
   0  -1   8   59.10    1.16
  -1   1  -8    1.85    0.24
  -1   1  -8    1.87    0.22
  -1   1  -8    1.82    0.21
   1  -1   8    2.27    0.20
  -2   1  -8   -0.19    0.25
  -2   1  -8    0.02    0.22
  -3   1  -8    1.18    0.29
  -3   1  -8    1.26    0.22
  -3   1  -8    1.23    0.34
  -4   1  -8    0.43    0.37
  -4   1  -8    0.69    0.29
  -4   1  -8    0.51    0.40
   5   0  -8    0.17    0.48
  -5   0   8    0.49    0.41
   4   0  -8    8.77    0.60
   4   0  -8    7.97    0.58
  -4   0   8    8.52    0.54
   3   0  -8   28.87    0.84
   3   0  -8   29.43    0.78
  -3   0   8   29.83    0.73
   2   0  -8   70.25    1.41
   2   0  -8   71.12    1.55
  -2   0   8   71.30    1.40
   1   0  -8   63.61    1.38
   1   0  -8   62.12    1.25
   1   0  -8   61.93    1.25
  -1   0   8   64.14    1.25
   0   0  -8  204.27    4.05
   0   0  -8  200.82    3.84
   0   0   8  202.56    3.67
  -1   0  -8   29.79    0.74
  -1   0  -8   28.27    0.74
  -1   0  -8   29.20    0.67
  -2   0  -8    9.88    0.44
  -2   0  -8    9.79    0.46
  -3   0  -8   11.76    0.41
  -3   0  -8   11.04    0.54
  -3   0  -8   11.90    0.53
  -4   0  -8    1.17    0.37
  -4   0  -8    1.20    0.44
  -4   0  -8    1.01    0.29
   5  -1  -8    0.48    0.50
   4  -1  -8    1.33    0.38
   4  -1  -8    1.57    0.41
  -4   1   8    1.63    0.35
   3  -1  -8   12.80    0.57
   3  -1  -8   12.38    0.58
  -3   1   8   12.17    0.49
   2  -1  -8   21.23    0.60
   2  -1  -8   20.25    0.65
  -2   1   8   20.45    0.56
   1  -1  -8   17.78    0.56
   1  -1  -8   16.26    0.51
  -1   1   8   17.91    0.50
   0  -1  -8   66.52    1.41
   0  -1  -8   62.40    1.42
   0  -1  -8   65.23    1.29
   0   1   8   66.01    1.25
  -1  -1  -8   12.15    0.39
  -1  -1  -8   12.33    0.52
  -1  -1  -8   11.20    0.47
  -2  -1  -8   29.30    0.75
  -2  -1  -8   29.81    0.81
  -3  -1  -8   13.69    0.63
  -3  -1  -8   13.05    0.55
  -3  -1  -8   12.70    0.46
  -4  -1  -8    2.67    0.33
  -4  -1  -8    2.53    0.47
  -4  -1  -8    3.00    0.43
   5  -2  -8    0.14    0.51
   4  -2  -8    0.33    0.39
   4  -2  -8    0.66    0.38
  -4   2   8    0.27    0.35
   3  -2  -8    3.73    0.39
   3  -2  -8    3.46    0.40
  -3   2   8    3.36    0.34
   2  -2  -8    7.24    0.43
   2  -2  -8    6.36    0.38
   2  -2  -8    7.05    0.51
  -2   2   8    5.75    0.39
   1  -2  -8    6.87    0.40
   1  -2  -8    6.28    0.42
   1  -2  -8    6.67    0.37
  -1   2   8    6.30    0.34
   0  -2  -8    4.16    0.24
   0  -2  -8    4.42    0.32
   0  -2  -8    4.10    0.34
   0   2   8    4.97    0.29
  -1  -2  -8    2.57    0.34
  -1  -2  -8    2.55    0.32
  -1  -2  -8    2.35    0.23
  -2  -2  -8    3.19    0.39
  -2  -2  -8    2.66    0.29
  -3  -2  -8    0.46    0.31
  -3  -2  -8    0.06    0.38
  -4  -2  -8    0.48    0.30
  -4  -2  -8    0.38    0.44
  -4  -2  -8    0.15    0.38
   4  -3  -8    1.43    0.42
   4  -3  -8    1.94    0.39
   4  -3  -8    1.40    0.45
   3  -3  -8    7.69    0.46
   3  -3  -8    7.50    0.56
   3  -3  -8    6.63    0.46
  -3   3   8    7.58    0.50
   2  -3  -8   49.99    1.18
   2  -3  -8   52.30    1.27
   2  -3  -8   50.48    1.13
  -2   3   8   50.84    1.09
   1  -3  -8   49.08    1.09
   1  -3  -8   50.41    1.15
   1  -3  -8   48.59    1.18
  -1   3   8   48.01    1.02
   0  -3  -8   22.09    0.67
   0  -3  -8   21.81    0.69
  -1  -3  -8    5.48    0.33
  -1  -3  -8    6.14    0.45
  -1  -3  -8    6.04    0.42
  -2  -3  -8   15.10    0.65
  -2  -3  -8   15.11    0.54
  -3  -3  -8    3.73    0.39
  -3  -3  -8    3.88    0.49
   4  -4  -8    1.32    0.41
   4  -4  -8    0.92    0.48
   4  -4  -8    1.44    0.44
   3  -4  -8    2.53    0.44
   3  -4  -8    2.44    0.39
   3  -4  -8    2.33    0.40
   2  -4  -8   21.73    0.68
   2  -4  -8   21.25    0.77
   2  -4  -8   21.14    0.69
  -2   4   8   20.56    0.62
   1  -4  -8   16.78    0.62
   1  -4  -8   16.94    0.68
  -1   4   8   17.01    0.55
   0  -4  -8   17.71    0.66
   0  -4  -8   17.39    0.70
  -1  -4  -8   19.75    0.70
  -1  -4  -8   16.13    0.51
  -1  -4  -8   16.49    0.76
  -2  -4  -8   14.78    0.69
  -2  -4  -8   16.06    0.57
  -3  -4  -8    7.07    0.54
  -3  -4  -8    7.25    0.47
   4  -5  -8    0.13    0.48
   4  -5  -8    0.24    0.46
   3  -5  -8   -0.35    0.39
   3  -5  -8    0.10    0.40
   3  -5  -8   -0.06    0.44
   2  -5  -8    1.45    0.37
   2  -5  -8    1.40    0.44
   2  -5  -8    1.06    0.36
   1  -5  -8   17.11    0.71
   1  -5  -8   16.35    0.68
   0  -5  -8    1.01    0.40
   0  -5  -8    1.44    0.40
  -1  -5  -8    4.78    0.53
  -1  -5  -8    4.95    0.47
  -2  -5  -8    2.93    0.33
  -2  -5  -8    3.28    0.50
   4  -6  -8    0.31    0.49
   4  -6  -8   -0.04    0.51
   3  -6  -8    4.86    0.51
   3  -6  -8    6.27    0.53
   3  -6  -8    5.66    0.55
   2  -6  -8    4.89    0.45
   2  -6  -8    5.65    0.52
   2  -6  -8    4.43    0.47
   1  -6  -8    8.98    0.68
   1  -6  -8    9.47    0.68
   0  -6  -8   11.09    0.75
   0  -6  -8   11.85    0.71
  -1  -6  -8    3.56    0.56
  -1  -6  -8    3.75    0.50
  -2  -6  -8    0.50    0.45
  -2  -6  -8    0.57    0.32
   3  -7  -8    0.99    0.50
   3  -7  -8    1.16    0.52
   2  -7  -8    8.40    0.56
   2  -7  -8    8.68    0.60
   2  -7  -8    8.60    0.67
   1  -7  -8    2.69    0.51
   1  -7  -8    2.33    0.50
   0  -7  -8   11.93    0.79
   0  -7  -8   11.48    0.76
  -1  -7  -8    6.80    0.66
  -1  -7  -8    5.77    0.55
   3  -8  -8    0.18    0.55
   3  -8  -8    0.61    0.59
   2  -8  -8   -0.12    0.48
   2  -8  -8    0.61    0.49
   1  -8  -8    0.45    0.51
   1  -8  -8   -0.17    0.51
   0  -8  -8    1.02    0.58
   0  -8  -8    0.21    0.50
   0 -13   9    8.10    0.60
  -1  13  -9    1.48    0.45
   1 -13   9    1.01    0.49
  -2  13  -9    2.88    0.49
   2 -13   9    2.93    0.53
  -1 -12   9    3.22    0.48
  -1 -12   9    3.19    0.46
   0 -12   9    8.92    0.56
  -1  12  -9    2.10    0.44
   1 -12   9    1.56    0.45
  -2  12  -9    6.94    0.54
   2 -12   9    7.33    0.59
  -3  12  -9    0.93    0.45
   3 -12   9    1.07    0.53
  -2 -11   9    0.28    0.42
  -1 -11   9    0.68    0.39
  -1 -11   9    0.01    0.36
   0  11  -9    0.12    0.37
   0 -11   9   -0.12    0.37
  -1  11  -9    0.61    0.39
   1 -11   9   -0.21    0.39
  -2  11  -9    0.73    0.41
   2 -11   9    0.91    0.42
  -3  11  -9    0.43    0.42
   3 -11   9    1.08    0.49
  -2 -10   9    7.96    0.53
  -2 -10   9    8.26    0.50
  -1 -10   9   12.61    0.61
  -1 -10   9   12.73    0.64
   0  10  -9   14.01    0.67
   0 -10   9   14.84    0.64
  -1  10  -9   17.89    0.71
   1 -10   9   20.09    0.72
  -2  10  -9    6.88    0.49
   2 -10   9    5.95    0.47
  -3  10  -9    0.74    0.40
   3 -10   9    1.74    0.44
  -4  10  -9    0.25    0.43
   4 -10   9    0.12    0.49
  -3  -9   9    3.17    0.47
  -2  -9   9    7.85    0.50
  -2  -9   9    8.66    0.56
  -1  -9   9   31.32    0.89
  -1  -9   9   31.38    0.84
   0   9  -9   24.61    0.76
   0  -9   9   26.06    0.72
  -1   9  -9   50.10    1.21
   1  -9   9   52.28    1.15
  -2   9  -9    9.50    0.57
   2  -9   9    8.70    0.58
  -3   9  -9    4.02    0.44
   3  -9   9    3.47    0.43
  -4   9  -9    0.63    0.41
   4  -9   9    0.72    0.45
  -3  -8   9    0.11    0.38
  -3  -8   9    0.07    0.34
  -2  -8   9   -0.32    0.32
  -2  -8   9   -0.05    0.29
  -1  -8   9    1.13    0.31
  -1  -8   9    0.68    0.30
   0   8  -9   44.34    1.07
   0  -8   9   45.34    1.00
  -1   8  -9    5.43    0.40
   1  -8   9    6.24    0.38
  -2   8  -9    1.01    0.35
   2  -8   9    1.33    0.32
  -3   8  -9    0.10    0.34
   3  -8   9    0.21    0.34
  -4   8  -9    1.73    0.44
  -4  -7   9    3.90    0.50
  -3  -7   9   13.07    0.60
  -3  -7   9   11.96    0.64
  -2  -7   9    2.45    0.33
  -2  -7   9    2.01    0.33
  -1  -7   9   45.68    1.03
   0   7  -9   14.47    0.54
   0  -7   9   14.22    0.49
  -1   7  -9   25.40    0.74
   1  -7   9   25.56    0.68
  -2   7  -9    0.46    0.32
   2  -7   9    0.49    0.27
  -3   7  -9    4.26    0.41
   3  -7   9    4.14    0.37
  -4   7  -9   -0.03    0.38
  -4  -6   9    0.87    0.41
  -3  -6   9   14.92    0.62
  -3  -6   9   14.87    0.64
  -2  -6   9   36.07    0.90
  -2  -6   9   36.17    0.87
  -1  -6   9   47.28    1.02
   0   6  -9  122.58    2.40
   0  -6   9  117.20    2.27
  -1   6  -9   80.58    1.68
   1  -6   9   80.49    1.58
  -2   6  -9   20.16    0.66
   2  -6   9   18.26    0.56
  -3   6  -9    8.19    0.47
  -3   6  -9    8.64    0.56
  -4   6  -9   -0.01    0.40
  -4   6  -9   -0.26    0.38
  -4  -5   9   -0.37    0.36
  -3  -5   9    0.85    0.31
  -3  -5   9    0.83    0.31
  -2  -5   9   11.49    0.50
  -2  -5   9   10.51    0.46
   1   5  -9   96.57    1.95
  -1  -5   9   97.04    1.87
   0   5  -9   36.94    0.87
   0  -5   9   36.68    0.84
  -1   5  -9   15.63    0.56
   1  -5   9   15.00    0.48
  -2   5  -9   10.54    0.51
  -2   5  -9    9.22    0.42
   2  -5   9   10.38    0.41
  -3   5  -9    7.96    0.47
  -3   5  -9    8.59    0.55
  -4   5  -9    0.83    0.39
  -4   5  -9    0.34    0.38
  -4  -4   9    4.55    0.42
  -3  -4   9   13.45    0.56
  -3  -4   9   13.67    0.58
  -2  -4   9    1.48    0.28
  -2  -4   9    1.61    0.26
   1   4  -9    1.99    0.27
  -1  -4   9    2.44    0.27
   0   4  -9   17.63    0.54
   0   4  -9   17.85    0.48
   0  -4   9   16.70    0.51
  -1   4  -9    7.70    0.40
  -1   4  -9    8.54    0.34
   1  -4   9    8.22    0.37
  -2   4  -9    0.75    0.27
  -2   4  -9    0.51    0.24
   2  -4   9    0.38    0.21
  -3   4  -9    0.48    0.31
  -3   4  -9    0.51    0.32
  -4   4  -9    1.00    0.38
  -4   4  -9    0.69    0.37
  -4  -3   9    4.94    0.42
  -3  -3   9   18.65    0.63
   2   3  -9   11.48    0.46
   2   3  -9   11.39    0.44
  -2  -3   9   11.19    0.48
   1   3  -9  147.36    2.84
   1   3  -9  145.53    2.67
   1   3  -9  145.95    2.94
  -1  -3   9  145.89    2.73
   0   3  -9  125.40    2.51
   0   3  -9  124.99    2.45
   0  -3   9  124.08    2.34
  -1   3  -9  127.15    2.47
  -1   3  -9  123.93    2.53
   1  -3   9  124.91    2.34
  -2   3  -9   11.90    0.51
  -2   3  -9   10.91    0.46
  -3   3  -9    2.05    0.33
  -3   3  -9    2.48    0.35
  -4   3  -9   -0.29    0.39
  -4   3  -9    0.58    0.39
   4   2  -9   -0.18    0.39
  -4  -2   9    0.10    0.36
   3   2  -9    4.10    0.34
   3   2  -9    4.62    0.37
  -3  -2   9    4.53    0.35
   2   2  -9   29.37    0.71
   2   2  -9   29.28    0.77
  -2  -2   9   28.85    0.72
   1   2  -9   72.12    1.53
   1   2  -9   71.96    1.46
   1   2  -9   72.14    1.40
  -1  -2   9   72.20    1.42
   0   2  -9   51.88    1.11
   0   2  -9   52.44    1.14
   0  -2   9   52.87    1.07
  -1   2  -9  144.34    2.78
  -1   2  -9  139.96    2.88
   1  -2   9  143.01    2.63
  -2   2  -9    1.89    0.30
  -2   2  -9    1.84    0.27
  -3   2  -9    3.36    0.39
  -3   2  -9    2.54    0.35
  -4   2  -9    3.56    0.45
  -4   2  -9    4.29    0.45
   4   1  -9    2.38    0.42
   4   1  -9    2.47    0.41
  -4  -1   9    2.22    0.37
   3   1  -9    0.11    0.30
   3   1  -9    0.03    0.32
  -3  -1   9    0.30    0.30
   2   1  -9    0.14    0.25
   2   1  -9   -0.07    0.23
  -2  -1   9    0.17    0.24
   1   1  -9    0.60    0.23
   1   1  -9    0.14    0.21
   1   1  -9    0.74    0.19
  -1  -1   9    0.41    0.23
   0   1  -9   11.91    0.45
   0   1  -9   11.38    0.39
   0  -1   9   11.21    0.42
  -1   1  -9    1.92    0.26
  -1   1  -9    1.80    0.24
  -1   1  -9    1.81    0.25
   1  -1   9    1.61    0.22
  -2   1  -9    0.70    0.29
  -2   1  -9    0.49    0.26
  -3   1  -9    0.53    0.33
  -3   1  -9    0.25    0.37
  -4   1  -9   -0.12    0.43
  -4   1  -9   -0.16    0.39
   4   0  -9    0.98    0.37
   4   0  -9    0.61    0.39
  -4   0   9    1.08    0.35
   3   0  -9    4.41    0.38
   3   0  -9    4.28    0.40
  -3   0   9    4.70    0.36
   2   0  -9   45.89    1.00
   2   0  -9   44.18    1.09
  -2   0   9   45.80    0.99
   1   0  -9   54.67    1.12
   1   0  -9   53.28    1.22
  -1   0   9   53.86    1.11
   0   0  -9   47.27    0.99
   0   0  -9   47.04    1.09
   0   0   9   47.43    0.98
  -1   0  -9  100.92    2.15
  -1   0  -9  101.82    2.03
  -1   0  -9  104.92    2.16
  -2   0  -9    5.20    0.34
  -2   0  -9    4.11    0.37
  -3   0  -9    1.67    0.40
  -3   0  -9    1.83    0.36
  -4   0  -9   -0.18    0.42
  -4   0  -9    0.46    0.39
   4  -1  -9    0.72    0.43
   4  -1  -9    0.58    0.38
  -4   1   9   -0.11    0.35
   3  -1  -9    4.39    0.44
   3  -1  -9    4.42    0.39
  -3   1   9    4.31    0.38
   2  -1  -9   15.83    0.62
   2  -1  -9   14.49    0.55
  -2   1   9   15.06    0.52
   1  -1  -9  141.07    2.90
   1  -1  -9  143.48    2.64
  -1   1   9  135.60    2.60
   0  -1  -9   54.37    1.20
   0  -1  -9   50.45    1.22
   0  -1  -9   53.74    1.09
   0   1   9   52.74    1.06
  -1  -1  -9   26.73    0.77
  -1  -1  -9   28.16    0.81
  -1  -1  -9   28.11    0.68
  -2  -1  -9   11.33    0.50
  -2  -1  -9   10.59    0.56
  -3  -1  -9    7.93    0.55
  -3  -1  -9    7.71    0.53
   4  -2  -9    0.18    0.41
   4  -2  -9   -0.28    0.43
   4  -2  -9    0.45    0.42
  -4   2   9    0.47    0.38
   3  -2  -9   -0.59    0.35
   3  -2  -9    0.00    0.33
   3  -2  -9    0.11    0.35
  -3   2   9   -0.05    0.33
   2  -2  -9    0.35    0.31
   2  -2  -9    0.45    0.34
   2  -2  -9    0.35    0.31
  -2   2   9    0.09    0.27
   1  -2  -9    8.77    0.45
   1  -2  -9    8.89    0.50
  -1   2   9    9.06    0.43
   0  -2  -9    0.75    0.31
   0  -2  -9    0.62    0.31
   0   2   9    1.00    0.23
  -1  -2  -9    0.18    0.33
  -1  -2  -9    0.17    0.33
  -1  -2  -9    0.26    0.21
  -2  -2  -9    3.18    0.32
  -2  -2  -9    2.53    0.41
  -3  -2  -9    0.87    0.46
  -3  -2  -9    1.60    0.36
   4  -3  -9    2.14    0.45
   4  -3  -9    2.13    0.44
   4  -3  -9    1.43    0.48
   3  -3  -9    4.18    0.42
   3  -3  -9    4.56    0.48
   3  -3  -9    4.91    0.44
  -3   3   9    4.76    0.39
   2  -3  -9    6.97    0.45
   2  -3  -9    7.19    0.50
   2  -3  -9    7.48    0.49
  -2   3   9    7.03    0.49
   1  -3  -9    7.76    0.53
   1  -3  -9    8.14    0.48
  -1   3   9    7.84    0.43
   0  -3  -9   73.81    1.69
   0  -3  -9   75.74    1.69
  -1  -3  -9    8.30    0.41
  -1  -3  -9    8.31    0.57
  -1  -3  -9    8.35    0.63
  -2  -3  -9    2.43    0.31
  -2  -3  -9    2.31    0.43
  -3  -3  -9   -0.03    0.48
  -3  -3  -9    0.45    0.36
   4  -4  -9    0.48    0.44
   4  -4  -9    0.56    0.47
   3  -4  -9    2.95    0.50
   3  -4  -9    1.89    0.41
   3  -4  -9    2.09    0.44
   2  -4  -9   18.58    0.78
   2  -4  -9   19.23    0.69
   2  -4  -9   19.13    0.71
  -2   4   9   18.32    0.66
   1  -4  -9   33.07    0.95
   1  -4  -9   31.40    0.91
   0  -4  -9   30.81    0.93
   0  -4  -9   31.38    0.96
  -1  -4  -9   23.09    0.91
  -1  -4  -9   24.09    0.88
  -2  -4  -9    8.84    0.51
  -2  -4  -9    8.98    0.66
   4  -5  -9   -0.57    0.52
   4  -5  -9   -0.57    0.48
   3  -5  -9    0.29    0.47
   3  -5  -9    0.31    0.41
   3  -5  -9    0.59    0.44
   2  -5  -9    0.58    0.40
   2  -5  -9    0.45    0.41
   2  -5  -9    0.36    0.43
   1  -5  -9    9.00    0.69
   1  -5  -9    8.71    0.61
   0  -5  -9    0.56    0.46
   0  -5  -9    0.62    0.41
  -1  -5  -9    8.10    0.57
  -1  -5  -9    8.54    0.65
  -2  -5  -9    1.97    0.34
  -2  -5  -9    1.96    0.50
   3  -6  -9   -0.39    0.54
   3  -6  -9   -0.04    0.48
   2  -6  -9    8.07    0.55
   2  -6  -9    6.44    0.55
   2  -6  -9    7.01    0.58
   1  -6  -9    4.93    0.54
   1  -6  -9    5.56    0.53
   0  -6  -9    2.60    0.48
   0  -6  -9    3.97    0.55
  -1  -6  -9    2.35    0.59
  -1  -6  -9    2.54    0.51
   3  -7  -9    0.52    0.55
   3  -7  -9    0.38    0.53
   2  -7  -9   12.04    0.78
   2  -7  -9   10.99    0.76
   1  -7  -9   11.50    0.80
   1  -7  -9   13.68    0.86
   0  -7  -9    9.21    0.73
   0  -7  -9    9.82    0.73
  -1  -7  -9    3.18    0.66
   1  -8  -9    1.55    0.58
   1  -8  -9    1.58    0.54
   0  13 -10    2.62    0.50
   0 -13  10    4.34    0.56
  -1  13 -10    1.50    0.49
   1 -13  10    2.41    0.53
   2 -13  10    0.47    0.55
  -1 -12  10    6.07    0.54
   0  12 -10    1.47    0.46
   0 -12  10    1.53    0.47
  -1  12 -10    7.56    0.56
   1 -12  10    8.12    0.60
  -2  12 -10    3.35    0.51
   2 -12  10    4.57    0.57
  -2 -11  10   -0.38    0.40
  -2 -11  10    0.28    0.43
  -1 -11  10    0.74    0.42
   0  11 -10    0.52    0.40
   0 -11  10    1.38    0.41
  -1  11 -10    1.86    0.45
   1 -11  10    2.03    0.45
  -2  11 -10    5.22    0.50
   2 -11  10    5.77    0.54
  -3  11 -10    0.51    0.44
   3 -11  10    0.31    0.51
  -2 -10  10    4.32    0.47
  -2 -10  10    4.52    0.48
  -1 -10  10   11.74    0.65
   0  10 -10    4.93    0.45
   0 -10  10    6.44    0.45
  -1  10 -10    0.61    0.40
   1 -10  10    0.82    0.35
  -2  10 -10    0.13    0.41
   2 -10  10    0.15    0.41
  -3  10 -10    0.42    0.41
   3 -10  10    0.25    0.46
  -3  -9  10    6.08    0.55
  -2  -9  10   13.80    0.70
  -2  -9  10   13.63    0.67
  -1  -9  10   17.63    0.68
   0   9 -10   20.06    0.72
   0  -9  10   22.02    0.70
  -1   9 -10   11.23    0.63
   1  -9  10   11.45    0.55
  -2   9 -10   14.84    0.73
   2  -9  10   13.79    0.62
  -3   9 -10    1.13    0.40
   3  -9  10    0.86    0.42
  -4   9 -10    1.31    0.46
  -3  -8  10    1.00    0.42
  -3  -8  10   -0.44    0.37
  -2  -8  10    3.51    0.41
  -2  -8  10    2.65    0.39
  -1  -8  10    7.23    0.43
   0   8 -10   14.86    0.61
   0  -8  10   15.69    0.58
  -1   8 -10   15.30    0.65
   1  -8  10   14.71    0.56
  -2   8 -10   14.03    0.67
   2  -8  10   13.89    0.60
   3  -8  10    1.16    0.38
  -4   8 -10    0.98    0.45
  -3  -7  10    4.64    0.46
  -3  -7  10    5.11    0.44
  -2  -7  10   14.97    0.63
  -2  -7  10   13.44    0.57
  -1  -7  10    2.82    0.32
   0   7 -10    5.70    0.42
   0  -7  10    6.31    0.42
  -1   7 -10    1.60    0.32
   1  -7  10    1.38    0.29
  -2   7 -10   -0.18    0.31
   2  -7  10    0.28    0.28
  -3   7 -10    0.28    0.35
   3  -7  10    0.66    0.33
  -4   7 -10    0.89    0.43
  -4  -6  10    2.74    0.52
  -3  -6  10   16.80    0.69
  -3  -6  10   17.94    0.70
  -2  -6  10   48.37    1.11
  -2  -6  10   49.68    1.16
   1   6 -10    9.44    0.48
  -1  -6  10   10.47    0.46
   0   6 -10   27.56    0.78
   0  -6  10   27.25    0.71
  -1   6 -10   25.92    0.77
   1  -6  10   25.31    0.69
  -2   6 -10   35.11    0.93
   2  -6  10   33.07    0.82
  -3   6 -10    1.52    0.36
  -4   6 -10    1.13    0.43
  -4   6 -10    1.15    0.43
  -4  -5  10    3.14    0.45
  -3  -5  10    4.19    0.40
  -3  -5  10    4.72    0.41
  -2  -5  10    8.20    0.47
   1   5 -10   12.79    0.53
  -1  -5  10   12.92    0.52
   0   5 -10   79.63    1.66
   0  -5  10   79.57    1.57
  -1   5 -10   33.78    0.87
   1  -5  10   31.89    0.78
  -2   5 -10   36.31    0.92
  -2   5 -10   34.62    0.86
   2  -5  10   35.93    0.84
  -3   5 -10    4.93    0.41
  -3   5 -10    5.03    0.40
  -4   5 -10   -0.09    0.42
  -4   5 -10   -0.44    0.41
  -4  -4  10    1.40    0.41
  -3  -4  10    0.80    0.34
  -2  -4  10    7.87    0.50
   1   4 -10    0.03    0.25
  -1  -4  10    0.13    0.25
   0   4 -10    1.65    0.27
   0  -4  10    1.81    0.27
  -1   4 -10    6.85    0.38
  -1   4 -10    6.92    0.42
   1  -4  10    6.38    0.40
  -2   4 -10    8.97    0.44
  -2   4 -10    9.08    0.53
  -3   4 -10    2.66    0.36
  -3   4 -10    2.50    0.34
  -4   4 -10   -0.83    0.41
  -4   4 -10    0.34    0.40
  -4  -3  10    9.06    0.52
  -3  -3  10   19.02    0.65
   2   3 -10    9.84    0.46
   2   3 -10   10.16    0.48
  -2  -3  10   10.26    0.48
   1   3 -10   40.82    0.92
   1   3 -10   39.62    0.93
  -1  -3  10   40.52    0.91
   0   3 -10   24.13    0.66
   0   3 -10   23.95    0.62
   0  -3  10   23.38    0.65
  -1   3 -10   47.70    1.11
  -1   3 -10   51.34    1.13
   1  -3  10   50.23    1.06
  -2   3 -10   10.33    0.46
  -2   3 -10   10.78    0.53
  -3   3 -10    8.63    0.53
  -3   3 -10    8.97    0.52
  -4   3 -10    0.00    0.41
  -4   3 -10   -0.07    0.42
  -4  -2  10    4.22    0.45
   3   2 -10    3.08    0.35
   3   2 -10    2.59    0.40
  -3  -2  10    3.08    0.37
   2   2 -10    9.83    0.52
   2   2 -10    9.77    0.47
  -2  -2  10    9.74    0.48
   1   2 -10   78.91    1.70
   1   2 -10   81.58    1.63
  -1  -2  10   79.76    1.59
   0   2 -10   64.60    1.34
   0   2 -10   63.73    1.39
   0  -2  10   63.65    1.30
  -1   2 -10   40.22    0.98
  -1   2 -10   41.70    0.96
   1  -2  10   42.08    0.91
  -2   2 -10   66.94    1.44
  -2   2 -10   65.70    1.47
  -3   2 -10    4.40    0.42
  -3   2 -10    4.80    0.40
  -4   2 -10    1.34    0.42
  -4   2 -10    1.27    0.46
   4   1 -10    0.25    0.41
   4   1 -10    0.07    0.39
  -4  -1  10   -0.16    0.36
   3   1 -10    5.21    0.44
   3   1 -10    4.33    0.39
  -3  -1  10    4.63    0.39
   2   1 -10    0.17    0.32
   2   1 -10    0.21    0.28
  -2  -1  10    0.45    0.29
   1   1 -10    0.12    0.26
  -1  -1  10    0.34    0.25
   0   1 -10   82.12    1.64
   0   1 -10   81.94    1.75
   0  -1  10   80.22    1.59
  -1   1 -10    5.21    0.32
  -1   1 -10    4.70    0.35
  -1   1 -10    5.69    0.35
  -2   1 -10    2.80    0.33
  -2   1 -10    2.93    0.38
  -3   1 -10    0.80    0.36
  -3   1 -10    1.23    0.41
   4   0 -10    4.69    0.55
   4   0 -10    5.10    0.49
  -4   0  10    4.90    0.46
   3   0 -10   12.03    0.61
   3   0 -10   12.39    0.65
  -3   0  10   12.17    0.61
   2   0 -10   11.23    0.56
   2   0 -10   11.84    0.58
  -2   0  10   12.07    0.55
   1   0 -10   32.67    0.88
  -1   0  10   32.35    0.78
   0   0 -10    2.26    0.31
   0   0 -10    1.89    0.30
   0   0 -10    1.77    0.22
   0   0  10    1.70    0.26
  -1   0 -10   22.54    0.71
  -1   0 -10   22.38    0.69
  -1   0 -10   22.70    0.62
  -2   0 -10   12.08    0.54
  -2   0 -10   11.85    0.58
  -3   0 -10    0.79    0.41
  -3   0 -10    0.82    0.35
   4  -1 -10    0.55    0.42
   4  -1 -10    1.40    0.51
  -4   1  10    0.65    0.41
   3  -1 -10   13.26    0.72
   3  -1 -10   11.48    0.61
  -3   1  10   12.46    0.58
   2  -1 -10   16.94    0.68
   2  -1 -10   15.62    0.60
  -2   1  10   16.26    0.57
   1  -1 -10   26.87    0.78
   1  -1 -10   28.68    0.83
  -1   1  10   26.33    0.71
   0  -1 -10   58.54    1.37
   0  -1 -10   58.20    1.33
   0   1  10   57.66    1.18
  -1  -1 -10   82.24    1.81
  -1  -1 -10   82.93    1.67
  -1  -1 -10   80.06    1.80
  -2  -1 -10   17.29    0.62
  -2  -1 -10   18.03    0.71
  -3  -1 -10    7.62    0.57
  -3  -1 -10    8.32    0.55
   4  -2 -10    0.39    0.46
   4  -2 -10    1.26    0.51
   4  -2 -10    1.16    0.45
  -4   2  10    0.16    0.40
   3  -2 -10    0.33    0.46
   3  -2 -10    0.36    0.38
   3  -2 -10    0.48    0.38
  -3   2  10    0.55    0.36
   2  -2 -10    0.91    0.37
   2  -2 -10    1.66    0.37
   2  -2 -10    1.81    0.40
  -2   2  10    1.28    0.34
   1  -2 -10    6.30    0.44
   1  -2 -10    6.09    0.42
  -1   2  10    5.27    0.35
   0  -2 -10   36.12    0.97
   0  -2 -10   34.29    0.97
  -1  -2 -10   21.23    0.62
  -1  -2 -10   23.96    0.83
  -1  -2 -10   22.02    0.81
  -2  -2 -10    8.72    0.51
  -2  -2 -10    7.69    0.54
  -3  -2 -10    0.84    0.48
  -3  -2 -10    1.91    0.40
   4  -3 -10    1.19    0.51
   4  -3 -10    0.92    0.48
   3  -3 -10    6.88    0.53
   3  -3 -10    6.87    0.51
   3  -3 -10    6.33    0.57
  -3   3  10    7.14    0.46
   2  -3 -10    1.37    0.43
   2  -3 -10    1.26    0.38
   2  -3 -10    1.65    0.41
  -2   3  10    1.08    0.35
   1  -3 -10    3.81    0.41
   1  -3 -10    3.73    0.45
  -1   3  10    3.45    0.34
   0  -3 -10    1.37    0.42
   0  -3 -10    1.83    0.42
  -1  -3 -10    3.47    0.50
  -1  -3 -10    3.94    0.47
  -2  -3 -10   -0.26    0.29
  -2  -3 -10    0.03    0.44
   4  -4 -10    1.19    0.50
   3  -4 -10    5.29    0.53
   3  -4 -10    4.31    0.50
   3  -4 -10    5.37    0.62
   2  -4 -10    4.57    0.48
   2  -4 -10    4.69    0.46
   2  -4 -10    5.08    0.52
  -2   4  10    4.89    0.43
   1  -4 -10   35.05    0.99
   1  -4 -10   34.96    1.06
  -1   4  10   32.51    0.86
   0  -4 -10   24.24    0.92
   0  -4 -10   22.34    0.84
  -1  -4 -10   14.66    0.81
  -1  -4 -10   14.14    0.85
  -2  -4 -10    9.04    0.63
  -2  -4 -10    9.59    0.54
   3  -5 -10    0.91    0.48
   3  -5 -10    0.30    0.55
   2  -5 -10    0.22    0.43
   2  -5 -10   -0.24    0.49
   2  -5 -10    0.29    0.45
   1  -5 -10   21.25    0.86
   1  -5 -10   21.31    0.89
   0  -5 -10   17.70    0.90
   0  -5 -10   17.03    0.79
  -1  -5 -10   16.90    0.82
  -1  -5 -10   15.55    0.94
   3  -6 -10    0.34    0.52
   2  -6 -10   -0.55    0.50
   2  -6 -10    0.18    0.49
   1  -6 -10   -0.45    0.48
   1  -6 -10    0.01    0.52
   0  -6 -10   -0.20    0.54
   0  -6 -10    0.24    0.48
  -1  -6 -10    1.04    0.61
   1  -7 -10    4.38    0.62
   1  -7 -10    3.49    0.61
  -1 -12  11    7.01    0.60
   0  12 -11    7.43    0.57
   0 -12  11    8.10    0.58
  -1  12 -11    3.66    0.52
   1 -12  11    3.78    0.53
  -2  12 -11   -0.34    0.48
   2 -12  11    0.58    0.53
  -1 -11  11    3.06    0.47
   0  11 -11    8.12    0.58
   0 -11  11    8.66    0.56
  -1  11 -11    0.52    0.42
   1 -11  11    0.89    0.42
  -2  11 -11    0.53    0.48
   2 -11  11    0.52    0.46
   3 -11  11    0.88    0.54
  -2 -10  11    0.41    0.43
  -2 -10  11   -0.33    0.42
  -1 -10  11    5.80    0.49
   0  10 -11    0.27    0.41
   0 -10  11    0.11    0.37
  -1  10 -11    0.11    0.41
   1 -10  11    0.20    0.39
  -2  10 -11   -0.36    0.44
   2 -10  11    0.14    0.43
  -3  10 -11   -0.32    0.45
   3 -10  11    0.10    0.47
  -2  -9  11   13.26    0.70
  -2  -9  11   13.80    0.68
   1   9 -11   16.41    0.71
  -1  -9  11   17.70    0.70
   0   9 -11   19.01    0.77
   0  -9  11   17.48    0.66
  -1   9 -11    0.55    0.40
   1  -9  11    0.56    0.35
  -2   9 -11    6.34    0.51
   2  -9  11    7.02    0.48
  -3   9 -11    0.83    0.42
   3  -9  11    0.69    0.43
  -3  -8  11    1.69    0.44
  -3  -8  11    1.93    0.44
  -2  -8  11   23.60    0.80
   1   8 -11   20.02    0.76
  -1  -8  11   19.28    0.67
   0   8 -11    4.21    0.43
   0  -8  11    4.27    0.39
  -1   8 -11    9.58    0.57
   1  -8  11    9.13    0.56
  -2   8 -11    4.40    0.43
   2  -8  11    4.18    0.40
  -3   8 -11    7.30    0.53
   3  -8  11    8.16    0.50
  -3  -7  11   -0.07    0.38
  -3  -7  11    0.12    0.40
  -2  -7  11    0.05    0.35
   1   7 -11    2.32    0.38
  -1  -7  11    2.19    0.35
   0   7 -11    2.73    0.40
   0  -7  11    2.33    0.34
  -1   7 -11    9.11    0.59
   1  -7  11    8.95    0.48
  -2   7 -11   -0.29    0.35
   2  -7  11    0.06    0.31
  -3   7 -11    1.76    0.41
  -3  -6  11    7.54    0.50
  -3  -6  11    8.22    0.58
  -2  -6  11   13.82    0.63
   1   6 -11   37.65    0.96
  -1  -6  11   38.59    0.94
   0   6 -11   29.83    0.85
   0  -6  11   30.70    0.78
  -1   6 -11   13.16    0.59
   1  -6  11   12.61    0.51
  -2   6 -11    0.14    0.33
   2  -6  11    0.75    0.29
  -3   6 -11    0.61    0.39
  -3  -5  11   16.02    0.68
   2   5 -11   27.13    0.81
  -2  -5  11   26.71    0.76
   1   5 -11   21.75    0.70
  -1  -5  11   22.31    0.69
   0   5 -11   45.91    1.07
   0  -5  11   43.23    1.00
  -1   5 -11   30.90    0.85
   1  -5  11   29.74    0.78
  -2   5 -11   11.92    0.61
   2  -5  11   11.96    0.51
  -3   5 -11    8.26    0.54
  -3   5 -11    9.37    0.64
  -4  -4  11    0.51    0.42
  -3  -4  11    1.18    0.38
   2   4 -11   -0.35    0.31
  -2  -4  11    0.13    0.33
   1   4 -11    0.17    0.27
  -1  -4  11    0.42    0.30
   0   4 -11    7.61    0.49
   0  -4  11    7.38    0.40
  -1   4 -11   10.31    0.45
  -1   4 -11   11.72    0.55
   1  -4  11    9.92    0.49
  -2   4 -11    4.68    0.40
  -2   4 -11    4.55    0.37
  -3   4 -11    5.96    0.45
  -3   4 -11    6.41    0.47
  -4  -3  11   -0.02    0.42
  -3  -3  11   11.25    0.63
  -2  -3  11   31.31    0.82
   1   3 -11   23.88    0.69
  -1  -3  11   23.79    0.68
   0   3 -11   31.17    0.79
   0   3 -11   30.24    0.77
   0  -3  11   30.59    0.78
  -1   3 -11    0.19    0.29
  -1   3 -11    0.01    0.28
   1  -3  11    0.31    0.27
  -2   3 -11    2.96    0.37
  -2   3 -11    2.45    0.35
  -3   3 -11    1.30    0.38
  -3   3 -11    1.11    0.41
  -4  -2  11    0.12    0.42
  -3  -2  11   18.90    0.68
   2   2 -11   43.39    1.00
   2   2 -11   45.03    1.11
  -2  -2  11   43.15    1.02
   1   2 -11   52.21    1.21
  -1  -2  11   53.74    1.16
   0   2 -11   62.17    1.37
   0   2 -11   60.75    1.32
   0  -2  11   61.83    1.29
  -1   2 -11   15.34    0.59
  -1   2 -11   15.92    0.58
  -2   2 -11   37.12    0.96
  -2   2 -11   36.28    0.97
  -3   2 -11    9.05    0.65
  -3   2 -11    8.42    0.58
   4   1 -11   -0.01    0.47
  -4  -1  11    0.83    0.42
   3   1 -11   -0.20    0.43
   3   1 -11   -0.42    0.35
  -3  -1  11    0.00    0.37
   2   1 -11   15.24    0.60
   2   1 -11   15.57    0.67
  -2  -1  11   14.60    0.58
   1   1 -11    5.07    0.37
  -1  -1  11    5.21    0.38
   0   1 -11   12.53    0.56
   0   1 -11   12.16    0.46
   0  -1  11   11.83    0.50
  -1   1 -11   36.59    0.88
  -1   1 -11   34.14    0.92
  -1   1 -11   35.53    0.95
  -2   1 -11   30.66    0.91
  -2   1 -11   30.74    0.86
  -3   1 -11    2.64    0.47
  -3   1 -11    3.55    0.43
   4   0 -11    1.66    0.46
   4   0 -11    0.78    0.51
  -4   0  11    1.56    0.43
   3   0 -11    7.40    0.58
   3   0 -11    9.26    0.63
  -3   0  11    7.94    0.50
   2   0 -11    4.98    0.41
   2   0 -11    5.00    0.44
  -2   0  11    4.94    0.41
   1   0 -11    6.38    0.44
  -1   0  11    6.19    0.38
   0   0 -11   13.60    0.57
   0   0 -11   12.97    0.58
   0   0  11   13.34    0.52
  -1   0 -11    2.88    0.39
  -1   0 -11    2.01    0.37
  -1   0 -11    2.63    0.30
  -2   0 -11    1.21    0.33
  -2   0 -11    1.80    0.44
  -3   0 -11    0.13    0.39
  -3   0 -11    0.81    0.47
   4  -1 -11    4.37    0.58
  -4   1  11    4.90    0.48
   3  -1 -11    7.41    0.59
   3  -1 -11    7.56    0.52
  -3   1  11    7.67    0.49
   2  -1 -11   52.01    1.21
   2  -1 -11   52.17    1.34
  -2   1  11   50.53    1.15
   1  -1 -11   18.95    0.75
   1  -1 -11   20.47    0.71
  -1   1  11   19.12    0.63
   0  -1 -11   28.48    0.85
   0  -1 -11   26.86    0.82
  -1  -1 -11   21.55    0.80
  -1  -1 -11   19.34    0.75
  -1  -1 -11   21.38    0.63
  -2  -1 -11   11.25    0.58
  -2  -1 -11   11.93    0.68
  -3  -1 -11    2.55    0.51
  -3  -1 -11    2.66    0.43
   4  -2 -11    1.10    0.52
   3  -2 -11    2.71    0.47
   3  -2 -11    3.13    0.49
   3  -2 -11    3.58    0.58
  -3   2  11    3.41    0.45
   2  -2 -11    6.76    0.53
   2  -2 -11    7.97    0.55
   2  -2 -11    7.59    0.50
  -2   2  11    7.15    0.45
   1  -2 -11   13.26    0.62
   1  -2 -11   14.21    0.67
  -1   2  11   13.57    0.57
   0  -2 -11   39.29    1.08
   0  -2 -11   37.75    1.06
  -1  -2 -11   22.82    0.90
  -1  -2 -11   21.89    0.84
  -2  -2 -11   11.35    0.72
  -2  -2 -11   11.82    0.58
   3  -3 -11    0.51    0.48
   3  -3 -11    0.57    0.47
   3  -3 -11    0.17    0.55
  -3   3  11    0.60    0.41
   2  -3 -11    1.55    0.44
   2  -3 -11    2.42    0.43
   2  -3 -11    1.75    0.50
  -2   3  11    2.91    0.41
   1  -3 -11    1.01    0.41
   1  -3 -11    1.26    0.47
  -1   3  11    0.63    0.34
   0  -3 -11    7.04    0.55
   0  -3 -11    6.30    0.56
  -1  -3 -11    1.89    0.52
  -1  -3 -11    2.18    0.49
  -2  -3 -11    5.19    0.58
  -2  -3 -11    6.63    0.45
   3  -4 -11    8.15    0.70
   2  -4 -11   10.58    0.69
   2  -4 -11   11.25    0.74
   2  -4 -11   10.21    0.74
  -2   4  11   11.43    0.66
   1  -4 -11    5.21    0.52
   1  -4 -11    6.10    0.55
   0  -4 -11    6.70    0.62
   0  -4 -11    6.43    0.58
  -1  -4 -11    3.41    0.55
  -1  -4 -11    2.81    0.61
   2  -5 -11   10.24    0.69
   2  -5 -11    9.71    0.73
   1  -5 -11    7.90    0.66
   1  -5 -11    7.33    0.65
   0  -5 -11    9.77    0.65
   0  -5 -11    8.99    0.72
   1  -6 -11    1.16    0.60
   0  12 -12    5.78    0.59
   0 -12  12    6.39    0.59
  -1  12 -12    1.16    0.50
   1 -12  12    1.74    0.51
   1  11 -12    5.22    0.59
  -1 -11  12    6.05    0.55
   0  11 -12    6.18    0.58
   0 -11  12    6.52    0.53
  -1  11 -12    2.12    0.48
   1 -11  12    3.30    0.50
  -2  11 -12    0.67    0.49
   2 -11  12    1.29    0.52
  -2 -10  12   -0.35    0.42
  -1 -10  12    7.38    0.54
   0  10 -12    0.37    0.45
   0 -10  12    0.49    0.40
  -1  10 -12   -0.21    0.44
   1 -10  12    0.41    0.43
  -2  10 -12    0.26    0.46
   2 -10  12   -0.09    0.45
  -2  -9  12    5.09    0.49
   1   9 -12    1.16    0.47
  -1  -9  12    2.07    0.43
   0   9 -12   15.40    0.74
   0  -9  12   17.21    0.73
  -1   9 -12   11.98    0.73
   1  -9  12   11.11    0.61
  -2   9 -12    0.46    0.41
   2  -9  12    0.87    0.42
  -3   9 -12    0.95    0.47
   3  -9  12    0.83    0.43
  -2  -8  12    8.83    0.60
   1   8 -12   20.55    0.81
  -1  -8  12   20.66    0.72
   0   8 -12   23.64    0.86
   0  -8  12   23.48    0.75
  -1   8 -12   21.40    0.79
   1  -8  12   21.14    0.71
  -2   8 -12    6.20    0.51
   2  -8  12    6.79    0.48
  -3   8 -12    0.81    0.44
  -3  -7  12   -0.14    0.43
   2   7 -12    1.02    0.44
  -2  -7  12    1.63    0.41
   1   7 -12    6.60    0.49
  -1  -7  12    7.42    0.46
   0   7 -12    2.07    0.42
   0  -7  12    2.21    0.37
  -1   7 -12    6.44    0.50
   1  -7  12    8.10    0.45
  -2   7 -12    1.76    0.41
   2  -7  12    1.79    0.37
  -3   7 -12    0.53    0.41
  -3  -6  12    0.19    0.43
   2   6 -12    2.70    0.42
  -2  -6  12    3.79    0.42
   1   6 -12   19.99    0.76
  -1  -6  12   20.52    0.73
   0   6 -12    5.67    0.45
   0  -6  12    6.61    0.44
  -1   6 -12   13.76    0.63
   1  -6  12   12.94    0.60
  -2   6 -12    0.85    0.39
   2  -6  12    0.50    0.33
  -3   6 -12    0.62    0.39
  -3  -5  12    2.12    0.45
   2   5 -12   31.61    0.89
  -2  -5  12   30.75    0.87
   1   5 -12   63.92    1.44
  -1  -5  12   65.09    1.40
   0   5 -12   41.72    1.06
   0  -5  12   41.23    1.02
  -1   5 -12   38.81    1.01
   1  -5  12   36.41    0.93
  -2   5 -12   10.80    0.65
  -3   5 -12    3.79    0.47
  -3  -4  12    0.35    0.42
  -2  -4  12   13.15    0.60
   1   4 -12   26.63    0.77
  -1  -4  12   26.26    0.80
   0   4 -12   49.56    1.15
   0  -4  12   47.71    1.12
  -1   4 -12   10.18    0.58
   1  -4  12    9.28    0.54
  -2   4 -12    6.02    0.42
  -2   4 -12    6.34    0.46
  -3   4 -12    9.36    0.64
  -3   4 -12   10.66    0.65
  -3  -3  12    2.46    0.42
  -2  -3  12    5.17    0.43
  -1  -3  12   -0.40    0.33
   0   3 -12    6.23    0.43
   0   3 -12    6.01    0.39
   0  -3  12    6.44    0.42
  -1   3 -12    2.23    0.34
  -1   3 -12    1.73    0.35
   1  -3  12    1.24    0.33
  -2   3 -12    0.69    0.37
  -2   3 -12    1.41    0.38
  -3   3 -12    2.86    0.46
  -3   3 -12    2.90    0.46
  -3  -2  12   10.29    0.63
   2   2 -12   26.52    0.76
  -2  -2  12   26.10    0.78
   1   2 -12   39.89    1.02
  -1  -2  12   40.71    0.97
   0   2 -12   46.94    1.14
   0   2 -12   47.22    1.09
   0  -2  12   47.38    1.07
  -1   2 -12   37.99    0.98
  -1   2 -12   38.41    0.94
  -1   2 -12   34.34    0.96
  -2   2 -12    4.29    0.45
  -2   2 -12    4.17    0.42
  -3   2 -12    0.93    0.43
  -3   2 -12    1.65    0.47
   3   1 -12    8.67    0.62
   3   1 -12    7.14    0.50
  -3  -1  12    7.54    0.52
   2   1 -12   10.96    0.60
   2   1 -12   12.07    0.65
  -2  -1  12   10.97    0.59
   1   1 -12   67.43    1.56
  -1  -1  12   69.60    1.45
   0   1 -12   30.58    0.89
   0  -1  12   31.51    0.81
  -1   1 -12   29.11    0.87
  -1   1 -12   25.84    0.77
  -1   1 -12   28.17    0.85
  -2   1 -12   12.74    0.63
  -2   1 -12   12.69    0.70
  -3   1 -12    6.18    0.51
  -3   1 -12    4.98    0.51
   3   0 -12    0.42    0.52
   3   0 -12    0.74    0.42
  -3   0  12    0.86    0.44
   2   0 -12    0.47    0.43
   2   0 -12    0.48    0.38
  -2   0  12    0.04    0.38
   1   0 -12    0.94    0.39
  -1   0  12    0.03    0.34
   0   0 -12    1.80    0.37
   0   0 -12    1.88    0.40
   0   0  12    1.82    0.34
  -1   0 -12    9.41    0.63
  -1   0 -12   10.31    0.52
  -1   0 -12    8.82    0.61
  -2   0 -12    1.17    0.45
  -2   0 -12    1.92    0.38
   3  -1 -12    2.80    0.45
   3  -1 -12    4.07    0.56
  -3   1  12    4.52    0.48
   2  -1 -12   12.60    0.69
   2  -1 -12   12.60    0.64
   2  -1 -12   11.39    0.75
  -2   1  12   11.19    0.61
   1  -1 -12   29.51    0.92
   1  -1 -12   28.97    0.95
  -1   1  12   28.77    0.82
   0  -1 -12   13.07    0.70
   0  -1 -12   12.49    0.66
  -1  -1 -12    0.62    0.43
  -1  -1 -12    1.12    0.46
  -2  -1 -12    2.18    0.38
  -2  -1 -12    2.52    0.52
   3  -2 -12    4.01    0.58
   3  -2 -12    3.52    0.54
  -3   2  12    3.57    0.49
   2  -2 -12   18.72    0.82
   2  -2 -12   18.49    0.79
   2  -2 -12   16.33    0.80
  -2   2  12   16.84    0.71
   1  -2 -12   33.77    1.00
   1  -2 -12   29.71    0.99
  -1   2  12   31.36    0.86
   0  -2 -12   20.13    0.84
   0  -2 -12   20.10    0.87
  -1  -2 -12   14.00    0.85
  -1  -2 -12   14.52    0.84
   3  -3 -12    0.97    0.52
  -3   3  12    0.84    0.45
   2  -3 -12    1.37    0.55
   2  -3 -12    1.36    0.47
  -2   3  12    1.63    0.42
   1  -3 -12    5.56    0.56
   1  -3 -12    5.22    0.56
   0  -3 -12    4.19    0.58
   0  -3 -12    4.51    0.53
  -1  -3 -12    4.36    0.64
  -1  -3 -12    5.30    0.59
   2  -4 -12    2.64    0.54
   2  -4 -12    2.88    0.58
  -2   4  12    1.84    0.47
   1  -4 -12    0.51    0.52
   1  -4 -12    0.26    0.49
   0  -4 -12    1.21    0.58
   0  -4 -12    0.76    0.55
   0  11 -13    2.04    0.55
   0 -11  13    2.27    0.49
  -1  11 -13    7.31    0.62
   1 -11  13    9.50    0.64
   1  10 -13    1.76    0.54
  -1 -10  13    1.60    0.46
   0  10 -13    2.87    0.53
   0 -10  13    3.57    0.50
  -1  10 -13    3.64    0.54
   1 -10  13    4.59    0.52
  -2  10 -13    0.61    0.47
   2 -10  13    1.67    0.52
  -2  -9  13    1.40    0.47
   1   9 -13    4.24    0.55
  -1  -9  13    4.33    0.50
   0   9 -13    0.66    0.47
   0  -9  13    1.69    0.44
  -1   9 -13    1.64    0.46
   1  -9  13    2.09    0.46
  -2   9 -13    0.17    0.44
   2  -9  13    0.41    0.44
   2   8 -13    1.56    0.50
  -2  -8  13    1.61    0.46
   1   8 -13   15.43    0.80
  -1  -8  13   14.62    0.70
   0   8 -13   26.31    0.92
   0  -8  13   25.33    0.86
  -1   8 -13   11.85    0.77
   1  -8  13   10.77    0.70
  -2   8 -13   11.83    0.77
   2  -8  13   12.43    0.72
   2   7 -13    0.59    0.47
  -2  -7  13    1.05    0.42
   1   7 -13   16.58    0.77
  -1  -7  13   14.38    0.67
   0   7 -13   26.98    0.90
   0  -7  13   24.89    0.80
  -1   7 -13   12.20    0.67
   1  -7  13   12.76    0.67
  -2   7 -13    6.29    0.52
   2  -7  13    7.38    0.50
  -3  -6  13    2.90    0.51
   2   6 -13    2.83    0.46
  -2  -6  13    2.86    0.46
   1   6 -13   -0.06    0.37
  -1  -6  13   -0.30    0.36
   0   6 -13   -0.38    0.39
   0  -6  13    0.27    0.37
  -1   6 -13    3.24    0.45
   1  -6  13    3.53    0.42
  -2   6 -13    0.63    0.41
  -3   6 -13    0.26    0.45
  -3  -5  13    6.89    0.57
  -2  -5  13   19.01    0.79
   1   5 -13   20.68    0.74
  -1  -5  13   17.96    0.71
   0   5 -13   19.37    0.73
   0  -5  13   17.54    0.72
  -1   5 -13   24.98    0.84
   1  -5  13   22.94    0.77
  -2   5 -13   10.95    0.66
  -3   5 -13    0.89    0.46
  -3  -4  13    6.10    0.53
  -2  -4  13   16.95    0.76
  -1  -4  13   21.75    0.78
   0   4 -13   46.23    1.13
   0  -4  13   45.81    1.12
  -1   4 -13   39.59    1.06
   1  -4  13   41.67    1.04
  -2   4 -13   16.37    0.76
  -3  -3  13    0.39    0.45
  -2  -3  13    0.40    0.41
  -1  -3  13    2.46    0.41
   0   3 -13    9.68    0.56
   0  -3  13   10.29    0.61
  -1   3 -13    7.90    0.57
  -1   3 -13    9.19    0.59
  -2   3 -13    4.51    0.46
  -2   3 -13    3.95    0.45
  -3  -2  13    5.88    0.53
  -2  -2  13   11.97    0.69
   1   2 -13    4.28    0.42
  -1  -2  13    4.92    0.44
   0   2 -13   16.95    0.67
   0  -2  13   16.09    0.66
  -1   2 -13    6.21    0.44
  -1   2 -13    5.38    0.47
  -2   2 -13    0.23    0.38
  -2   2 -13   -0.57    0.41
  -3  -1  13    6.34    0.54
   2   1 -13   12.90    0.73
  -2  -1  13   12.97    0.72
   1   1 -13   35.47    1.02
  -1  -1  13   35.18    0.95
   0   1 -13   42.65    1.13
   0   1 -13   40.98    1.09
   0  -1  13   41.95    1.02
  -1   1 -13   23.39    0.84
  -1   1 -13   22.92    0.88
  -1   1 -13   20.96    0.72
  -2   1 -13    4.05    0.44
  -2   1 -13    3.83    0.52
   3   0 -13    0.35    0.52
   3   0 -13   -0.05    0.46
  -3   0  13    0.21    0.45
   2   0 -13    2.93    0.50
  -2   0  13    2.75    0.46
   1   0 -13   13.10    0.68
   1   0 -13   12.83    0.67
  -1   0  13   12.56    0.67
   0   0 -13   16.02    0.77
   0   0 -13   15.68    0.76
  -1   0 -13    9.54    0.74
  -1   0 -13   10.78    0.74
  -2   0 -13    6.33    0.59
  -2   0 -13    6.28    0.48
   2  -1 -13    0.73    0.49
  -2   1  13    1.28    0.44
   1  -1 -13    0.66    0.49
   1  -1 -13    1.63    0.48
  -1   1  13    1.45    0.40
   0  -1 -13    0.47    0.47
   0  -1 -13    0.11    0.43
  -1  -1 -13    0.05    0.50
  -1  -1 -13    0.29    0.49
   2  -2 -13   13.74    0.81
   2  -2 -13   12.19    0.82
  -2   2  13   12.69    0.73
   1  -2 -13   12.84    0.78
   1  -2 -13   10.06    0.66
  -1   2  13   11.03    0.64
   0  -2 -13    6.16    0.60
   0  -2 -13    6.88    0.59
   1  -3 -13    6.20    0.61
   1  -3 -13    4.37    0.60
   0 -10  14    7.46    0.59
   1 -10  14    7.52    0.62
   1   9 -14    1.23    0.56
  -1  -9  14    1.45    0.50
   0   9 -14    1.34    0.53
   0  -9  14    1.28    0.47
  -1   9 -14   -0.02    0.48
   1  -9  14    0.45    0.48
   1   8 -14   12.21    0.81
  -1  -8  14   14.32    0.77
   0   8 -14    3.49    0.53
   0  -8  14    4.79    0.51
  -1   8 -14    5.73    0.57
   1  -8  14    5.83    0.52
  -2   8 -14    0.61    0.50
   2  -8  14    1.31    0.48
   2   7 -14   10.94    0.79
  -2  -7  14   10.34    0.62
   1   7 -14   18.96    0.83
  -1  -7  14   19.22    0.76
   0   7 -14   16.96    0.77
   0  -7  14   16.53    0.79
  -1   7 -14    9.95    0.61
   1  -7  14   10.25    0.59
  -2   7 -14   13.88    0.83
  -2  -6  14    1.00    0.45
   1   6 -14    2.55    0.45
  -1  -6  14    2.93    0.45
   0   6 -14    0.51    0.43
   0  -6  14    1.78    0.42
  -1   6 -14   10.07    0.73
   1  -6  14   10.21    0.57
  -2   6 -14    5.38    0.55
  -2  -5  14    3.71    0.48
  -1  -5  14    7.23    0.54
   0   5 -14    3.93    0.46
   0  -5  14    4.80    0.47
  -1   5 -14    2.57    0.46
   1  -5  14    2.86    0.44
  -2   5 -14   -0.03    0.45
  -2  -4  14   11.74    0.76
  -1  -4  14   36.85    1.04
   0   4 -14   11.13    0.65
   0  -4  14   11.41    0.69
  -1   4 -14   25.61    0.88
  -2   4 -14    6.29    0.54
  -2  -3  14    1.87    0.47
  -1  -3  14    8.80    0.55
   0  -3  14   21.82    0.79
  -1   3 -14   14.20    0.69
  -2   3 -14    4.91    0.51
  -2   3 -14    5.93    0.51
  -2  -2  14    3.96    0.50
  -1  -2  14    1.96    0.44
   0   2 -14    0.46    0.40
   0  -2  14    0.94    0.40
  -1   2 -14    0.37    0.37
  -1   2 -14   -0.35    0.43
   2   1 -14   11.93    0.83
  -2  -1  14   11.94    0.77
   1   1 -14   14.69    0.76
  -1  -1  14   15.69    0.75
   0   1 -14   10.43    0.71
   0   1 -14   10.48    0.72
  -1   1 -14    4.34    0.53
   2   0 -14    3.69    0.55
   2   0 -14    2.36    0.56
  -2   0  14    3.08    0.50
   1   0 -14   15.18    0.83
   1   0 -14   17.55    0.85
  -1   0  14   16.38    0.75
   0   0 -14   11.49    0.78
   0   0 -14   10.39    0.76
   1  -1 -14    0.38    0.54
   1  -1 -14    1.21    0.52
  -1   1  14    0.74    0.43
   0  -1 -14    0.10    0.53
   0  -1 -14    0.30    0.48
   0  -8  15    3.33    0.55
  -1  -7  15    6.48    0.56
   0   7 -15   16.07    0.87
   0  -7  15   17.96    0.84
   1  -7  15    6.81    0.58
  -1  -6  15    5.17    0.55
   0   6 -15   16.46    0.82
   0  -6  15   15.41    0.79
  -1   6 -15    5.72    0.57
   1  -6  15    5.97    0.52
  -1  -5  15    0.71    0.49
   0   5 -15   -0.37    0.42
   0  -5  15   -0.53    0.46
  -1   5 -15    1.89    0.48
  -1  -4  15   15.72    0.81
   0  -4  15   10.69    0.62
  -1   4 -15    3.02    0.49
  -1  -3  15    9.56    0.60
   0  -3  15   18.20    0.80
  -1  -2  15   -0.20    0.46
   0   2 -15    3.21    0.54
   0   0   0    0.00    0.00
;
_shelx_hkl_checksum              91209
loop_
_space_group_symop_operation_xyz
'x, y, z'
'-x, -y, -z'
loop_
_atom_site_label
_atom_site_type_symbol
_atom_site_fract_x
_atom_site_fract_y
_atom_site_fract_z
_atom_site_U_iso_or_equiv
_atom_site_adp_type
_atom_site_occupancy
_atom_site_site_symmetry_order
_atom_site_calc_flag
_atom_site_refinement_flags_posn
_atom_site_refinement_flags_adp
_atom_site_refinement_flags_occupancy
_atom_site_disorder_assembly
_atom_site_disorder_group
Br1 Br 0.98022(7) 0.14916(3) 0.93394(2) 0.06305(15) Uani 1 1 d . . . . .
C1 C 0.3267(8) -0.3302(3) 0.5712(3) 0.0702(8) Uani 1 1 d . . . . .
H1A H 0.185366 -0.387538 0.502239 0.084 Uiso 1 1 calc R U . . .
H1B H 0.524577 -0.349211 0.556269 0.084 Uiso 1 1 calc R U . . .
C2 C 0.3368(6) -0.1886(3) 0.5856(2) 0.0539(6) Uani 1 1 d . . . . .
H2A H 0.408664 -0.171577 0.515343 0.065 Uiso 1 1 calc R U . . .
H2B H 0.135397 -0.171407 0.592694 0.065 Uiso 1 1 calc R U . . .
C3 C 0.4445(7) -0.2750(3) 0.7762(3) 0.0671(8) Uani 1 1 d . . . . .
H3A H 0.643918 -0.292678 0.762631 0.081 Uiso 1 1 calc R U . . .
H3B H 0.385471 -0.295936 0.846285 0.081 Uiso 1 1 calc R U . . .
C4 C 0.4567(7) -0.1304(3) 0.7999(2) 0.0555(6) Uani 1 1 d . . . . .
H4A H 0.261707 -0.110367 0.819275 0.067 Uiso 1 1 calc R U . . .
H4B H 0.605298 -0.076513 0.867547 0.067 Uiso 1 1 calc R U . . .
C5 C 0.7499(5) -0.0020(2) 0.6850(2) 0.0399(5) Uani 1 1 d . . . . .
H5 H 0.762135 -0.004474 0.606413 0.048 Uiso 1 1 calc R U . . .
C6 C 0.9518(5) 0.1010(2) 0.76498(19) 0.0402(5) Uani 1 1 d . . . . .
C7 C 1.1599(5) 0.1841(2) 0.7162(2) 0.0417(5) Uani 1 1 d . . . . .
C8 C 1.5525(6) 0.3727(3) 0.7541(2) 0.0543(6) Uani 1 1 d . . . . .
H8A H 1.443597 0.416885 0.713824 0.065 Uiso 1 1 calc R U . . .
H8B H 1.668305 0.320788 0.697165 0.065 Uiso 1 1 calc R U . . .
C9 C 1.7572(7) 0.4723(3) 0.8592(3) 0.0697(8) Uani 1 1 d . . . . .
H9A H 1.641160 0.525633 0.913034 0.105 Uiso 1 1 calc R U . . .
H9B H 1.904872 0.528022 0.831767 0.105 Uiso 1 1 calc R U . . .
H9C H 1.857207 0.427271 0.900217 0.105 Uiso 1 1 calc R U . . .
N1 N 0.5379(5) -0.1006(2) 0.69285(18) 0.0461(4) Uani 1 1 d . . . . .
O1 O 0.2377(5) -0.3577(2) 0.6752(2) 0.0731(6) Uani 1 1 d . . . . .
O2 O 1.1692(5) 0.1635(2) 0.60980(16) 0.0650(5) Uani 1 1 d . . . . .
O3 O 1.3430(4) 0.28754(17) 0.79970(16) 0.0504(4) Uani 1 1 d . . . . .
loop_
_atom_site_aniso_label
_atom_site_aniso_U_11
_atom_site_aniso_U_22
_atom_site_aniso_U_33
_atom_site_aniso_U_23
_atom_site_aniso_U_13
_atom_site_aniso_U_12
Br1 0.0929(3) 0.0578(2) 0.03016(16) 0.01609(12) 0.00503(12) -0.00404(14)
C1 0.0799(19) 0.0538(16) 0.0592(18) 0.0090(13) 0.0118(14) -0.0078(14)
C2 0.0499(13) 0.0634(15) 0.0435(13) 0.0211(11) 0.0012(10) -0.0029(11)
C3 0.0736(17) 0.0629(17) 0.073(2) 0.0421(16) 0.0081(15) 0.0016(14)
C4 0.0687(16) 0.0552(14) 0.0436(13) 0.0253(11) 0.0123(11) 0.0000(12)
C5 0.0481(11) 0.0421(11) 0.0343(11) 0.0186(9) 0.0068(8) 0.0110(9)
C6 0.0519(12) 0.0402(11) 0.0305(10) 0.0159(8) 0.0055(8) 0.0080(9)
C7 0.0488(12) 0.0417(11) 0.0340(11) 0.0143(9) 0.0032(8) 0.0066(9)
C8 0.0611(14) 0.0509(14) 0.0484(14) 0.0218(11) 0.0047(11) -0.0016(11)
C9 0.0766(19) 0.0574(16) 0.0626(18) 0.0186(14) -0.0036(14) -0.0086(14)
N1 0.0551(11) 0.0451(10) 0.0364(10) 0.0178(8) 0.0052(8) 0.0005(8)
O1 0.0852(14) 0.0544(11) 0.0732(15) 0.0286(10) 0.0114(11) -0.0120(10)
O2 0.0735(12) 0.0736(12) 0.0350(9) 0.0209(9) 0.0023(8) -0.0168(10)
O3 0.0616(10) 0.0447(9) 0.0387(9) 0.0158(7) 0.0026(7) -0.0045(7)
loop_
_atom_type_symbol
_atom_type_description
_atom_type_scat_dispersion_real
_atom_type_scat_dispersion_imag
_atom_type_scat_source
C C 0.0033 0.0016 'International Tables Vol C Tables 4.2.6.8 and 6.1.1.4'
H H 0.0000 0.0000 'International Tables Vol C Tables 4.2.6.8 and 6.1.1.4'
O O 0.0106 0.0060 'International Tables Vol C Tables 4.2.6.8 and 6.1.1.4'
Br Br -0.2901 2.4595 'International Tables Vol C Tables 4.2.6.8 and 6.1.1.4'
N N 0.0061 0.0033 'International Tables Vol C Tables 4.2.6.8 and 6.1.1.4'
loop_
_geom_angle_atom_site_label_1
_geom_angle_atom_site_label_2
_geom_angle_atom_site_label_3
_geom_angle
_geom_angle_site_symmetry_1
_geom_angle_site_symmetry_3
_geom_angle_publ_flag
O1 C1 C2 111.5(3) . . ?
N1 C2 C1 110.0(2) . . ?
O1 C3 C4 111.9(3) . . ?
N1 C4 C3 108.9(2) . . ?
N1 C5 C6 134.8(2) . . ?
C5 C6 C7 116.90(19) . . ?
C5 C6 Br1 125.91(17) . . ?
C7 C6 Br1 117.17(16) . . ?
O2 C7 O3 122.0(2) . . ?
O2 C7 C6 124.0(2) . . ?
O3 C7 C6 114.03(19) . . ?
O3 C8 C9 107.2(2) . . ?
C5 N1 C4 128.4(2) . . ?
C5 N1 C2 119.5(2) . . ?
C4 N1 C2 112.0(2) . . ?
C3 O1 C1 109.7(2) . . ?
C7 O3 C8 115.42(19) . . ?
loop_
_geom_bond_atom_site_label_1
_geom_bond_atom_site_label_2
_geom_bond_distance
_geom_bond_site_symmetry_2
_geom_bond_publ_flag
Br1 C6 1.892(2) . ?
C1 O1 1.424(4) . ?
C1 C2 1.495(5) . ?
C2 N1 1.465(3) . ?
C3 O1 1.417(4) . ?
C3 C4 1.505(4) . ?
C4 N1 1.460(3) . ?
C5 N1 1.334(3) . ?
C5 C6 1.357(3) . ?
C6 C7 1.457(3) . ?
C7 O2 1.213(3) . ?
C7 O3 1.337(3) . ?
C8 O3 1.452(3) . ?
C8 C9 1.493(4) . ?
