#------------------------------------------------------------------------------
#$Date: 2021-10-06 19:13:54 +0300 (Wed, 06 Oct 2021) $
#$Revision: 269775 $
#$URL: file:///home/coder/svn-repositories/cod/cif/7/15/82/7158285.cif $
#------------------------------------------------------------------------------
#
# This file is available in the Crystallography Open Database (COD),
# http://www.crystallography.net/
#
# All data on this site have been placed in the public domain by the
# contributors.
#
data_7158285
loop_
_publ_author_name
'Singh, Rashmi'
'Sharma, Vishal Prasad'
'Yadav, Priyanka'
'Sonker, Priyanka'
'Singh, Radhey Mohan'
'Tewari, Ashish Kumar'
_publ_section_title
;
 Sodium sulphide promoted synthesis of fused quinoline at room
 temperature.
;
_journal_issue                   37
_journal_name_full               'Organic &amp; biomolecular chemistry'
_journal_page_first              8108
_journal_page_last               8112
_journal_paper_doi               10.1039/d1ob01085a
_journal_volume                  19
_journal_year                    2021
_chemical_formula_sum            'C H Cl N O S'
_chemical_formula_weight         110.54
_space_group_crystal_system      triclinic
_space_group_IT_number           2
_space_group_name_Hall           '-P 1'
_space_group_name_H-M_alt        'P -1'
_atom_sites_solution_hydrogens   geom
_audit_creation_method           SHELXL-2016/6
_audit_update_record
;
2020-10-01 deposited with the CCDC.	2021-08-23 downloaded from the CCDC.
;
_cell_angle_alpha                96.280(4)
_cell_angle_beta                 90.168(4)
_cell_angle_gamma                104.398(4)
_cell_formula_units_Z            8
_cell_length_a                   7.0134(4)
_cell_length_b                   7.0858(5)
_cell_length_c                   15.5319(10)
_cell_measurement_temperature    296(2)
_cell_volume                     742.77(8)
_computing_structure_refinement  'SHELXL-2016/6 (Sheldrick, 2016)'
_computing_structure_solution    'SHELXT 2014/5 (Sheldrick, 2014)'
_diffrn_ambient_temperature      296(2)
_diffrn_measured_fraction_theta_full 0.998
_diffrn_measured_fraction_theta_max 0.993
_diffrn_radiation_type           MoK\a
_diffrn_radiation_wavelength     0.71073
_diffrn_reflns_av_R_equivalents  0.0358
_diffrn_reflns_av_unetI/netI     0.0435
_diffrn_reflns_Laue_measured_fraction_full 0.998
_diffrn_reflns_Laue_measured_fraction_max 0.993
_diffrn_reflns_limit_h_max       8
_diffrn_reflns_limit_h_min       -9
_diffrn_reflns_limit_k_max       9
_diffrn_reflns_limit_k_min       -9
_diffrn_reflns_limit_l_max       21
_diffrn_reflns_limit_l_min       -20
_diffrn_reflns_number            16157
_diffrn_reflns_point_group_measured_fraction_full 0.998
_diffrn_reflns_point_group_measured_fraction_max 0.993
_diffrn_reflns_theta_full        25.000
_diffrn_reflns_theta_max         29.574
_diffrn_reflns_theta_min         1.320
_exptl_absorpt_coefficient_mu    1.372
_exptl_crystal_density_diffrn    1.977
_exptl_crystal_F_000             440
_refine_diff_density_max         0.743
_refine_diff_density_min         -0.218
_refine_diff_density_rms         0.055
_refine_ls_extinction_method     none
_refine_ls_goodness_of_fit_ref   0.837
_refine_ls_hydrogen_treatment    constr
_refine_ls_matrix_type           full
_refine_ls_number_parameters     208
_refine_ls_number_reflns         4138
_refine_ls_number_restraints     0
_refine_ls_restrained_S_all      0.837
_refine_ls_R_factor_all          0.0806
_refine_ls_R_factor_gt           0.0552
_refine_ls_shift/su_max          0.000
_refine_ls_shift/su_mean         0.000
_refine_ls_structure_factor_coef Fsqd
_refine_ls_weighting_details
'w=1/[\s^2^(Fo^2^)+(0.1271P)^2^+0.2895P] where P=(Fo^2^+2Fc^2^)/3'
_refine_ls_weighting_scheme      calc
_refine_ls_wR_factor_gt          0.1578
_refine_ls_wR_factor_ref         0.1838
_reflns_Friedel_coverage         0.000
_reflns_number_gt                2881
_reflns_number_total             4138
_reflns_threshold_expression     'I > 2\s(I)'
_cod_data_source_file            d1ob01085a2.cif
_cod_data_source_block           shelx
_cod_depositor_comments
'Adding full bibliography for 7158285--7158286.cif.'
_cod_database_code               7158285
_shelx_shelxl_version_number     2016/6
_shelx_space_group_comment
;
The symmetry employed for this shelxl refinement is uniquely defined
by the following loop, which should always be used as a source of
symmetry information in preference to the above space-group names.
They are only intended as comments.
;
_shelx_res_file
;
TITL T1_a.res in P-1
    shelx.res
    created by SHELXL-2016/6 at 11:20:05 on 01-Oct-2020
CELL  0.71073   7.0134   7.0858  15.5319   96.280   90.168  104.398
ZERR     8.00   0.0004   0.0005   0.0010    0.004    0.004    0.004
LATT   1
SFAC  C    H    N    O    S    CL
UNIT  8 8 8 8 8 8
MERG   2
FMAP   2
PLAN    5
BOND   $H
ACTA   50
CONF
L.S.  20
TEMP    23.00
WGHT    0.127100    0.289500
FVAR       1.14248
S001  5    0.327195    0.602781    0.218567    11.00000    0.03461    0.06683 =
         0.03604   -0.00302   -0.00631    0.00894
O002  4    0.476736    0.840961    0.790556    11.00000    0.05121    0.06536 =
         0.03176    0.00513    0.00285    0.01201
O003  4    0.069629    0.546375    0.334313    11.00000    0.03196    0.08763 =
         0.05176   -0.00255   -0.00300    0.00213
N004  3    0.722941    0.813937    0.454031    11.00000    0.03145    0.04428 =
         0.03329    0.00371   -0.00241    0.00345
C005  1    0.596008    0.747572    0.386905    11.00000    0.03190    0.03583 =
         0.03579    0.00317   -0.00225    0.00682
C006  1    0.389562    0.677676    0.398594    11.00000    0.02927    0.03672 =
         0.03809    0.00203   -0.00440    0.00631
C007  1    0.582024    0.702264    0.226206    11.00000    0.03479    0.04096 =
         0.03549    0.00214   -0.00121    0.01139
C008  1    0.449714    0.747110    0.552527    11.00000    0.03540    0.03500 =
         0.03631    0.00462   -0.00123    0.00700
C009  1    0.653670    0.815044    0.535184    11.00000    0.03421    0.03641 =
         0.03488    0.00485   -0.00098    0.00621
C00A  1    0.788269    0.886263    0.606311    11.00000    0.03429    0.05219 =
         0.03859    0.00384   -0.00484    0.00353
AFIX  43
H00A  2    0.922013    0.930038    0.596647    11.00000   -1.20000
AFIX   0
C00B  1    0.676599    0.720433    0.141139    11.00000    0.04029    0.03924 =
         0.03454    0.00104   -0.00291    0.00819
C00C  1    0.681315    0.756158    0.302562    11.00000    0.03398    0.04450 =
         0.03538    0.00471   -0.00186    0.00784
C00D  1    0.318748    0.678466    0.480736    11.00000    0.03353    0.04165 =
         0.04016    0.00248   -0.00127    0.00604
C00E  1    0.246465    0.606557    0.326224    11.00000    0.03158    0.04943 =
         0.04046   -0.00018   -0.00395    0.00853
C00F  1    0.871130    0.711120    0.132379    11.00000    0.04127    0.06073 =
         0.04486    0.01017    0.00270    0.01491
AFIX  43
H00F  2    0.941980    0.691797    0.179929    11.00000   -1.20000
AFIX   0
C00G  1    0.520004    0.824902    0.705334    11.00000    0.04825    0.04159 =
         0.03343    0.00596    0.00183    0.01146
C00H  1    0.385653    0.752976    0.638677    11.00000    0.03785    0.04218 =
         0.03917    0.00628    0.00288    0.00671
AFIX  43
H00H  2    0.252819    0.708114    0.649863    11.00000   -1.20000
AFIX   0
C00I  1    0.723499    0.891084    0.688441    11.00000    0.04264    0.05129 =
         0.03714    0.00333   -0.00688    0.00630
AFIX  43
H00I  2    0.813692    0.938494    0.734550    11.00000   -1.20000
AFIX   0
C00J  1    0.576399    0.749728    0.068987    11.00000    0.04860    0.08807 =
         0.03822    0.00815   -0.00333    0.02140
AFIX  43
H00J  2    0.446239    0.757315    0.073413    11.00000   -1.20000
AFIX   0
C00K  1    0.275033    0.779956    0.811067    11.00000    0.05827    0.05861 =
         0.04410    0.00711    0.01262    0.00744
AFIX  33
H00B  2    0.262526    0.797964    0.872765    11.00000   -1.50000
H00C  2    0.201803    0.856761    0.784195    11.00000   -1.50000
H00D  2    0.224467    0.643920    0.790102    11.00000   -1.50000
AFIX   0
C00L  1    0.858238    0.757925   -0.017373    11.00000    0.06441    0.07850 =
         0.03965    0.00619    0.01056    0.00748
AFIX  43
H00L  2    0.918962    0.769746   -0.070352    11.00000   -1.20000
AFIX   0
C00M  1    0.959998    0.730356    0.053551    11.00000    0.04546    0.08362 =
         0.05789    0.01314    0.01330    0.01559
AFIX  43
H00M  2    1.090573    0.724515    0.048573    11.00000   -1.20000
AFIX   0
C00N  1    0.667369    0.767946   -0.009875    11.00000    0.06305    0.09929 =
         0.03504    0.01121   -0.00610    0.01575
AFIX  43
H00N  2    0.597819    0.787089   -0.057869    11.00000   -1.20000
AFIX   0
HKLF    4




REM  T1_a.res in P-1
REM R1 =  0.0552 for    2881 Fo > 4sig(Fo)  and  0.0806 for all    4138 data
REM    208 parameters refined using      0 restraints

END

WGHT      0.0965      0.0161

REM Highest difference peak  0.743,  deepest hole -0.218,  1-sigma level  0.055
Q1    1   0.8251  0.8131  0.3038  11.00000  0.05    0.74
Q2    1   0.1778  0.6440  0.4896  11.00000  0.05    0.69
Q3    1   0.5677  0.7804  0.5409  11.00000  0.05    0.32
Q4    1   0.6205  0.8656  0.6940  11.00000  0.05    0.25
Q5    1   0.5002  0.7168  0.3893  11.00000  0.05    0.24
;
_shelx_res_checksum              1459
_shelx_hkl_file
;
  -2   0   0  874.01   26.80
  -2   0   0  844.52   26.80
  -2   0   0  862.21   27.00
  -2   0   0  870.01   27.90
  -2   0   0  921.21   28.30
  -2   0   0  871.81   28.20
   2   0   0  840.82   27.10
   2   0   0  864.71   27.20
   2   0   0  898.41   28.50
  -3   0   0 1686.23   53.59
  -3   0   0 1696.33   51.79
  -3   0   0 1680.83   53.19
  -3   0   0 1736.43   53.59
  -3   0   0 1704.03   51.29
   3   0   0 1701.03   52.09
   3   0   0 1658.53   52.09
  -4   0   0   67.09    3.90
  -4   0   0   71.29    7.00
  -4   0   0   75.49    4.60
  -4   0   0   74.19    6.90
  -4   0   0   53.39    8.00
  -4   0   0   76.09    5.80
   4   0   0   60.59    4.60
  -5   0   0  278.87   13.90
  -5   0   0  308.97   14.80
  -5   0   0  290.57   12.00
  -5   0   0  254.87   13.90
   5   0   0  280.97   12.70
  -6   0   0   25.90    5.20
  -6   0   0   21.20    4.90
  -6   0   0   25.80    5.30
  -7   0   0    0.70    2.10
  -7   0   0    0.10    2.60
  -7   0   0    0.00    2.40
  -8   0   0   28.10    6.30
  -8   0   0   27.70   10.30
  -8   0   0   44.20    7.90
  -9   0   0    5.80    4.10
  -9   1   0   10.50    5.50
  -8   1   0   93.99   10.90
  -8   1   0   87.49   10.90
  -7   1   0   -1.10    1.70
  -7   1   0    2.20    2.80
  -7   1   0    2.40    1.90
   6  -1   0   14.70    3.50
  -6   1   0   10.40    3.70
  -6   1   0   12.40    3.30
  -6   1   0   11.20    3.60
   5  -1   0    9.50    2.30
  -5   1   0    6.60    2.50
  -5   1   0    9.50    3.10
  -5   1   0    5.60    2.00
  -5   1   0    8.20    1.90
  -5   1   0    4.90    2.20
   4  -1   0  321.27   11.60
   4  -1   0  329.27   13.00
  -4   1   0  320.17   14.30
  -4   1   0  321.77   14.00
  -4   1   0  309.17   13.30
  -4   1   0  308.27   13.50
  -4   1   0  326.07   12.70
  -4   1   0  300.27   12.40
   3  -1   0  278.07   10.00
   3  -1   0  287.27   10.80
   3  -1   0  257.77   10.50
  -3   1   0  267.57   10.70
  -3   1   0  255.17   10.90
  -3   1   0  279.67   10.70
  -3   1   0  276.47   10.60
  -3   1   0  275.67   11.10
  -3   1   0  280.57   11.60
   2  -1   0  117.79    5.20
   2  -1   0  114.09    5.50
   2  -1   0  124.09    5.30
   2  -1   0  122.39    5.00
  -2   1   0  113.89    5.30
  -2   1   0  139.99    5.50
  -2   1   0  118.39    5.40
  -2   1   0  130.59    5.60
  -2   1   0  120.79    6.10
  -2   1   0  122.19    5.40
   1  -1   0  527.25   16.80
   1  -1   0  514.65   15.70
   1  -1   0  523.85   16.90
   1  -1   0  515.45   15.70
  -1   1   0  507.55   15.90
  -1   1   0  532.35   16.00
  -1   1   0  535.45   16.80
  -1   1   0  516.55   16.80
  -1   1   0  511.75   15.80
   0  -1   0  497.35   15.60
   0  -1   0  497.95   15.70
   0  -1   0  505.05   16.20
   0   1   0  494.85   16.10
  -1  -1   0 1893.41   57.09
  -1  -1   0 1901.01   55.89
  -1  -1   0 1859.91   56.89
   1   1   0 1830.32   56.89
   1   1   0 1898.71   57.49
  -2  -1   0   52.39    4.00
  -2  -1   0   63.39    4.30
  -2  -1   0   55.39    3.10
  -2  -1   0   54.89    3.60
   2   1   0   54.79    2.60
   2   1   0   58.99    2.60
  -3  -1   0 1150.58   37.90
  -3  -1   0 1104.09   37.50
  -3  -1   0 1093.69   36.20
  -3  -1   0 1124.89   35.00
   3   1   0 1101.39   34.70
   3   1   0 1099.69   34.80
  -4  -1   0  191.68    8.70
  -4  -1   0  179.18   10.60
  -4  -1   0  216.38   11.50
  -4  -1   0  197.68   10.10
   4   1   0  211.98    9.20
   4   1   0  203.28    9.10
  -5  -1   0   50.29    7.10
  -5  -1   0   62.49    7.00
  -5  -1   0   48.50    6.90
   5   1   0   57.99    5.70
  -6  -1   0   -1.10    1.60
  -6  -1   0   -0.40    1.50
  -6  -1   0    1.00    2.30
  -7  -1   0   13.10    4.50
  -7  -1   0   13.70    4.50
  -8  -1   0    1.90    2.90
  -8  -1   0    0.20    2.60
  -9  -1   0   -2.20    3.20
  -9   2   0    2.90    4.30
  -8   2   0   31.00    7.40
  -7   2   0    6.30    2.80
  -7   2   0    6.10    3.90
  -6   2   0    1.40    1.70
  -6   2   0    0.90    2.40
  -6   2   0   -0.10    1.40
  -6   2   0   -1.20    1.40
   5  -2   0   61.79    4.50
   5  -2   0   55.89    5.20
  -5   2   0   54.09    7.10
  -5   2   0   68.89    6.70
  -5   2   0   58.89    5.80
  -5   2   0   59.79    6.20
  -5   2   0   55.09    5.60
  -5   2   0   67.99    7.30
   4  -2   0 1432.36   45.00
   4  -2   0 1454.75   45.00
  -4   2   0 1431.26   45.50
  -4   2   0 1387.66   45.10
  -4   2   0 1390.56   47.50
  -4   2   0 1387.96   45.40
  -4   2   0 1437.76   46.10
  -4   2   0 1441.96   47.00
   3  -2   0 1119.39   35.10
   3  -2   0 1139.69   34.30
   3  -2   0 1097.59   36.30
   3  -2   0 1087.89   35.70
   3  -2   0 1129.49   33.40
  -3   2   0 1117.29   36.70
  -3   2   0 1099.29   34.50
  -3   2   0 1078.89   34.90
  -3   2   0 1048.50   34.90
  -3   2   0 1087.09   35.60
  -3   2   0 1060.59   34.20
  -3   2   0 1048.50   35.90
   2  -2   0  833.92   27.80
   2  -2   0  858.61   27.50
   2  -2   0  819.72   27.70
  -2   2   0  870.31   28.30
  -2   2   0  876.81   26.40
  -2   2   0  800.82   27.50
  -2   2   0  834.92   26.40
  -2   2   0  856.81   25.80
  -1  -2   0   59.99    3.70
  -1  -2   0   59.69    4.00
  -1  -2   0   56.59    4.10
   1   2   0   57.19    4.40
   1   2   0   59.39    2.50
  -2  -2   0  368.06   13.20
  -2  -2   0  352.86   15.00
  -2  -2   0  361.56   13.40
  -2  -2   0  346.67   14.60
   2   2   0  365.66   12.80
   2   2   0  348.57   15.50
  -3  -2   0   19.40    3.70
  -3  -2   0   24.70    4.10
  -3  -2   0   27.00    3.10
  -3  -2   0   22.60    3.30
   3   2   0   25.10    1.90
   3   2   0   25.20    1.90
   3   2   0   32.50    5.10
  -4  -2   0   80.39    6.10
  -4  -2   0   91.49    5.50
  -4  -2   0   87.39    9.00
  -4  -2   0   83.39    8.80
   4   2   0   91.59    9.90
   4   2   0   91.79    5.20
  -5  -2   0   13.80    3.50
  -5  -2   0   10.20    3.90
  -5  -2   0   13.40    3.80
   5   2   0   12.20    2.70
  -6  -2   0    3.70    2.60
  -6  -2   0    9.30    3.60
  -7  -2   0  117.99   13.80
  -7  -2   0  106.69   12.80
  -8  -2   0   13.40    5.50
  -9   3   0   11.10    5.50
  -8   3   0    2.00    3.40
  -7   3   0   17.70    5.50
   6  -3   0   11.00    2.90
  -6   3   0    5.00    2.40
  -6   3   0    2.30    3.00
  -6   3   0    4.60    2.00
   5  -3   0  363.36   15.60
  -5   3   0  386.66   16.80
  -5   3   0  373.26   15.30
  -5   3   0  373.06   15.80
  -5   3   0  406.26   17.80
  -5   3   0  359.86   17.90
   4  -3   0 1707.33   54.49
   4  -3   0 1717.03   55.19
  -4   3   0 1749.43   52.89
  -4   3   0 1684.03   56.39
  -4   3   0 1689.93   53.99
  -4   3   0 1699.53   52.49
  -4   3   0 1654.53   55.09
  -4   3   0 1713.23   55.39
   3  -3   0    2.70    1.40
   3  -3   0    2.30    1.50
   3  -3   0    4.10    1.70
  -3   3   0    5.00    1.00
  -3   3   0    3.00    1.00
  -3   3   0    4.50    1.90
  -3   3   0    5.10    1.80
  -3   3   0    3.20    1.30
  -3   3   0   10.20    1.90
  -3   3   0    3.40    1.10
   2  -3   0   64.99    4.60
   2  -3   0   68.69    4.90
   2  -3   0   64.49    4.80
  -2   3   0   71.09    3.10
  -2   3   0   69.39    5.00
  -2   3   0   71.09    4.90
  -2   3   0   70.49    5.00
  -2   3   0   72.19    4.20
  -2   3   0   64.89    3.00
   1  -3   0 1084.49   33.70
   1  -3   0 1109.39   35.70
   1  -3   0 1107.29   35.30
   1  -3   0 1095.59   33.70
   1  -3   0 1051.29   35.10
   1  -3   0 1094.99   35.90
  -1   3   0 1100.79   33.70
  -1   3   0 1062.79   35.40
  -1   3   0 1103.99   35.30
  -1   3   0 1079.59   33.20
  -1   3   0 1059.19   35.60
  -1   3   0 1059.79   33.50
  -1   3   0 1087.69   35.80
   0  -3   0  116.59    5.80
   0  -3   0  100.59    6.60
   0  -3   0  116.09    5.80
   0  -3   0  111.99    5.80
   0  -3   0  102.59    5.90
   0  -3   0  105.89    5.70
   0   3   0   98.19    5.50
   0   3   0  101.99    6.60
   0   3   0   99.49    6.40
  -1  -3   0 1354.66   42.80
  -1  -3   0 1377.06   43.10
  -1  -3   0 1371.86   43.60
  -1  -3   0 1358.46   44.30
  -1  -3   0 1389.36   44.60
   1   3   0 1370.26   45.90
   1   3   0 1357.46   40.70
  -2  -3   0  233.58    8.90
  -2  -3   0  161.28   10.30
  -2  -3   0  241.58   10.00
  -2  -3   0  226.48    9.90
   2   3   0  225.88   12.20
  -3  -3   0  451.45   19.60
  -3  -3   0  421.76   18.80
  -3  -3   0  424.36   16.40
  -3  -3   0  415.56   16.80
   3   3   0  435.36   20.40
  -4  -3   0    7.30    3.00
  -4  -3   0   22.30    4.70
   4   3   0   17.30    4.90
   4   3   0   15.80    2.30
  -5  -3   0    3.70    2.50
  -5  -3   0    6.60    3.30
  -6  -3   0    3.70    3.00
  -6  -3   0    4.20    3.20
  -7  -3   0   56.69    9.50
  -7  -3   0   67.09   11.10
  -8  -3   0    4.50    4.60
  -9   4   0    0.50    3.70
  -8   4   0    8.20    5.00
  -7   4   0   79.29   10.80
  -7   4   0   69.29    8.30
   6  -4   0   83.09    8.30
  -6   4   0   77.59    9.20
  -6   4   0   62.49    8.90
  -6   4   0   81.69    8.90
   5  -4   0  141.69    9.40
   5  -4   0  126.99    8.50
  -5   4   0  123.19    9.60
  -5   4   0  136.49    9.40
  -5   4   0  139.19    9.30
  -5   4   0  158.98    8.80
   4  -4   0  181.88    9.90
   4  -4   0  162.88    9.80
  -4   4   0  164.78   10.30
  -4   4   0  170.18   10.00
  -4   4   0  167.88    8.70
  -4   4   0  167.58    9.60
  -4   4   0  162.08    8.30
   3  -4   0   64.49    6.50
   3  -4   0   65.89    6.70
  -3   4   0   68.79    4.00
  -3   4   0   63.39    4.90
  -3   4   0   60.59    6.40
  -3   4   0   56.99    3.70
  -3   4   0   81.19    7.80
  -3   4   0   63.49    6.50
   2  -4   0  728.83   26.30
   2  -4   0  702.43   25.80
   2  -4   0  616.24   27.20
  -2   4   0  730.73   26.10
  -2   4   0  716.53   26.10
  -2   4   0  714.13   24.00
  -2   4   0  728.53   26.30
  -2   4   0  702.23   22.40
  -2   4   0  745.63   23.10
   1  -4   0   11.00    3.30
   1  -4   0    8.30    1.90
   1  -4   0   12.50    2.90
   1  -4   0   14.40    2.30
   1  -4   0   14.50    3.40
  -1   4   0    9.60    2.70
  -1   4   0    7.50    2.40
  -1   4   0   12.30    2.80
  -1   4   0   13.10    3.00
  -1   4   0   11.70    1.70
  -1   4   0   14.50    2.30
   0  -4   0  131.69    7.80
   0  -4   0  128.29    7.30
   0  -4   0  134.59    7.30
   0  -4   0  123.69    7.10
   0  -4   0  127.99    7.20
   0   4   0  149.69    9.00
   0   4   0  121.39    7.10
   0   4   0  128.69    4.60
   0   4   0  131.79    8.40
  -1  -4   0   35.10    4.80
  -1  -4   0   26.50    3.90
  -1  -4   0   33.50    4.10
  -1  -4   0   25.70    3.90
  -1  -4   0   37.50    4.30
   1   4   0   31.60    5.10
  -2  -4   0   39.10    5.80
  -2  -4   0   44.70    4.80
  -2  -4   0   47.80    6.10
  -2  -4   0   39.90    4.90
  -2  -4   0   39.40    4.20
   2   4   0   41.00    6.50
  -3  -4   0    2.40    2.00
  -3  -4   0    9.70    2.70
  -3  -4   0    0.80    1.80
   3   4   0   13.30    4.20
  -4  -4   0  104.69   11.40
  -4  -4   0  133.99   12.90
  -5  -4   0    3.10    3.10
  -5  -4   0    4.20    3.30
  -6  -4   0    8.40    4.10
  -6  -4   0   15.70    5.60
  -7  -4   0   13.30    5.80
  -9   5   0   -1.80    3.90
  -8   5   0    6.40    5.50
   7  -5   0    2.60    2.40
  -7   5   0    5.10    3.50
  -7   5   0   -0.30    2.60
   6  -5   0   40.10    6.70
   6  -5   0   46.60    6.50
  -6   5   0   49.70    7.70
  -6   5   0   41.70    7.70
  -6   5   0   40.30    6.80
   5  -5   0  263.17   13.80
   5  -5   0  240.48   14.00
  -5   5   0  261.07   15.10
  -5   5   0  258.57   14.30
  -5   5   0  260.97   14.10
   4  -5   0   43.50    6.30
   4  -5   0   37.70    5.60
  -4   5   0   40.50    4.30
  -4   5   0   33.00    5.50
  -4   5   0   41.20    6.20
  -4   5   0   51.79    6.00
   3  -5   0  138.49    8.80
   3  -5   0  121.19    8.60
  -3   5   0  131.49    8.80
  -3   5   0  118.99    7.30
  -3   5   0  125.79    8.60
  -3   5   0  114.19    5.60
  -3   5   0  124.79    8.70
   2  -5   0  192.58   10.70
   2  -5   0  185.68   10.90
  -2   5   0  191.08    8.70
  -2   5   0  187.48   10.90
  -2   5   0  194.98   10.80
  -2   5   0  202.18   11.30
   1  -5   0    2.80    2.20
   1  -5   0   -0.30    1.20
   1  -5   0    2.10    1.50
   1  -5   0    1.50    1.30
   1  -5   0    0.30    1.10
  -1   5   0    0.60    0.70
  -1   5   0    0.20    1.40
  -1   5   0   -0.30    1.20
  -1   5   0    2.80    1.50
  -1   5   0    0.90    1.40
  -1   5   0    1.20    1.70
   0  -5   0   40.40    5.00
   0  -5   0   36.40    5.00
   0  -5   0   36.30    4.90
   0  -5   0   40.90    5.60
   0  -5   0   40.80    5.00
   0   5   0   38.30    5.90
   0   5   0   34.10    5.70
   0   5   0   35.10    2.20
   0   5   0   37.80    5.50
   0   5   0   46.50    5.60
  -1  -5   0  134.69    8.70
  -1  -5   0  130.49    7.90
  -1  -5   0  136.79    9.00
  -1  -5   0  137.69    8.90
  -1  -5   0  120.79    7.80
   1   5   0  147.29   10.70
   1   5   0  142.09    8.10
   1   5   0  132.49    9.80
  -2  -5   0    4.70    2.10
  -2  -5   0    3.10    2.00
  -2  -5   0    8.30    3.10
   2   5   0    1.90    2.60
  -3  -5   0   17.70    4.70
  -3  -5   0   16.00    4.30
  -4  -5   0    3.70    3.00
  -4  -5   0    5.00    3.30
  -5  -5   0    2.30    3.80
  -5  -5   0    3.80    3.70
  -6  -5   0   19.00    6.30
  -8   6   0    9.10    7.20
  -8   6   0    4.30    4.50
   7  -6   0    3.10    2.90
  -7   6   0    9.20    4.60
  -7   6   0    5.40    3.40
  -7   6   0    3.80    2.90
   6  -6   0   10.30    4.00
   6  -6   0    8.10    3.40
  -6   6   0    7.00    3.30
  -6   6   0    9.50    4.30
  -6   6   0    6.90    3.50
   5  -6   0    3.70    2.70
   5  -6   0    2.40    2.30
  -5   6   0    1.20    2.70
  -5   6   0   -1.20    1.40
  -5   6   0    5.50    3.00
   4  -6   0   10.80    3.70
   4  -6   0   16.80    4.40
  -4   6   0   13.40    3.80
  -4   6   0   13.40    3.40
  -4   6   0    8.90    3.60
   3  -6   0    9.90    3.60
   3  -6   0   15.10    4.30
  -3   6   0    3.80    2.60
  -3   6   0   11.60    1.70
  -3   6   0    8.00    3.20
  -3   6   0    9.90    2.60
  -3   6   0    9.10    3.40
   2  -6   0   54.79    7.50
   2  -6   0   70.79    8.20
  -2   6   0   69.59    8.00
  -2   6   0   45.20    6.80
  -2   6   0   55.79    7.40
  -2   6   0   64.19    7.90
  -2   6   0   59.69    5.40
   1  -6   0   81.69    8.50
   1  -6   0   64.99    8.00
  -1   6   0   63.19    4.00
  -1   6   0   62.49    8.10
  -1   6   0   67.29    7.60
  -1   6   0   50.99    7.50
  -1   6   0   66.89    7.90
   0  -6   0  102.29    7.50
   0  -6   0  118.19   10.60
   0  -6   0  114.19    9.80
   0  -6   0  108.49   10.60
   0   6   0   87.89   10.20
   0   6   0  106.19    7.70
   0   6   0   95.19    9.50
   0   6   0   95.89   10.40
  -1  -6   0   65.09    8.10
  -1  -6   0   56.89    6.80
  -1  -6   0   65.39    7.70
  -1  -6   0   55.29    7.10
   1   6   0   68.99    8.00
   1   6   0   53.99    8.00
  -2  -6   0    3.60    2.90
  -2  -6   0    2.00    2.20
  -2  -6   0    8.50    3.20
   2   6   0    2.40    2.40
  -3  -6   0   43.90    7.60
  -3  -6   0   70.39    9.50
  -4  -6   0    0.70    3.30
  -4  -6   0    0.20    2.30
  -5  -6   0    4.30    4.20
  -8   7   0    5.10    4.80
  -8   7   0   16.30    5.80
   7  -7   0    2.10    3.80
   7  -7   0    2.10    3.30
  -7   7   0    6.30    3.60
  -7   7   0    3.20    3.60
  -7   7   0    4.30    3.50
   6  -7   0    4.30    3.70
   6  -7   0   10.00    4.00
  -6   7   0   -0.30    1.80
  -6   7   0    1.80    3.20
  -6   7   0    3.10    3.40
   5  -7   0   -0.80    2.20
   5  -7   0    4.70    2.90
  -5   7   0    0.10    2.10
  -5   7   0   -1.00    2.40
  -5   7   0   -1.70    1.60
   4  -7   0    1.40    2.10
   4  -7   0   -0.20    2.00
  -4   7   0   -0.60    2.20
  -4   7   0    1.60    3.00
  -4   7   0   -0.80    1.30
   3  -7   0    8.20    3.20
   3  -7   0   14.80    4.30
  -3   7   0    8.60    2.50
  -3   7   0    8.20    3.60
  -3   7   0   10.00    3.60
   2  -7   0   -0.80    1.90
   2  -7   0   -1.40    1.50
  -2   7   0   -0.30    1.00
  -2   7   0    3.00    3.20
  -2   7   0   -1.70    1.50
  -2   7   0    0.40    2.00
   1  -7   0    0.70    2.10
   1  -7   0    0.80    2.20
  -1   7   0   -0.60    0.70
  -1   7   0    4.40    2.70
  -1   7   0    0.10    2.60
  -1   7   0    0.90    2.10
   0  -7   0   20.90    5.30
   0  -7   0   15.50    4.00
   0   7   0   16.70    5.20
   0   7   0   18.00    4.80
  -1  -7   0    7.20    3.60
   1   7   0    5.70    3.10
   1   7   0    6.50    3.80
  -2  -7   0   29.60    6.40
   2   7   0   25.30    6.40
  -3  -7   0    1.70    3.50
  -3  -7   0    1.40    3.30
   3   7   0    1.30    4.10
  -4  -7   0    0.90    4.20
  -4  -7   0   -2.10    3.90
   4   7   0    2.50    3.80
   7  -8   0    3.20    3.60
   7  -8   0    0.10    4.10
  -7   8   0    1.30    3.50
  -7   8   0    1.00    3.80
  -7   8   0    2.00    3.50
   6  -8   0    3.70    2.80
   6  -8   0   -0.90    3.30
  -6   8   0    2.60    3.70
  -6   8   0    3.70    2.90
  -6   8   0   -1.50    3.60
   5  -8   0    3.50    3.00
   5  -8   0    5.40    4.00
  -5   8   0    0.40    3.30
  -5   8   0    6.50    3.40
  -5   8   0    4.10    3.80
   4  -8   0   -0.50    2.20
   4  -8   0    1.20    3.50
  -4   8   0    0.80    3.20
  -4   8   0    3.10    2.40
  -4   8   0   -3.70    2.50
   3  -8   0    3.00    2.90
   3  -8   0   16.00    5.20
  -3   8   0    6.10    3.70
  -3   8   0   12.20    4.60
  -3   8   0    6.60    2.50
   2  -8   0    0.10    2.30
   2  -8   0   -0.20    2.50
  -2   8   0    1.20    1.30
  -2   8   0    3.90    3.30
   1  -8   0    0.70    2.70
   1  -8   0    0.60    2.30
  -1   8   0    2.00    3.10
  -1   8   0    4.00    3.20
   0  -8   0    1.30    2.90
   0  -8   0    9.80    4.20
   0   8   0    0.60    3.10
   0   8   0    0.80    3.60
   1   8   0    3.80    3.90
   1   8   0    5.30    3.30
   2   8   0   -2.50    3.30
   3   8   0   11.80    6.10
   5  -9   0    3.90    3.20
   5  -9   0    0.10    4.00
  -5   9   0    0.30    2.20
  -5   9   0    3.10    4.50
  -5   9   0    1.40    3.50
   4  -9   0    1.60    3.70
   4  -9   0    1.10    2.90
  -4   9   0    3.00    4.10
  -4   9   0    3.40    3.70
  -4   9   0    2.00    2.30
   3  -9   0    3.70    3.70
   3  -9   0    0.90    2.60
  -3   9   0    1.00    3.10
  -3   9   0    1.30    1.80
   2  -9   0    0.20    3.10
   2  -9   0   -1.30    3.40
  -2   9   0    6.30    4.00
   1  -9   0    4.10    4.00
   1  -9   0    4.20    3.60
  -1   9   0    7.10    3.90
   0  -9   0    5.00    3.90
   0   9   0    2.50    3.70
   0   9   0    2.30    3.40
   1   9   0    2.30    4.50
   1   9  -1    6.40    4.80
   0   9  -1    2.40    3.10
   0   9  -1   -2.40    3.70
   0  -9   1    1.10    3.70
  -1   9  -1    2.40    3.30
  -1   9  -1    2.20    4.30
   1  -9   1   -0.70    2.50
   1  -9   1   -1.90    3.60
  -2   9  -1    2.20    3.70
   2  -9   1   -0.70    3.20
   2  -9   1   -1.50    2.70
  -3   9  -1    8.60    4.60
   3  -9   1    9.10    4.90
   3  -9   1    7.90    4.10
  -4   9  -1   -0.20    1.90
  -4   9  -1   -0.90    3.60
   4  -9   1    8.10    4.70
   4  -9   1    5.20    3.80
  -5   9  -1    0.40    3.30
  -5   9  -1    2.90    3.90
  -5   9  -1    1.60    2.60
   5  -9   1    1.60    3.20
   5  -9   1    3.90    4.00
  -6   9  -1    6.30    4.60
   6  -9   1    1.70    3.30
   3   8  -1    1.30    3.50
   2   8  -1   13.80    5.70
   1   8  -1    1.00    3.50
   1   8  -1    1.30    3.10
  -1  -8   1    1.00    3.00
   0   8  -1    6.10    3.80
   0   8  -1   13.70    5.20
   0  -8   1   18.90    5.00
   0  -8   1   27.30    6.40
  -1   8  -1    0.20    2.50
  -1   8  -1    1.90    2.90
   1  -8   1    0.50    2.50
   1  -8   1    7.40    4.10
  -2   8  -1    4.80    3.50
   2  -8   1    5.30    3.40
   2  -8   1    9.10    4.30
  -3   8  -1    4.80    2.20
  -3   8  -1    5.10    3.50
  -3   8  -1    1.60    3.10
   3  -8   1    2.10    3.40
   3  -8   1    0.10    2.60
  -4   8  -1   -0.60    1.50
  -4   8  -1   -0.40    3.00
  -4   8  -1    2.00    3.50
   4  -8   1   -0.60    2.60
   4  -8   1   -2.00    2.10
  -5   8  -1    1.00    3.00
  -5   8  -1    1.60    2.70
  -5   8  -1    1.40    3.10
   5  -8   1    3.70    3.70
   5  -8   1    1.60    2.60
  -6   8  -1    6.80    4.50
  -6   8  -1    9.40    5.00
  -6   8  -1    6.50    3.90
   6  -8   1    3.00    3.00
   6  -8   1    4.00    3.50
  -7   8  -1    0.00    4.00
  -7   8  -1    2.20    4.10
  -7   8  -1    4.20    4.20
   7  -8   1   11.20    4.80
   7  -8   1   -1.30    3.50
   4   7  -1    5.40    4.20
  -4  -7   1   -0.30    3.00
  -4  -7   1    1.20    4.00
   3   7  -1    0.00    3.30
  -3  -7   1    2.50    3.30
  -3  -7   1    1.50    3.40
   2   7  -1   -1.00    2.50
  -2  -7   1    4.10    3.10
   1   7  -1    1.10    2.70
   1   7  -1   13.30    4.40
  -1  -7   1   20.50    5.40
   0   7  -1   20.50    5.00
   0   7  -1   32.10    6.70
   0  -7   1   37.80    5.90
   0  -7   1   34.80    6.30
  -1   7  -1   22.80    5.70
  -1   7  -1   16.00    4.60
   1  -7   1   19.60    4.70
   1  -7   1   26.60    5.60
  -2   7  -1    1.60    2.40
  -2   7  -1    2.20    2.80
  -2   7  -1   -0.50    1.10
  -2   7  -1    4.90    2.90
  -2   7  -1   -0.70    2.60
   2  -7   1    6.70    3.00
   2  -7   1    6.00    3.10
  -3   7  -1   33.60    6.40
  -3   7  -1   41.40    5.50
  -3   7  -1   50.49    7.50
   3  -7   1   50.79    8.00
   3  -7   1   43.10    7.20
  -4   7  -1    3.60    2.00
  -4   7  -1    0.10    2.10
  -4   7  -1    3.20    3.20
   4  -7   1    3.20    2.40
   4  -7   1    2.10    2.50
  -5   7  -1   71.19    8.50
  -5   7  -1   60.69    8.70
  -5   7  -1   67.09    9.30
   5  -7   1   80.09   10.00
   5  -7   1   68.29    9.30
  -6   7  -1   54.79    8.20
  -6   7  -1   60.79    9.20
  -6   7  -1   64.09    9.90
   6  -7   1   67.99    9.20
   6  -7   1   66.89    9.40
  -7   7  -1    0.50    3.30
  -7   7  -1    3.50    3.20
  -7   7  -1    6.80    5.30
   7  -7   1    5.30    3.40
   7  -7   1    9.30    4.70
  -8   7  -1   -0.90    3.40
  -8   7  -1    5.10    5.20
  -5  -6   1    5.20    4.60
  -5  -6   1   24.20    8.20
  -4  -6   1   -2.90    1.90
  -4  -6   1   -0.60    2.10
  -3  -6   1    1.40    2.70
  -3  -6   1   -0.40    2.60
   2   6  -1   12.70    4.80
  -2  -6   1   -0.80    2.20
  -2  -6   1    5.40    2.80
  -2  -6   1    4.50    2.70
   1   6  -1    4.70    2.90
  -1  -6   1    9.00    3.30
  -1  -6   1    7.00    2.70
  -1  -6   1   14.60    3.80
  -1  -6   1   11.00    3.60
   0   6  -1   18.40    4.90
   0   6  -1   15.70    4.70
   0  -6   1   17.90    4.20
   0  -6   1   27.00    4.80
  -1   6  -1   12.80    3.90
  -1   6  -1   18.10    4.00
  -1   6  -1   14.60    2.40
  -1   6  -1   14.40    3.80
   1  -6   1   18.90    4.30
   1  -6   1   12.90    3.40
  -2   6  -1  391.26   18.90
  -2   6  -1  346.37   18.40
  -2   6  -1  370.86   18.20
  -2   6  -1  397.16   17.70
  -2   6  -1  380.06   15.10
   2  -6   1  357.26   17.50
   2  -6   1  361.76   18.10
  -3   6  -1  329.37   17.00
  -3   6  -1  316.37   14.50
  -3   6  -1  324.07   17.00
  -3   6  -1  349.67   16.90
  -3   6  -1  319.97   12.10
   3  -6   1  316.37   16.20
   3  -6   1  334.27   17.10
  -4   6  -1   18.20    4.90
  -4   6  -1   14.00    3.30
  -4   6  -1   15.40    4.20
   4  -6   1   19.20    4.40
   4  -6   1   18.80    4.70
  -5   6  -1   67.39    8.60
  -5   6  -1   67.09    9.10
   5  -6   1   74.79    9.00
   5  -6   1   75.29    9.40
  -6   6  -1   60.59    8.60
  -6   6  -1   58.69    9.10
  -6   6  -1   43.70    7.30
   6  -6   1   56.99    8.30
   6  -6   1   48.70    7.20
  -7   6  -1    5.00    3.50
  -7   6  -1    1.90    2.70
  -7   6  -1    3.00    3.70
   7  -6   1   15.40    4.80
  -8   6  -1    3.30    4.30
  -6  -5   1    6.00    4.70
  -5  -5   1    4.20    3.60
  -5  -5   1    1.10    3.20
  -4  -5   1    1.80    2.50
  -4  -5   1    0.20    2.20
  -3  -5   1    2.60    2.50
  -3  -5   1    0.30    1.80
   2   5  -1  147.79   11.30
  -2  -5   1  133.99    9.50
  -2  -5   1  128.69    9.60
  -2  -5   1  142.59    9.10
   1   5  -1   -0.50    1.70
   1   5  -1    1.80    2.20
  -1  -5   1    2.60    1.80
  -1  -5   1    3.60    2.30
  -1  -5   1    1.00    1.50
  -1  -5   1   -1.10    1.20
   0   5  -1  129.09    9.70
   0   5  -1  126.09    7.60
   0   5  -1  129.89    9.40
   0  -5   1  138.09    8.20
   0  -5   1  138.79    7.80
   0  -5   1  123.69    8.50
   0  -5   1  122.19    7.50
   0  -5   1  124.69    7.70
  -1   5  -1    0.50    1.70
  -1   5  -1   -0.10    1.10
  -1   5  -1   -1.20    1.10
  -1   5  -1   -0.50    0.60
  -1   5  -1    0.90    1.90
  -1   5  -1    0.10    1.00
   1  -5   1    1.70    1.20
   1  -5   1   -0.50    1.20
   1  -5   1    1.60    1.50
  -2   5  -1    6.70    2.50
  -2   5  -1    3.00    1.30
  -2   5  -1    3.90    2.10
  -2   5  -1    1.70    1.80
   2  -5   1    3.90    2.10
   2  -5   1    7.20    2.60
  -3   5  -1   10.60    3.30
  -3   5  -1    8.90    3.00
  -3   5  -1    7.40    1.50
  -3   5  -1    7.80    2.70
  -3   5  -1    6.90    2.10
   3  -5   1    1.30    1.90
   3  -5   1    8.00    2.80
  -4   5  -1   91.59    9.40
  -4   5  -1  104.49    9.50
  -4   5  -1   82.79    7.90
  -4   5  -1   78.79    5.60
   4  -5   1  114.89   10.10
   4  -5   1   96.69    9.40
  -5   5  -1  263.37   13.90
  -5   5  -1  239.28   13.70
  -5   5  -1  261.47   15.10
   5  -5   1  224.38   13.00
   5  -5   1  255.37   14.00
  -6   5  -1    0.50    1.90
  -6   5  -1    0.30    2.10
  -6   5  -1   -2.50    2.10
   6  -5   1    5.60    2.70
   6  -5   1    3.70    2.40
  -7   5  -1    3.30    3.50
  -7   5  -1    3.80    2.70
   7  -5   1    4.10    2.50
  -8   5  -1    5.50    4.70
  -9   5  -1    2.90    5.40
  -7  -4   1   19.20    7.20
  -6  -4   1   24.90    6.70
  -6  -4   1   29.00    7.30
  -5  -4   1    7.20    3.90
  -5  -4   1   11.20    4.40
   4   4  -1   65.89    4.10
  -4  -4   1   73.59    9.50
  -4  -4   1   74.49    9.40
   3   4  -1   70.09    9.20
  -3  -4   1   64.69    8.00
  -3  -4   1   84.89    7.60
   2   4  -1  151.28   10.60
  -2  -4   1  148.79    8.60
  -2  -4   1  134.99    8.90
  -2  -4   1  147.49    9.60
  -2  -4   1  153.68    7.50
   1   4  -1  507.45   21.40
   1   4  -1  500.15   18.30
   1   4  -1  523.45   22.00
  -1  -4   1  511.15   19.90
  -1  -4   1  506.25   18.30
  -1  -4   1  506.75   19.80
  -1  -4   1  501.05   18.70
  -1  -4   1  496.25   20.10
   0   4  -1   10.90    3.10
   0   4  -1   10.30    2.30
   0   4  -1   17.40    3.80
   0  -4   1    8.90    2.20
   0  -4   1    8.50    2.30
   0  -4   1    8.00    1.90
   0  -4   1   11.30    2.50
   0  -4   1    5.90    1.80
  -1   4  -1 6352.76  187.18
  -1   4  -1 6353.16  185.08
  -1   4  -1 6276.57  188.88
  -1   4  -1 6204.28  184.68
  -1   4  -1 6365.96  189.08
   1  -4   1 6233.48  187.48
   1  -4   1 6404.06  185.18
   1  -4   1 6157.98  185.28
   1  -4   1 6228.68  188.08
  -2   4  -1 4284.37  128.69
  -2   4  -1 4285.87  131.39
  -2   4  -1 4239.78  130.49
  -2   4  -1 4417.56  126.59
  -2   4  -1 4404.86  131.09
   2  -4   1 4242.18  130.99
   2  -4   1 4267.47  130.39
  -3   4  -1   54.99    6.70
  -3   4  -1   47.70    3.50
  -3   4  -1   62.79    6.60
  -3   4  -1   48.40    5.00
  -3   4  -1   41.10    5.30
  -3   4  -1   48.20    3.40
   3  -4   1   39.40    5.20
   3  -4   1   52.39    5.70
  -4   4  -1  405.26   17.00
  -4   4  -1  372.06   16.70
  -4   4  -1  385.56   17.80
  -4   4  -1  386.76   15.30
   4  -4   1  365.86   16.40
   4  -4   1  373.76   16.70
  -5   4  -1  166.48   11.20
  -5   4  -1  171.38   10.20
  -5   4  -1  144.69    9.80
  -5   4  -1  162.38    9.20
   5  -4   1  140.09    9.50
   5  -4   1  152.38    9.30
  -6   4  -1   13.80    3.90
  -6   4  -1   22.30    5.60
  -6   4  -1   19.90    4.60
   6  -4   1   17.60    4.20
   6  -4   1   20.40    4.10
  -7   4  -1   21.10    5.90
  -8   4  -1    1.40    4.40
  -9   4  -1   -0.90    4.30
  -8  -3   1    1.30    4.20
  -7  -3   1   41.80    8.20
  -7  -3   1   57.39    9.70
  -6  -3   1   21.10    5.60
  -6  -3   1   22.60    5.90
  -5  -3   1    1.20    2.50
  -5  -3   1    1.70    2.10
   4   3  -1   -0.10    0.80
   4   3  -1    1.20    2.20
  -4  -3   1    4.50    2.60
  -4  -3   1    4.00    2.40
   3   3  -1   34.70    6.00
  -3  -3   1   28.80    5.00
  -3  -3   1   32.80    5.20
  -3  -3   1   26.50    3.70
  -3  -3   1   36.00    4.10
   2   3  -1  118.49    8.60
  -2  -3   1  136.09    6.50
  -2  -3   1  129.49    7.10
  -2  -3   1  133.39    6.10
  -2  -3   1  131.09    8.00
   1   3  -1  652.03   24.90
  -1  -3   1  632.24   23.00
  -1  -3   1  653.43   22.00
  -1  -3   1  658.03   23.60
  -1  -3   1  671.63   23.10
  -1  -3   1  650.83   21.70
   0   3  -1   67.89    3.00
   0   3  -1   69.89    4.20
   0   3  -1   67.69    5.20
   0   3  -1   65.89    5.20
   0  -3   1   67.69    4.70
   0  -3   1   77.49    4.40
   0  -3   1   68.39    4.30
   0  -3   1   73.79    5.60
   0  -3   1   68.49    4.20
   0  -3   1   72.39    4.50
  -1   3  -1  198.48    7.80
  -1   3  -1  196.58    9.00
  -1   3  -1  220.38   10.10
  -1   3  -1  203.98    9.80
  -1   3  -1  194.78    7.90
   1  -3   1  200.98    7.60
   1  -3   1  207.98    9.20
   1  -3   1  216.28   10.10
   1  -3   1  186.18    9.30
  -2   3  -1  303.57   10.10
  -2   3  -1  284.77   12.30
  -2   3  -1  278.67    9.90
  -2   3  -1  292.57   12.30
  -2   3  -1  287.37   11.40
  -2   3  -1  277.67   12.50
   2  -3   1  296.07   12.40
   2  -3   1  302.87   12.80
   2  -3   1  289.57   12.00
  -3   3  -1  130.99    6.40
  -3   3  -1  124.79    7.20
  -3   3  -1  133.09    4.60
  -3   3  -1  121.29    7.60
  -3   3  -1  133.29    6.50
  -3   3  -1  123.29    7.10
   3  -3   1  132.29    8.10
   3  -3   1  124.19    7.00
   3  -3   1  125.69    7.30
  -4   3  -1   13.00    2.60
  -4   3  -1   10.80    1.70
  -4   3  -1   10.70    2.70
  -4   3  -1   10.70    2.00
  -4   3  -1   10.30    3.00
  -4   3  -1   10.70    2.60
   4  -3   1   11.10    1.90
   4  -3   1    9.20    2.50
   4  -3   1   10.80    2.60
  -5   3  -1   96.69    6.50
  -5   3  -1   82.49    9.00
  -5   3  -1   97.29    7.50
  -5   3  -1   97.89    7.00
   5  -3   1   86.19    6.70
   5  -3   1   79.29    6.00
  -6   3  -1    0.20    2.80
  -6   3  -1    2.90    1.70
  -6   3  -1    1.60    1.80
  -7   3  -1   -0.70    2.60
  -8   3  -1    4.50    3.90
  -9   3  -1    4.70    4.90
  -8  -2   1    0.30    3.30
  -8  -2   1    0.00    4.10
  -7  -2   1   11.20    4.50
  -7  -2   1    7.40    3.90
  -6  -2   1    9.40    3.90
  -6  -2   1   12.80    4.30
   5   2  -1   -1.10    1.00
   5   2  -1    1.40    2.40
  -5  -2   1   -0.70    1.60
  -5  -2   1   -1.30    1.40
   4   2  -1  175.18    8.10
   4   2  -1  162.48   11.30
  -4  -2   1  184.08   11.00
  -4  -2   1  161.98    8.80
  -4  -2   1  160.78   10.60
  -4  -2   1  174.18    8.50
   3   2  -1  488.55   16.40
   3   2  -1  484.95   21.00
   3   2  -1  499.65   16.40
  -3  -2   1  506.45   18.00
  -3  -2   1  505.05   18.00
  -3  -2   1  461.45   19.80
  -3  -2   1  503.75   20.40
   2   2  -1 1218.18   41.30
  -2  -2   1 1288.47   38.30
  -2  -2   1 1141.19   40.10
  -2  -2   1 1218.08   40.10
  -2  -2   1 1206.48   38.50
   1   2  -1  581.34   22.10
  -1  -2   1  644.94   22.50
  -1  -2   1  600.14   20.60
  -1  -2   1  622.94   21.40
  -1  -2   1  626.54   21.20
   0   2  -1 6598.14  199.98
   0   2  -1 6995.30  199.98
   0   2  -1 6664.33  198.68
   0  -2   1 6760.72  198.48
   0  -2   1 6826.92  199.18
  -2   2  -1  139.19    5.90
  -2   2  -1  154.98    7.20
  -2   2  -1  138.59    7.20
  -2   2  -1  131.29    4.70
  -2   2  -1  134.79    6.50
  -2   2  -1  149.39    6.00
  -2   2  -1  141.59    6.70
   2  -2   1  139.59    7.10
   2  -2   1  137.79    6.50
   2  -2   1  145.29    5.20
   2  -2   1  142.59    6.70
   2  -2   1  133.89    5.10
  -3   2  -1  146.49    6.90
  -3   2  -1  127.19    7.00
  -3   2  -1  124.79    7.30
  -3   2  -1  125.79    5.50
  -3   2  -1  122.99    6.20
  -3   2  -1  123.99    5.70
  -3   2  -1  122.99    6.30
   3  -2   1  120.89    5.10
   3  -2   1  131.89    7.50
   3  -2   1  123.09    6.50
   3  -2   1  115.49    5.70
   3  -2   1  128.69    6.30
  -4   2  -1   81.99    5.10
  -4   2  -1   76.29    5.10
  -4   2  -1   87.49    8.30
  -4   2  -1   64.19    6.40
  -4   2  -1   78.89    5.30
  -4   2  -1   81.99    5.00
   4  -2   1   69.09    4.70
   4  -2   1   73.09    4.80
   4  -2   1   80.99    5.40
  -5   2  -1  275.97   12.30
  -5   2  -1  286.37   12.80
  -5   2  -1  271.67   14.20
  -5   2  -1  247.18   12.10
  -5   2  -1  285.97   12.40
  -5   2  -1  272.27   13.70
   5  -2   1  267.97   12.10
   5  -2   1  283.77   11.60
  -6   2  -1   94.99   10.40
  -6   2  -1   84.19    8.20
  -6   2  -1   66.79    7.20
   6  -2   1   82.39    7.60
  -7   2  -1    2.20    2.90
  -7   2  -1   16.60    4.50
  -8   2  -1   17.30    5.90
  -9   2  -1   20.90    6.40
  -9  -1   1    8.40    4.80
  -8  -1   1   59.79    9.90
  -8  -1   1   45.30    8.30
  -7  -1   1  105.19   12.20
  -7  -1   1   87.49   11.50
  -6  -1   1   26.50    5.70
  -6  -1   1   26.60    5.10
   5   1  -1   37.30    4.40
  -5  -1   1   30.90    4.70
  -5  -1   1   31.40    5.40
  -5  -1   1   32.10    5.40
   4   1  -1   25.90    3.20
   4   1  -1   27.40    3.30
  -4  -1   1   32.70    3.80
  -4  -1   1   41.00    4.90
  -4  -1   1   25.50    4.40
  -4  -1   1   25.20    4.30
   3   1  -1 3989.00  120.39
   3   1  -1 4070.99  120.19
  -3  -1   1 4012.80  123.19
  -3  -1   1 4070.39  123.09
  -3  -1   1 4074.79  121.39
  -3  -1   1 4098.19  120.79
   2   1  -1 1155.08   34.30
   2   1  -1 1139.39   34.20
   2   1  -1 1115.19   37.20
  -2  -1   1 1116.99   36.60
  -2  -1   1 1099.09   36.80
  -2  -1   1 1134.99   36.50
  -2  -1   1 1121.09   35.20
   1   1  -1 1727.73   54.19
   1   1  -1 1851.01   53.89
  -1  -1   1 1794.22   54.29
  -1  -1   1 1710.43   53.69
  -1  -1   1 1726.23   52.99
  -1  -1   1 1779.22   53.89
   0   1  -1 1432.26   41.50
   0   1  -1 1348.37   42.10
   0  -1   1 1372.16   41.70
   0  -1   1 1390.56   41.30
   0  -1   1 1371.76   41.50
   0  -1   1 1374.06   42.30
  -1   1  -1 1463.05   44.50
  -1   1  -1 1427.76   43.30
  -1   1  -1 1407.06   43.70
  -1   1  -1 1510.15   43.40
  -1   1  -1 1485.35   42.60
  -1   1  -1 1475.05   43.80
   1  -1   1 1428.06   43.70
   1  -1   1 1429.46   43.10
   1  -1   1 1461.25   42.80
  -2   1  -1  167.98    6.50
  -2   1  -1  165.48    7.60
  -2   1  -1  166.38    7.30
  -2   1  -1  173.48    6.70
  -2   1  -1  163.38    6.70
  -2   1  -1  172.18    7.30
  -2   1  -1  161.78    6.80
   2  -1   1  182.98    6.80
   2  -1   1  155.88    6.60
   2  -1   1  161.88    6.60
  -3   1  -1    6.10    1.30
  -3   1  -1    9.00    2.10
  -3   1  -1    5.10    1.30
  -3   1  -1    6.50    1.50
  -3   1  -1    5.30    1.50
  -3   1  -1    6.10    1.50
  -3   1  -1    6.40    2.00
   3  -1   1    5.00    1.30
   3  -1   1   10.20    1.60
   3  -1   1    9.30    1.70
  -4   1  -1 1380.26   42.90
  -4   1  -1 1284.37   43.90
  -4   1  -1 1331.47   42.60
  -4   1  -1 1437.66   44.20
  -4   1  -1 1363.96   44.60
   4  -1   1 1275.17   43.10
   4  -1   1 1376.26   41.70
  -5   1  -1   22.60    4.40
  -5   1  -1   19.10    3.70
  -5   1  -1   23.20    3.30
  -5   1  -1   17.80    3.60
  -5   1  -1   16.80    2.60
   5  -1   1   23.00    3.40
  -6   1  -1   36.20    6.70
  -6   1  -1   26.50    4.80
  -6   1  -1   28.10    5.00
   6  -1   1   33.20    4.60
  -7   1  -1   11.40    4.00
  -7   1  -1    2.60    2.70
  -7   1  -1   12.60    3.80
  -8   1  -1    5.80    4.30
  -8   1  -1   13.50    4.70
  -9   1  -1   24.20    6.60
  -9   0   1   14.80    5.70
  -9   0   1   10.40    5.80
  -8   0   1   62.49   10.10
  -8   0   1   62.09    9.70
  -7   0   1   92.99   11.00
  -7   0   1   84.19    9.80
  -7   0   1   58.19    8.50
   6   0  -1  125.19    8.60
  -6   0   1  117.49    9.00
  -6   0   1  109.79   10.90
  -6   0   1   90.69    9.80
   5   0  -1   70.49    5.50
  -5   0   1   75.19    7.80
  -5   0   1   76.39    5.40
  -5   0   1   90.49    8.40
  -5   0   1   66.99    7.50
   4   0  -1  303.07   12.10
  -4   0   1  289.67   11.70
  -4   0   1  259.67   13.00
  -4   0   1  281.67   12.70
  -4   0   1  281.27   10.90
  -4   0   1  276.37   13.20
  -4   0   1  274.97   12.50
   3   0  -1  724.03   24.20
   3   0  -1  705.03   24.10
  -3   0   1  766.32   25.80
  -3   0   1  735.63   23.60
  -3   0   1  733.33   23.70
  -3   0   1  732.63   25.70
  -3   0   1  731.43   25.20
  -3   0   1  730.13   25.00
  -3   0   1  726.13   24.30
  -3   0   1  741.73   25.20
   2   0  -1 1112.99   35.00
   2   0  -1 1166.38   35.10
  -2   0   1 1167.58   36.20
  -2   0   1 1128.99   36.00
  -2   0   1 1128.99   35.80
  -2   0   1 1113.09   34.70
  -2   0   1 1137.59   34.80
  -2   0   1 1155.78   35.30
   1   0  -1 1805.02   52.69
   1   0  -1 1729.73   53.09
   1   0  -1 1756.52   52.69
  -1   0   1 1772.72   52.59
  -1   0   1 1721.03   52.59
  -1   0   1 1792.42   52.99
  -1   0   1 1780.92   53.29
  -1   0   1 1866.91   53.19
   0   0  -1  780.92   23.20
   0   0  -1  764.42   22.90
   0   0  -1  763.72   23.00
   0   0   1  786.72   22.90
  -1   0  -1  783.62   23.40
   1   0   1  760.12   23.60
   1   0   1  796.22   23.60
  -2   0  -1   37.20    2.10
  -2   0  -1   39.40    3.00
  -2   0  -1   38.00    2.90
  -2   0  -1   37.90    2.20
  -2   0  -1   41.00    3.90
   2   0   1   37.80    2.40
   2   0   1   34.20    2.30
  -3   0  -1   44.40    2.80
  -3   0  -1   45.50    2.80
  -3   0  -1   46.30    2.90
  -3   0  -1   51.09    5.10
  -3   0  -1   52.59    5.20
  -3   0  -1   47.30    4.70
   3   0   1   46.40    3.30
   3   0   1   54.29    3.60
  -4   0  -1  755.82   27.30
  -4   0  -1  735.03   27.40
  -4   0  -1  751.72   27.30
  -4   0  -1  765.02   24.10
  -4   0  -1  742.53   24.50
   4   0   1  738.33   25.70
  -5   0  -1    0.00    1.60
  -5   0  -1   -0.90    1.20
  -5   0  -1   -0.60    1.50
   5   0   1    0.20    1.30
  -6   0  -1    9.80    3.30
  -6   0  -1   13.30    3.70
  -6   0  -1   12.50    4.10
  -7   0  -1    4.70    3.30
  -7   0  -1    7.60    3.40
  -7   0  -1    4.00    2.70
  -8   0  -1   50.99    8.70
  -8   0  -1   35.60    7.20
  -9   0  -1    3.70    4.10
  -9   1   1   10.70    5.00
  -8   1   1    2.40    3.00
  -8   1   1    1.60    3.40
  -7   1   1    3.40    2.40
  -7   1   1   -0.30    1.90
  -7   1   1    3.10    3.00
   6  -1  -1   -1.50    1.30
  -6   1   1    0.20    2.20
  -6   1   1    2.40    2.10
  -6   1   1    0.80    2.00
  -6   1   1    1.60    2.80
   5  -1  -1   -0.70    1.00
  -5   1   1    1.00    0.90
  -5   1   1    0.10    1.00
  -5   1   1   -1.40    1.40
  -5   1   1    1.60    1.50
  -5   1   1   -0.20    1.30
   4  -1  -1 2204.58   67.19
   4  -1  -1 2175.88   65.79
  -4   1   1 2159.08   66.89
  -4   1   1 2161.78   68.89
  -4   1   1 2230.98   68.89
  -4   1   1 2159.48   68.19
  -4   1   1 2107.69   67.29
  -4   1   1 2185.88   68.39
   3  -1  -1 3620.04  107.49
   3  -1  -1 3622.34  107.39
   3  -1  -1 3574.54  106.69
  -3   1   1 3529.25  108.09
  -3   1   1 3550.14  108.09
  -3   1   1 3467.95  107.49
  -3   1   1 3527.55  107.39
  -3   1   1 3727.53  108.79
  -3   1   1 3700.33  107.49
  -3   1   1 3599.14  108.79
  -3   1   1 3662.63  107.89
   2  -1  -1   99.79    4.40
   2  -1  -1   97.19    4.30
   2  -1  -1  100.29    4.40
  -2   1   1   91.59    4.90
  -2   1   1   93.69    4.60
  -2   1   1   98.99    4.30
  -2   1   1   96.49    4.50
  -2   1   1   93.09    4.40
  -2   1   1   94.99    4.70
   1  -1  -1   38.80    1.90
   1  -1  -1   37.50    2.00
   1  -1  -1   41.30    2.50
  -1   1   1   39.60    1.80
  -1   1   1   40.20    1.90
  -1   1   1   38.50    1.80
  -1   1   1   35.20    2.40
   0  -1  -1  677.93   21.40
   0  -1  -1  692.63   21.20
   0  -1  -1  686.33   21.40
   0   1   1  680.93   21.40
   0   1   1  687.83   21.20
  -1  -1  -1  123.89    5.60
  -1  -1  -1  111.79    5.50
  -1  -1  -1  115.99    4.70
  -2  -1  -1  122.89    5.00
  -2  -1  -1  121.39    6.30
  -2  -1  -1  142.19    6.90
  -2  -1  -1  128.19    6.80
   2   1   1  129.69    4.50
   2   1   1  126.39    4.50
  -3  -1  -1   33.70    4.50
  -3  -1  -1   35.30    4.20
  -3  -1  -1   35.90    4.60
  -3  -1  -1   32.30    2.40
   3   1   1   35.40    2.70
   3   1   1   31.60    2.90
  -4  -1  -1   11.10    3.00
  -4  -1  -1    7.80    2.70
  -4  -1  -1    6.70    2.30
  -4  -1  -1    6.50    1.60
   4   1   1    5.30    1.60
   4   1   1    8.50    1.80
  -5  -1  -1    2.50    2.10
  -5  -1  -1    0.70    1.90
  -5  -1  -1    1.10    2.10
   5   1   1    2.20    1.40
  -6  -1  -1    2.70    2.30
  -6  -1  -1    2.90    2.30
  -6  -1  -1    0.20    2.30
  -7  -1  -1   26.80    5.80
  -7  -1  -1   31.80    6.50
  -7  -1  -1   16.70    4.90
  -8  -1  -1  105.89   13.60
  -8  -1  -1  107.49   13.50
  -9  -1  -1    0.40    4.40
  -9   2   1   56.99   10.20
  -8   2   1   12.90    5.40
  -7   2   1   39.90    6.70
  -7   2   1   43.50    7.70
  -6   2   1   67.39    8.60
  -6   2   1   91.79    6.90
  -6   2   1   79.99    8.10
  -6   2   1   64.29    7.10
  -6   2   1   83.09   10.40
   5  -2  -1  225.38   10.60
   5  -2  -1  211.78    9.90
  -5   2   1  224.78   12.20
  -5   2   1  240.08   11.60
  -5   2   1  248.28   11.60
  -5   2   1  212.38   11.10
  -5   2   1  227.18   10.90
   4  -2  -1    1.80    1.30
   4  -2  -1    5.50    1.50
  -4   2   1    6.70    2.20
  -4   2   1    5.70    1.70
  -4   2   1    1.80    1.60
  -4   2   1    0.90    1.10
  -4   2   1    4.40    1.70
  -4   2   1    4.50    1.50
   3  -2  -1  205.18    9.60
   3  -2  -1  210.38    7.90
   3  -2  -1  207.18    8.10
   3  -2  -1  193.88    9.30
   3  -2  -1  210.18    9.10
   3  -2  -1  203.88    8.30
  -3   2   1  204.68   10.00
  -3   2   1  207.58    8.80
  -3   2   1  213.58    7.90
  -3   2   1  181.68    9.20
  -3   2   1  217.78    8.90
  -3   2   1  217.28    9.80
  -3   2   1  220.68    8.90
  -3   2   1  220.38    8.80
   2  -2  -1  132.39    4.70
   2  -2  -1  136.89    6.30
   2  -2  -1  118.19    6.10
   2  -2  -1  129.99    6.60
  -2   2   1  138.99    5.40
  -2   2   1  126.69    6.70
  -2   2   1  119.89    6.40
  -2   2   1  132.39    5.70
  -2   2   1  130.49    5.40
  -2   2   1  125.69    4.70
   1  -2  -1   29.30    3.20
   1  -2  -1   17.40    2.60
   1  -2  -1   31.60    3.20
   1  -2  -1   26.10    2.60
  -1   2   1   27.30    3.00
  -1   2   1   25.60    2.20
  -1   2   1   35.60    3.60
   0  -2  -1 9999.00  291.27
   0  -2  -1 9893.51  291.67
  -1  -2  -1  389.56   13.70
  -1  -2  -1  359.96   13.00
   1   2   1  364.76   14.70
  -2  -2  -1  157.28    8.40
  -2  -2  -1  162.58    7.80
  -2  -2  -1  158.88    6.80
  -2  -2  -1  150.88    8.50
   2   2   1  163.68    9.30
   2   2   1  154.68    6.60
  -3  -2  -1  243.08   12.10
  -3  -2  -1  261.77   12.70
  -3  -2  -1  237.68   11.10
  -3  -2  -1  237.98    9.50
   3   2   1  241.58    8.20
   3   2   1  230.38    8.20
  -4  -2  -1   62.09    6.40
  -4  -2  -1   57.19    7.40
  -4  -2  -1   65.29    7.50
   4   2   1   57.19    4.00
  -5  -2  -1  171.78   11.80
  -5  -2  -1  162.68   11.30
  -5  -2  -1  170.98   10.50
   5   2   1  160.58    8.80
  -6  -2  -1    2.60    2.60
  -6  -2  -1    8.00    3.60
  -7  -2  -1   -1.90    2.70
  -7  -2  -1    4.90    3.70
  -8  -2  -1   -2.10    3.50
  -9   3   1    7.20    5.00
  -8   3   1   -1.00    2.10
  -7   3   1  110.69   12.50
  -7   3   1   94.39   10.50
   6  -3  -1   23.00    3.80
  -6   3   1   21.00    3.70
  -6   3   1   30.50    5.20
  -6   3   1   27.70    5.70
   5  -3  -1  127.19    7.70
  -5   3   1  130.29    7.60
  -5   3   1  141.49    9.00
  -5   3   1  126.69    8.80
  -5   3   1  144.19    9.70
  -5   3   1  121.49    7.70
   4  -3  -1   73.59    8.30
   4  -3  -1   58.99    6.00
   4  -3  -1   68.69    6.80
  -4   3   1   69.49    4.90
  -4   3   1   77.39    5.90
  -4   3   1   70.59    7.50
  -4   3   1   75.09    4.60
  -4   3   1   68.09    4.80
  -4   3   1   63.19    6.40
   3  -3  -1   69.99    5.10
   3  -3  -1   76.59    6.80
   3  -3  -1   61.49    5.60
  -3   3   1   67.99    4.20
  -3   3   1   73.59    4.30
  -3   3   1   75.79    6.80
  -3   3   1   65.59    4.10
  -3   3   1   68.49    3.80
  -3   3   1   73.59    5.70
   2  -3  -1  230.48   10.30
   2  -3  -1  225.38   10.50
   2  -3  -1  247.18   10.20
  -2   3   1  223.18    9.90
  -2   3   1  233.08    8.90
  -2   3   1  232.98    7.40
  -2   3   1  214.98    7.30
  -2   3   1  223.38   10.60
  -2   3   1  232.68    7.90
  -2   3   1  229.38   10.40
   1  -3  -1   47.10    4.70
   1  -3  -1   42.10    4.30
   1  -3  -1   58.79    5.30
   1  -3  -1   51.79    4.10
  -1   3   1   46.60    4.80
  -1   3   1   44.90    4.50
  -1   3   1   48.40    3.90
  -1   3   1   50.19    3.30
  -1   3   1   51.79    5.00
   0  -3  -1  156.98    7.50
   0  -3  -1  164.08    8.60
   0  -3  -1  177.58    8.10
   0  -3  -1  151.58    7.60
   0  -3  -1  154.08    7.80
   0  -3  -1  165.98    7.70
   0   3   1  165.78    8.50
   0   3   1  158.58    7.70
   0   3   1  162.68    8.30
  -1  -3  -1  412.86   15.10
  -1  -3  -1  393.46   15.90
  -1  -3  -1  411.96   15.90
  -1  -3  -1  392.26   15.20
  -1  -3  -1  405.56   14.60
   1   3   1  373.56   16.60
  -2  -3  -1    6.20    1.50
  -2  -3  -1    2.00    1.50
  -2  -3  -1    6.20    1.70
  -2  -3  -1    6.10    2.00
  -2  -3  -1    3.90    1.80
   2   3   1    5.00    1.20
   2   3   1    3.00    1.90
  -3  -3  -1  565.94   23.40
  -3  -3  -1  540.55   21.40
  -3  -3  -1  571.34   20.30
  -3  -3  -1  583.94   23.90
   3   3   1  589.84   25.10
  -4  -3  -1    6.00    3.00
  -4  -3  -1    9.10    2.90
  -4  -3  -1    5.30    2.60
   4   3   1    4.50    1.20
   4   3   1    5.40    3.30
  -5  -3  -1   68.89    9.20
  -5  -3  -1   68.69    9.20
  -6  -3  -1    6.30    3.60
  -6  -3  -1    9.40    4.30
  -7  -3  -1    3.30    3.30
  -7  -3  -1    0.20    3.40
  -8  -3  -1    8.20    5.70
  -9   4   1    0.30    4.40
  -8   4   1   43.00    8.90
  -7   4   1    8.90    4.30
  -7   4   1    6.40    3.00
   6  -4  -1    1.80    1.80
  -6   4   1    2.60    1.90
  -6   4   1   -0.80    2.60
  -6   4   1    1.10    2.00
   5  -4  -1    1.60    1.60
   5  -4  -1    2.10    2.10
  -5   4   1    1.20    1.80
  -5   4   1    0.80    2.00
  -5   4   1    2.50    1.90
  -5   4   1    1.60    1.40
   4  -4  -1    1.70    1.60
   4  -4  -1   -0.40    1.50
  -4   4   1    0.40    1.40
  -4   4   1    2.90    1.40
  -4   4   1   -0.10    1.30
  -4   4   1    2.00    1.90
   3  -4  -1   54.89    5.80
   3  -4  -1   61.79    6.60
   3  -4  -1   51.79    5.80
  -3   4   1   60.69    6.60
  -3   4   1   53.99    3.50
  -3   4   1   51.09    3.40
  -3   4   1   58.69    6.60
  -3   4   1   57.29    5.90
  -3   4   1   52.69    3.70
  -3   4   1   50.69    5.00
   2  -4  -1  154.28    8.70
   2  -4  -1  159.78    8.80
   2  -4  -1  160.38    9.10
  -2   4   1  162.48    6.50
  -2   4   1  158.68    7.20
  -2   4   1  156.58    7.30
  -2   4   1  155.98    8.60
  -2   4   1  150.68    8.80
  -2   4   1  151.58    8.90
   1  -4  -1  436.96   17.50
   1  -4  -1  435.56   18.00
   1  -4  -1  409.96   17.00
   1  -4  -1  447.16   16.20
   1  -4  -1  438.36   16.10
   1  -4  -1  440.26   17.70
  -1   4   1  434.96   17.60
  -1   4   1  442.86   17.90
  -1   4   1  425.06   17.40
  -1   4   1  439.46   17.80
  -1   4   1  437.26   16.10
   0  -4  -1  279.77   12.60
   0  -4  -1  295.77   12.60
   0  -4  -1  294.27   12.50
   0  -4  -1  298.57   13.00
   0  -4  -1  280.87   12.60
   0   4   1  284.77   12.70
   0   4   1  290.97   13.60
   0   4   1  279.97   13.70
   0   4   1  289.47   12.70
  -1  -4  -1  121.49    6.80
  -1  -4  -1  121.89    7.30
  -1  -4  -1  115.29    7.00
  -1  -4  -1  104.69    7.30
  -1  -4  -1  113.19    7.60
   1   4   1  130.79    8.90
  -2  -4  -1   24.70    4.00
  -2  -4  -1   22.40    3.20
  -2  -4  -1   18.30    4.10
  -2  -4  -1   21.70    4.30
  -2  -4  -1   20.60    3.50
   2   4   1   19.50    2.20
   2   4   1   19.70    4.40
  -3  -4  -1  107.39   10.30
  -3  -4  -1   93.69    9.70
  -3  -4  -1   96.59    7.10
   3   4   1   83.69    9.90
  -4  -4  -1    6.30    3.30
  -4  -4  -1    7.70    3.40
  -5  -4  -1    6.70    3.30
  -5  -4  -1   13.10    4.80
  -6  -4  -1    2.70    3.30
  -6  -4  -1    4.90    3.60
  -7  -4  -1    4.80    4.50
  -9   5   1    2.20    4.80
  -8   5   1   74.09   11.60
   7  -5  -1   23.80    5.00
  -7   5   1   23.40    6.20
  -7   5   1   26.00    9.60
  -7   5   1   26.30    5.60
   6  -5  -1    2.00    2.10
   6  -5  -1    0.80    2.40
  -6   5   1    1.70    2.60
  -6   5   1    0.90    2.00
  -6   5   1    3.70    2.70
   5  -5  -1   20.90    4.30
   5  -5  -1   16.90    4.30
  -5   5   1   32.40    5.90
  -5   5   1   18.40    5.00
  -5   5   1   31.40    5.40
   4  -5  -1   33.50    5.60
   4  -5  -1   34.00    5.60
  -4   5   1   25.10    3.50
  -4   5   1   27.60    4.50
  -4   5   1   30.00    5.30
  -4   5   1   42.10    6.80
   3  -5  -1   68.79    7.90
   3  -5  -1   78.59    8.00
  -3   5   1   53.59    5.40
  -3   5   1   55.39    7.00
  -3   5   1   65.39    7.40
  -3   5   1   56.89    3.40
  -3   5   1   66.89    6.90
   2  -5  -1    2.70    1.90
   2  -5  -1    4.00    1.90
  -2   5   1    0.70    1.80
  -2   5   1    5.40    2.30
  -2   5   1    2.50    1.90
  -2   5   1    4.90    1.50
   1  -5  -1   90.89    8.20
   1  -5  -1   83.19    5.80
   1  -5  -1   81.39    5.80
   1  -5  -1   88.29    6.60
   1  -5  -1   85.59    8.20
  -1   5   1   89.19    6.90
  -1   5   1   92.19    7.40
  -1   5   1   85.89    7.10
  -1   5   1   86.09    5.80
  -1   5   1   87.99    4.30
  -1   5   1   93.39    6.90
   0  -5  -1   95.49    6.70
   0  -5  -1   80.79    7.50
   0  -5  -1   85.89    6.40
   0  -5  -1   82.09    8.20
   0  -5  -1   95.29    6.90
   0   5   1  102.99    9.90
   0   5   1   92.59    7.00
   0   5   1   86.89    6.30
   0   5   1   91.59    6.70
   0   5   1   92.99    7.80
  -1  -5  -1  261.07   12.30
  -1  -5  -1  259.97   12.90
  -1  -5  -1  279.47   13.80
  -1  -5  -1  258.17   12.70
  -1  -5  -1  238.48   13.30
   1   5   1  266.07   12.90
   1   5   1  256.27   14.30
   1   5   1  269.07   15.00
  -2  -5  -1   87.79    8.00
  -2  -5  -1   72.29    8.50
  -2  -5  -1   70.49    8.30
   2   5   1   90.39   10.70
  -3  -5  -1   49.30    7.40
  -4  -5  -1    4.00    2.90
  -4  -5  -1    2.40    3.00
  -5  -5  -1   -3.00    2.50
  -5  -5  -1    3.10    3.50
  -6  -5  -1   12.70    5.90
  -8   6   1    7.20    4.20
  -8   6   1    7.50    5.40
   7  -6  -1   23.20    5.40
  -7   6   1   28.00    6.90
  -7   6   1   20.90    5.70
  -7   6   1   22.30    5.70
   6  -6  -1    9.80    4.40
   6  -6  -1    5.70    3.20
  -6   6   1    3.10    3.20
  -6   6   1    4.70    3.30
  -6   6   1    3.40    3.40
   5  -6  -1    8.80    3.40
   5  -6  -1    6.80    3.30
  -5   6   1    9.50    4.20
  -5   6   1    6.80    3.00
  -5   6   1    2.60    2.60
   4  -6  -1    7.40    3.20
   4  -6  -1   11.00    3.80
  -4   6   1   11.60    3.90
  -4   6   1    5.50    2.40
  -4   6   1   17.60    4.70
   3  -6  -1    0.30    1.70
   3  -6  -1    2.60    2.50
  -3   6   1    1.20    2.00
  -3   6   1   -1.10    0.80
  -3   6   1   -0.50    1.50
   2  -6  -1   11.70    4.00
   2  -6  -1    8.60    3.50
  -2   6   1    8.90    3.20
  -2   6   1    4.00    2.60
  -2   6   1    9.20    3.50
  -2   6   1    3.80    1.40
  -2   6   1    7.30    3.20
   1  -6  -1   61.39    7.50
   1  -6  -1   64.69    7.90
   1  -6  -1   69.89    7.70
  -1   6   1   64.29    3.90
  -1   6   1   53.89    7.70
  -1   6   1   71.19    8.10
  -1   6   1   69.99    8.20
  -1   6   1   70.59    8.50
   0  -6  -1   27.40    4.70
   0  -6  -1   18.40    4.00
   0  -6  -1   29.10    5.00
   0  -6  -1   28.60    5.10
   0  -6  -1   31.70    5.20
   0   6   1   32.50    6.10
   0   6   1   22.90    4.50
   0   6   1   26.80    1.90
   0   6   1   23.50    4.50
   0   6   1   15.10    3.90
   0   6   1   25.50    5.70
  -1  -6  -1   14.60    3.90
  -1  -6  -1   13.90    3.90
  -1  -6  -1   18.50    4.30
  -1  -6  -1   10.30    3.10
   1   6   1   23.90    5.50
   1   6   1   17.40    4.30
  -2  -6  -1    1.80    2.80
  -2  -6  -1    6.40    3.20
   2   6   1    1.80    2.20
  -3  -6  -1   35.70    7.00
  -3  -6  -1   31.20    7.10
  -4  -6  -1   84.09   11.50
  -4  -6  -1   81.39   11.40
  -5  -6  -1    6.90    4.70
   8  -7  -1    2.00    4.10
  -8   7   1   -0.20    4.00
  -8   7   1    9.00    5.40
   7  -7  -1   12.30    4.40
  -7   7   1    2.00    3.10
  -7   7   1    6.30    4.20
  -7   7   1    1.90    3.40
   6  -7  -1    0.20    2.40
   6  -7  -1    5.00    4.20
  -6   7   1    3.70    2.90
  -6   7   1    5.30    3.90
  -6   7   1    1.80    3.10
   5  -7  -1    4.30    2.80
   5  -7  -1    5.50    3.90
  -5   7   1    8.30    4.10
  -5   7   1    0.60    1.90
  -5   7   1    3.50    3.10
   4  -7  -1    1.90    2.50
   4  -7  -1    3.50    2.60
  -4   7   1    3.90    2.90
  -4   7   1    1.20    1.70
  -4   7   1    4.50    3.30
   3  -7  -1   20.00    5.00
   3  -7  -1   22.90    5.50
  -3   7   1   20.60    4.90
  -3   7   1   27.40    4.20
  -3   7   1   30.60    6.30
   2  -7  -1    2.10    2.50
   2  -7  -1    2.50    2.50
  -2   7   1    1.90    1.40
  -2   7   1    0.60    2.20
  -2   7   1   -0.50    1.60
  -2   7   1    1.70    2.60
   1  -7  -1   15.20    4.20
   1  -7  -1   18.90    5.10
  -1   7   1   13.00    4.00
  -1   7   1   11.30    2.20
  -1   7   1   16.60    4.80
  -1   7   1   13.90    4.30
   0  -7  -1    0.30    2.00
   0  -7  -1    4.00    3.10
   0   7   1   -1.30    2.10
   0   7   1    2.40    2.40
  -1  -7  -1    5.40    3.00
   1   7   1    6.60    3.20
   1   7   1    3.60    3.10
  -2  -7  -1   -0.40    2.50
  -2  -7  -1    1.60    3.10
   2   7   1    0.50    3.00
  -3  -7  -1   -0.30    2.80
  -3  -7  -1   -0.20    2.90
   3   7   1    1.20    2.70
  -4  -7  -1    9.30    4.90
   7  -8  -1   -0.80    3.10
   7  -8  -1    1.20    4.20
  -7   8   1   -3.20    3.30
  -7   8   1   -1.40    2.20
  -7   8   1   -3.70    3.60
   6  -8  -1    1.20    2.90
   6  -8  -1   -0.40    2.60
  -6   8   1    2.00    2.70
  -6   8   1    1.90    3.60
  -6   8   1    0.20    3.40
   5  -8  -1   -0.60    2.80
   5  -8  -1    3.10    2.90
  -5   8   1    0.90    3.20
  -5   8   1    5.70    3.70
  -5   8   1    3.40    2.70
   4  -8  -1   -0.10    2.20
   4  -8  -1   -1.00    2.60
  -4   8   1   -1.20    2.40
  -4   8   1    6.30    3.80
  -4   8   1   -0.30    1.40
   3  -8  -1    5.40    3.40
   3  -8  -1    8.60    4.10
  -3   8   1    5.40    2.20
  -3   8   1   10.40    4.50
  -3   8   1    4.90    3.70
   2  -8  -1   11.80    4.50
   2  -8  -1   12.80    4.60
  -2   8   1   14.60    4.90
  -2   8   1   13.00    4.70
  -2   8   1   11.40    2.70
   1  -8  -1    5.10    3.00
   1  -8  -1   -0.60    3.00
  -1   8   1    1.50    3.20
  -1   8   1    1.00    2.90
   0  -8  -1   39.40    7.00
   0  -8  -1   27.20    6.60
   0   8   1   41.80    7.60
   0   8   1   24.50    6.80
   1   8   1    4.10    3.70
   2   8   1   61.59   10.30
   3   8   1   50.79   10.30
   5  -9  -1    2.50    3.30
   5  -9  -1   -3.10    2.90
  -5   9   1   -4.00    2.80
  -5   9   1    0.90    4.20
  -5   9   1    0.70    2.50
   4  -9  -1    5.00    4.70
   4  -9  -1    0.40    2.60
  -4   9   1    1.60    3.40
  -4   9   1    1.50    2.50
  -4   9   1   -1.30    3.20
   3  -9  -1    1.40    3.40
   3  -9  -1    0.80    2.90
  -3   9   1   -0.70    1.60
  -3   9   1   -0.20    2.70
   2  -9  -1    1.10    3.20
   2  -9  -1   -2.60    2.00
  -2   9   1    7.40    3.70
   1  -9  -1    4.50    3.70
   1  -9  -1    1.50    3.50
  -1   9   1    4.30    3.50
   0   9   1    6.70    4.50
   1   9  -2   -1.40    3.70
   0   9  -2    0.50    3.80
   0   9  -2    5.30    4.00
   0  -9   2    7.80    4.60
  -1   9  -2    7.20    4.50
  -1   9  -2    8.50    5.10
   1  -9   2    1.80    3.30
   1  -9   2    3.80    4.30
  -2   9  -2    4.40    4.40
   2  -9   2   -1.00    3.40
   2  -9   2    2.70    2.90
  -3   9  -2   -2.10    3.20
   3  -9   2    1.30    3.80
   3  -9   2    3.60    3.30
  -4   9  -2   12.20    5.50
   4  -9   2   21.50    6.70
   4  -9   2   20.40    6.40
  -5   9  -2    0.90    3.80
  -5   9  -2   -1.00    2.20
  -5   9  -2   -0.10    3.80
   5  -9   2    1.90    4.00
   5  -9   2    2.30    3.30
  -6   9  -2    8.80    5.20
   6  -9   2    8.90    5.00
   3   8  -2    8.40    5.50
   2   8  -2   11.70    5.40
   1   8  -2    6.50    4.20
   1   8  -2    3.00    3.80
  -1  -8   2    0.30    3.10
   0   8  -2   33.00    7.90
   0   8  -2   22.90    5.70
   0  -8   2   22.10    5.80
   0  -8   2   24.30    5.70
  -1   8  -2    2.80    3.30
  -1   8  -2    1.60    3.30
   1  -8   2    2.10    2.50
   1  -8   2    4.60    4.10
  -2   8  -2   90.89   11.60
   2  -8   2   82.09   10.40
   2  -8   2   97.09   11.90
  -3   8  -2  338.87   19.10
  -3   8  -2  267.77   13.90
   3  -8   2  284.47   17.90
   3  -8   2  263.37   16.70
  -4   8  -2   62.99    9.80
  -4   8  -2   52.39    8.30
  -4   8  -2   45.60    6.70
   4  -8   2   54.69    8.80
   4  -8   2   64.79    9.70
  -5   8  -2   23.10    6.50
  -5   8  -2   27.30    5.60
   5  -8   2   28.90    6.60
   5  -8   2   34.30    7.40
  -6   8  -2   38.00    7.30
  -6   8  -2   21.20    6.20
  -6   8  -2   40.20    8.50
   6  -8   2   21.90    5.50
   6  -8   2   29.00    7.20
  -7   8  -2    8.20    4.90
  -7   8  -2    3.60    4.20
  -7   8  -2    7.20    4.20
   7  -8   2    8.70    4.20
   7  -8   2    4.50    3.70
   4   7  -2    0.10    3.20
  -4  -7   2    0.60    3.50
  -4  -7   2    1.20    3.80
   3   7  -2    0.30    3.30
  -3  -7   2    4.20    3.60
  -3  -7   2    3.30    3.30
   2   7  -2   11.20    4.80
  -2  -7   2   11.50    4.30
   1   7  -2    1.30    2.80
  -1  -7   2    1.70    3.00
   0   7  -2    1.50    2.00
   0   7  -2    4.00    3.20
   0  -7   2    2.80    2.80
   0  -7   2    2.90    2.30
  -1   7  -2    7.60    3.70
  -1   7  -2    1.30    2.40
   1  -7   2    2.10    2.30
   1  -7   2    3.40    2.70
  -2   7  -2    2.00    1.50
  -2   7  -2    2.20    2.60
  -2   7  -2    2.40    2.80
  -2   7  -2   -0.60    1.80
   2  -7   2    2.70    2.30
   2  -7   2    2.90    2.60
  -3   7  -2    3.80    3.00
  -3   7  -2    5.00    2.10
  -3   7  -2   10.70    3.70
   3  -7   2   11.50    3.80
   3  -7   2    7.50    3.30
  -4   7  -2    2.40    2.70
  -4   7  -2    2.70    2.20
  -4   7  -2    0.50    2.10
   4  -7   2    2.30    2.60
   4  -7   2    1.30    2.20
  -5   7  -2   11.20    4.60
  -5   7  -2    7.60    3.70
  -5   7  -2    5.30    3.00
   5  -7   2   12.70    4.20
   5  -7   2   16.70    4.90
  -6   7  -2    5.90    3.80
  -6   7  -2   12.00    4.60
  -6   7  -2    4.00    3.30
   6  -7   2    6.40    3.50
   6  -7   2    6.20    3.70
  -7   7  -2    0.50    3.50
  -7   7  -2    3.00    2.90
  -7   7  -2    1.40    3.00
   7  -7   2    0.40    3.10
   7  -7   2    3.20    3.00
  -8   7  -2    2.10    4.20
  -6  -6   2    5.20    5.00
  -5  -6   2    2.60    3.80
  -5  -6   2   -1.20    2.40
  -4  -6   2   -0.20    2.70
  -4  -6   2    0.80    2.50
   3   6  -2   20.70    5.60
  -3  -6   2   36.10    7.20
  -3  -6   2   19.30    5.30
   2   6  -2    1.90    2.70
  -2  -6   2    0.30    2.00
  -2  -6   2    2.30    2.20
  -2  -6   2    3.10    2.70
   1   6  -2  125.59   12.80
  -1  -6   2  138.89    9.00
  -1  -6   2  120.89    9.30
  -1  -6   2  144.69    9.50
  -1  -6   2  136.09    9.50
   0   6  -2  114.29   11.70
   0   6  -2   99.59   10.80
   0  -6   2  103.29   10.10
   0  -6   2  100.39    9.30
  -1   6  -2  305.27   14.30
  -1   6  -2  320.17   16.90
  -1   6  -2  286.97   15.60
  -1   6  -2  299.07   16.80
   1  -6   2  317.77   15.30
   1  -6   2  288.87   15.60
  -2   6  -2 1862.71   63.59
  -2   6  -2 1910.11   64.99
  -2   6  -2 1869.61   64.39
  -2   6  -2 1864.11   59.59
  -2   6  -2 1879.41   62.09
   2  -6   2 1902.71   62.79
   2  -6   2 1872.91   63.79
  -3   6  -2  473.35   21.60
  -3   6  -2  499.15   22.60
  -3   6  -2  470.35   19.40
  -3   6  -2  462.65   21.00
   3  -6   2  483.85   21.30
   3  -6   2  445.36   21.30
  -4   6  -2    5.70    2.80
  -4   6  -2    4.60    2.80
  -4   6  -2    7.00    3.10
  -4   6  -2    7.10    2.60
   4  -6   2    9.30    3.50
   4  -6   2   10.10    3.70
  -5   6  -2   98.39   10.30
  -5   6  -2  170.18   11.40
  -5   6  -2  139.09   13.50
   5  -6   2  160.08   11.10
   5  -6   2  150.88   10.50
  -6   6  -2    0.20    2.50
  -6   6  -2    1.50    2.20
  -6   6  -2   -0.20    2.20
   6  -6   2    0.40    2.00
   6  -6   2    0.80    2.10
  -7   6  -2    4.80    4.30
  -7   6  -2    8.20    4.10
  -7   6  -2    7.50    3.90
   7  -6   2   10.10    4.10
   7  -6   2    7.80    3.70
  -8   6  -2    6.40    4.70
  -6  -5   2   42.50    9.40
  -5  -5   2   -1.00    2.50
  -5  -5   2    1.30    3.00
  -4  -5   2    4.90    3.30
  -4  -5   2    0.80    2.20
  -3  -5   2   20.50    4.90
  -3  -5   2   14.10    4.40
  -3  -5   2   12.20    3.40
   2   5  -2   44.30    7.20
  -2  -5   2   62.99    7.80
  -2  -5   2   54.79    7.10
  -2  -5   2   44.30    6.10
   1   5  -2  317.67   16.90
   1   5  -2  294.07   16.00
  -1  -5   2  298.97   14.50
  -1  -5   2  291.77   14.40
  -1  -5   2  288.57   13.90
  -1  -5   2  280.07   13.20
   0   5  -2   99.19    6.30
   0   5  -2  102.69   10.20
   0   5  -2   99.99    8.50
   0  -5   2  107.99    6.60
   0  -5   2   91.09    6.70
   0  -5   2   98.19    6.70
   0  -5   2  107.09    7.70
  -1   5  -2    7.50    3.20
  -1   5  -2    3.40    1.90
  -1   5  -2    5.80    1.60
  -1   5  -2    8.40    3.20
   1  -5   2    3.60    2.20
   1  -5   2    2.70    1.90
  -2   5  -2   33.30    5.40
  -2   5  -2   40.80    4.30
  -2   5  -2   33.20    4.90
  -2   5  -2   32.20    5.00
   2  -5   2   27.20    4.70
   2  -5   2   34.60    5.20
  -3   5  -2    6.70    2.60
  -3   5  -2    6.90    2.80
  -3   5  -2    6.60    2.10
  -3   5  -2    7.10    1.60
  -3   5  -2    7.90    2.80
   3  -5   2    2.80    2.00
   3  -5   2   11.50    3.00
  -4   5  -2    8.60    3.00
  -4   5  -2   10.10    2.40
  -4   5  -2   18.60    4.50
   4  -5   2   11.40    3.30
   4  -5   2   16.30    3.90
  -5   5  -2   75.29    8.40
  -5   5  -2   52.39    7.10
  -5   5  -2   65.29    8.60
   5  -5   2   59.99    7.50
   5  -5   2   64.89    7.90
  -6   5  -2   15.70    5.20
  -6   5  -2   18.50    4.70
  -6   5  -2   15.90    4.30
   6  -5   2   16.00    4.20
   6  -5   2   17.30    4.30
  -7   5  -2    7.90    4.60
  -7   5  -2    7.40    2.90
   7  -5   2    3.90    2.90
  -8   5  -2   11.10    6.20
  -9   5  -2   -0.80    3.70
  -7  -4   2   11.90    5.40
  -6  -4   2   18.70    5.80
  -6  -4   2   26.00    6.50
  -5  -4   2    2.20    3.20
  -5  -4   2    0.70    2.30
   4   4  -2   12.00    2.20
  -4  -4   2   12.10    4.20
  -4  -4   2   13.50    3.90
   3   4  -2    5.50    3.10
  -3  -4   2    1.80    2.00
  -3  -4   2    5.70    2.60
  -3  -4   2    4.20    2.10
   2   4  -2  245.78   14.30
  -2  -4   2  243.68   13.10
  -2  -4   2  237.18   12.00
  -2  -4   2  247.08   10.70
  -2  -4   2  255.17   12.80
   1   4  -2  182.28   11.50
   1   4  -2  202.98   11.50
   1   4  -2  196.88    8.50
  -1  -4   2  189.68    9.20
  -1  -4   2  183.48   10.00
  -1  -4   2  195.78    8.60
  -1  -4   2  202.98   10.50
  -1  -4   2  190.88    9.80
   0   4  -2   92.49    7.20
   0   4  -2   92.29    5.40
   0   4  -2   96.79    7.50
   0  -4   2  104.29    6.30
   0  -4   2   88.79    5.60
   0  -4   2   93.69    5.90
   0  -4   2  101.09    6.70
  -1   4  -2 3494.55  105.39
  -1   4  -2 3488.05  103.99
  -1   4  -2 3557.54  107.89
  -1   4  -2 3505.75  107.99
   1  -4   2 3503.65  106.79
   1  -4   2 3433.06  103.69
   1  -4   2 3431.76  103.29
   1  -4   2 3446.06  106.19
  -2   4  -2 1208.48   41.00
  -2   4  -2 1240.28   42.20
  -2   4  -2 1239.48   37.00
  -2   4  -2 1179.78   40.50
  -2   4  -2 1220.48   37.10
  -2   4  -2 1196.48   36.80
  -2   4  -2 1221.18   39.30
   2  -4   2 1217.28   41.10
   2  -4   2 1224.78   40.60
  -3   4  -2   21.00    3.70
  -3   4  -2   27.10    3.00
  -3   4  -2   24.10    4.30
  -3   4  -2   26.90    3.90
  -3   4  -2   28.80    3.10
  -3   4  -2   23.20    4.10
   3  -4   2   26.70    4.30
   3  -4   2   23.20    4.00
  -4   4  -2   10.60    2.80
  -4   4  -2   18.00    2.90
  -4   4  -2   14.60    3.30
  -4   4  -2    9.90    3.20
   4  -4   2   16.10    3.50
   4  -4   2   20.80    3.60
  -5   4  -2    2.40    2.00
  -5   4  -2   -0.20    2.30
  -5   4  -2    2.10    2.00
  -5   4  -2    2.30    1.50
   5  -4   2    1.30    1.70
   5  -4   2    1.40    1.60
  -6   4  -2   80.89    9.20
  -6   4  -2   96.09    9.20
  -6   4  -2   97.99   11.60
   6  -4   2   81.99    8.30
   6  -4   2   88.69    8.90
  -7   4  -2   -2.20    2.40
  -8   4  -2   -5.20    2.70
  -9   4  -2   14.10    6.30
  -8  -3   2    6.30    4.30
  -7  -3   2   35.10    7.70
  -7  -3   2   15.30    5.90
  -6  -3   2    0.80    2.60
  -6  -3   2    2.90    2.80
  -5  -3   2   12.90    4.10
  -5  -3   2   17.90    5.00
   4   3  -2    0.50    0.90
   4   3  -2    1.40    2.30
  -4  -3   2    2.20    1.60
  -4  -3   2   -0.90    1.60
  -4  -3   2    0.80    1.80
   3   3  -2  322.57   16.50
   3   3  -2  293.37   10.60
  -3  -3   2  317.27   15.10
  -3  -3   2  305.47   13.30
  -3  -3   2  292.07   15.00
   2   3  -2 2110.79   70.19
  -2  -3   2 2142.09   65.29
  -2  -3   2 2149.98   67.19
  -2  -3   2 2177.68   64.99
  -2  -3   2 2157.38   68.29
   1   3  -2   71.69    5.90
  -1  -3   2   75.29    5.40
  -1  -3   2   68.39    5.00
  -1  -3   2   71.79    5.10
  -1  -3   2   96.09    4.90
  -1  -3   2   79.39    5.50
   0   3  -2   79.49    6.00
   0   3  -2   87.99    6.00
   0   3  -2   83.29    5.00
   0  -3   2   79.29    4.60
   0  -3   2   97.99    6.60
   0  -3   2   90.19    5.10
   0  -3   2   82.19    5.40
   0  -3   2   79.49    4.70
   0  -3   2   91.39    5.20
  -1   3  -2  165.08    9.00
  -1   3  -2  179.68    7.90
  -1   3  -2  174.88    7.20
  -1   3  -2  176.98    9.00
  -1   3  -2  170.38    7.30
   1  -3   2  167.38    7.10
   1  -3   2  167.58    8.10
   1  -3   2  172.78    6.60
   1  -3   2  177.78    8.50
   1  -3   2  183.48    9.40
  -2   3  -2  511.55   16.00
  -2   3  -2  476.75   14.70
  -2   3  -2  483.65   17.20
  -2   3  -2  473.35   18.80
  -2   3  -2  446.36   17.60
  -2   3  -2  478.25   17.80
  -2   3  -2  470.65   15.80
   2  -3   2  455.85   17.70
   2  -3   2  470.65   14.70
   2  -3   2  461.85   17.60
   2  -3   2  464.05   18.60
  -3   3  -2  276.57   12.80
  -3   3  -2  277.57   11.10
  -3   3  -2  263.67   12.00
  -3   3  -2  323.27   11.60
  -3   3  -2  276.67   12.30
   3  -3   2  271.47   12.20
   3  -3   2  274.97    9.20
   3  -3   2  278.57   12.00
   3  -3   2  259.47    9.10
  -4   3  -2  147.39    8.70
  -4   3  -2  134.39    9.00
  -4   3  -2  143.29    8.10
  -4   3  -2  140.49    6.50
  -4   3  -2  145.29    7.80
  -4   3  -2  138.59    6.10
   4  -3   2  146.49    8.20
   4  -3   2  148.39    8.00
   4  -3   2  143.79    6.70
  -5   3  -2  118.29    7.50
  -5   3  -2  116.09   11.20
  -5   3  -2  101.39    8.00
  -5   3  -2  110.79    7.10
   5  -3   2  105.79    7.30
   5  -3   2  109.49    7.00
  -6   3  -2   49.40    7.90
  -6   3  -2   41.10    5.60
  -6   3  -2   54.39    6.30
  -7   3  -2    3.70    3.30
  -8   3  -2   -4.60    2.10
  -9   3  -2   19.70    6.30
  -8  -2   2    9.80    5.30
  -7  -2   2   78.19   10.90
  -7  -2   2   75.49   10.50
  -6  -2   2    1.30    2.30
  -6  -2   2    3.30    2.50
   5   2  -2  110.89   11.90
  -5  -2   2  129.29   10.00
  -5  -2   2  128.69   10.10
   4   2  -2  210.58   13.20
   4   2  -2  225.48   10.00
  -4  -2   2  231.58   12.70
  -4  -2   2  213.38   10.40
  -4  -2   2  232.58   13.00
  -4  -2   2  217.88   10.40
   3   2  -2  269.67   14.30
   3   2  -2  295.47   10.70
   3   2  -2  285.37   10.70
  -3  -2   2  286.47   12.10
  -3  -2   2  286.07   13.70
  -3  -2   2  288.97   11.30
  -3  -2   2  274.97   13.40
   2   2  -2   71.79    5.70
   2   2  -2   63.89    2.80
  -2  -2   2   68.79    5.30
  -2  -2   2   63.69    4.40
  -2  -2   2   69.29    5.10
  -2  -2   2   72.79    5.30
   1   2  -2   83.19    5.80
  -1  -2   2   99.49    5.30
  -1  -2   2   98.99    4.60
  -1  -2   2   91.69    6.00
  -1  -2   2   93.79    5.50
  -1  -2   2   89.89    5.20
   0   2  -2 2305.27   69.79
   0   2  -2 2233.78   68.39
   0   2  -2 2299.47   70.09
   0  -2   2 2236.58   68.39
   0  -2   2 2223.88   68.79
   0  -2   2 2283.87   69.99
   0  -2   2 2255.37   68.39
   0  -2   2 2257.57   68.19
   0  -2   2 2340.07   68.79
  -1   2  -2  193.48    6.80
  -1   2  -2  192.68    7.80
  -1   2  -2  201.28    8.90
  -1   2  -2  199.98    9.00
  -1   2  -2  201.78    6.90
  -1   2  -2  198.68    7.20
   1  -2   2  200.78    7.20
   1  -2   2  199.18    6.60
   1  -2   2  208.78    8.40
   1  -2   2  208.58    8.40
  -2   2  -2   52.99    4.30
  -2   2  -2   57.79    3.80
  -2   2  -2   56.39    3.80
  -2   2  -2   57.89    4.10
  -2   2  -2   53.49    3.30
  -2   2  -2   52.69    3.30
   2  -2   2   49.90    3.60
   2  -2   2   53.99    4.30
   2  -2   2   56.09    2.90
   2  -2   2   56.59    2.60
   2  -2   2   58.19    3.80
   2  -2   2   54.39    2.90
  -3   2  -2    4.80    1.80
  -3   2  -2    2.70    1.00
  -3   2  -2    5.60    1.50
  -3   2  -2    7.70    1.30
  -3   2  -2    2.80    1.10
  -3   2  -2    3.10    1.40
  -3   2  -2    2.80    1.10
   3  -2   2    2.70    1.50
   3  -2   2    2.70    1.00
   3  -2   2    3.30    1.30
   3  -2   2    1.70    1.10
  -4   2  -2  127.19    6.80
  -4   2  -2  117.99    8.00
  -4   2  -2  111.89    6.20
  -4   2  -2  108.89    6.50
  -4   2  -2  131.09    6.70
  -4   2  -2  129.79    7.90
   4  -2   2  132.59    6.80
   4  -2   2  116.59    6.40
   4  -2   2  124.99    6.80
  -5   2  -2    6.70    1.90
  -5   2  -2   13.20    4.10
  -5   2  -2   10.10    3.00
  -5   2  -2   12.30    2.80
  -5   2  -2    7.90    2.30
  -5   2  -2   10.50    2.40
   5  -2   2    8.80    2.20
   5  -2   2   11.10    2.70
  -6   2  -2  109.09    7.80
  -6   2  -2  126.49   12.20
  -6   2  -2  112.69    8.20
   6  -2   2  108.19    7.50
  -7   2  -2   13.60    4.70
  -8   2  -2   -0.50    2.80
  -9   2  -2    0.30    4.00
  -9  -1   2   13.70    6.20
  -8  -1   2    5.90    4.20
  -8  -1   2    2.10    3.00
  -7  -1   2   49.90    8.60
  -7  -1   2   57.59    9.10
  -6  -1   2   -0.30    1.80
  -6  -1   2    4.80    2.90
   5   1  -2    6.30    2.00
   5   1  -2    7.10    3.30
  -5  -1   2    8.50    3.10
  -5  -1   2    8.90    2.80
  -5  -1   2   11.90    3.50
  -5  -1   2    8.90    2.40
   4   1  -2  134.59    7.00
   4   1  -2  126.89    6.90
   4   1  -2  126.99    9.10
  -4  -1   2  110.29    8.20
  -4  -1   2  139.29    7.40
  -4  -1   2  126.09    7.30
  -4  -1   2  119.69    8.40
   3   1  -2 1462.95   44.90
   3   1  -2 1471.95   44.90
   3   1  -2 1445.26   48.20
  -3  -1   2 1489.75   47.90
  -3  -1   2 1444.56   45.20
  -3  -1   2 1405.26   47.20
  -3  -1   2 1414.16   45.60
  -3  -1   2 1409.06   47.40
   2   1  -2  193.58    7.40
   2   1  -2  194.88    7.40
   2   1  -2  182.28    9.20
  -2  -1   2  201.78    9.10
  -2  -1   2  203.18    9.10
  -2  -1   2  194.38    9.20
  -2  -1   2  199.48    8.30
   1   1  -2 1064.09   33.70
   1   1  -2 1020.80   31.40
  -1  -1   2 1069.29   33.30
  -1  -1   2 1071.49   33.70
  -1  -1   2 1017.30   33.20
  -1  -1   2 1054.89   32.80
   0   1  -2    0.40    0.70
   0   1  -2    0.20    0.30
   0   1  -2    0.00    0.30
   0   1  -2   -0.10    0.50
   0  -1   2    0.60    0.30
   0  -1   2    1.10    0.30
   0  -1   2   -0.10    0.60
   0  -1   2    0.20    0.70
   0  -1   2   -0.30    0.40
   0  -1   2    0.40    0.50
  -1   1  -2 2158.88   63.29
  -1   1  -2 2153.88   63.79
  -1   1  -2 2175.08   63.29
  -1   1  -2 2109.99   64.59
   1  -1   2 2070.99   63.19
   1  -1   2 2109.79   63.09
   1  -1   2 2169.28   64.79
   1  -1   2 2126.59   63.19
   1  -1   2 2099.29   63.49
  -2   1  -2 1664.63   49.90
  -2   1  -2 1645.34   49.50
  -2   1  -2 1526.95   49.40
  -2   1  -2 1722.83   49.80
  -2   1  -2 1620.94   51.09
  -2   1  -2 1688.83   50.79
  -2   1  -2 1652.43   49.90
   2  -1   2 1642.74   49.90
   2  -1   2 1618.94   49.80
   2  -1   2 1628.74   49.50
  -3   1  -2   30.80    3.40
  -3   1  -2   33.90    4.40
  -3   1  -2   30.60    3.80
  -3   1  -2   30.70    2.50
  -3   1  -2   36.30    3.90
  -3   1  -2   30.30    3.20
   3  -1   2   33.30    3.40
   3  -1   2   32.60    3.30
   3  -1   2   28.50    2.80
   3  -1   2   32.70    3.10
  -4   1  -2   68.69    7.00
  -4   1  -2   64.39    4.30
  -4   1  -2   60.89    5.90
  -4   1  -2   58.49    3.90
  -4   1  -2   68.19    5.00
  -4   1  -2   59.09    5.70
   4  -1   2   63.09    3.70
   4  -1   2   58.49    4.50
  -5   1  -2  132.79    9.50
  -5   1  -2  172.38    9.60
  -5   1  -2  143.39    8.90
   5  -1   2  162.18    8.70
  -6   1  -2   12.90    3.40
  -6   1  -2    9.60    3.60
  -6   1  -2   11.40    3.60
   6  -1   2   10.70    2.90
  -7   1  -2   14.50    4.10
  -7   1  -2   19.80    4.50
  -7   1  -2   23.90    6.30
  -8   1  -2   27.80    6.80
  -8   1  -2   24.10    6.10
  -9   1  -2   -2.60    3.30
  -9   0   2   12.10    5.50
  -9   0   2   10.00    5.00
  -8   0   2    8.30    4.00
  -8   0   2    7.30    3.90
  -7   0   2   27.60    5.70
  -7   0   2   26.90    6.20
  -7   0   2   28.60    6.00
   6   0  -2   50.39    5.90
  -6   0   2   35.40    6.10
  -6   0   2   68.19    8.00
  -6   0   2   59.39    8.00
   5   0  -2    0.40    1.00
  -5   0   2    1.00    1.90
  -5   0   2    0.60    1.50
  -5   0   2   -1.50    1.20
  -5   0   2   -1.00    1.10
   4   0  -2  227.58   10.10
  -4   0   2  212.68   10.80
  -4   0   2  224.38    9.30
  -4   0   2  228.68   10.30
  -4   0   2  216.18   11.30
  -4   0   2  212.48   10.50
  -4   0   2  231.88   11.70
  -4   0   2  234.28   11.10
   3   0  -2    3.50    1.10
   3   0  -2    5.90    1.40
  -3   0   2    5.10    1.60
  -3   0   2    4.40    1.60
  -3   0   2    6.30    1.90
  -3   0   2    4.20    1.50
  -3   0   2    5.00    1.20
  -3   0   2    2.40    1.30
  -3   0   2    2.60    1.30
   2   0  -2  408.36   14.10
   2   0  -2  410.96   14.10
  -2   0   2  421.06   15.30
  -2   0   2  433.06   15.30
  -2   0   2  417.06   14.00
  -2   0   2  387.96   14.70
  -2   0   2  423.16   14.70
  -2   0   2  413.96   13.90
   1   0  -2  202.28    8.00
   1   0  -2  211.58    7.60
   1   0  -2  218.48    7.50
  -1   0   2  211.08    8.10
  -1   0   2  210.78    7.40
  -1   0   2  209.68    8.00
  -1   0   2  208.18    8.10
  -1   0   2  223.38    8.00
  -1   0   2  216.98    7.50
   0   0  -2  522.55   16.20
   0   0  -2  524.65   16.50
   0   0  -2  532.65   16.80
   0   0  -2  498.75   16.10
   0   0   2  556.94   16.60
   0   0   2  545.45   16.30
   0   0   2  523.75   16.20
   0   0   2  533.25   16.80
  -1   0  -2 4107.79  121.19
  -2   0  -2  860.21   28.50
  -2   0  -2  863.41   26.80
  -2   0  -2  912.71   26.90
  -2   0  -2  885.31   28.50
  -2   0  -2  871.11   28.90
   2   0   2  891.71   27.40
   2   0   2  852.01   27.30
  -3   0  -2    1.60    0.80
  -3   0  -2   -0.80    0.80
  -3   0  -2    0.40    1.00
  -3   0  -2    1.80    1.30
  -3   0  -2    0.00    0.50
  -3   0  -2    1.10    0.70
   3   0   2    0.10    0.80
   3   0   2    1.10    0.90
  -4   0  -2   59.79    3.30
  -4   0  -2   56.69    3.40
  -4   0  -2   49.30    5.70
  -4   0  -2   59.79    6.50
  -4   0  -2   57.59    6.10
   4   0   2   63.09    4.60
   4   0   2   63.39    6.60
  -5   0  -2  565.04   23.70
  -5   0  -2  567.24   23.90
  -5   0  -2  592.04   23.60
   5   0   2  592.94   22.00
  -6   0  -2    7.10    2.90
  -6   0  -2    6.40    2.90
  -6   0  -2    6.50    3.20
  -7   0  -2    4.20    3.00
  -7   0  -2   -1.40    1.70
  -7   0  -2    1.40    2.10
  -8   0  -2    2.10    3.10
  -8   0  -2    0.20    2.40
  -8   0  -2    0.80    3.40
  -9   0  -2    0.20    3.90
  -9   1   2  102.49   12.90
  -8   1   2   24.60    5.90
  -8   1   2   22.70    5.80
  -8   1   2   15.30    4.80
  -7   1   2   50.09    7.90
  -7   1   2   52.49    7.50
  -7   1   2   39.30    6.90
   6  -1  -2  132.59    8.50
  -6   1   2  126.79    8.40
  -6   1   2  140.19   10.00
  -6   1   2  123.59    9.40
  -6   1   2  142.89    9.70
   5  -1  -2    1.90    1.30
  -5   1   2    1.20    1.50
  -5   1   2    2.00    2.00
  -5   1   2    5.00    1.70
  -5   1   2    3.30    1.70
  -5   1   2    4.50    2.50
   4  -1  -2    9.60    2.10
  -4   1   2    9.00    2.30
  -4   1   2    8.50    2.30
  -4   1   2    6.80    2.30
  -4   1   2   13.10    3.00
  -4   1   2    6.30    1.60
  -4   1   2   10.20    2.30
  -4   1   2    9.60    2.40
   3  -1  -2  765.12   25.30
  -3   1   2  781.92   25.50
  -3   1   2  773.82   26.10
  -3   1   2  758.42   25.30
  -3   1   2  739.83   26.20
  -3   1   2  776.02   26.30
  -3   1   2  778.22   26.30
  -3   1   2  774.22   25.60
   2  -1  -2   53.49    3.20
   2  -1  -2   48.60    2.90
   2  -1  -2   46.80    2.80
  -2   1   2   47.50    3.30
  -2   1   2   48.00    3.00
  -2   1   2   51.69    3.30
  -2   1   2   45.70    3.40
  -2   1   2   54.19    3.60
  -2   1   2   54.39    3.10
  -2   1   2   56.79    3.20
   1  -1  -2 1558.64   46.70
   1  -1  -2 1546.75   45.50
  -1   1   2 1539.95   45.90
  -1   1   2 1553.34   47.00
  -1   1   2 1537.35   47.30
  -1   1   2 1534.75   46.60
  -1   1   2 1585.24   45.90
   0  -1  -2 1923.51   57.69
   0   1   2 1942.61   58.19
   0   1   2 1947.91   57.69
  -1  -1  -2  785.42   25.50
  -1  -1  -2  783.72   25.70
  -2  -1  -2  190.38    9.10
  -2  -1  -2  188.28    9.10
  -2  -1  -2  202.28    9.00
   2   1   2  200.88    6.50
  -3  -1  -2  149.39    5.70
  -3  -1  -2  150.08    8.60
  -3  -1  -2  151.28    8.50
  -3  -1  -2  143.99    8.10
   3   1   2  155.98    6.50
   3   1   2  159.98    6.60
  -4  -1  -2  789.32   29.20
  -4  -1  -2  771.12   29.60
  -4  -1  -2  824.02   30.20
   4   1   2  798.12   26.90
   4   1   2  803.92   26.80
  -5  -1  -2   17.00    4.00
  -5  -1  -2   13.70    3.80
  -5  -1  -2   26.70    5.10
   5   1   2   28.00    3.90
  -6  -1  -2   15.10    4.50
  -6  -1  -2   15.50    4.40
  -6  -1  -2   30.60    6.00
  -7  -1  -2    2.30    3.00
  -7  -1  -2    1.40    2.80
  -7  -1  -2    0.20    2.20
  -8  -1  -2   48.30    8.70
  -8  -1  -2   46.70    9.00
  -9  -1  -2   21.80    6.90
  -9   2   2   -1.20    4.40
  -8   2   2   37.80    7.80
  -7   2   2   22.80    5.20
  -7   2   2   25.30    5.80
  -6   2   2  141.69   10.40
  -6   2   2  156.68   10.10
  -6   2   2  144.69    9.40
  -6   2   2  154.48    9.00
  -6   2   2  145.19    9.70
   5  -2  -2   66.99    5.10
  -5   2   2   74.39    5.90
  -5   2   2   76.69    7.40
  -5   2   2   73.69    5.50
  -5   2   2   85.19    8.60
  -5   2   2   69.09    7.00
  -5   2   2   56.19    6.70
   4  -2  -2    5.30    1.70
   4  -2  -2    4.90    1.50
  -4   2   2    3.50    1.20
  -4   2   2    4.20    1.90
  -4   2   2    3.50    1.30
  -4   2   2    4.40    1.60
  -4   2   2    8.60    2.40
  -4   2   2    6.30    2.00
  -4   2   2    9.70    2.40
   3  -2  -2  241.48    8.90
   3  -2  -2  238.38   10.00
   3  -2  -2  234.38    9.90
   3  -2  -2  237.38    9.00
   3  -2  -2  244.48    8.90
  -3   2   2  220.08   10.80
  -3   2   2  242.78    9.70
  -3   2   2  224.78   10.60
  -3   2   2  247.68    9.90
  -3   2   2  228.18    9.90
  -3   2   2  223.98    9.50
  -3   2   2  223.88    8.90
   2  -2  -2   11.10    2.00
   2  -2  -2   14.40    1.80
   2  -2  -2   12.00    1.50
   2  -2  -2   11.40    2.20
  -2   2   2   13.60    1.60
  -2   2   2   11.30    1.50
  -2   2   2   11.30    1.40
  -2   2   2   10.60    1.80
  -2   2   2   16.00    2.60
  -2   2   2   15.60    2.50
   1  -2  -2   44.30    3.20
   1  -2  -2   46.70    2.80
   1  -2  -2   45.00    3.30
   1  -2  -2   47.20    3.60
  -1   2   2   43.30    2.70
  -1   2   2   39.80    4.00
  -1   2   2   34.20    3.60
  -1   2   2   43.40    3.00
   0  -2  -2  776.32   25.30
   0  -2  -2  794.52   25.70
   0  -2  -2  798.92   25.30
   0  -2  -2  751.02   25.50
   0  -2  -2  737.83   25.70
   0   2   2  783.12   25.60
   0   2   2  809.42   25.60
   0   2   2  791.52   25.30
  -1  -2  -2    4.40    1.20
  -1  -2  -2    7.20    1.90
  -1  -2  -2    3.90    1.40
  -1  -2  -2   13.20    2.50
   1   2   2    8.40    2.00
   1   2   2    9.90    1.60
  -2  -2  -2   10.90    1.70
  -2  -2  -2    6.00    1.80
  -2  -2  -2    6.00    1.90
  -2  -2  -2    9.20    2.40
   2   2   2   11.70    1.70
  -3  -2  -2  233.38   11.10
  -3  -2  -2  239.28   12.20
  -3  -2  -2  229.28    8.80
  -3  -2  -2  223.88   11.80
   3   2   2  232.58    7.70
   3   2   2  219.48    7.70
  -4  -2  -2  279.37   14.90
  -4  -2  -2  286.97   13.90
  -4  -2  -2  290.57   14.80
   4   2   2  277.57   11.10
  -5  -2  -2  128.89   11.80
  -5  -2  -2  118.99    8.80
  -5  -2  -2  114.59   11.50
   5   2   2  109.29   10.00
  -6  -2  -2   32.50    6.10
  -6  -2  -2   31.80    6.80
  -6  -2  -2   33.70    6.80
  -7  -2  -2    4.20    3.60
  -7  -2  -2    6.40    3.80
  -8  -2  -2    5.50    4.70
  -9   3   2   34.50    8.20
  -8   3   2  138.79   15.20
  -7   3   2  114.39   10.70
   6  -3  -2   11.40    3.00
  -6   3   2    7.40    2.50
  -6   3   2    9.20    3.50
  -6   3   2    6.80    2.90
  -6   3   2   10.80    3.20
  -6   3   2   12.60    4.30
   5  -3  -2   30.30    4.40
  -5   3   2   26.70    3.90
  -5   3   2   32.30    5.00
  -5   3   2   27.70    5.30
  -5   3   2   25.80    3.80
  -5   3   2   33.30    4.70
  -5   3   2   38.90    5.60
   4  -3  -2  302.47   13.50
   4  -3  -2  328.57   13.70
   4  -3  -2  308.67   14.40
  -4   3   2  347.07   15.00
  -4   3   2  323.57   12.80
  -4   3   2  317.47   13.00
  -4   3   2  328.47   13.20
  -4   3   2  294.97   11.20
  -4   3   2  312.87   15.00
  -4   3   2  296.07   14.00
   3  -3  -2   61.19    5.80
   3  -3  -2   66.19    6.50
   3  -3  -2   67.99    4.60
  -3   3   2   57.69    3.80
  -3   3   2   63.09    6.30
  -3   3   2   62.49    3.20
  -3   3   2   57.49    6.30
  -3   3   2   59.19    4.00
  -3   3   2   68.09    4.40
  -3   3   2   61.99    4.00
   2  -3  -2  156.78    8.40
   2  -3  -2  164.88    8.20
   2  -3  -2  157.48    7.40
  -2   3   2  169.88    6.60
  -2   3   2  166.08    8.70
  -2   3   2  161.88    8.50
  -2   3   2  162.28    7.40
  -2   3   2  163.28    7.50
   1  -3  -2   10.10    2.20
   1  -3  -2   15.10    2.50
   1  -3  -2   12.50    2.30
  -1   3   2   10.00    2.00
  -1   3   2   12.80    2.60
  -1   3   2   14.00    2.60
  -1   3   2   11.70    2.10
  -1   3   2   10.40    2.10
   0  -3  -2   18.50    2.80
   0  -3  -2   20.30    3.20
   0  -3  -2   27.60    3.30
   0  -3  -2   21.30    3.10
   0  -3  -2   16.80    3.00
   0  -3  -2   14.50    2.60
   0   3   2   20.50    3.00
   0   3   2   23.00    3.40
   0   3   2   20.30    3.00
   0   3   2   18.70    2.90
  -1  -3  -2   78.09    5.80
  -1  -3  -2   89.89    5.20
  -1  -3  -2   93.29    5.90
  -1  -3  -2   99.19    6.30
  -1  -3  -2   83.29    4.90
   1   3   2   82.49    5.00
   1   3   2   93.89    6.60
  -2  -3  -2   41.00    4.90
  -2  -3  -2   43.40    5.60
  -2  -3  -2   54.69    4.80
  -2  -3  -2   48.60    5.70
   2   3   2   44.50    2.90
   2   3   2   50.79    6.40
  -3  -3  -2   25.50    4.70
  -3  -3  -2   31.30    4.60
  -3  -3  -2   25.30    4.80
   3   3   2   25.60    5.30
  -4  -3  -2    0.30    1.60
  -4  -3  -2    1.90    2.30
  -4  -3  -2    2.60    2.20
   4   3   2    2.60    1.00
   4   3   2    0.90    2.30
  -5  -3  -2    9.90    3.90
  -5  -3  -2    7.60    5.20
  -5  -3  -2   10.70    3.90
  -6  -3  -2   19.90    5.50
  -6  -3  -2   28.20    6.60
  -7  -3  -2   72.39   11.30
  -7  -3  -2   97.79   13.20
  -8  -3  -2   46.30    9.70
  -9   4   2   23.60    7.20
  -8   4   2    2.10    4.00
  -7   4   2   17.70    4.50
  -7   4   2   27.30    6.70
   6  -4  -2   41.60    5.80
  -6   4   2   41.10    6.70
  -6   4   2   54.79    8.40
  -6   4   2   48.80    7.20
   5  -4  -2    8.50    2.80
  -5   4   2    4.40    2.20
  -5   4   2    5.60    2.70
  -5   4   2   12.40    3.70
  -5   4   2    6.60    2.10
   4  -4  -2  226.68   12.30
   4  -4  -2  211.98   11.30
  -4   4   2  218.28   10.00
  -4   4   2  216.18   12.40
  -4   4   2  218.88   12.00
   3  -4  -2    4.80    2.10
   3  -4  -2    5.30    2.00
   3  -4  -2    6.10    2.40
  -3   4   2    5.70    1.30
  -3   4   2    4.70    1.70
  -3   4   2    5.90    2.40
  -3   4   2    9.80    2.30
  -3   4   2    7.30    2.80
   2  -4  -2   79.99    6.20
   2  -4  -2   79.39    5.60
   2  -4  -2   83.09    6.10
   2  -4  -2   78.99    6.30
  -2   4   2   85.39    5.70
  -2   4   2   76.29    6.10
  -2   4   2   82.09    5.10
  -2   4   2   92.39    6.40
   1  -4  -2  303.07   13.60
   1  -4  -2  286.47   13.30
   1  -4  -2  308.47   13.90
   1  -4  -2  328.87   14.00
  -1   4   2  313.77   13.90
  -1   4   2  310.17   13.70
  -1   4   2  314.37   13.70
  -1   4   2  330.67   13.10
  -1   4   2  309.07   14.00
   0  -4  -2 1221.08   40.60
   0  -4  -2 1231.88   41.10
   0  -4  -2 1238.68   41.00
   0  -4  -2 1229.78   41.30
   0  -4  -2 1238.28   41.10
   0   4   2 1235.08   41.00
   0   4   2 1249.07   42.30
   0   4   2 1213.78   40.80
   0   4   2 1252.77   41.90
  -1  -4  -2  295.87   14.00
  -1  -4  -2  285.17   12.50
  -1  -4  -2  294.87   14.10
  -1  -4  -2  299.27   13.10
  -1  -4  -2  329.17   13.90
   1   4   2  301.67   15.00
   1   4   2  297.67   13.00
  -2  -4  -2  119.09    7.70
  -2  -4  -2  125.19    7.20
  -2  -4  -2  130.19    8.80
  -2  -4  -2   89.39    9.10
   2   4   2  122.39    9.40
   2   4   2  117.49    5.40
  -3  -4  -2    3.70    2.30
  -3  -4  -2    1.70    1.90
  -3  -4  -2    3.80    2.40
   3   4   2    1.60    2.10
  -4  -4  -2  462.25   22.50
  -4  -4  -2  476.75   23.00
  -5  -4  -2  153.48   14.70
  -5  -4  -2  142.39   14.30
  -6  -4  -2   13.50    5.20
  -6  -4  -2   13.90    5.00
  -7  -4  -2   48.20   10.10
  -9   5   2   24.70    8.10
  -8   5   2   40.70    7.60
  -8   5   2   44.60    8.90
   7  -5  -2   31.20    5.80
  -7   5   2   23.80    5.80
  -7   5   2   28.50    6.60
  -7   5   2   20.70    5.70
   6  -5  -2   41.30    6.50
  -6   5   2   23.30    5.40
  -6   5   2   24.30    5.30
  -6   5   2   26.10    6.00
   5  -5  -2    3.60    2.40
   5  -5  -2    1.90    1.90
  -5   5   2    8.30    3.60
  -5   5   2    6.90    3.20
  -5   5   2    5.20    2.40
   4  -5  -2   11.00    3.40
   4  -5  -2    5.80    2.70
  -4   5   2    8.10    2.50
  -4   5   2   15.30    4.20
  -4   5   2    8.60    3.20
  -4   5   2   10.90    2.30
   3  -5  -2    0.30    1.60
   3  -5  -2    0.20    1.50
  -3   5   2   -0.80    0.60
  -3   5   2   -0.80    1.20
  -3   5   2    2.30    1.50
  -3   5   2    1.60    0.80
  -3   5   2   -0.30    1.90
   2  -5  -2   32.20    5.10
   2  -5  -2   31.00    4.90
  -2   5   2   31.40    5.00
  -2   5   2   22.20    3.90
  -2   5   2   30.20    3.90
  -2   5   2   31.90    5.30
   1  -5  -2   91.69    7.10
   1  -5  -2   96.49    8.80
   1  -5  -2   94.09    8.40
  -1   5   2   93.29    7.20
  -1   5   2   73.89    7.80
  -1   5   2   83.99    6.90
  -1   5   2   89.59    7.00
  -1   5   2   82.99    6.00
   0  -5  -2   17.70    3.70
   0  -5  -2   20.20    4.00
   0  -5  -2    8.70    2.70
   0  -5  -2    9.10    2.80
   0  -5  -2   10.10    2.70
   0   5   2   17.60    3.80
   0   5   2   14.80    3.40
   0   5   2   13.60    3.60
   0   5   2   13.80    3.40
   0   5   2   17.90    3.80
  -1  -5  -2  167.08    9.90
  -1  -5  -2  181.48   10.30
  -1  -5  -2  164.78    9.30
  -1  -5  -2  171.68   10.80
  -1  -5  -2  176.28   10.60
   1   5   2  166.78    9.90
   1   5   2  176.78   11.20
   1   5   2  171.18   11.60
  -2  -5  -2   19.60    4.50
  -2  -5  -2   17.60    4.40
  -2  -5  -2   13.50    4.30
  -2  -5  -2   21.30    4.40
   2   5   2   14.00    4.30
   2   5   2   13.20    3.20
  -3  -5  -2   17.60    4.60
  -3  -5  -2    9.40    3.70
  -4  -5  -2   22.70    5.70
  -4  -5  -2   29.60    6.30
  -5  -5  -2   54.79    9.40
  -5  -5  -2   42.80    8.30
  -6  -5  -2   24.30    7.10
  -8   6   2    0.10    3.00
  -8   6   2    1.70    4.10
   7  -6  -2    8.90    3.80
  -7   6   2   13.00    4.90
  -7   6   2   12.70    5.10
  -7   6   2   10.70    5.00
   6  -6  -2    1.40    2.90
   6  -6  -2    1.40    2.40
  -6   6   2   -0.20    2.60
  -6   6   2    0.70    2.50
  -6   6   2   -1.30    1.80
   5  -6  -2    5.60    2.90
   5  -6  -2    6.20    3.20
  -5   6   2    9.70    3.20
  -5   6   2    2.30    2.20
  -5   6   2    1.20    2.70
   4  -6  -2    1.10    2.20
   4  -6  -2    1.10    1.90
  -4   6   2    2.20    2.40
  -4   6   2    1.40    1.50
  -4   6   2    2.10    2.10
   3  -6  -2   17.90    4.30
   3  -6  -2   22.90    4.70
  -3   6   2   27.50    5.30
  -3   6   2   18.80    3.30
  -3   6   2   23.40    5.00
   2  -6  -2   52.09    7.30
   2  -6  -2   55.59    7.30
  -2   6   2   52.29    7.40
  -2   6   2   51.99    4.70
  -2   6   2   43.70    6.50
   1  -6  -2   32.50    5.60
   1  -6  -2   34.70    5.70
   1  -6  -2   34.10    5.50
  -1   6   2   32.70    5.70
  -1   6   2   38.40    6.30
  -1   6   2   33.60    5.90
  -1   6   2   25.90    4.80
  -1   6   2   33.50    3.10
   0  -6  -2    0.90    2.00
   0  -6  -2   -2.00    1.50
   0  -6  -2    1.60    1.60
   0  -6  -2    4.20    2.50
   0  -6  -2    3.50    2.40
   0   6   2    1.40    2.00
   0   6   2   -1.90    1.80
   0   6   2   -1.10    1.60
   0   6   2    3.50    2.20
   0   6   2   -1.00    1.50
  -1  -6  -2   51.69    6.90
  -1  -6  -2   62.79    7.10
  -1  -6  -2   41.70    6.40
  -1  -6  -2   70.39    8.40
  -1  -6  -2   69.09    7.80
   1   6   2   46.20    8.60
   1   6   2   69.69    8.10
   1   6   2   69.69    9.10
   1   6   2   73.69    8.40
   1   6   2   63.39    7.50
  -2  -6  -2   38.30    6.90
  -2  -6  -2   39.40    6.90
   2   6   2   34.10    6.70
  -3  -6  -2  471.15   23.80
  -3  -6  -2  425.96   22.70
  -4  -6  -2   75.29   10.90
  -5  -6  -2   10.70    5.20
  -8   7   2    2.20    3.80
  -8   7   2    1.30    3.70
   7  -7  -2    2.80    2.80
  -7   7   2    6.50    4.70
  -7   7   2   -1.40    2.50
  -7   7   2    4.60    3.70
   6  -7  -2    3.60    4.00
   6  -7  -2    4.40    3.20
  -6   7   2    1.30    2.60
  -6   7   2   -1.40    2.80
  -6   7   2   -1.40    2.80
   5  -7  -2   13.10    4.50
   5  -7  -2    7.90    4.00
  -5   7   2   14.60    4.10
  -5   7   2    9.40    4.20
  -5   7   2    5.40    3.60
   4  -7  -2    4.00    3.50
   4  -7  -2   -2.40    1.50
  -4   7   2    0.10    2.60
  -4   7   2   -0.70    2.30
  -4   7   2    2.10    1.90
   3  -7  -2   28.50    6.10
   3  -7  -2   15.50    4.50
  -3   7   2   29.80    4.40
  -3   7   2   21.40    5.50
  -3   7   2   34.10    6.40
   2  -7  -2    4.70    2.80
   2  -7  -2    4.90    3.00
  -2   7   2    1.40    1.20
  -2   7   2    0.60    1.90
  -2   7   2    4.10    2.70
   1  -7  -2    4.00    2.50
   1  -7  -2    0.00    2.00
   1  -7  -2    1.00    2.30
  -1   7   2   -2.00    2.20
  -1   7   2    2.00    2.20
  -1   7   2    1.20    2.60
  -1   7   2    1.20    1.10
   0  -7  -2   92.69    9.90
   0  -7  -2   73.39    8.90
   0   7   2   93.39    9.80
   0   7   2   86.59   10.70
   0   7   2   84.09    9.50
   1   7   2   71.49    8.60
   1   7   2   66.59    9.50
  -2  -7  -2    4.10    3.00
  -2  -7  -2    2.30    3.10
   2   7   2   -4.40    2.30
   2   7   2   -0.40    3.00
  -3  -7  -2    1.40    3.60
  -3  -7  -2   -1.00    3.10
   3   7   2    4.20    4.00
  -4  -7  -2   -1.50    3.70
   7  -8  -2    7.60    4.20
  -7   8   2   20.20    8.40
  -7   8   2    4.70    3.70
  -7   8   2    7.40    4.80
   6  -8  -2   -3.10    3.40
   6  -8  -2   -0.90    2.50
  -6   8   2   -0.30    2.10
  -6   8   2   -1.80    2.90
  -6   8   2   -2.90    3.00
   5  -8  -2    9.80    4.20
   5  -8  -2    2.50    2.90
  -5   8   2   -0.60    3.30
  -5   8   2    7.00    3.40
  -5   8   2    6.90    3.90
   4  -8  -2    1.60    2.60
   4  -8  -2    1.50    3.20
  -4   8   2   -1.90    2.70
  -4   8   2   -1.00    2.90
  -4   8   2    0.90    1.50
   3  -8  -2    0.00    2.40
   3  -8  -2    0.60    2.60
  -3   8   2    0.30    3.10
  -3   8   2    2.90    3.10
  -3   8   2    1.10    1.50
   2  -8  -2    3.70    3.10
   2  -8  -2    0.10    2.60
  -2   8   2    1.70    1.40
  -2   8   2    0.40    2.60
  -2   8   2    1.40    3.30
   1  -8  -2   10.90    4.10
   1  -8  -2    6.30    3.80
  -1   8   2   18.00    5.10
  -1   8   2   15.10    2.50
   0  -8  -2   -1.40    2.80
   0  -8  -2   -1.40    2.10
   0   8   2    2.40    2.90
   1   8   2   22.40    6.30
   2   8   2   88.99   12.70
   3   8   2   28.70    8.20
   5  -9  -2    1.30    3.30
  -5   9   2    0.70    2.70
  -5   9   2    3.70    4.60
   4  -9  -2   -1.80    2.20
   4  -9  -2    6.90    5.20
  -4   9   2   -1.70    3.30
  -4   9   2    0.50    3.00
  -4   9   2    2.00    2.10
   3  -9  -2    0.20    3.10
   3  -9  -2    1.70    3.00
  -3   9   2    3.50    2.40
  -3   9   2    5.90    3.70
  -3   9   2    1.40    3.80
   2  -9  -2    3.90    4.00
   2  -9  -2   10.90    4.60
  -2   9   2    7.10    4.10
  -2   9   2    1.70    1.60
   1  -9  -2   20.40    6.30
   1  -9  -2   14.50    4.80
  -1   9   2   14.20    5.60
   1   9  -3   -2.80    3.80
   1   9  -3   -0.20    3.30
  -1  -9   3    2.90    4.00
   0   9  -3    6.00    4.10
   0   9  -3    4.40    4.60
   0  -9   3   14.00    5.50
  -1   9  -3    7.50    5.00
  -1   9  -3    6.50    4.60
   1  -9   3    4.60    3.20
   1  -9   3    6.50    4.90
  -2   9  -3    0.70    3.50
   2  -9   3    6.20    4.70
   2  -9   3    4.30    3.30
  -3   9  -3    1.50    3.30
   3  -9   3   11.40    5.10
   3  -9   3    5.60    3.50
  -4   9  -3    5.40    4.20
   4  -9   3   11.30    4.70
   4  -9   3    9.80    5.50
  -5   9  -3   -1.00    3.80
   5  -9   3   -1.00    2.50
   5  -9   3    0.60    3.50
  -6   9  -3    1.80    4.20
   6  -9   3    0.40    3.10
   3   8  -3    0.30    4.00
   2   8  -3   -0.70    2.20
   1   8  -3    3.90    3.90
  -1  -8   3    7.60    4.20
   0   8  -3   47.00    8.10
   0   8  -3   38.40    8.00
   0  -8   3   32.30    6.30
   0  -8   3   38.40    7.30
  -1   8  -3    9.00    4.40
  -1   8  -3    9.00    4.00
   1  -8   3   13.40    4.60
   1  -8   3   13.50    4.60
  -2   8  -3  151.08   15.40
   2  -8   3  142.89   14.40
   2  -8   3  143.49   13.50
  -3   8  -3  255.47   16.60
   3  -8   3  245.18   16.50
   3  -8   3  233.68   15.30
  -4   8  -3   44.30    7.00
  -4   8  -3   39.80    7.90
  -4   8  -3   41.40    7.70
   4  -8   3   37.10    7.10
   4  -8   3   43.60    8.20
  -5   8  -3    0.70    2.10
  -5   8  -3    0.00    2.80
  -5   8  -3    1.70    3.40
   5  -8   3   -0.30    2.60
   5  -8   3    3.60    3.30
  -6   8  -3    4.50    3.00
  -6   8  -3    5.00    4.50
  -6   8  -3    2.30    3.50
   6  -8   3   -0.40    2.80
   6  -8   3    4.90    3.50
  -7   8  -3    0.70    3.10
  -7   8  -3    2.70    4.10
  -7   8  -3    3.30    3.90
   7  -8   3    7.40    4.30
   7  -8   3    9.40    5.50
   4   7  -3    2.20    4.30
  -4  -7   3   -0.90    2.90
  -4  -7   3    5.80    4.00
   3   7  -3    1.50    3.20
  -3  -7   3    6.30    3.60
   2   7  -3   -0.60    2.40
  -2  -7   3    2.50    3.00
   1   7  -3   95.89   12.40
  -1  -7   3   92.39   10.80
   0   7  -3  104.59   12.50
   0  -7   3  117.89   10.90
   0  -7   3  109.39   11.90
  -1   7  -3    1.80    2.80
  -1   7  -3    0.80    2.20
   1  -7   3    1.00    2.00
   1  -7   3    3.10    2.70
  -2   7  -3   15.60    4.70
   2  -7   3   24.30    5.20
   2  -7   3   30.70    6.20
  -3   7  -3   11.80    3.30
  -3   7  -3    2.50    2.80
  -3   7  -3   10.10    4.00
   3  -7   3    4.80    2.70
   3  -7   3   10.60    3.80
  -4   7  -3    2.80    3.30
  -4   7  -3    4.90    3.00
  -4   7  -3    1.10    1.70
   4  -7   3    5.10    3.00
   4  -7   3    4.80    3.10
  -5   7  -3   22.10    5.80
  -5   7  -3    7.70    3.20
  -5   7  -3   17.00    4.90
   5  -7   3   14.50    4.40
   5  -7   3   15.80    5.10
  -6   7  -3   24.40    6.80
  -6   7  -3   24.00    5.90
  -6   7  -3   19.90    5.30
   6  -7   3   32.30    6.60
   6  -7   3   30.30    6.40
  -7   7  -3   -4.40    2.50
  -7   7  -3   -2.30    2.30
  -7   7  -3   -1.30    3.60
   7  -7   3   -1.70    2.60
   7  -7   3    0.40    3.10
  -8   7  -3   -2.20    3.20
  -5  -6   3    1.40    3.80
  -5  -6   3    9.10    5.60
  -4  -6   3   15.70    5.60
  -4  -6   3   13.90    5.20
   3   6  -3   24.00    6.40
  -3  -6   3   13.90    4.60
  -3  -6   3   18.90    5.30
  -3  -6   3   29.40    6.30
   2   6  -3   34.40    7.10
  -2  -6   3   45.00    6.70
  -2  -6   3   36.90    6.10
  -2  -6   3   45.40    6.80
   1   6  -3   31.30    6.70
  -1  -6   3   19.70    4.40
  -1  -6   3   31.00    5.80
  -1  -6   3   23.70    4.50
   0   6  -3   19.70    5.10
   0   6  -3   14.00    4.60
   0  -6   3   25.00    4.70
   0  -6   3   25.20    4.80
  -1   6  -3   23.70    5.20
  -1   6  -3   26.90    5.60
   1  -6   3   17.40    4.40
   1  -6   3   30.40    5.10
  -2   6  -3  231.48   12.40
  -2   6  -3  229.38   13.50
  -2   6  -3  214.08   14.00
   2  -6   3  223.58   13.30
   2  -6   3  210.08   12.40
  -3   6  -3    8.80    3.20
  -3   6  -3    3.20    2.20
  -3   6  -3    4.10    2.00
  -3   6  -3    2.40    1.30
  -3   6  -3    4.50    2.90
   3  -6   3    6.70    2.90
   3  -6   3   10.40    3.90
  -4   6  -3   -0.90    1.70
  -4   6  -3    2.10    2.30
  -4   6  -3    1.20    1.60
  -4   6  -3    3.10    3.20
   4  -6   3    0.00    2.00
   4  -6   3   -2.00    1.40
  -5   6  -3   56.19    7.80
  -5   6  -3   55.79    8.50
  -5   6  -3   61.59    8.10
   5  -6   3   56.59    7.80
   5  -6   3   52.99    7.80
  -6   6  -3   15.90    5.40
  -6   6  -3   15.90    4.60
  -6   6  -3   17.80    5.00
   6  -6   3    8.40    3.80
   6  -6   3   20.20    4.80
  -7   6  -3    1.20    3.20
  -7   6  -3   -0.20    2.30
   7  -6   3   -1.70    2.30
   7  -6   3   -0.10    2.80
  -8   6  -3    5.90    4.80
  -6  -5   3    6.50    4.70
  -5  -5   3    0.80    2.90
  -5  -5   3   -2.00    2.70
  -4  -5   3    0.90    2.40
  -4  -5   3    3.60    3.10
  -3  -5   3   36.30    6.10
  -3  -5   3   21.20    4.50
  -3  -5   3   22.20    5.20
   2   5  -3  265.87   15.80
  -2  -5   3  275.57   14.40
  -2  -5   3  276.27   14.20
  -2  -5   3  274.07   15.00
   1   5  -3  223.98   13.70
   1   5  -3  225.38   14.30
  -1  -5   3  230.78   11.80
  -1  -5   3  215.38   12.30
  -1  -5   3  232.58   11.40
  -1  -5   3  238.68   12.50
   0   5  -3    8.30    3.10
   0   5  -3    3.10    2.20
   0  -5   3    3.30    1.70
   0  -5   3    4.10    2.10
   0  -5   3    7.30    2.20
   0  -5   3    2.00    1.60
  -1   5  -3   23.80    3.70
  -1   5  -3   20.00    4.30
  -1   5  -3   30.20    5.30
   1  -5   3   27.50    4.60
   1  -5   3   16.70    3.50
  -2   5  -3   29.30    5.40
  -2   5  -3   22.00    2.10
  -2   5  -3   21.60    3.30
  -2   5  -3   24.70    4.20
   2  -5   3   34.50    5.20
   2  -5   3   32.90    5.00
  -3   5  -3  183.88   11.80
  -3   5  -3  181.88   10.80
  -3   5  -3  192.38    8.80
  -3   5  -3  187.28   10.20
  -3   5  -3  189.28   11.20
   3  -5   3  188.28   10.80
   3  -5   3  183.48   11.10
  -4   5  -3    2.20    1.50
  -4   5  -3    1.10    1.30
  -4   5  -3    3.10    2.20
  -4   5  -3   -0.20    1.50
   4  -5   3    4.00    2.30
   4  -5   3    1.70    2.00
  -5   5  -3   15.70    5.00
  -5   5  -3   16.70    4.00
  -5   5  -3   15.30    4.10
   5  -5   3   22.80    4.70
   5  -5   3   16.70    3.90
  -6   5  -3   -3.80    2.20
  -6   5  -3    1.70    2.10
  -6   5  -3    2.50    2.30
   6  -5   3    4.60    2.80
   6  -5   3    2.20    2.20
  -7   5  -3   -1.60    3.20
  -8   5  -3    2.00    4.60
  -9   5  -3    8.40    6.10
  -7  -4   3   12.50    5.90
  -6  -4   3   20.30    6.40
  -6  -4   3   21.20    6.10
  -5  -4   3   51.69    8.60
  -5  -4   3   63.19    9.10
   4   4  -3   31.30    3.70
  -4  -4   3   38.50    5.50
  -4  -4   3   42.10    6.90
  -4  -4   3   33.40    6.20
   3   4  -3   79.59    4.00
   3   4  -3   67.29    9.20
  -3  -4   3   67.19    8.10
  -3  -4   3   92.59    8.30
   2   4  -3   42.40    6.70
  -2  -4   3   49.70    5.90
  -2  -4   3   57.39    7.10
  -2  -4   3   42.20    5.70
  -2  -4   3   45.00    4.60
   1   4  -3   45.10    6.20
   1   4  -3   51.49    6.80
  -1  -4   3   41.10    4.60
  -1  -4   3   39.00    5.10
  -1  -4   3   37.20    4.90
  -1  -4   3   43.10    5.00
  -1  -4   3   38.00    4.90
   0   4  -3   34.10    5.20
   0   4  -3   34.20    5.40
   0   4  -3   33.00    3.50
   0  -4   3   32.70    4.00
   0  -4   3   30.80    3.90
   0  -4   3   42.10    4.20
   0  -4   3   33.50    4.20
   0  -4   3   32.40    4.50
  -1   4  -3   78.89    7.70
  -1   4  -3   62.69    4.60
  -1   4  -3   65.09    6.90
   1  -4   3   58.69    6.10
   1  -4   3   63.39    4.00
   1  -4   3   74.49    5.70
   1  -4   3   63.49    3.60
  -2   4  -3  432.86   16.30
  -2   4  -3  433.96   14.60
  -2   4  -3  416.16   14.40
  -2   4  -3  431.26   18.70
  -2   4  -3  416.06   14.40
  -2   4  -3  405.46   16.80
   2  -4   3  421.46   17.20
   2  -4   3  400.06   17.40
   2  -4   3  425.96   14.30
  -3   4  -3   20.80    4.00
  -3   4  -3   11.10    2.20
  -3   4  -3   10.00    2.00
  -3   4  -3   11.30    2.80
  -3   4  -3   11.50    3.00
   3  -4   3   16.00    3.60
   3  -4   3   11.10    2.70
  -4   4  -3   90.99    8.40
  -4   4  -3   84.19    9.00
  -4   4  -3   90.59    6.10
  -4   4  -3   85.09    8.10
   4  -4   3  104.19    8.80
   4  -4   3   84.89    6.60
  -5   4  -3  139.79    9.90
  -5   4  -3  144.29    8.80
  -5   4  -3  145.19   10.70
  -5   4  -3  139.39    9.10
   5  -4   3  147.29    9.30
   5  -4   3  171.58    9.70
  -6   4  -3  111.09   11.90
  -6   4  -3   98.19   12.00
  -6   4  -3  106.49    8.00
   6  -4   3   98.79    9.00
   6  -4   3   98.09    9.40
  -7   4  -3   36.40    7.70
  -8   4  -3    1.00    3.40
  -9   4  -3    0.00    3.90
  -8  -3   3   34.30    8.40
  -7  -3   3   24.70    6.80
  -7  -3   3   24.50    6.90
  -6  -3   3   -0.80    2.50
  -6  -3   3    1.70    2.60
  -5  -3   3  153.28   11.90
  -5  -3   3  154.28   11.70
   4   3  -3   -0.60    0.80
   4   3  -3    0.90    2.20
  -4  -3   3    2.70    2.10
  -4  -3   3   -0.20    1.50
  -4  -3   3   -0.20    1.50
   3   3  -3  167.78   11.30
   3   3  -3  144.19    6.60
  -3  -3   3  161.18   10.10
  -3  -3   3  164.68   10.10
  -3  -3   3  154.88    8.70
   2   3  -3   22.70    1.40
   2   3  -3   20.60    1.30
   2   3  -3   19.10    4.20
  -2  -3   3   24.30    4.10
  -2  -3   3   23.40    2.90
  -2  -3   3   20.70    3.40
  -2  -3   3   21.70    3.70
  -2  -3   3   18.30    3.40
   1   3  -3   47.30    5.90
   1   3  -3   55.59    6.40
  -1  -3   3   68.69    6.10
  -1  -3   3   55.79    5.40
  -1  -3   3   58.89    5.40
  -1  -3   3   61.99    5.80
  -1  -3   3   51.09    3.80
   0   3  -3  101.39    6.70
   0   3  -3  109.99    7.10
   0  -3   3   95.29    5.70
   0  -3   3   98.89    6.10
   0  -3   3   92.59    5.10
   0  -3   3   99.89    5.70
   0  -3   3  101.99    5.60
  -1   3  -3    1.50    0.80
  -1   3  -3    1.90    1.30
  -1   3  -3    3.10    1.70
  -1   3  -3    2.20    0.60
  -1   3  -3    2.40    0.60
  -1   3  -3    3.90    1.40
   1  -3   3    2.70    1.50
   1  -3   3    2.40    0.80
   1  -3   3    1.40    1.00
   1  -3   3    2.00    0.90
   1  -3   3    1.90    1.10
  -2   3  -3  146.09    8.10
  -2   3  -3  182.08    9.70
  -2   3  -3  162.38    6.20
  -2   3  -3  155.98    7.00
  -2   3  -3  163.08    7.00
   2  -3   3  167.08    6.30
   2  -3   3  147.99    7.90
   2  -3   3  168.88    8.40
  -3   3  -3    3.20    1.60
  -3   3  -3    3.80    2.00
  -3   3  -3    3.40    1.20
  -3   3  -3    3.20    1.30
  -3   3  -3    5.60    1.90
   3  -3   3    4.70    1.80
   3  -3   3    6.10    0.90
   3  -3   3    4.70    1.70
   3  -3   3    6.20    1.10
  -4   3  -3  106.09    7.50
  -4   3  -3  119.49    6.90
  -4   3  -3  110.19    8.10
  -4   3  -3  106.89    6.70
   4  -3   3  112.59    5.90
   4  -3   3  112.59    7.00
   4  -3   3  120.09    7.20
  -5   3  -3  156.58    8.90
  -5   3  -3  154.78    8.90
  -5   3  -3  153.88   10.60
  -5   3  -3  156.28   10.20
   5  -3   3  154.68    8.90
   5  -3   3  162.48    8.80
  -6   3  -3   -0.50    1.30
  -6   3  -3   -1.00    2.10
  -7   3  -3   37.90    7.40
  -8   3  -3   28.30    7.50
  -9   3  -3    0.10    3.50
  -8  -2   3    7.40    4.60
  -7  -2   3    3.60    3.00
  -7  -2   3    1.90    2.50
  -6  -2   3   68.89    9.60
  -6  -2   3   61.99    9.10
   5   2  -3    2.10    2.50
  -5  -2   3    2.60    1.80
  -5  -2   3   -0.40    1.80
  -5  -2   3    0.90    2.00
   4   2  -3   20.40    3.10
   4   2  -3   18.70    4.80
  -4  -2   3   16.80    4.20
  -4  -2   3   15.00    3.90
  -4  -2   3   31.10    4.30
   3   2  -3    1.00    0.70
   3   2  -3    0.00    0.60
   3   2  -3    1.10    1.50
  -3  -2   3    1.20    1.50
  -3  -2   3    2.40    1.80
  -3  -2   3    0.10    1.20
  -3  -2   3   -0.10    1.00
  -3  -2   3    0.90    1.00
   2   2  -3  220.38    8.50
   2   2  -3  225.28   11.70
  -2  -2   3  245.68   11.30
  -2  -2   3  235.98   10.30
  -2  -2   3  231.08   11.20
  -2  -2   3  247.48    9.00
   1   2  -3  327.97   10.50
   1   2  -3  345.07   10.60
   1   2  -3  304.57   13.80
  -1  -2   3  333.77   14.10
  -1  -2   3  340.27   12.00
  -1  -2   3  334.97   12.90
  -1  -2   3  321.07   13.00
  -1  -2   3  323.87   12.70
   0   2  -3   98.69    3.70
   0   2  -3  107.29    3.90
   0   2  -3   97.49    5.80
   0   2  -3   98.89    6.00
   0  -2   3   96.39    5.30
   0  -2   3   99.99    5.10
   0  -2   3  104.29    5.00
   0  -2   3  100.79    6.10
   0  -2   3   99.09    4.70
   0  -2   3   97.59    5.20
  -1   2  -3 2066.29   65.59
  -1   2  -3 2166.98   62.99
  -1   2  -3 2164.78   63.39
  -1   2  -3 2108.79   63.99
  -1   2  -3 2036.00   62.89
   1  -2   3 2106.99   64.39
   1  -2   3 2108.19   62.49
   1  -2   3 2116.49   64.29
   1  -2   3 2115.89   65.59
   1  -2   3 2193.48   61.69
   1  -2   3 2158.58   63.39
   1  -2   3 1971.20   61.59
  -2   2  -3   24.50    3.00
  -2   2  -3   23.60    2.50
  -2   2  -3   29.80    4.00
  -2   2  -3   26.00    3.40
  -2   2  -3   45.70    3.00
   2  -2   3   32.30    2.20
   2  -2   3   35.00    4.50
   2  -2   3   31.60    2.30
   2  -2   3   33.60    3.50
   2  -2   3   33.20    3.50
  -3   2  -3  213.58    8.30
  -3   2  -3  215.98    8.40
  -3   2  -3  210.18   10.50
  -3   2  -3  221.18    9.40
  -3   2  -3  207.18    9.20
  -3   2  -3  205.58   10.10
   3  -2   3  215.98    9.30
   3  -2   3  205.88    9.20
   3  -2   3  219.28    9.00
  -4   2  -3    3.40    1.30
  -4   2  -3    8.80    2.10
  -4   2  -3    4.20    1.50
  -4   2  -3    6.60    2.10
  -4   2  -3    1.60    1.70
  -4   2  -3    4.40    1.60
   4  -2   3    2.10    1.20
   4  -2   3    4.30    1.60
   4  -2   3    6.70    1.90
  -5   2  -3   99.69    6.60
  -5   2  -3  101.49    6.40
  -5   2  -3  115.39    6.90
  -5   2  -3  120.19    8.90
  -5   2  -3  107.29    6.80
   5  -2   3  111.09    6.30
   5  -2   3  106.59    6.80
  -6   2  -3  101.09   11.20
  -6   2  -3   95.69    7.50
   6  -2   3  104.49    7.40
  -7   2  -3   34.90    7.00
  -8   2  -3   -2.30    2.80
  -9   2  -3    1.20    3.30
  -9  -1   3   70.39   11.20
  -8  -1   3   75.89   11.50
  -8  -1   3   91.19   12.40
  -7  -1   3   16.90    5.40
  -7  -1   3   15.90    4.90
  -6  -1   3  402.26   20.30
  -6  -1   3  385.46   20.20
   5   1  -3   46.00    7.00
   5   1  -3   32.30    4.40
  -5  -1   3   53.69    6.00
  -5  -1   3   40.60    6.20
  -5  -1   3   44.60    5.60
  -5  -1   3   33.40    5.70
   4   1  -3   49.70    6.70
   4   1  -3   54.69    5.00
  -4  -1   3   52.69    5.60
  -4  -1   3   60.79    6.70
  -4  -1   3   55.79    6.80
  -4  -1   3   39.80    5.60
  -4  -1   3   51.49    5.30
   3   1  -3  263.97   12.60
   3   1  -3  264.37   10.40
   3   1  -3  255.57   10.20
  -3  -1   3  243.98   11.80
  -3  -1   3  245.38    8.80
  -3  -1   3  246.58   10.10
  -3  -1   3  267.97   12.20
  -3  -1   3  264.37   11.20
  -3  -1   3  247.28   12.20
   2   1  -3  587.94   21.30
   2   1  -3  589.34   19.20
   2   1  -3  578.04   19.10
  -2  -1   3  589.44   21.00
  -2  -1   3  588.54   20.30
  -2  -1   3  597.74   21.30
  -2  -1   3  572.04   18.20
  -2  -1   3  558.44   20.80
   1   1  -3  345.77   12.00
   1   1  -3  354.36   13.50
  -1  -1   3  346.37   13.30
  -1  -1   3  381.86   13.80
  -1  -1   3  347.17   11.50
  -1  -1   3  344.97   13.30
  -1  -1   3  379.46   11.60
  -1  -1   3  388.96   13.30
   0   1  -3  310.07   10.60
   0   1  -3  309.87   11.80
   0   1  -3  316.57   11.40
   0   1  -3  321.47   10.70
   0  -1   3  314.27   11.40
   0  -1   3  333.67   12.00
   0  -1   3  311.77   11.30
   0  -1   3  325.57   10.50
  -1   1  -3   35.80    3.20
  -1   1  -3   34.90    2.50
  -1   1  -3   34.80    2.40
  -1   1  -3   38.60    2.50
   1  -1   3   37.00    2.50
   1  -1   3   33.50    2.60
   1  -1   3   39.40    2.60
   1  -1   3   27.00    3.20
   1  -1   3   43.10    2.50
   1  -1   3   37.00    2.40
  -2   1  -3 1797.52   52.79
  -2   1  -3 1779.22   53.19
  -2   1  -3 1727.83   54.69
  -2   1  -3 1777.12   54.19
  -2   1  -3 1704.83   53.39
  -2   1  -3 1835.62   53.39
  -2   1  -3 1714.93   53.39
   2  -1   3 1730.53   53.49
   2  -1   3 1733.73   53.39
   2  -1   3 1765.72   52.79
   2  -1   3 1754.12   53.39
  -3   1  -3  226.98   10.90
  -3   1  -3  218.68    9.10
  -3   1  -3  242.68    9.80
  -3   1  -3  237.38   10.40
  -3   1  -3  233.08    9.70
  -3   1  -3  217.78    8.50
   3  -1   3  224.88    9.60
   3  -1   3  226.88    9.60
   3  -1   3  221.18    8.50
   3  -1   3  216.68    8.90
  -4   1  -3  361.76   13.60
  -4   1  -3  335.07   12.70
  -4   1  -3  330.17   14.40
  -4   1  -3  366.76   14.60
  -4   1  -3  330.57   15.70
  -4   1  -3  364.36   15.50
   4  -1   3  358.86   12.90
   4  -1   3  375.16   14.50
  -5   1  -3   30.00    4.70
  -5   1  -3   26.90    4.30
  -5   1  -3   26.40    4.80
   5  -1   3   23.80    3.70
  -6   1  -3   96.89    9.10
  -6   1  -3   86.19    9.00
  -6   1  -3   92.49   10.40
   6  -1   3   98.69    7.40
  -7   1  -3    4.80    3.20
  -7   1  -3    3.70    3.00
  -7   1  -3    8.20    3.10
  -8   1  -3   12.80    4.60
  -8   1  -3   22.00    6.20
  -9   1  -3   91.09   12.80
  -9   0   3   30.80    7.50
  -8   0   3    8.90    4.60
  -8   0   3   11.00    4.30
  -7   0   3   70.49    9.50
  -7   0   3   74.99    9.70
   6   0  -3   38.90    5.20
  -6   0   3   32.50    5.90
  -6   0   3   52.09    6.90
  -6   0   3   51.39    6.10
  -6   0   3   48.70    7.30
   5   0  -3  143.29    8.10
  -5   0   3  126.69    9.20
  -5   0   3  127.09    8.00
  -5   0   3  138.19    8.90
  -5   0   3  137.39    8.60
  -5   0   3  113.09    8.80
   4   0  -3  176.98    8.70
  -4   0   3  178.58    9.90
  -4   0   3  192.78   10.00
  -4   0   3  176.58    9.50
  -4   0   3  177.88   10.10
  -4   0   3  178.78    8.00
  -4   0   3  173.18    9.10
  -4   0   3  178.88    7.30
  -4   0   3  167.58    9.00
   3   0  -3  115.19    6.00
   3   0  -3  121.69    6.10
  -3   0   3  111.29    7.00
  -3   0   3  116.09    6.30
  -3   0   3  122.19    6.70
  -3   0   3  120.09    5.80
  -3   0   3  119.79    6.80
  -3   0   3  121.59    5.40
  -3   0   3  119.39    7.10
   2   0  -3  982.00   32.00
   2   0  -3  982.50   31.40
  -2   0   3 1026.20   32.70
  -2   0   3 1009.10   32.70
  -2   0   3  983.80   32.30
  -2   0   3 1006.20   31.30
  -2   0   3  991.60   32.40
  -2   0   3 1013.30   31.30
   1   0  -3  140.99    5.80
   1   0  -3  142.89    5.80
   1   0  -3  151.78    5.80
  -1   0   3  142.39    6.50
  -1   0   3  153.68    5.90
  -1   0   3  151.38    6.50
  -1   0   3  144.89    5.70
  -1   0   3  149.19    6.50
  -1   0   3  154.88    5.90
   0   0  -3  181.38    6.10
   0   0  -3  163.78    5.90
   0   0  -3  162.48    6.80
   0   0  -3  173.18    6.40
   0   0   3  164.48    6.80
   0   0   3  178.58    6.20
   0   0   3  172.98    6.10
   0   0   3  153.88    6.20
   0   0   3  157.68    6.30
  -1   0  -3 2093.69   61.09
  -1   0  -3 2052.09   62.59
  -1   0  -3 2041.80   62.39
  -1   0  -3 2111.99   62.99
   1   0   3 2015.70   62.29
   1   0   3 2097.89   61.49
  -2   0  -3    9.40    1.20
  -2   0  -3   17.00    2.50
  -2   0  -3    9.20    2.10
  -2   0  -3    9.50    1.90
   2   0   3   13.70    1.80
   2   0   3   10.90    1.60
  -3   0  -3   37.40    4.20
  -3   0  -3   37.70    4.20
  -3   0  -3   58.29    5.90
  -3   0  -3   47.40    2.60
   3   0   3   49.30    3.70
   3   0   3   45.40    3.30
  -4   0  -3  160.08    9.00
  -4   0  -3  158.18    9.00
  -4   0  -3  151.88    6.00
   4   0   3  155.78   10.60
   4   0   3  145.79    7.70
  -5   0  -3  140.59    9.70
  -5   0  -3  153.38    9.80
  -5   0  -3  140.39    9.40
   5   0   3  144.79    8.30
  -6   0  -3  424.06   20.40
  -6   0  -3  443.56   20.60
  -6   0  -3  442.66   21.00
  -7   0  -3   -0.60    2.10
  -7   0  -3    2.80    2.60
  -7   0  -3    0.80    2.40
  -8   0  -3   20.80    5.80
  -8   0  -3   29.70    6.50
  -8   0  -3   28.40    7.00
  -9   0  -3   32.40    7.90
  -9   0  -3   30.40    7.10
  -9   1   3   22.20    6.30
  -8   1   3   11.70    4.70
  -8   1   3   14.40    4.60
  -7   1   3  532.15   24.50
  -7   1   3  508.85   23.90
  -7   1   3  532.35   24.30
   6  -1  -3   17.60    3.60
  -6   1   3   21.30    4.70
  -6   1   3   27.00    5.30
  -6   1   3   15.00    3.70
  -6   1   3   21.90    4.80
   5  -1  -3   67.59    6.30
  -5   1   3   76.19    7.20
  -5   1   3   71.59    7.40
  -5   1   3   46.90    6.00
  -5   1   3   69.59    7.50
  -5   1   3   66.49    6.60
  -5   1   3   73.19    5.20
   4  -1  -3  186.88    8.90
  -4   1   3  184.38    9.80
  -4   1   3  199.88   10.20
  -4   1   3  179.68    8.70
  -4   1   3  189.78   10.00
  -4   1   3  190.58    9.70
  -4   1   3  186.68    9.30
   3  -1  -3   96.39    5.10
  -3   1   3   77.79    4.80
  -3   1   3   80.69    5.40
  -3   1   3   89.29    5.00
  -3   1   3   93.89    5.30
  -3   1   3   81.59    5.50
  -3   1   3   80.19    5.40
  -3   1   3   86.69    5.50
   2  -1  -3  237.88    8.80
   2  -1  -3  270.77   10.90
   2  -1  -3  232.38    8.70
  -2   1   3  242.18    9.90
  -2   1   3  234.18    9.90
  -2   1   3  238.38    9.90
  -2   1   3  245.88    9.50
  -2   1   3  231.38    9.10
  -2   1   3  234.98    9.00
  -2   1   3  236.68    9.90
   1  -1  -3  542.35   18.50
   1  -1  -3  553.74   18.20
  -1   1   3  549.15   17.10
  -1   1   3  530.85   18.40
  -1   1   3  547.45   18.10
  -1   1   3  540.05   18.40
  -1   1   3  551.64   17.00
   0  -1  -3  450.05   15.20
   0   1   3  418.96   14.30
   0   1   3  421.36   15.00
  -1  -1  -3 2814.92   85.69
  -1  -1  -3 2846.72   85.59
  -1  -1  -3 2904.51   83.89
  -1  -1  -3 2810.92   85.59
   1   1   3 2794.82   83.79
  -2  -1  -3  247.98   11.20
  -2  -1  -3  251.67   11.10
   2   1   3  262.87    8.40
  -3  -1  -3   17.50    3.30
  -3  -1  -3   12.90    2.80
  -3  -1  -3   20.80    3.50
   3   1   3   17.30    2.10
   3   1   3   20.50    2.30
  -4  -1  -3   27.70    4.50
  -4  -1  -3   33.30    5.20
  -4  -1  -3   39.70    5.40
   4   1   3   34.00    3.70
   4   1   3   40.00    3.90
  -5  -1  -3   17.00    4.20
  -5  -1  -3   23.40    5.00
  -5  -1  -3   20.10    4.50
   5   1   3   19.80    3.30
  -6  -1  -3   72.29    8.70
  -6  -1  -3   70.79    9.20
  -6  -1  -3   89.79    9.90
  -7  -1  -3  106.79   12.10
  -7  -1  -3  101.59   11.70
  -7  -1  -3   86.69   10.80
  -8  -1  -3   90.59   12.60
  -8  -1  -3   99.69   12.30
  -8  -1  -3  103.59   16.90
  -9   2   3   20.00    7.10
  -8   2   3    1.10    2.90
  -8   2   3   -0.70    3.00
  -7   2   3   27.50    5.70
  -7   2   3   33.60    6.80
  -7   2   3   34.80    5.90
  -6   2   3    2.90    2.00
  -6   2   3    0.50    1.50
  -6   2   3   -0.20    1.50
  -6   2   3    0.50    1.80
  -6   2   3    3.60    2.70
  -5   2   3    2.70    2.00
  -5   2   3    3.10    2.00
  -5   2   3    2.90    1.60
  -5   2   3    3.10    1.50
  -5   2   3    1.50    2.00
  -5   2   3    1.40    1.50
  -5   2   3    5.80    2.40
   4  -2  -3    0.10    0.70
  -4   2   3   -0.40    0.70
  -4   2   3   -0.30    0.70
  -4   2   3    0.20    1.00
  -4   2   3    0.40    1.00
  -4   2   3   -0.60    0.80
  -4   2   3    0.90    1.10
   3  -2  -3  261.27   11.40
   3  -2  -3  300.17   10.40
   3  -2  -3  264.17    9.90
   3  -2  -3  259.97   10.60
  -3   2   3  288.47   11.90
  -3   2   3  284.27   12.50
  -3   2   3  284.47   11.10
  -3   2   3  294.37   12.50
  -3   2   3  268.97   11.50
  -3   2   3  270.47   11.00
  -3   2   3  277.37   10.80
   2  -2  -3  156.28    8.10
   2  -2  -3  160.28    6.10
   2  -2  -3  156.48    7.60
   2  -2  -3  158.18    6.90
   2  -2  -3  153.68    7.90
  -2   2   3  159.68    8.10
  -2   2   3  172.98    6.60
  -2   2   3  153.48    6.80
  -2   2   3  165.28    8.10
  -2   2   3  170.88    6.50
  -2   2   3  169.38    7.70
   1  -2  -3   48.10    4.70
   1  -2  -3   49.00    4.30
   1  -2  -3   41.30    2.40
   1  -2  -3   38.90    3.90
  -1   2   3   40.90    3.20
  -1   2   3   37.70    2.30
  -1   2   3   47.10    4.80
  -1   2   3   35.00    3.70
  -1   2   3   35.50    2.80
   0  -2  -3  814.32   26.60
   0  -2  -3  788.92   26.30
   0  -2  -3  767.62   25.50
   0  -2  -3  778.22   26.40
   0   2   3  800.12   26.30
   0   2   3  782.62   25.60
   0   2   3  787.72   25.70
  -1  -2  -3  321.17   13.20
  -1  -2  -3  353.76   13.50
  -1  -2  -3  303.07   13.20
  -1  -2  -3  310.17   11.50
   1   2   3  329.47   11.50
  -2  -2  -3  437.86   17.40
  -2  -2  -3  440.26   17.80
  -2  -2  -3  464.65   15.00
  -2  -2  -3  453.55   18.20
   2   2   3  456.25   15.50
   2   2   3  449.26   14.90
   2   2   3  434.06   15.10
  -3  -2  -3   17.50    3.60
  -3  -2  -3   15.60    3.40
  -3  -2  -3   22.50    4.00
   3   2   3   14.80    1.40
  -4  -2  -3  838.62   30.80
  -4  -2  -3  835.72   31.80
  -4  -2  -3  799.72   31.30
   4   2   3  797.42   27.00
  -5  -2  -3 1409.66   50.39
  -5  -2  -3 1379.56   49.10
  -5  -2  -3 1398.66   50.49
  -6  -2  -3    0.60    2.40
  -6  -2  -3    4.40    3.10
  -6  -2  -3    6.20    3.60
  -7  -2  -3   67.49   10.40
  -7  -2  -3   94.79   11.80
  -8  -2  -3   46.80    9.20
  -9   3   3   34.90    8.00
  -8   3   3  104.89   13.00
  -7   3   3    4.80    3.70
  -7   3   3    7.10    3.40
  -6   3   3   39.50    5.20
  -6   3   3   48.50    6.80
  -6   3   3   56.69    8.10
  -6   3   3   41.50    5.70
  -6   3   3   53.29    7.40
  -5   3   3    0.30    1.40
  -5   3   3    1.50    1.40
  -5   3   3    1.50    1.60
  -5   3   3    3.40    2.50
  -5   3   3    3.00    2.00
  -5   3   3    0.40    1.70
   4  -3  -3   51.49    4.30
   4  -3  -3   49.40    5.30
  -4   3   3   44.20    3.30
  -4   3   3   48.90    4.90
  -4   3   3   57.99    5.70
  -4   3   3   51.69    6.20
  -4   3   3   58.79    6.90
  -4   3   3   50.89    4.90
   3  -3  -3  326.47   14.00
   3  -3  -3  329.67   14.70
   3  -3  -3  321.47   12.50
  -3   3   3  326.57   14.60
  -3   3   3  322.87   13.40
  -3   3   3  322.47   14.80
  -3   3   3  338.17   12.60
  -3   3   3  339.17   12.00
  -3   3   3  342.07   12.60
   2  -3  -3   75.69    5.60
   2  -3  -3   82.59    5.50
   2  -3  -3   88.79    4.60
   2  -3  -3   75.19    5.70
  -2   3   3   72.69    5.70
  -2   3   3   91.39    5.30
  -2   3   3   73.49    4.30
  -2   3   3   78.39    3.00
  -2   3   3   86.29    3.10
  -2   3   3   86.89    5.80
  -2   3   3   78.69    4.40
   1  -3  -3   70.59    6.00
   1  -3  -3   58.49    4.00
   1  -3  -3   71.89    5.20
   1  -3  -3   54.49    5.10
  -1   3   3   51.99    3.90
  -1   3   3   66.59    5.10
  -1   3   3   56.69    4.40
  -1   3   3   58.59    4.00
  -1   3   3   62.69    4.30
   0  -3  -3  949.21   32.20
   0  -3  -3  957.40   31.20
   0  -3  -3  939.21   31.30
   0  -3  -3  922.31   31.90
   0  -3  -3  960.10   32.00
   0   3   3  945.61   31.90
   0   3   3  930.41   31.70
   0   3   3  944.61   31.20
  -1  -3  -3    8.70    2.40
  -1  -3  -3   41.30    4.80
  -1  -3  -3   11.60    2.20
  -1  -3  -3   13.80    3.10
   1   3   3    9.80    2.50
   1   3   3    8.90    1.90
  -2  -3  -3  400.66   17.60
  -2  -3  -3  399.56   17.80
  -2  -3  -3  412.86   17.20
  -2  -3  -3  401.86   15.10
   2   3   3  419.76   18.70
   2   3   3  410.36   15.00
   2   3   3  416.46   14.20
  -3  -3  -3   98.29    7.20
  -3  -3  -3  106.19    9.90
  -3  -3  -3   84.19    8.60
   3   3   3  108.89   10.90
  -4  -3  -3   57.29    7.70
  -4  -3  -3   64.59    8.00
  -4  -3  -3   63.19    7.40
   4   3   3   47.90    8.40
   4   3   3   48.00    3.20
  -5  -3  -3   83.39   10.30
  -5  -3  -3   87.09   10.30
  -5  -3  -3   70.59    8.50
  -6  -3  -3   26.90    6.50
  -6  -3  -3   28.40    6.60
  -7  -3  -3   29.80    7.60
  -7  -3  -3   26.80    6.80
  -8  -3  -3   -2.60    3.00
  -9   4   3   -1.50    3.30
  -8   4   3   17.70    5.80
  -8   4   3   23.30    7.00
  -7   4   3    2.30    2.90
  -7   4   3    5.00    4.00
  -6   4   3  140.59   10.50
  -6   4   3  147.19   10.50
  -6   4   3  141.99   11.10
   5  -4  -3   33.50    5.20
  -5   4   3   24.50    4.80
  -5   4   3   34.70    6.30
  -5   4   3   24.40    4.90
  -5   4   3   27.50    4.80
   4  -4  -3    5.80    2.60
   4  -4  -3   -1.80    0.80
  -4   4   3    2.40    1.20
  -4   4   3    1.30    1.70
  -4   4   3    4.10    1.80
  -4   4   3    1.00    1.90
   3  -4  -3   48.90    5.80
   3  -4  -3   50.69    6.30
  -3   4   3   43.00    5.90
  -3   4   3   47.10    5.00
  -3   4   3   39.20    3.00
  -3   4   3   46.50    4.90
  -3   4   3   42.00    5.70
   2  -4  -3    2.50    1.50
   2  -4  -3    1.00    1.30
   2  -4  -3    2.00    1.70
   2  -4  -3    2.10    1.60
  -2   4   3   -0.30    0.70
  -2   4   3    2.40    1.70
  -2   4   3    1.30    1.30
  -2   4   3    1.20    1.30
  -2   4   3    1.00    1.10
   1  -4  -3   -0.20    1.30
   1  -4  -3    0.40    1.20
   1  -4  -3    0.30    1.30
   1  -4  -3   -1.00    0.90
  -1   4   3    2.10    1.50
  -1   4   3   -0.50    1.00
  -1   4   3    3.50    1.80
  -1   4   3    0.00    1.10
  -1   4   3    0.60    1.10
   0  -4  -3  217.98   10.60
   0  -4  -3  240.58   11.50
   0  -4  -3  230.88   11.20
   0  -4  -3  222.88   11.00
   0  -4  -3  229.58   10.60
   0   4   3  199.18   10.50
   0   4   3  216.38   11.30
   0   4   3  195.18   10.20
   0   4   3  212.68   11.00
  -1  -4  -3   13.60    3.30
  -1  -4  -3   15.50    2.90
  -1  -4  -3   12.40    2.70
  -1  -4  -3   15.70    3.50
  -1  -4  -3   16.80    3.60
   1   4   3   16.40    3.60
   1   4   3   11.70    3.30
   1   4   3   10.30    2.40
  -2  -4  -3    9.30    3.00
  -2  -4  -3   11.60    2.60
   2   4   3    9.40    3.20
   2   4   3    9.70    1.70
   2   4   3   11.80    2.50
  -3  -4  -3  802.62   31.70
  -3  -4  -3  767.62   31.60
  -3  -4  -3  802.72   30.20
   3   4   3  771.12   33.00
  -4  -4  -3  954.60   38.30
  -4  -4  -3  959.00   38.90
  -4  -4  -3  997.70   36.80
  -5  -4  -3    6.30    3.50
  -5  -4  -3    1.00    2.40
  -6  -4  -3  102.29   13.40
  -6  -4  -3   87.79   12.50
  -7  -4  -3   33.10    8.40
  -9   5   3   20.30    7.80
  -8   5   3    2.70    3.40
  -8   5   3   13.00    5.60
  -7   5   3    1.30    2.40
  -7   5   3    2.20    3.10
  -7   5   3    3.50    3.30
   6  -5  -3   19.30    4.50
  -6   5   3   17.20    5.00
  -6   5   3   20.00    4.80
  -6   5   3   20.70    5.10
   5  -5  -3   40.10    6.70
   5  -5  -3   34.00    5.70
  -5   5   3   26.80    5.90
  -5   5   3   39.90    5.80
  -5   5   3   23.70    5.30
   4  -5  -3   34.70    5.80
   4  -5  -3   34.60    5.50
  -4   5   3   38.00    4.20
  -4   5   3   47.60    7.20
  -4   5   3   29.70    5.50
  -4   5   3   37.00    5.20
   3  -5  -3   26.70    4.70
   3  -5  -3   30.90    5.20
  -3   5   3   23.50    2.30
  -3   5   3   27.70    5.30
  -3   5   3   32.80    5.40
   2  -5  -3   84.59    8.20
   2  -5  -3   88.89    8.70
  -2   5   3   80.99    6.20
  -2   5   3   83.29    6.00
  -2   5   3   82.89    8.90
  -2   5   3   90.79    8.80
   1  -5  -3    0.40    1.70
   1  -5  -3   -0.50    1.10
   1  -5  -3   -0.20    1.50
  -1   5   3    0.30    1.50
  -1   5   3    0.90    1.70
  -1   5   3    0.90    1.50
  -1   5   3   -0.20    1.20
  -1   5   3    1.10    1.60
   0  -5  -3   67.49    7.60
   0  -5  -3   70.69    7.40
   0  -5  -3   70.89    7.20
   0  -5  -3   64.59    7.10
   0  -5  -3   72.09    7.40
   0   5   3   69.59    7.30
   0   5   3   54.09    7.00
   0   5   3   61.99    7.20
   0   5   3   68.29    7.50
   0   5   3   61.49    6.70
  -1  -5  -3  174.48   10.80
  -1  -5  -3  171.58   10.80
  -1  -5  -3  179.98   10.60
  -1  -5  -3  178.18    9.80
  -1  -5  -3  172.68    9.90
   1   5   3  165.08   11.40
   1   5   3  177.48   11.20
   1   5   3  195.88   11.30
   1   5   3  165.08    9.70
  -2  -5  -3   22.60    4.50
  -2  -5  -3   13.90    3.90
  -2  -5  -3   12.60    4.00
   2   5   3   12.30    4.10
  -3  -5  -3    4.10    2.70
  -3  -5  -3    1.40    2.40
  -4  -5  -3    1.70    2.70
  -4  -5  -3    0.30    2.40
  -5  -5  -3    9.60    4.70
  -5  -5  -3   11.20    5.00
  -6  -5  -3    6.20    4.90
  -8   6   3   -1.20    2.90
  -8   6   3    0.90    3.80
  -7   6   3   15.90    5.00
  -7   6   3   16.90    5.90
  -7   6   3   24.70    6.40
   6  -6  -3   19.10    4.90
  -6   6   3    8.90    4.10
  -6   6   3   27.40    5.70
  -6   6   3    9.50    4.20
   5  -6  -3    2.50    2.70
   5  -6  -3    1.20    2.30
  -5   6   3    2.30    2.50
  -5   6   3    1.60    2.10
  -5   6   3    9.50    4.20
   4  -6  -3   59.99    7.90
   4  -6  -3   53.59    8.00
  -4   6   3   51.09    7.80
  -4   6   3   45.90    7.40
  -4   6   3   42.30    5.70
   3  -6  -3   17.60    4.50
   3  -6  -3   14.20    4.10
  -3   6   3    6.90    3.40
  -3   6   3    7.80    2.20
  -3   6   3   18.20    4.50
   2  -6  -3   41.10    6.30
   2  -6  -3   56.99    7.80
   2  -6  -3   42.20    6.40
  -2   6   3   46.10    6.70
  -2   6   3   51.29    7.40
   1  -6  -3  115.79    9.10
   1  -6  -3   99.89    9.50
   1  -6  -3  117.09   10.60
  -1   6   3  115.99   11.00
  -1   6   3  105.39    8.50
  -1   6   3  116.59   10.50
   0  -6  -3  155.18   10.40
   0  -6  -3  167.58   10.10
   0  -6  -3  145.99   10.00
   0  -6  -3  145.79   10.00
   0  -6  -3  147.99   10.40
   0   6   3  145.79   10.50
   0   6   3  157.78   10.20
   0   6   3  157.38   10.10
   0   6   3  150.48   11.00
   0   6   3  121.69    9.50
  -1  -6  -3   44.00    6.90
  -1  -6  -3   41.80    5.80
  -1  -6  -3   52.29    6.90
  -1  -6  -3   45.70    6.70
  -1  -6  -3   40.40    6.40
   1   6   3   41.60    6.70
   1   6   3   53.89    7.30
   1   6   3   42.10    6.90
   1   6   3   34.00    6.90
   1   6   3   49.90    6.80
  -2  -6  -3  207.78   13.80
  -2  -6  -3  198.18   13.70
   2   6   3  211.98   13.70
  -3  -6  -3  288.47   17.60
  -3  -6  -3  270.47   17.70
  -4  -6  -3    2.70    3.20
  -4  -6  -3    3.60    3.90
  -5  -6  -3   30.20    7.90
  -8   7   3    3.50    3.70
  -8   7   3   -0.50    3.20
   7  -7  -3   10.80    4.70
  -7   7   3   27.90    7.00
  -7   7   3   26.90    6.50
  -7   7   3   15.90    5.60
   6  -7  -3   12.70    4.60
   6  -7  -3   14.90    5.40
  -6   7   3   10.40    5.10
  -6   7   3    4.60    3.00
  -6   7   3   13.40    5.40
   5  -7  -3   -0.20    3.20
   5  -7  -3   -0.40    1.80
  -5   7   3    2.00    3.00
  -5   7   3    1.80    2.20
  -5   7   3    1.90    2.60
   4  -7  -3    5.60    3.00
   4  -7  -3    7.40    3.90
  -4   7   3    5.60    3.60
  -4   7   3    6.70    3.50
  -4   7   3    4.20    2.30
   3  -7  -3   -2.00    1.80
   3  -7  -3   -0.90    1.70
  -3   7   3    1.70    2.70
  -3   7   3    2.90    2.50
  -3   7   3    1.40    1.60
   2  -7  -3    4.50    2.60
   2  -7  -3   -2.30    1.90
  -2   7   3    0.40    1.10
  -2   7   3   -1.70    1.90
  -2   7   3    0.60    2.20
   1  -7  -3   81.09    9.60
   1  -7  -3   63.59    8.10
   1  -7  -3   70.59    9.00
  -1   7   3   78.99    9.00
  -1   7   3   87.49   10.00
  -1   7   3   86.29    4.60
   0  -7  -3   31.00    6.10
   0  -7  -3   31.50    5.60
   0  -7  -3   40.50    6.80
   0   7   3   32.00    6.10
   0   7   3   47.50    7.00
   0   7   3   45.30    8.50
   1   7   3   21.30    5.40
   1   7   3   22.40    5.90
  -2  -7  -3   24.90    6.30
  -2  -7  -3   17.00    5.30
   2   7   3   28.30    6.70
   2   7   3   29.70    6.90
  -3  -7  -3    3.20    3.70
  -3  -7  -3   -0.90    2.90
   3   7   3    2.90    3.50
   3   7   3    7.30    4.00
  -4  -7  -3   38.40    9.10
  -7   8   3    1.90    3.60
  -7   8   3    3.50    3.60
   6  -8  -3   -3.10    3.30
   6  -8  -3    1.70    3.20
  -6   8   3    0.30    3.80
  -6   8   3    0.20    3.60
  -6   8   3    1.40    2.80
   5  -8  -3    1.80    3.90
   5  -8  -3   -0.40    2.10
  -5   8   3    2.70    3.50
  -5   8   3    0.60    2.30
  -5   8   3    2.60    3.50
   4  -8  -3   -1.40    1.80
   4  -8  -3   -1.50    2.70
  -4   8   3   -0.50    2.80
  -4   8   3    4.40    3.90
  -4   8   3    0.60    1.90
   3  -8  -3    5.00    3.50
   3  -8  -3    5.20    3.70
  -3   8   3    5.40    3.80
  -3   8   3    5.60    3.80
  -3   8   3    4.70    2.30
   2  -8  -3    6.20    3.30
   2  -8  -3   12.60    4.70
  -2   8   3   19.30    5.90
  -2   8   3    9.00    4.00
  -2   8   3    9.00    2.30
   1  -8  -3   13.70    4.80
   1  -8  -3   14.30    4.50
   1  -8  -3   10.40    6.90
  -1   8   3   18.80    5.50
  -1   8   3   24.70    2.90
  -1   8   3   16.20    4.80
   0  -8  -3   16.50    5.10
   0  -8  -3    2.20    5.80
   0   8   3    5.80    3.40
   5  -9  -3    3.70    3.90
  -5   9   3    1.10    4.00
   4  -9  -3    7.80    3.90
   4  -9  -3    2.50    4.20
  -4   9   3    5.90    4.30
  -4   9   3   11.10    5.00
  -4   9   3    5.30    3.00
   3  -9  -3    4.50    3.60
   3  -9  -3    8.50    4.60
  -3   9   3   11.40    3.30
  -3   9   3    6.10    4.70
  -3   9   3   11.60    5.20
   2  -9  -3    6.90    3.70
   2  -9  -3    7.80    5.00
  -2   9   3    5.20    3.70
  -2   9   3    9.30    2.60
   1  -9  -3   10.60    4.60
   1  -9  -3   12.10    4.80
  -1   9   3    6.40    4.30
   1   9  -4    1.60    3.50
   1   9  -4    2.00    4.60
  -1  -9   4    8.90    5.20
   0   9  -4   25.20    7.80
   0   9  -4   15.80    6.50
   0  -9   4   11.50    5.00
  -1   9  -4   11.90    6.00
  -1   9  -4   12.90    5.30
   1  -9   4    5.90    5.00
   1  -9   4   15.70    5.10
  -2   9  -4   -0.40    2.80
   2  -9   4   -0.10    2.60
   2  -9   4    4.60    4.00
  -3   9  -4    4.90    3.80
   3  -9   4    3.80    3.70
   3  -9   4    2.80    3.10
  -4   9  -4    2.20    3.50
   4  -9   4    5.00    3.70
   4  -9   4    0.50    4.10
  -5   9  -4   -1.70    2.90
   5  -9   4    3.00    4.10
   5  -9   4   -1.10    2.50
   3   8  -4   -0.60    4.60
   2   8  -4   -0.30    3.50
  -2  -8   4   -0.90    3.60
   1   8  -4    8.40    4.60
  -1  -8   4   21.20    6.30
   0   8  -4    2.70    4.00
   0  -8   4   -0.50    2.40
   0  -8   4    7.20    3.80
  -1   8  -4    0.60    2.90
  -1   8  -4   -0.90    2.40
   1  -8   4    0.00    2.50
   1  -8   4    2.80    3.50
  -2   8  -4    6.20    3.70
   2  -8   4    2.60    3.20
   2  -8   4    4.50    2.90
  -3   8  -4   -1.50    2.40
   3  -8   4    3.50    2.90
   3  -8   4    2.70    3.70
  -4   8  -4    6.30    4.00
   4  -8   4   13.50    5.00
   4  -8   4    3.00    3.00
  -5   8  -4   -0.20    2.70
  -5   8  -4    0.10    3.50
   5  -8   4   -0.80    2.10
   5  -8   4    3.20    3.70
  -6   8  -4   14.60    5.40
  -6   8  -4   -0.70    1.90
  -6   8  -4   15.40    5.50
   6  -8   4    8.10    4.10
   6  -8   4    7.20    3.90
  -7   8  -4   -1.00    3.90
  -7   8  -4    4.00    3.50
  -7   8  -4    2.60    3.80
   7  -8   4   -0.10    3.00
   7  -8   4   -0.40    3.70
   4   7  -4   10.00    5.20
  -4  -7   4   11.10    5.60
  -4  -7   4   10.20    5.20
   3   7  -4   -1.00    3.60
  -3  -7   4    8.40    4.60
   2   7  -4   43.90    8.60
  -2  -7   4   48.00    8.20
   1   7  -4   64.49   10.40
  -1  -7   4   82.99   10.00
   0   7  -4   -0.30    2.50
   0  -7   4    1.20    2.50
   0  -7   4    5.90    3.00
  -1   7  -4    2.50    2.70
   1  -7   4    0.20    2.10
   1  -7   4   -0.20    1.90
  -2   7  -4    0.40    2.10
   2  -7   4    2.30    2.40
   2  -7   4    3.10    2.70
  -3   7  -4   36.70    6.40
  -3   7  -4   31.00    6.30
   3  -7   4   37.60    6.40
   3  -7   4   28.90    6.40
  -4   7  -4   32.30    6.70
  -4   7  -4   45.70    6.50
  -4   7  -4   40.20    7.20
   4  -7   4   43.40    7.30
   4  -7   4   45.90    7.30
  -5   7  -4   24.50    6.30
  -5   7  -4   13.60    4.50
  -5   7  -4   13.10    3.90
   5  -7   4   12.10    4.20
   5  -7   4    9.30    4.20
  -6   7  -4   12.70    5.10
  -6   7  -4   12.20    4.70
  -6   7  -4    7.90    3.60
   6  -7   4   12.40    4.50
   6  -7   4   19.30    5.40
  -7   7  -4    8.40    4.50
  -7   7  -4   14.90    5.30
  -7   7  -4    9.30    5.10
   7  -7   4    8.20    3.90
   7  -7   4    6.10    4.30
  -8   7  -4   -1.90    3.20
  -5  -6   4    0.20    3.80
  -5  -6   4   -1.20    3.50
   4   6  -4    6.40    3.90
  -4  -6   4   12.90    4.80
  -4  -6   4    5.20    4.00
   3   6  -4   -1.60    2.20
  -3  -6   4    2.00    3.10
  -3  -6   4   -1.50    2.10
  -3  -6   4    3.90    2.80
   2   6  -4    2.10    3.10
  -2  -6   4    0.70    2.50
  -2  -6   4    2.00    2.70
  -2  -6   4    1.00    2.20
   1   6  -4   22.80    5.80
  -1  -6   4   25.60    5.30
  -1  -6   4   19.30    3.90
  -1  -6   4   26.40    4.80
   0   6  -4   15.70    4.80
   0  -6   4   23.60    4.50
   0  -6   4   18.70    4.30
  -1   6  -4    0.10    1.80
  -1   6  -4    1.50    2.40
   1  -6   4    3.00    2.00
   1  -6   4    1.90    2.40
  -2   6  -4   94.59   10.50
  -2   6  -4   92.69    5.00
  -2   6  -4  100.39    7.40
   2  -6   4   90.39    9.60
   2  -6   4   94.59    9.20
  -3   6  -4   33.70    5.60
  -3   6  -4   33.90    6.10
  -3   6  -4   36.30    5.10
  -3   6  -4   42.40    6.90
  -3   6  -4   27.20    3.50
   3  -6   4   30.90    5.80
   3  -6   4   26.00    5.10
  -4   6  -4    1.10    2.60
  -4   6  -4   -0.10    1.20
  -4   6  -4   -0.10    1.80
  -4   6  -4    0.50    2.20
   4  -6   4    0.40    1.80
   4  -6   4   -0.10    1.50
  -5   6  -4    0.80    2.80
  -5   6  -4    1.60    2.30
  -5   6  -4    1.20    2.20
   5  -6   4   -1.70    1.80
   5  -6   4    2.60    2.30
  -6   6  -4   -1.80    2.70
  -6   6  -4    0.80    2.00
  -6   6  -4    0.10    1.80
   6  -6   4    0.50    2.30
   6  -6   4    1.40    2.40
  -7   6  -4   23.40    6.30
   7  -6   4   33.50    6.50
  -8   6  -4    4.00    4.30
  -6  -5   4   22.60    7.40
  -5  -5   4   49.60    9.00
  -5  -5   4   42.80    8.30
  -4  -5   4  121.29   12.70
  -4  -5   4  103.09   11.90
  -3  -5   4    8.30    3.70
  -3  -5   4    4.30    2.40
  -3  -5   4    4.50    3.00
   2   5  -4   25.50    5.80
  -2  -5   4   25.40    4.90
  -2  -5   4   15.60    4.10
  -2  -5   4   19.90    4.40
   1   5  -4   37.60    6.50
   1   5  -4   23.90    5.30
  -1  -5   4   28.00    5.00
  -1  -5   4   20.30    4.20
  -1  -5   4   25.60    4.30
  -1  -5   4   29.00    4.50
   0   5  -4   20.70    4.90
   0   5  -4   22.50    5.00
   0  -5   4   36.20    4.70
   0  -5   4   26.60    4.00
   0  -5   4   27.70    4.80
   0  -5   4   39.70    5.50
  -1   5  -4    7.20    3.00
  -1   5  -4    6.60    2.10
  -1   5  -4    2.50    2.40
   1  -5   4    4.60    2.10
   1  -5   4    1.80    1.20
   1  -5   4    1.80    1.90
  -2   5  -4  146.09   10.50
  -2   5  -4  144.99    6.50
  -2   5  -4  141.99    8.60
   2  -5   4  139.99    9.10
   2  -5   4  136.59    9.30
  -3   5  -4   10.20    3.20
  -3   5  -4   13.80    3.60
  -3   5  -4    6.70    3.10
  -3   5  -4    4.40    1.80
  -3   5  -4    8.30    2.00
   3  -5   4    5.80    2.50
   3  -5   4    6.70    2.60
  -4   5  -4    1.30    1.70
  -4   5  -4    4.40    3.00
  -4   5  -4    3.00    2.10
  -4   5  -4    2.10    1.30
   4  -5   4    1.50    1.70
   4  -5   4    2.70    2.10
  -5   5  -4  144.09    9.60
  -5   5  -4  134.59    9.90
  -5   5  -4  139.39   10.80
   5  -5   4  119.39    9.20
   5  -5   4  130.39    9.30
  -6   5  -4   84.59   10.00
  -6   5  -4   89.09   10.90
  -6   5  -4   63.89    7.90
   6  -5   4   70.09    8.20
   6  -5   4   82.79    9.00
  -7   5  -4   -0.50    3.80
  -8   5  -4   -2.40    3.20
  -9   5  -4   -5.40    3.50
  -7  -4   4    9.00    5.10
  -6  -4   4   44.00    8.90
  -6  -4   4   49.90    8.90
  -5  -4   4    1.40    2.70
  -5  -4   4    0.60    2.90
  -4  -4   4   57.89    8.30
  -4  -4   4   63.09    8.70
  -4  -4   4   75.09    8.10
   3   4  -4   35.10    3.40
   3   4  -4   35.00    6.60
  -3  -4   4   45.80    6.70
  -3  -4   4   35.40    5.30
   2   4  -4    1.20    0.60
   2   4  -4    0.70    2.20
  -2  -4   4    2.40    1.70
  -2  -4   4    3.80    2.10
  -2  -4   4   -0.50    0.90
  -2  -4   4    0.10    1.50
  -2  -4   4    1.50    1.20
   1   4  -4  297.17   15.80
   1   4  -4  336.77   16.90
  -1  -4   4  328.87   15.30
  -1  -4   4  345.97   14.00
  -1  -4   4  340.67   14.50
  -1  -4   4  346.57   14.90
  -1  -4   4  337.47   15.20
   0   4  -4    5.80    2.50
   0   4  -4    0.90    1.50
   0   4  -4    5.40    1.40
   0  -4   4    8.20    2.20
   0  -4   4    3.10    1.60
   0  -4   4    4.30    1.50
   0  -4   4    4.10    2.00
   0  -4   4    7.50    2.10
  -1   4  -4   11.70    1.40
  -1   4  -4   12.60    1.60
  -1   4  -4   11.90    2.40
  -1   4  -4   15.20    3.50
  -1   4  -4   15.90    3.60
   1  -4   4   16.30    3.30
   1  -4   4   14.20    2.90
   1  -4   4   10.20    2.00
   1  -4   4   18.00    2.20
   1  -4   4   19.50    2.60
  -2   4  -4   25.30    2.80
  -2   4  -4   21.60    4.30
  -2   4  -4   32.70    4.50
  -2   4  -4   30.10    3.00
   2  -4   4   24.60    4.00
   2  -4   4   25.30    2.60
   2  -4   4   30.00    4.40
  -3   4  -4   64.69    4.60
  -3   4  -4   74.69    8.00
  -3   4  -4   64.79    7.00
  -3   4  -4   62.09    4.70
  -3   4  -4   67.89    6.40
  -3   4  -4   62.59    6.60
   3  -4   4   54.69    6.10
   3  -4   4   62.69    6.70
  -4   4  -4   39.70    4.70
  -4   4  -4   45.30    6.00
  -4   4  -4   48.90    6.00
  -4   4  -4   49.80    6.90
   4  -4   4   47.00    5.90
   4  -4   4   48.20    6.10
  -5   4  -4  224.78   12.00
  -5   4  -4  229.18   11.70
  -5   4  -4  230.38   13.80
  -5   4  -4  227.08   13.10
   5  -4   4  214.48   11.80
   5  -4   4  245.98   12.30
  -6   4  -4   20.70    5.70
   6  -4   4    8.50    3.00
   6  -4   4    9.90    3.20
  -7   4  -4   32.60    7.40
  -8   4  -4   38.30    8.70
  -9   4  -4    0.00    4.50
  -8  -3   4   79.89   12.60
  -7  -3   4   12.80    5.30
  -7  -3   4    4.40    4.00
  -6  -3   4  105.49   12.30
  -6  -3   4  118.99   13.10
  -5  -3   4  185.98   13.10
  -5  -3   4  187.58   13.40
   4   3  -4    1.70    1.20
   4   3  -4    4.90    3.00
  -4  -3   4    0.00    1.60
  -4  -3   4    1.90    2.00
  -4  -3   4    3.40    2.10
   3   3  -4  144.79    6.90
   3   3  -4  175.18   11.30
  -3  -3   4  141.39    9.70
  -3  -3   4  108.99    8.50
  -3  -3   4  156.48   10.10
  -3  -3   4  152.18    8.90
   2   3  -4  132.79    9.20
   2   3  -4  133.59    5.70
  -2  -3   4  127.39    6.70
  -2  -3   4  143.79    8.10
  -2  -3   4  133.49    8.60
  -2  -3   4  150.48    8.70
  -2  -3   4  124.59    8.40
   1   3  -4    5.90    2.20
   1   3  -4    5.40    0.90
   1   3  -4    5.70    2.20
   1   3  -4    7.00    1.00
  -1  -3   4    4.40    1.70
  -1  -3   4    4.10    1.60
  -1  -3   4    6.90    2.10
  -1  -3   4    5.00    1.70
  -1  -3   4    6.30    1.90
   0   3  -4   16.30    1.30
   0   3  -4   19.10    1.40
   0   3  -4   20.40    3.60
   0   3  -4   14.70    3.10
   0  -3   4   17.20    2.60
   0  -3   4   22.90    3.20
   0  -3   4   16.40    3.00
   0  -3   4   18.70    2.60
   0  -3   4   20.20    2.60
  -1   3  -4   81.69    4.00
  -1   3  -4   75.69    4.70
  -1   3  -4   86.09    6.40
  -1   3  -4   83.09    6.10
  -1   3  -4   81.89    4.10
   1  -3   4   76.69    5.20
   1  -3   4   84.59    4.80
   1  -3   4   84.99    5.60
   1  -3   4   79.79    4.10
  -2   3  -4    0.90    0.70
  -2   3  -4    4.60    2.00
  -2   3  -4    2.60    1.60
  -2   3  -4    0.00    0.70
  -2   3  -4    0.00    0.50
   2  -3   4    0.10    0.80
   2  -3   4    0.40    0.40
   2  -3   4    0.90    0.70
   2  -3   4    4.40    1.70
  -3   3  -4  562.44   22.60
  -3   3  -4  595.84   22.20
  -3   3  -4  583.84   22.50
  -3   3  -4  624.24   21.80
  -3   3  -4  589.64   21.00
   3  -3   4  595.84   21.70
   3  -3   4  593.44   19.40
   3  -3   4  576.24   21.70
   3  -3   4  597.74   19.60
  -4   3  -4   12.90    3.80
  -4   3  -4   16.00    3.40
  -4   3  -4   11.90    2.80
  -4   3  -4   10.70    2.30
   4  -3   4    9.80    2.60
   4  -3   4   17.40    2.60
   4  -3   4   11.40    2.70
  -5   3  -4   78.89    9.10
  -5   3  -4   80.69    6.20
  -5   3  -4   83.19    6.10
  -5   3  -4   83.19    8.50
   5  -3   4   86.19    7.60
   5  -3   4   79.79    6.00
  -6   3  -4    0.90    2.90
  -7   3  -4    0.70    3.10
  -8   3  -4   48.80    9.10
  -9   3  -4   49.60    9.90
  -8  -2   4   66.79   11.20
  -7  -2   4    7.90    3.90
  -7  -2   4    2.70    2.90
  -6  -2   4    5.40    3.10
  -6  -2   4    5.90    3.30
   5   2  -4  203.08   13.90
  -5  -2   4  208.78   11.30
  -5  -2   4  202.18   13.20
  -5  -2   4  207.38   13.30
   4   2  -4   20.80    4.90
   4   2  -4   17.20    2.80
  -4  -2   4   19.90    3.70
  -4  -2   4   21.10    4.40
  -4  -2   4   20.40    4.40
  -4  -2   4    9.30    2.90
   3   2  -4   44.30    3.50
   3   2  -4   37.80    5.50
   3   2  -4   45.10    3.50
  -3  -2   4   53.79    6.20
  -3  -2   4   44.50    5.80
  -3  -2   4   41.00    3.00
  -3  -2   4   42.80    5.60
  -3  -2   4   49.00    5.20
   2   2  -4  190.08    7.90
   2   2  -4  207.18   10.90
  -2  -2   4  203.58    9.60
  -2  -2   4  190.68   10.10
  -2  -2   4  195.18   10.10
  -2  -2   4  202.88    8.20
   1   2  -4   71.49    5.50
   1   2  -4   68.29    5.10
   1   2  -4   70.89    3.60
   1   2  -4   77.79    3.70
  -1  -2   4   67.49    5.40
  -1  -2   4   71.99    4.80
  -1  -2   4   69.19    4.20
  -1  -2   4   73.59    4.80
  -1  -2   4   74.69    5.00
  -1  -2   4   60.59    4.70
   0   2  -4  366.26   12.70
   0   2  -4  386.46   12.90
   0   2  -4  386.66   15.40
   0   2  -4  361.86   14.90
   0  -2   4  387.36   13.50
   0  -2   4  390.06   15.50
   0  -2   4  384.26   14.00
   0  -2   4  389.76   13.90
   0  -2   4  386.56   14.40
   0  -2   4  379.66   14.40
  -1   2  -4 1283.67   42.60
  -1   2  -4 1311.77   40.70
  -1   2  -4 1279.07   40.10
  -1   2  -4 1348.07   40.20
  -1   2  -4 1344.87   40.80
   1  -2   4 1309.17   40.70
   1  -2   4 1296.67   39.40
   1  -2   4 1290.97   39.30
   1  -2   4 1264.27   42.60
   1  -2   4 1289.97   41.20
   1  -2   4 1324.67   41.20
  -2   2  -4  579.04   19.40
  -2   2  -4  604.44   21.90
  -2   2  -4  583.54   19.40
  -2   2  -4  536.55   20.30
   2  -2   4  560.64   21.60
   2  -2   4  566.04   19.00
   2  -2   4  550.84   19.50
   2  -2   4  564.24   18.90
   2  -2   4  565.84   19.90
   2  -2   4  556.24   18.90
  -3   2  -4  360.46   14.50
  -3   2  -4  362.86   12.70
  -3   2  -4  343.07   12.30
  -3   2  -4  327.17   13.00
  -3   2  -4  369.36   15.10
  -3   2  -4  325.77   13.20
   3  -2   4  354.06   13.60
   3  -2   4  328.07   13.10
   3  -2   4  325.27   13.00
  -4   2  -4  225.58    9.90
  -4   2  -4  208.78   11.20
  -4   2  -4  219.98    9.70
  -4   2  -4  223.18   10.20
  -4   2  -4  217.88   11.80
  -4   2  -4  219.78    9.70
   4  -2   4  214.68   10.20
   4  -2   4  240.08   10.20
   4  -2   4  221.98    9.60
  -5   2  -4   14.10    4.00
  -5   2  -4   25.10    4.00
  -5   2  -4   22.20    3.50
  -5   2  -4   16.30    3.20
   5  -2   4   28.10    4.00
   5  -2   4   34.40    4.10
  -6   2  -4 1066.29   40.20
   6  -2   4 1009.40   36.50
  -7   2  -4  194.58   14.10
  -8   2  -4   13.70    5.50
  -9   2  -4   30.50    8.00
  -9  -1   4   50.69   10.00
  -8  -1   4    3.50    3.60
  -8  -1   4    5.80    4.00
  -7  -1   4  131.19   13.60
  -7  -1   4  108.79   12.00
  -6  -1   4  170.98   12.30
  -6  -1   4  161.08   12.00
   5   1  -4   97.79    7.00
   5   1  -4  116.09   11.40
  -5  -1   4  112.79    7.80
  -5  -1   4   98.19    9.60
  -5  -1   4  117.89    9.10
  -5  -1   4  106.39   10.70
   4   1  -4    0.40    0.90
   4   1  -4    0.00    1.50
  -4  -1   4    0.50    1.30
  -4  -1   4    1.90    1.40
  -4  -1   4    2.70    1.80
  -4  -1   4    1.50    1.40
  -4  -1   4   -1.70    0.90
   3   1  -4  153.28    7.10
   3   1  -4  135.49    8.50
   3   1  -4  147.09    7.10
  -3  -1   4  131.99    6.50
  -3  -1   4  144.79    8.60
  -3  -1   4  149.88    8.60
  -3  -1   4  144.89    6.30
  -3  -1   4  138.89    7.70
  -3  -1   4  138.19    8.60
   2   1  -4  412.76   14.80
   2   1  -4  404.76   16.40
   2   1  -4  432.66   14.70
  -2  -1   4  410.96   14.00
  -2  -1   4  402.16   16.10
  -2  -1   4  418.26   16.50
  -2  -1   4  413.86   16.60
  -2  -1   4  420.86   14.50
  -2  -1   4  412.86   15.80
  -2  -1   4  421.86   16.50
   1   1  -4  146.59    6.10
   1   1  -4  150.28    7.20
  -1  -1   4  141.39    6.80
  -1  -1   4  137.59    6.20
  -1  -1   4  141.59    6.90
  -1  -1   4  134.59    7.00
  -1  -1   4  142.49    7.10
   0   1  -4   63.89    4.60
   0   1  -4   80.29    4.70
   0   1  -4   73.39    3.70
   0  -1   4   72.09    4.00
   0  -1   4   79.09    4.20
   0  -1   4   75.39    3.70
   0  -1   4   80.09    4.70
   0  -1   4   69.79    3.60
  -1   1  -4  163.38    7.10
  -1   1  -4  166.38    7.50
  -1   1  -4  153.08    7.80
  -1   1  -4  158.28    6.60
  -1   1  -4  157.38    6.70
   1  -1   4  172.78    6.70
   1  -1   4  167.48    6.70
   1  -1   4  172.58    6.80
   1  -1   4  154.58    7.00
   1  -1   4  159.18    7.80
   1  -1   4  167.88    6.70
  -2   1  -4  220.58    8.80
  -2   1  -4  218.48   10.00
  -2   1  -4  239.28    9.00
  -2   1  -4  222.68    9.00
  -2   1  -4  230.18    8.90
   2  -1   4  218.68    8.30
   2  -1   4  214.68    8.90
   2  -1   4  221.28    9.00
   2  -1   4  226.58   10.70
   2  -1   4  221.98    8.90
   2  -1   4  230.68    8.90
  -3   1  -4  295.87   12.10
  -3   1  -4  306.07   11.50
  -3   1  -4  303.27   10.50
  -3   1  -4  276.77   13.10
  -3   1  -4  298.47   11.90
   3  -1   4  307.27   11.40
   3  -1   4  289.17   11.80
   3  -1   4  284.97   10.50
  -4   1  -4  285.97   12.70
  -4   1  -4  286.77   12.80
  -4   1  -4  295.37   11.70
  -4   1  -4  288.47   14.20
  -4   1  -4  301.27   10.90
  -4   1  -4  290.87   13.60
   4  -1   4  298.47   11.50
   4  -1   4  280.47   12.50
  -5   1  -4   35.30    6.10
  -5   1  -4   43.00    5.70
  -5   1  -4   34.90    5.10
   5  -1   4   33.20    4.60
  -6   1  -4  109.29    8.40
  -6   1  -4  103.59    8.10
  -6   1  -4  117.49   11.80
   6  -1   4   95.09    7.60
  -7   1  -4  108.09   12.10
  -7   1  -4  103.99   10.60
  -7   1  -4   94.29   10.00
  -8   1  -4   73.99   11.10
  -9   1  -4   11.50    5.90
  -9   0   4   45.40    9.40
  -8   0   4    4.60    3.90
  -8   0   4   13.40    5.30
  -7   0   4   39.30    7.40
  -7   0   4   30.10    6.00
   6   0  -4   28.60    4.50
   6   0  -4   33.20    6.30
  -6   0   4   22.10    5.00
  -6   0   4   14.20    3.60
  -6   0   4   24.40    5.00
  -6   0   4   22.80    5.10
   5   0  -4   72.09    6.90
   5   0  -4   70.99    8.10
  -5   0   4   74.99    8.00
  -5   0   4   72.29    7.30
  -5   0   4   69.49    8.00
  -5   0   4   83.59    7.60
  -5   0   4   62.49    7.50
   4   0  -4   44.40    4.60
   4   0  -4   46.80    5.80
  -4   0   4   41.50    5.30
  -4   0   4   48.90    3.40
  -4   0   4   43.10    4.00
  -4   0   4   48.20    5.30
  -4   0   4   41.60    5.40
  -4   0   4   42.80    5.20
  -4   0   4   41.20    5.50
   3   0  -4   37.80    3.70
   3   0  -4   38.60    4.40
  -3   0   4   40.60    4.50
  -3   0   4   48.00    5.20
  -3   0   4   46.10    4.50
  -3   0   4   45.20    3.90
  -3   0   4   39.80    4.80
  -3   0   4   42.70    3.20
  -3   0   4   44.80    4.80
   2   0  -4  184.98    8.10
   2   0  -4  167.58    7.70
   2   0  -4  190.48    7.80
  -2   0   4  194.88    9.00
  -2   0   4  176.08    7.70
  -2   0   4  177.28    7.70
  -2   0   4  178.68    8.60
  -2   0   4  187.68    7.70
  -2   0   4  185.28    7.80
  -2   0   4  179.38    8.90
  -2   0   4  188.58    8.80
   1   0  -4   88.79    4.20
   1   0  -4   97.79    4.40
   1   0  -4   94.79    4.40
  -1   0   4   94.89    4.40
  -1   0   4   94.49    4.40
  -1   0   4   97.69    4.80
  -1   0   4   90.29    5.10
  -1   0   4   89.39    4.90
  -1   0   4  100.59    4.50
  -1   0   4   83.99    5.00
   0   0  -4  426.26   13.90
   0   0  -4  408.06   13.70
   0   0  -4  446.56   14.60
   0   0   4  417.26   14.40
   0   0   4  438.86   14.10
   0   0   4  426.26   15.20
   0   0   4  435.66   14.70
   0   0   4  418.66   14.50
  -1   0  -4 1477.25   45.30
  -1   0  -4 1414.96   43.30
  -1   0  -4 1429.16   43.30
  -1   0  -4 1471.75   45.00
   1   0   4 1485.15   44.40
   1   0   4 1449.46   43.80
   1   0   4 1418.66   43.30
  -2   0  -4  919.01   30.70
  -2   0  -4  929.91   28.30
  -2   0  -4  933.41   31.30
  -2   0  -4  939.41   30.50
   2   0   4  927.01   29.40
   2   0   4  912.31   29.40
   2   0   4  940.61   29.30
  -3   0  -4  268.57   11.90
  -3   0  -4  261.97   11.70
  -3   0  -4  245.08   12.10
  -3   0  -4  274.87    9.10
   3   0   4  260.97    9.70
   3   0   4  258.67   10.60
   3   0   4  261.67   10.60
  -4   0  -4  251.07   12.40
  -4   0  -4  256.47   12.20
  -4   0  -4  236.28   12.70
   4   0   4  237.58   11.30
   4   0   4  264.77   11.30
  -5   0  -4 1649.83   56.39
  -5   0  -4 1701.03   56.69
   5   0   4 1691.83   54.49
  -6   0  -4  727.63   30.10
  -6   0  -4  704.43   29.00
  -6   0  -4  680.13   28.80
  -7   0  -4  105.99   11.40
  -7   0  -4   80.19   10.30
  -7   0  -4   94.39   10.70
  -8   0  -4  107.09   13.30
  -8   0  -4  110.29   12.90
  -8   0  -4  104.19   12.00
  -9   0  -4    3.00    4.60
  -9   0  -4    8.40    5.10
  -9   1   4    3.00    3.80
  -8   1   4   36.40    7.50
  -8   1   4   30.20    6.90
  -7   1   4   13.60    4.70
  -7   1   4    9.20    3.90
  -7   1   4    5.30    3.10
   6  -1  -4  128.09    8.30
  -6   1   4  125.79    9.60
  -6   1   4  125.89    9.40
  -6   1   4  125.39    9.50
  -6   1   4  119.59    8.80
  -6   1   4  108.69    8.40
   5  -1  -4   -0.30    1.00
  -5   1   4    0.10    1.30
  -5   1   4   -0.30    1.60
  -5   1   4   -1.00    1.20
  -5   1   4   -0.30    1.60
  -5   1   4    0.40    1.30
  -5   1   4    1.50    1.40
   4  -1  -4  216.08    9.60
  -4   1   4  190.88   10.20
  -4   1   4  195.78    9.80
  -4   1   4  209.98   10.80
  -4   1   4  196.38   10.10
  -4   1   4  186.18   10.40
  -4   1   4  196.28    8.90
  -4   1   4  191.68    9.20
   3  -1  -4  477.15   16.60
  -3   1   4  470.85   18.00
  -3   1   4  452.05   17.90
  -3   1   4  478.65   17.40
  -3   1   4  466.65   16.90
  -3   1   4  471.95   18.10
  -3   1   4  441.36   17.50
   2  -1  -4    8.50    1.40
   2  -1  -4    9.60    2.00
   2  -1  -4   10.50    1.30
   2  -1  -4    5.90    1.10
  -2   1   4   10.30    2.20
  -2   1   4    7.10    1.50
  -2   1   4   10.50    2.00
  -2   1   4    7.70    1.90
  -2   1   4   16.90    2.80
  -2   1   4    8.70    1.50
   1  -1  -4  452.15   16.60
  -1   1   4  492.75   15.40
  -1   1   4  470.95   16.40
  -1   1   4  470.95   15.30
  -1   1   4  472.65   16.70
  -1   1   4  468.85   16.60
  -1   1   4  476.85   16.90
   0  -1  -4   52.99    3.70
   0   1   4   49.20    3.30
   0   1   4   49.99    3.10
   0   1   4   49.70    3.50
  -1  -1  -4    1.60    1.00
  -1  -1  -4    0.50    0.90
  -1  -1  -4   12.30    2.30
   1   1   4    1.70    0.60
   1   1   4    0.50    0.80
   1   1   4    0.30    0.60
  -2  -1  -4 3157.88   95.49
  -2  -1  -4 3029.20   95.19
  -2  -1  -4 3055.69   95.49
   2   1   4 3152.38   91.79
   2   1   4 3175.38   92.69
  -3  -1  -4  346.27   15.00
  -3  -1  -4  314.17   14.40
   3   1   4  327.57   12.00
   3   1   4  326.07   12.00
  -4  -1  -4  100.69    9.10
  -4  -1  -4   84.89    8.40
  -4  -1  -4   81.29    8.00
   4   1   4   85.99    5.40
  -5  -1  -4   61.59    7.50
  -5  -1  -4   64.39    7.90
  -5  -1  -4   56.89    7.60
   5   1   4   48.00    5.40
  -6  -1  -4   43.00    7.10
  -6  -1  -4   50.19    7.50
  -6  -1  -4   68.39    8.90
  -7  -1  -4    1.60    2.70
  -7  -1  -4    0.80    2.40
  -7  -1  -4    4.50    3.20
  -8  -1  -4    0.50    3.50
  -8  -1  -4    2.10    3.10
  -8  -1  -4   -2.20    2.70
  -8   2   4   15.40    5.60
  -8   2   4    8.20    3.50
  -7   2   4   22.10    5.00
  -7   2   4   32.50    6.60
  -7   2   4   36.50    6.10
  -7   2   4   26.70    5.70
  -6   2   4  188.48   11.50
  -6   2   4  171.58   11.10
  -6   2   4  179.98   11.80
  -6   2   4  173.98   10.00
  -5   2   4  104.69    7.50
  -5   2   4   84.19    6.20
  -5   2   4   98.19    7.40
  -5   2   4   92.79    7.30
  -5   2   4   92.49    6.50
  -5   2   4   95.29    8.80
  -5   2   4  100.79    9.50
   4  -2  -4   34.00    3.60
  -4   2   4   31.70    4.30
  -4   2   4   38.40    4.30
  -4   2   4   30.50    4.30
  -4   2   4   24.60    4.20
  -4   2   4   37.90    4.10
  -4   2   4   27.90    4.40
   3  -2  -4  199.88    7.50
   3  -2  -4  216.58    9.30
   3  -2  -4  197.78    7.90
  -3   2   4  198.68    8.80
  -3   2   4  191.48    9.50
  -3   2   4  192.18    8.60
  -3   2   4  196.28    8.70
  -3   2   4  199.78   10.00
  -3   2   4  191.18    9.50
   2  -2  -4  133.19    7.30
  -2   2   4  130.89    6.90
  -2   2   4  128.69    6.30
  -2   2   4  121.69    7.10
  -2   2   4  130.59    5.50
  -2   2   4  117.09    5.50
  -2   2   4  128.19    7.10
   1  -2  -4  253.07   11.10
   1  -2  -4  270.47   10.90
  -1   2   4  253.67    8.70
  -1   2   4  244.78   10.70
  -1   2   4  264.97   10.50
  -1   2   4  256.97   10.80
   0  -2  -4   54.49    5.20
   0  -2  -4   51.69    3.50
   0   2   4   46.10    3.30
   0   2   4   42.50    3.20
   0   2   4   48.00    4.80
  -1  -2  -4 1233.08   40.10
  -1  -2  -4 1212.08   37.70
  -1  -2  -4 1225.08   40.20
   1   2   4 1205.18   37.70
   1   2   4 1207.58   39.90
  -2  -2  -4   73.99    7.10
  -2  -2  -4   64.29    3.30
  -2  -2  -4   72.49    6.80
  -2  -2  -4   50.39    5.70
   2   2   4   58.49    3.20
   2   2   4   65.99    3.90
  -3  -2  -4   88.09    7.20
  -3  -2  -4  102.89    7.50
  -3  -2  -4  101.99    7.40
   3   2   4  117.59    5.50
  -4  -2  -4 1629.64   55.29
  -4  -2  -4 1611.04   53.99
  -4  -2  -4 1593.34   54.69
   4   2   4 1548.74   49.60
  -5  -2  -4  296.27   16.90
  -5  -2  -4  322.47   17.00
  -5  -2  -4  303.27   16.30
  -6  -2  -4   76.09   10.50
  -6  -2  -4   72.59    9.20
  -6  -2  -4   54.59    8.90
  -7  -2  -4   66.29   10.00
  -7  -2  -4   75.49   11.00
  -7  -2  -4   62.29    9.20
  -8  -2  -4   -1.20    3.20
  -9   3   4    6.80    5.60
  -8   3   4    7.10    4.90
  -7   3   4  139.69   14.10
  -7   3   4   98.49   10.40
  -6   3   4   21.60    4.80
  -6   3   4   19.60    5.80
  -6   3   4   31.50    5.50
  -6   3   4   44.40    6.90
  -6   3   4   18.90    4.10
  -5   3   4  104.29    7.40
  -5   3   4  101.09    9.50
  -5   3   4  103.79   10.20
  -5   3   4   99.59    7.10
  -5   3   4   88.99    6.60
  -5   3   4  103.59    7.90
  -4   3   4  145.09    8.30
  -4   3   4  147.49    8.10
  -4   3   4  149.29    9.40
  -4   3   4  127.79    7.40
  -4   3   4  144.39    7.10
  -4   3   4  140.79    9.00
   3  -3  -4   55.29    3.50
  -3   3   4   54.29    3.80
  -3   3   4   57.59    5.70
  -3   3   4   54.49    3.80
  -3   3   4   53.69    3.70
  -3   3   4   80.59    7.70
  -3   3   4   41.10    5.50
   2  -3  -4  267.67   11.90
   2  -3  -4  249.48   12.30
   2  -3  -4  246.48    9.50
   2  -3  -4  260.67   12.20
  -2   3   4  256.37   11.30
  -2   3   4  265.77    9.50
  -2   3   4  263.47   12.40
  -2   3   4  270.47    8.80
  -2   3   4  274.47   12.30
  -2   3   4  277.97   10.90
  -2   3   4  246.08    8.60
   1  -3  -4   54.19    5.20
   1  -3  -4   54.99    5.90
  -1   3   4   50.09    5.70
  -1   3   4   48.40    3.50
  -1   3   4   41.30    4.60
  -1   3   4   49.99    3.50
  -1   3   4   48.60    4.90
   0  -3  -4  253.27   13.00
   0  -3  -4  322.97   12.80
   0  -3  -4  323.27   13.70
   0   3   4  328.97   13.10
   0   3   4  318.57   13.40
   0   3   4  324.57   12.80
  -1  -3  -4 1846.22   59.09
  -1  -3  -4 1856.41   56.89
   1   3   4 1880.51   59.49
   1   3   4 1756.22   58.89
   1   3   4 1830.82   56.69
  -2  -3  -4  189.18    8.20
  -2  -3  -4  189.38   10.60
  -2  -3  -4  186.18   10.90
  -2  -3  -4  171.48   10.10
   2   3   4  176.78    8.00
   2   3   4  193.48   11.40
  -3  -3  -4  100.89    7.70
  -3  -3  -4  107.79    8.50
  -3  -3  -4  115.29   10.70
  -4  -3  -4   96.09    9.30
  -4  -3  -4   96.19   10.40
  -4  -3  -4   94.59   10.10
   4   3   4   85.69    4.60
  -5  -3  -4   17.00    4.80
  -5  -3  -4   26.80    5.90
  -5  -3  -4   17.90    4.50
  -6  -3  -4   73.69   10.60
  -6  -3  -4   56.29    9.10
  -7  -3  -4    6.40    4.70
  -7  -3  -4    2.10    3.70
  -9   4   4    0.90    4.00
  -8   4   4    0.20    3.10
  -8   4   4    3.10    3.80
  -7   4   4    9.20    3.70
  -7   4   4   13.00    4.60
  -6   4   4    1.10    2.70
  -6   4   4    1.80    2.20
  -6   4   4    5.00    2.90
  -5   4   4   11.00    3.30
  -5   4   4   11.90    3.90
  -5   4   4    6.70    2.90
   4  -4  -4   23.60    4.40
  -4   4   4   28.80    3.70
  -4   4   4   39.40    6.00
  -4   4   4   21.30    4.50
  -4   4   4   31.20    4.90
  -4   4   4   32.30    4.40
   3  -4  -4   13.10    3.40
   3  -4  -4   11.40    3.00
  -3   4   4   16.30    3.20
  -3   4   4   12.60    3.30
  -3   4   4   14.70    2.10
  -3   4   4    9.80    3.00
  -3   4   4   15.00    2.40
   2  -4  -4  129.99    7.80
   2  -4  -4  116.09    7.80
   2  -4  -4  112.79    7.20
   2  -4  -4  114.39    8.10
  -2   4   4  112.49    6.10
  -2   4   4  117.09    7.80
  -2   4   4  116.09    7.10
  -2   4   4  108.39    6.20
  -2   4   4  119.39    8.20
   1  -4  -4   67.49    6.60
   1  -4  -4   59.39    6.30
   1  -4  -4   67.49    7.20
  -1   4   4   67.39    6.40
  -1   4   4   61.29    6.80
  -1   4   4   62.69    6.30
  -1   4   4   79.59    5.40
  -1   4   4   73.89    5.20
   0  -4  -4  386.66   15.80
   0  -4  -4  376.66   16.70
   0  -4  -4  371.16   16.40
   0  -4  -4  399.66   16.80
   0   4   4  371.86   16.00
   0   4   4  386.46   16.40
   0   4   4  379.46   15.70
   0   4   4  388.46   16.60
  -1  -4  -4  164.48    9.90
  -1  -4  -4  170.38   10.30
  -1  -4  -4  189.68    9.30
  -1  -4  -4  178.78   10.50
   1   4   4  174.08    8.80
   1   4   4  159.38   10.00
   1   4   4  183.68   10.80
  -2  -4  -4   18.60    4.20
  -2  -4  -4   16.50    3.70
  -2  -4  -4   29.50    5.20
   2   4   4   26.50    5.20
  -3  -4  -4  208.58   12.40
  -3  -4  -4  222.58   13.70
  -3  -4  -4  207.88   13.40
   3   4   4  227.88   14.70
  -4  -4  -4   99.89   10.30
  -4  -4  -4  125.09   12.70
  -4  -4  -4  101.59   11.40
  -5  -4  -4   17.80    5.40
  -5  -4  -4   19.10    5.70
  -6  -4  -4    6.90    4.20
  -6  -4  -4    2.80    3.90
  -7  -4  -4    4.60    4.20
  -9   5   4   10.20    5.80
  -8   5   4    9.40    4.20
  -8   5   4   -0.70    4.00
  -7   5   4    3.90    3.40
  -7   5   4    6.10    4.40
  -7   5   4    7.60    3.60
  -6   5   4   38.10    6.70
  -6   5   4   34.10    7.10
  -6   5   4   37.20    6.80
   5  -5  -4    1.80    2.50
  -5   5   4    2.70    2.70
  -5   5   4    1.10    1.90
  -5   5   4    1.80    1.50
   4  -5  -4   18.80    4.10
   4  -5  -4   13.90    4.00
  -4   5   4   18.20    4.50
  -4   5   4   14.90    2.60
  -4   5   4   17.90    4.40
   3  -5  -4   15.00    3.60
   3  -5  -4   15.20    4.00
  -3   5   4   17.00    4.00
  -3   5   4   17.10    2.00
  -3   5   4   21.70    4.90
   2  -5  -4   31.60    4.90
   2  -5  -4   27.90    5.20
   2  -5  -4   29.60    5.10
  -2   5   4   26.30    4.80
  -2   5   4   25.50    4.70
  -2   5   4   29.30    4.50
   1  -5  -4   25.00    4.50
   1  -5  -4   14.20    3.40
   1  -5  -4   18.80    4.20
  -1   5   4   26.50    4.40
  -1   5   4   17.70    3.80
  -1   5   4   12.80    3.20
  -1   5   4   17.20    3.90
  -1   5   4   15.40    3.50
   0  -5  -4  556.44   22.50
   0  -5  -4  505.75   21.40
   0  -5  -4  560.54   22.80
   0   5   4  558.84   22.80
   0   5   4  566.64   23.10
   0   5   4  537.65   22.10
   0   5   4  534.25   21.50
   0   5   4  496.35   21.80
  -1  -5  -4   20.30    3.90
  -1  -5  -4   13.20    3.70
  -1  -5  -4   23.90    4.60
  -1  -5  -4   10.70    3.20
   1   5   4   17.80    4.00
   1   5   4   17.90    3.50
   1   5   4   20.50    4.60
  -2  -5  -4  181.28   11.80
  -2  -5  -4  156.18   10.50
  -2  -5  -4  143.09   10.80
   2   5   4  146.59   10.80
   2   5   4  165.08   12.10
  -3  -5  -4  125.39   12.70
  -3  -5  -4  121.09    9.60
  -3  -5  -4  135.29   13.60
  -4  -5  -4    2.50    3.10
  -4  -5  -4    0.40    2.90
  -5  -5  -4   92.59   12.00
  -5  -5  -4   95.29   12.80
  -6  -5  -4    4.50    5.40
  -8   6   4    1.50    3.80
  -8   6   4   -0.50    3.10
  -7   6   4   46.00    9.00
  -7   6   4   27.80    6.00
  -7   6   4   28.30    7.10
  -6   6   4   68.29    9.20
  -6   6   4   52.89    9.10
  -6   6   4   51.99    8.80
   5  -6  -4   -1.00    2.20
   5  -6  -4    1.40    2.20
  -5   6   4    0.00    2.60
  -5   6   4    4.00    2.50
  -5   6   4    1.00    2.30
   4  -6  -4   16.80    4.70
   4  -6  -4    5.30    2.60
  -4   6   4   20.50    5.40
  -4   6   4   11.10    3.80
  -4   6   4   18.20    3.80
   3  -6  -4   10.80    3.50
   3  -6  -4    7.50    2.90
  -3   6   4   12.30    4.20
  -3   6   4    6.70    3.10
   2  -6  -4    0.50    1.90
   2  -6  -4   -0.20    1.60
   2  -6  -4    2.40    2.70
  -2   6   4    3.90    2.80
  -2   6   4   -0.80    1.40
   1  -6  -4    4.50    2.80
   1  -6  -4    2.50    2.10
   1  -6  -4    1.90    1.90
  -1   6   4    4.70    2.60
  -1   6   4    4.20    2.70
  -1   6   4    3.60    2.40
   0  -6  -4   27.50    5.70
   0  -6  -4   26.10    5.20
   0  -6  -4   17.10    4.30
   0   6   4   25.10    4.80
   0   6   4   20.50    4.70
   0   6   4   22.90    4.70
   0   6   4   26.50    4.80
  -1  -6  -4   92.99   10.10
  -1  -6  -4   88.39   10.00
  -1  -6  -4   74.59    9.10
   1   6   4   96.99   10.70
   1   6   4   77.59   10.00
   1   6   4   63.99    8.30
  -2  -6  -4    9.70    3.60
  -2  -6  -4    9.10    3.70
  -2  -6  -4    3.60    3.20
   2   6   4    8.90    4.00
  -3  -6  -4   13.00    4.80
  -3  -6  -4    2.60    3.10
   3   6   4   13.50    5.00
  -4  -6  -4    8.20    4.70
  -4  -6  -4   -2.60    3.00
  -5  -6  -4   10.30    5.20
  -7   7   4    0.10    3.20
  -7   7   4   -1.50    3.50
  -7   7   4    3.80    3.10
  -6   7   4    5.60    3.60
  -6   7   4    7.00    4.40
  -6   7   4    1.60    3.90
   5  -7  -4    2.10    2.60
   5  -7  -4    3.80    3.20
  -5   7   4    2.40    2.20
  -5   7   4    1.50    3.40
  -5   7   4   -2.10    2.50
   4  -7  -4   37.80    7.40
   4  -7  -4   17.30    4.60
  -4   7   4   28.60    6.80
  -4   7   4   19.10    4.00
  -4   7   4   19.60    5.70
   3  -7  -4   62.09    8.80
   3  -7  -4   50.89    7.60
  -3   7   4   63.29    9.20
  -3   7   4   65.99    6.70
  -3   7   4   66.39    9.30
   2  -7  -4   20.60    5.20
   2  -7  -4   21.10    5.30
   2  -7  -4   18.90    4.90
  -2   7   4   17.60    4.80
  -2   7   4   22.90    5.60
   1  -7  -4   12.90    4.60
   1  -7  -4   16.20    4.50
   1  -7  -4   19.70    4.90
  -1   7   4   20.20    5.50
  -1   7   4   18.20    4.70
   0  -7  -4   11.60    4.00
   0  -7  -4   20.30    4.90
   0   7   4   10.20    3.80
   0   7   4   12.10    3.90
  -1  -7  -4   13.10    5.00
  -1  -7  -4   10.60    4.50
   1   7   4    8.50    3.90
  -2  -7  -4   44.30    8.10
  -2  -7  -4   26.60    6.30
   2   7   4   31.60    7.10
  -3  -7  -4    1.70    3.30
  -3  -7  -4    0.00    3.40
   3   7   4    0.60    3.40
   3   7   4    7.60    4.40
  -4  -7  -4   -1.50    3.10
   4   7   4   -2.50    3.10
  -6   8   4    1.40    2.50
  -6   8   4    2.50    3.80
  -6   8   4    0.40    3.90
   5  -8  -4   11.00    4.30
   5  -8  -4    0.50    3.30
  -5   8   4    5.20    4.10
  -5   8   4    3.00    3.60
  -5   8   4    2.60    2.80
   4  -8  -4    9.10    4.30
   4  -8  -4    6.60    4.20
  -4   8   4    4.20    4.10
  -4   8   4    6.50    3.00
  -4   8   4    3.10    3.70
   3  -8  -4    9.10    4.40
   3  -8  -4    7.10    4.30
  -3   8   4   12.60    4.90
  -3   8   4    9.40    2.70
  -3   8   4   11.40    4.70
   2  -8  -4   10.90    4.40
   2  -8  -4   11.10    4.10
  -2   8   4    8.70    4.40
  -2   8   4    6.80    2.30
  -2   8   4    8.10    4.10
   1  -8  -4    3.00    3.60
   1  -8  -4    1.10    2.90
  -1   8   4    0.60    2.40
  -1   8   4    1.00    1.10
  -1   8   4   -2.30    2.80
   4  -9  -4   20.00    7.30
  -4   9   4   13.10    5.20
  -4   9   4   23.60    4.90
  -4   9   4   28.40    7.50
   3  -9  -4    4.10    4.70
  -3   9   4   -0.60    3.90
  -3   9   4    3.20    2.50
  -3   9   4    1.20    3.30
   2  -9  -4    1.90    4.30
  -2   9   4    1.20    1.60
  -2   9   4    2.00    4.00
  -2   9   4    3.40    3.80
  -1   9   4   -0.60    1.00
  -1   9   4    0.40    3.60
   1   9  -5    5.70    4.70
  -1  -9   5    4.60    4.70
   0   9  -5    0.40    3.70
   0   9  -5    0.40    3.40
   0  -9   5    0.90    3.30
  -1   9  -5    2.00    4.00
  -1   9  -5   -1.40    2.90
   1  -9   5    1.10    3.10
   1  -9   5    0.00    3.40
  -2   9  -5   -5.60    2.70
   2  -9   5    0.80    3.10
   2  -9   5    0.50    4.10
  -3   9  -5    3.90    4.10
   3  -9   5    3.40    4.00
   3  -9   5    3.30    3.70
  -4   9  -5   10.90    5.80
   4  -9   5   13.00    5.70
   4  -9   5   14.60    5.10
  -5   9  -5    9.90    4.90
   5  -9   5    0.90    3.50
   5  -9   5    1.60    2.90
   3   8  -5    0.00    3.60
   2   8  -5   -2.00    3.40
  -2  -8   5    1.70    3.50
   1   8  -5   -2.30    2.60
  -1  -8   5    1.00    3.30
   0   8  -5   14.60    6.10
   0  -8   5   15.40    4.70
   0  -8   5    9.40    4.40
  -1   8  -5    9.70    5.00
   1  -8   5    9.40    4.40
   1  -8   5   10.10    3.70
  -2   8  -5   -2.80    1.90
   2  -8   5    2.80    2.60
   2  -8   5   -0.20    2.50
  -3   8  -5   17.60    5.70
   3  -8   5    3.90    3.50
   3  -8   5    2.80    2.90
  -4   8  -5    1.30    2.60
   4  -8   5    3.20    3.50
   4  -8   5    3.10    2.70
  -5   8  -5    4.60    4.10
  -5   8  -5    3.70    4.30
   5  -8   5    2.10    3.00
   5  -8   5   -1.50    2.40
  -6   8  -5    1.30    4.50
  -6   8  -5    5.00    4.40
   6  -8   5    1.40    3.40
   6  -8   5    5.60    3.80
  -7   8  -5   10.60    5.40
  -7   8  -5    2.50    4.80
   7  -8   5    1.00    3.80
   7  -8   5   10.90    5.10
   4   7  -5   38.20    9.00
  -4  -7   5   42.30    8.50
  -4  -7   5   36.20    8.50
   3   7  -5   10.10    5.10
  -3  -7   5    7.80    4.60
  -3  -7   5    6.60    5.70
   2   7  -5   14.50    5.90
  -2  -7   5   21.50    5.30
   1   7  -5    6.30    3.80
  -1  -7   5    7.80    3.70
   0   7  -5    3.90    3.40
   0  -7   5    0.60    2.30
   0  -7   5   -0.60    2.10
  -1   7  -5    3.00    3.00
   1  -7   5    3.00    2.60
   1  -7   5   -0.30    2.20
   2  -7   5    0.80    2.20
   2  -7   5    0.60    2.30
  -3   7  -5    4.30    3.00
   3  -7   5    3.80    3.10
   3  -7   5    7.60    3.30
  -4   7  -5   12.40    4.60
  -4   7  -5   10.20    4.10
   4  -7   5   11.90    4.50
   4  -7   5    6.20    3.20
  -5   7  -5    3.60    3.40
  -5   7  -5    0.70    2.90
   5  -7   5   -0.60    2.00
   5  -7   5   -1.10    2.40
  -6   7  -5    1.00    3.20
  -6   7  -5    3.60    4.00
  -6   7  -5    4.80    3.10
   6  -7   5   -0.40    3.00
   6  -7   5    3.50    2.80
  -7   7  -5    2.40    4.40
   7  -7   5   -2.40    2.70
   7  -7   5    1.30    2.90
  -8   7  -5    2.90    5.00
  -5  -6   5   40.00    8.70
   4   6  -5    2.90    3.40
  -4  -6   5    6.10    3.90
  -4  -6   5    1.80    4.10
   3   6  -5    4.30    3.20
  -3  -6   5    8.00    3.30
  -3  -6   5    6.30    3.20
  -3  -6   5    5.10    3.40
   2   6  -5    1.60    2.80
  -2  -6   5    2.30    2.50
  -2  -6   5    9.50    3.50
  -2  -6   5    8.70    3.70
   1   6  -5    8.40    4.00
  -1  -6   5    1.80    2.00
  -1  -6   5    0.50    1.80
  -1  -6   5    2.80    2.80
   0   6  -5   69.09    9.50
   0  -6   5   64.19    8.20
   0  -6   5   60.49    7.20
  -1   6  -5    0.30    0.70
  -1   6  -5    1.20    2.60
   1  -6   5    0.40    1.70
   1  -6   5   -1.50    1.50
  -2   6  -5   27.00    3.20
  -2   6  -5   28.70    5.30
  -2   6  -5   48.80    7.90
   2  -6   5   34.60    5.60
   2  -6   5   29.10    5.50
  -3   6  -5   80.99    8.70
  -3   6  -5   27.90    5.30
   3  -6   5   45.10    6.90
   3  -6   5   33.80    5.90
  -4   6  -5   22.80    4.90
  -4   6  -5   30.80    5.80
   4  -6   5   23.00    5.00
   4  -6   5   21.90    4.70
  -5   6  -5    8.30    4.10
  -5   6  -5   13.60    4.40
  -5   6  -5   13.90    3.80
   5  -6   5   10.80    3.90
   5  -6   5   15.80    4.40
  -6   6  -5   59.99    8.50
  -6   6  -5   42.40    8.30
  -6   6  -5   41.40    7.10
   6  -6   5   41.10    6.70
   6  -6   5   53.89    8.20
  -7   6  -5    7.70    4.40
   7  -6   5   19.30    5.20
  -8   6  -5   22.30    6.90
  -6  -5   5   12.50    5.70
  -5  -5   5  138.89   14.90
  -5  -5   5  141.19   16.10
  -4  -5   5    6.40    3.60
  -4  -5   5    9.90    4.00
  -4  -5   5    8.40    3.50
   3   5  -5   20.00    2.90
   3   5  -5   21.50    5.60
  -3  -5   5   24.10    4.90
  -3  -5   5   29.70    5.90
  -3  -5   5   18.60    4.20
   2   5  -5  129.59    6.00
   2   5  -5  134.39   13.20
  -2  -5   5  141.29   10.20
  -2  -5   5  147.59    9.80
  -2  -5   5  137.29    9.70
  -2  -5   5  145.99   10.10
   1   5  -5   12.20    4.20
   1   5  -5    5.50    3.10
   1   5  -5    5.50    1.00
  -1  -5   5    7.10    2.60
  -1  -5   5    9.90    3.10
  -1  -5   5   15.00    3.80
  -1  -5   5    4.20    2.20
  -1  -5   5    8.70    2.50
   0   5  -5   68.59    3.30
   0   5  -5   69.09    8.80
   0   5  -5   65.39    8.60
   0  -5   5   69.79    7.20
   0  -5   5   75.69    6.80
   0  -5   5   76.29    7.50
   0  -5   5   69.19    7.80
  -1   5  -5    2.60    2.30
  -1   5  -5    4.90    1.20
  -1   5  -5    4.40    2.90
  -1   5  -5    6.10    2.00
   1  -5   5    6.90    2.00
   1  -5   5    6.00    2.50
   1  -5   5    5.90    2.40
  -2   5  -5   28.20    5.60
  -2   5  -5   26.40    3.10
  -2   5  -5   37.90    5.20
   2  -5   5   25.60    4.50
   2  -5   5   29.50    4.80
  -3   5  -5  142.29    9.30
  -3   5  -5  139.59    7.80
  -3   5  -5  131.09    9.10
  -3   5  -5  150.98   10.90
   3  -5   5  137.89    9.20
   3  -5   5  144.29    9.60
  -4   5  -5   57.49    6.70
  -4   5  -5   51.99    6.80
  -4   5  -5   42.20    6.60
   4  -5   5   50.29    6.70
   4  -5   5   48.40    6.70
  -5   5  -5  151.08   11.60
  -5   5  -5  141.49   10.20
  -5   5  -5  139.89    9.80
   5  -5   5  147.69   10.10
   5  -5   5  144.79    9.90
  -6   5  -5   24.80    5.30
  -6   5  -5   30.00    5.30
  -6   5  -5   27.00    6.20
   6  -5   5   25.60    5.00
   6  -5   5   25.50    5.10
  -7   5  -5   -1.40    3.40
  -8   5  -5    4.80    4.80
  -9   5  -5   41.90   10.00
  -7  -4   5   23.00    7.00
  -6  -4   5    0.40    3.60
  -6  -4   5    2.90    3.50
  -5  -4   5    0.90    2.80
  -5  -4   5    9.30    4.10
  -4  -4   5    2.30    2.20
  -4  -4   5    3.40    2.40
  -4  -4   5    4.70    2.50
   3   4  -5   27.40    3.20
   3   4  -5   35.90    6.80
  -3  -4   5   24.50    4.70
  -3  -4   5   31.80    5.60
  -3  -4   5   25.70    5.10
   2   4  -5    7.10    2.90
   2   4  -5    3.80    2.40
   2   4  -5    5.00    1.20
  -2  -4   5    2.70    2.20
  -2  -4   5    9.30    3.00
  -2  -4   5    3.20    1.50
  -2  -4   5    8.00    2.70
  -2  -4   5    0.10    1.20
   1   4  -5    0.30    1.60
   1   4  -5    0.00    0.50
   1   4  -5    0.00    1.70
  -1  -4   5   -0.30    1.20
  -1  -4   5    0.10    1.10
  -1  -4   5    0.70    1.60
  -1  -4   5   -0.90    1.20
  -1  -4   5   -0.30    1.20
   0   4  -5   51.29    6.80
   0   4  -5   52.59    3.00
   0   4  -5   47.10    2.90
   0   4  -5   40.50    6.00
   0  -4   5   53.29    5.70
   0  -4   5   52.69    5.70
   0  -4   5   57.29    6.40
   0  -4   5   53.59    5.30
   0  -4   5   52.49    4.10
  -1   4  -5   11.20    3.30
  -1   4  -5    8.00    2.80
  -1   4  -5   11.60    1.90
  -1   4  -5   10.80    2.40
  -1   4  -5    8.70    1.50
   1  -4   5   10.80    2.70
   1  -4   5   11.30    2.00
   1  -4   5   11.80    2.80
   1  -4   5    9.30    2.10
  -2   4  -5  576.84   20.40
  -2   4  -5  590.74   20.60
  -2   4  -5  630.04   24.80
  -2   4  -5  576.34   22.00
   2  -4   5  580.04   22.60
   2  -4   5  581.04   20.30
   2  -4   5  582.24   22.70
  -3   4  -5    8.30    2.90
  -3   4  -5   14.00    3.40
  -3   4  -5    9.50    2.10
   3  -4   5    8.80    2.60
   3  -4   5    9.40    2.70
  -4   4  -5   32.40    5.00
  -4   4  -5   29.40    4.20
  -4   4  -5   26.30    5.00
  -4   4  -5   24.30    4.20
   4  -4   5   29.00    4.50
   4  -4   5   30.60    4.80
  -5   4  -5    8.80    2.70
  -5   4  -5   13.70    3.60
  -5   4  -5   19.30    3.80
  -5   4  -5   12.60    3.90
   5  -4   5   12.90    3.30
   5  -4   5    8.80    2.90
  -6   4  -5  154.98   12.10
   6  -4   5  168.78   10.30
  -7   4  -5  518.15   26.40
  -8   4  -5    5.00    4.00
  -9   4  -5   44.00    9.60
  -8  -3   5   17.70    7.10
  -7  -3   5    7.80    4.40
  -7  -3   5    6.60    4.40
  -6  -3   5  192.48   14.60
  -6  -3   5  193.38   14.90
  -5  -3   5    1.20    1.80
  -5  -3   5   -2.70    1.60
  -5  -3   5    1.80    2.30
   4   3  -5   99.79   11.20
   4   3  -5   96.99    6.30
  -4  -3   5  107.29   10.70
  -4  -3   5   92.69    8.70
  -4  -3   5   98.49   10.30
  -4  -3   5   90.79   10.10
   3   3  -5   27.60    3.30
   3   3  -5   16.80    4.20
  -3  -3   5   28.80    5.10
  -3  -3   5   27.80    4.60
  -3  -3   5   26.00    5.10
   2   3  -5   12.40    1.90
   2   3  -5   10.00    3.20
  -2  -3   5   16.60    3.40
  -2  -3   5   20.00    3.10
  -2  -3   5   13.60    3.00
  -2  -3   5   15.60    3.60
  -2  -3   5   17.30    3.60
   1   3  -5  234.28   12.20
   1   3  -5  235.98    9.00
   1   3  -5  270.47   13.20
   1   3  -5  223.38    8.90
  -1  -3   5  226.28   11.20
  -1  -3   5  232.28   10.40
  -1  -3   5  243.28   11.70
  -1  -3   5  232.78   11.20
  -1  -3   5  222.18   10.60
   0   3  -5    4.50    1.00
   0   3  -5    5.00    2.10
   0   3  -5    6.30    2.40
   0   3  -5    5.80    1.20
   0  -3   5    5.80    2.00
   0  -3   5    5.80    2.00
   0  -3   5    4.90    1.60
   0  -3   5    5.20    1.60
   0  -3   5    5.00    1.40
  -1   3  -5  111.99    7.70
  -1   3  -5  116.29    6.20
  -1   3  -5  111.69    7.50
  -1   3  -5  113.19    5.60
  -1   3  -5  100.39    5.30
   1  -3   5  102.99    6.00
   1  -3   5  111.19    6.60
   1  -3   5  107.99    4.90
   1  -3   5  116.69    6.90
   1  -3   5  111.79    5.50
  -2   3  -5  546.15   19.20
  -2   3  -5  536.65   20.20
  -2   3  -5  561.34   22.40
  -2   3  -5  518.15   19.10
   2  -3   5  536.55   17.30
   2  -3   5  550.64   18.90
   2  -3   5  557.04   17.30
   2  -3   5  538.35   20.20
   2  -3   5  537.75   20.40
  -3   3  -5   80.09    6.30
  -3   3  -5   79.79    5.30
   3  -3   5   77.79    4.50
   3  -3   5   85.39    5.70
   3  -3   5   75.79    4.50
   3  -3   5   74.49    5.60
  -4   3  -5  236.98   12.70
  -4   3  -5  220.18   10.80
  -4   3  -5  247.08   11.10
  -4   3  -5  220.18   11.70
   4  -3   5  210.08   11.60
   4  -3   5  231.58   10.90
   4  -3   5  231.68   10.40
   4  -3   5  219.18   10.90
  -5   3  -5  354.86   17.60
  -5   3  -5  367.76   18.40
  -5   3  -5  368.46   15.60
  -5   3  -5  378.56   16.10
   5  -3   5  366.96   15.90
   5  -3   5  385.06   15.80
  -6   3  -5   26.20    6.20
  -7   3  -5   51.89    8.80
  -8   3  -5    5.90    4.40
  -9   3  -5   26.90    8.40
  -8  -2   5    3.60    4.40
  -7  -2   5   11.90    4.90
  -7  -2   5    3.80    3.30
  -6  -2   5  102.09   11.80
  -6  -2   5   87.89   11.00
   5   2  -5  173.78   12.80
  -5  -2   5  195.18   12.40
  -5  -2   5  166.98   10.40
  -5  -2   5  177.58   12.30
  -5  -2   5  153.28   11.90
   4   2  -5  307.17   16.20
   4   2  -5  280.17   12.50
  -4  -2   5  271.77   14.80
  -4  -2   5  267.17   13.50
  -4  -2   5  288.77   15.60
  -4  -2   5  290.47   15.30
   3   2  -5   75.09    4.90
   3   2  -5   75.29    7.90
   3   2  -5   81.19    5.00
  -3  -2   5   59.19    6.80
  -3  -2   5   78.79    7.70
  -3  -2   5   64.59    4.30
  -3  -2   5   76.99    7.20
  -3  -2   5   62.09    7.10
   2   2  -5    1.00    1.40
   2   2  -5    0.70    0.80
  -2  -2   5    1.30    1.20
  -2  -2   5   -0.10    1.10
  -2  -2   5    0.60    1.10
  -2  -2   5   -0.30    0.90
  -2  -2   5    0.80    1.00
   1   2  -5  921.81   32.40
   1   2  -5  917.81   32.90
   1   2  -5  983.20   30.10
  -1  -2   5  910.41   32.90
  -1  -2   5  971.00   32.40
  -1  -2   5  964.90   31.60
  -1  -2   5  957.10   31.90
  -1  -2   5  949.01   30.90
  -1  -2   5  922.61   31.90
   0   2  -5   68.89    5.20
   0   2  -5   65.49    3.80
   0   2  -5   67.09    5.00
   0   2  -5   68.09    3.80
   0  -2   5   71.29    3.10
   0  -2   5   65.49    4.60
   0  -2   5   61.99    4.00
   0  -2   5   70.09    5.30
   0  -2   5   64.29    3.10
   0  -2   5   77.89    4.60
   0  -2   5   62.49    4.50
   0  -2   5   63.59    4.30
  -1   2  -5   34.00    4.20
  -1   2  -5   41.80    3.80
  -1   2  -5   37.30    2.80
  -1   2  -5   39.10    2.90
   1  -2   5   36.20    3.80
   1  -2   5   35.00    3.50
   1  -2   5   33.70    4.40
   1  -2   5   33.00    2.50
   1  -2   5   31.20    3.60
   1  -2   5   34.70    2.50
  -2   2  -5    7.30    2.30
  -2   2  -5    7.80    1.70
  -2   2  -5    7.80    1.70
  -2   2  -5   12.30    2.70
   2  -2   5    9.90    1.60
   2  -2   5    5.50    1.30
   2  -2   5    8.80    1.70
   2  -2   5    7.50    1.70
   2  -2   5    8.70    2.10
  -3   2  -5  270.07   10.60
  -3   2  -5  238.78   12.10
  -3   2  -5  267.27   11.00
  -3   2  -5  249.18   10.00
   3  -2   5  256.47   10.70
   3  -2   5  250.37   10.40
   3  -2   5  257.97   10.70
   3  -2   5  260.17   11.20
   3  -2   5  242.08    9.90
  -4   2  -5  124.29    6.40
  -4   2  -5  121.79    6.80
  -4   2  -5  117.09    6.60
  -4   2  -5  141.79    7.40
  -4   2  -5  131.79    8.80
   4  -2   5  125.69    6.60
   4  -2   5  124.19    7.20
   4  -2   5  118.99    7.00
  -5   2  -5 1313.37   42.20
  -5   2  -5 1227.78   42.90
  -5   2  -5 1198.08   41.60
  -5   2  -5 1237.08   45.10
   5  -2   5 1241.38   41.00
   5  -2   5 1293.97   42.40
  -6   2  -5  982.70   38.10
   6  -2   5  917.41   34.00
  -7   2  -5    1.30    3.10
  -8   2  -5  156.98   16.10
  -9   2  -5   43.40    9.40
  -8  -1   5   -3.50    2.40
  -8  -1   5    1.10    3.30
  -7  -1   5    1.90    2.90
  -7  -1   5    9.10    4.20
  -6  -1   5   14.80    4.50
  -6  -1   5    9.70    3.40
  -6  -1   5   11.80    4.00
  -6  -1   5   10.60    3.60
   5   1  -5   25.10    3.90
   5   1  -5   32.40    5.80
  -5  -1   5   13.70    4.00
  -5  -1   5   20.70    4.00
  -5  -1   5   28.30    5.50
  -5  -1   5   20.40    4.70
   4   1  -5   47.10    6.50
   4   1  -5   52.39    5.20
  -4  -1   5   55.69    7.00
  -4  -1   5   53.19    6.90
  -4  -1   5   53.49    6.10
  -4  -1   5   50.19    6.40
   3   1  -5  493.85   17.90
   3   1  -5  477.85   19.80
  -3  -1   5  478.55   17.00
  -3  -1   5  510.15   19.30
  -3  -1   5  493.95   20.20
  -3  -1   5  489.95   16.80
  -3  -1   5  476.35   19.80
  -3  -1   5  462.65   19.60
   2   1  -5   32.80    3.20
   2   1  -5   27.40    3.00
   2   1  -5   28.90    3.90
  -2  -1   5   27.50    4.00
  -2  -1   5   32.00    3.40
  -2  -1   5   31.20    4.00
  -2  -1   5   23.60    3.50
  -2  -1   5   32.60    4.20
  -2  -1   5   30.00    3.90
   1   1  -5  917.91   29.80
   1   1  -5  907.41   28.90
   1   1  -5  940.81   30.30
  -1  -1   5  804.42   29.60
  -1  -1   5  920.11   28.50
  -1  -1   5  924.71   30.40
  -1  -1   5  890.01   30.20
  -1  -1   5  918.61   30.50
  -1  -1   5  889.51   29.90
  -1  -1   5  920.31   29.30
   0   1  -5   70.09    4.40
   0   1  -5   76.89    4.90
   0   1  -5   73.29    4.00
   0  -1   5   68.89    4.20
   0  -1   5   71.49    3.90
   0  -1   5   69.09    3.80
   0  -1   5   73.39    4.80
   0  -1   5   75.59    4.40
   0  -1   5   81.19    4.60
  -1   1  -5  102.99    5.50
  -1   1  -5  104.09    6.30
  -1   1  -5  106.99    5.10
   1  -1   5  108.49    5.20
   1  -1   5  105.99    5.20
   1  -1   5  109.39    5.20
   1  -1   5  103.89    6.20
   1  -1   5  100.19    5.60
   1  -1   5  104.69    5.20
  -2   1  -5  517.85   18.20
  -2   1  -5  527.95   19.40
  -2   1  -5  502.45   17.80
  -2   1  -5  523.05   17.90
   2  -1   5  525.35   18.10
   2  -1   5  527.45   18.20
   2  -1   5  548.85   18.90
   2  -1   5  521.55   17.30
   2  -1   5  523.95   18.20
   2  -1   5  529.25   18.40
   2  -1   5  509.45   20.20
  -3   1  -5 1980.30   62.69
  -3   1  -5 2100.09   61.79
  -3   1  -5 2012.40   60.39
  -3   1  -5 1975.90   64.29
  -3   1  -5 1963.20   62.29
   3  -1   5 2023.40   60.49
   3  -1   5 2046.90   62.39
   3  -1   5 1978.30   61.79
  -4   1  -5   20.40    4.30
  -4   1  -5   13.20    2.90
  -4   1  -5   14.00    3.00
  -4   1  -5    6.70    1.60
   4  -1   5   13.30    2.40
   4  -1   5   16.70    2.90
  -5   1  -5   16.80    4.10
  -5   1  -5   27.10    4.50
  -5   1  -5   14.70    3.50
   5  -1   5   25.40    4.00
  -6   1  -5    2.60    2.80
  -6   1  -5    0.70    1.60
  -6   1  -5    0.80    1.90
  -7   1  -5   41.90    7.70
  -7   1  -5   56.09    8.10
  -8   1  -5   30.70    7.70
  -9   1  -5    1.60    4.10
  -9   0   5    1.30    4.40
  -8   0   5   23.60    6.30
  -8   0   5   20.00    5.80
  -7   0   5    7.90    3.70
  -7   0   5    5.90    3.50
   6   0  -5    7.30    3.40
   6   0  -5    5.10    2.30
  -6   0   5    1.20    2.30
  -6   0   5    1.30    2.00
  -6   0   5    2.80    2.30
  -6   0   5    2.00    1.90
   5   0  -5  433.76   18.00
   5   0  -5  431.96   19.70
  -5   0   5  429.76   20.00
  -5   0   5  442.06   18.30
  -5   0   5  428.16   19.80
  -5   0   5  431.96   18.70
  -5   0   5  421.16   19.20
   4   0  -5    4.30    2.00
   4   0  -5    7.80    2.10
  -4   0   5    6.20    2.20
  -4   0   5   10.90    2.80
  -4   0   5    4.00    1.90
  -4   0   5    6.00    2.00
  -4   0   5    6.20    1.70
  -4   0   5    7.50    2.60
  -4   0   5    5.80    1.80
   3   0  -5    1.80    1.00
   3   0  -5    1.30    1.10
  -3   0   5    0.30    1.00
  -3   0   5    1.30    1.10
  -3   0   5    1.00    0.90
  -3   0   5    0.70    0.80
  -3   0   5    2.70    1.70
  -3   0   5    2.00    1.40
  -3   0   5    2.70    1.50
   2   0  -5  322.47   12.40
   2   0  -5  362.86   12.80
   2   0  -5  321.17   12.50
  -2   0   5  342.07   12.60
  -2   0   5  327.87   13.90
  -2   0   5  333.87   13.80
  -2   0   5  328.97   12.30
  -2   0   5  343.07   13.70
  -2   0   5  320.07   13.60
  -2   0   5  341.17   12.50
  -2   0   5  326.27   12.60
   1   0  -5   34.70    2.50
   1   0  -5   32.10    2.40
   1   0  -5   33.50    3.70
   1   0  -5   33.60    2.40
  -1   0   5   38.70    3.80
  -1   0   5   33.30    3.40
  -1   0   5   35.20    3.80
  -1   0   5   25.80    3.10
  -1   0   5   33.90    2.60
  -1   0   5   31.60    2.50
  -1   0   5   35.60    2.50
   0   0  -5  899.21   28.70
   0   0  -5  873.01   27.70
   0   0  -5  875.31   28.70
   0   0  -5  916.41   27.70
   0   0   5  881.31   28.80
   0   0   5  920.31   28.20
   0   0   5  877.01   29.50
   0   0   5  890.91   28.70
  -1   0  -5 1943.91   57.59
  -1   0  -5 1965.50   57.59
  -1   0  -5 1951.10   59.99
   1   0   5 1909.61   59.59
   1   0   5 1876.51   57.89
   1   0   5 1911.51   59.99
   1   0   5 1925.91   58.99
   1   0   5 1986.20   58.49
  -2   0  -5  421.26   16.40
  -2   0  -5  441.76   14.10
  -2   0  -5  433.16   16.80
  -2   0  -5  436.76   14.10
  -2   0  -5  435.46   17.10
   2   0   5  454.55   15.40
   2   0   5  432.16   16.40
   2   0   5  433.26   15.40
   2   0   5  433.76   15.30
  -3   0  -5   41.40    4.80
  -3   0  -5   46.70    5.20
  -3   0  -5   49.50    5.80
  -3   0  -5   41.60    2.20
   3   0   5   44.80    3.30
   3   0   5   46.40    4.40
   3   0   5   38.20    3.80
  -4   0  -5  540.75   21.50
  -4   0  -5  510.75   21.00
  -4   0  -5  540.35   22.20
   4   0   5  531.35   18.50
   4   0   5  528.65   19.70
  -5   0  -5 1452.05   50.19
  -5   0  -5 1419.76   49.20
  -5   0  -5 1376.56   48.70
   5   0   5 1418.66   47.10
  -6   0  -5    9.00    3.80
  -6   0  -5   11.60    3.90
  -6   0  -5   10.50    3.90
  -7   0  -5   41.80    7.50
  -7   0  -5   63.49    9.50
  -7   0  -5   59.09    8.80
  -8   0  -5    6.80    4.30
  -8   0  -5   17.30    5.30
  -8   0  -5    9.90    4.90
  -9   0  -5    2.50    4.50
  -9   1   5   34.60    8.40
  -8   1   5    4.90    3.60
  -8   1   5    9.00    4.00
  -7   1   5   72.29   10.30
  -7   1   5   38.10    7.00
  -7   1   5   58.49    7.80
  -7   1   5   56.09    8.50
  -6   1   5    1.30    2.10
  -6   1   5    3.60    2.70
  -6   1   5    7.00    2.80
  -6   1   5    4.50    2.50
  -6   1   5    1.10    1.80
   5  -1  -5  242.38   12.90
   5  -1  -5  256.67   12.10
  -5   1   5  262.37   13.20
  -5   1   5  259.27   13.90
  -5   1   5  257.67   11.50
  -5   1   5  239.68   12.80
  -5   1   5  254.07   11.90
  -5   1   5  249.18   13.70
  -5   1   5  277.77   13.70
   4  -1  -5    1.00    1.10
   4  -1  -5    1.50    1.20
  -4   1   5    2.80    1.60
  -4   1   5    1.30    1.20
  -4   1   5    1.90    1.20
  -4   1   5   -1.00    1.10
  -4   1   5    1.60    1.20
  -4   1   5    0.10    1.30
  -4   1   5    1.00    1.40
   3  -1  -5   99.89    5.60
   3  -1  -5  113.99    5.70
  -3   1   5  105.89    6.50
  -3   1   5  109.19    6.00
  -3   1   5  108.79    7.00
  -3   1   5  113.69    7.00
  -3   1   5   99.39    6.40
  -3   1   5  114.79    6.20
  -3   1   5  109.39    6.90
   2  -1  -5 1033.40   35.20
   2  -1  -5 1201.68   38.00
   2  -1  -5 1175.18   36.20
  -2   1   5 1223.68   37.70
  -2   1   5 1191.68   37.90
  -2   1   5 1179.58   38.50
  -2   1   5 1161.38   38.30
  -2   1   5 1219.28   38.20
  -2   1   5 1165.68   36.90
  -2   1   5 1174.68   36.80
   1  -1  -5  142.79    6.90
   1  -1  -5  139.39    4.50
   1  -1  -5  127.89    4.40
  -1   1   5  142.19    7.10
  -1   1   5  132.59    5.60
  -1   1   5  137.19    6.60
  -1   1   5  137.19    6.90
  -1   1   5  130.79    5.60
  -1   1   5  117.89    4.60
   0  -1  -5   -0.60    0.80
   0   1   5    1.00    0.80
   0   1   5    0.40    0.90
   0   1   5    0.20    0.70
   0   1   5    0.20    0.40
   0   1   5    0.70    0.40
   0   1   5    0.40    0.90
  -1  -1  -5 1184.78   39.70
  -1  -1  -5 1264.47   39.90
   1   1   5 1199.78   36.40
   1   1   5 1271.57   36.50
   1   1   5 1192.18   37.20
   1   1   5 1204.78   38.30
   1   1   5 1206.08   39.50
  -2  -1  -5 1111.09   38.00
  -2  -1  -5 1159.48   38.20
  -2  -1  -5 1104.59   37.70
   2   1   5 1137.69   34.60
   2   1   5 1147.89   35.70
   2   1   5 1107.09   37.60
  -3  -1  -5  115.39    7.80
  -3  -1  -5  119.19    7.80
  -3  -1  -5  114.89    7.70
   3   1   5  116.29    5.70
   3   1   5  105.89    5.50
   3   1   5  100.59    5.30
  -4  -1  -5  488.15   21.60
  -4  -1  -5  499.05   21.50
   4   1   5  533.05   19.00
  -5  -1  -5    3.30    2.30
  -5  -1  -5    7.00    3.10
  -5  -1  -5   11.60    3.70
  -6  -1  -5  352.96   19.30
  -6  -1  -5  385.36   19.80
  -6  -1  -5  389.76   20.20
  -7  -1  -5  115.19   12.80
  -7  -1  -5   90.79   11.50
  -7  -1  -5   91.69   11.90
  -8  -1  -5    6.60    4.40
  -8  -1  -5    8.00    4.50
  -8  -1  -5    4.60    3.80
  -8   2   5    2.10    3.60
  -8   2   5   -1.80    2.40
  -7   2   5   39.00    6.50
  -7   2   5   35.20    6.20
  -7   2   5   45.40    7.90
  -7   2   5   35.70    6.40
  -6   2   5    4.70    2.50
  -6   2   5    3.30    2.40
  -6   2   5    9.70    3.20
  -6   2   5    3.00    2.90
  -6   2   5    5.20    2.10
  -5   2   5   97.89    9.20
  -5   2   5   86.49    8.50
  -5   2   5   88.39    8.80
  -5   2   5   94.49    6.70
  -5   2   5  101.79    6.90
  -5   2   5   98.39    7.80
  -4   2   5   34.90    4.80
  -4   2   5   33.00    4.60
  -4   2   5   35.20    5.10
  -4   2   5   31.70    3.90
  -4   2   5   32.40    4.70
  -4   2   5   29.50    3.90
   3  -2  -5   14.50    1.60
   3  -2  -5   15.70    1.70
  -3   2   5    9.30    2.50
  -3   2   5   11.30    2.90
  -3   2   5   13.40    2.10
  -3   2   5   14.20    2.30
  -3   2   5   11.70    2.30
  -3   2   5   15.10    3.00
   2  -2  -5  438.86   17.60
  -2   2   5  450.55   17.60
  -2   2   5  474.45   15.60
  -2   2   5  441.96   17.40
  -2   2   5  466.15   16.90
  -2   2   5  425.46   17.50
  -2   2   5  435.36   15.40
   1  -2  -5   20.10    3.30
  -1   2   5   15.30    1.00
  -1   2   5   20.60    3.00
  -1   2   5   15.80    1.30
  -1   2   5   17.50    1.10
  -1   2   5   18.20    2.70
  -1   2   5   19.30    3.20
   0  -2  -5  169.58    8.70
   0   2   5  158.88    8.50
   0   2   5  171.88    7.80
  -1  -2  -5  728.43   26.90
  -1  -2  -5  736.33   26.70
  -1  -2  -5  774.52   27.00
   1   2   5  721.83   26.60
   1   2   5  747.43   25.00
   1   2   5  746.33   24.20
  -2  -2  -5    3.70    1.90
  -2  -2  -5   10.60    2.80
  -2  -2  -5    9.80    2.70
   2   2   5   12.40    2.90
   2   2   5   14.10    2.30
   2   2   5   10.50    1.50
  -3  -2  -5    1.00    1.40
  -3  -2  -5    2.70    1.90
  -3  -2  -5    0.10    1.20
  -4  -2  -5  165.08   10.60
  -4  -2  -5  162.78   10.80
  -4  -2  -5  166.78   11.00
   4   2   5  147.79    7.50
  -5  -2  -5    8.20    3.50
  -5  -2  -5    6.50    3.40
  -5  -2  -5   14.50    4.40
  -6  -2  -5    9.30    4.10
  -6  -2  -5    5.60    3.30
  -6  -2  -5    2.80    3.30
  -7  -2  -5   19.90    6.00
  -7  -2  -5   16.50    5.40
  -7  -2  -5   17.90    6.00
  -8  -2  -5   -0.10    3.90
  -9   3   5    5.70    5.40
  -8   3   5    5.50    3.40
  -8   3   5    3.10    3.60
  -7   3   5    1.90    2.10
  -7   3   5    2.80    3.10
  -7   3   5    3.50    3.20
  -6   3   5   47.30    7.10
  -6   3   5   48.70    7.50
  -6   3   5   59.39    7.80
  -6   3   5   61.19    8.20
  -5   3   5    6.30    2.20
  -5   3   5    6.80    2.50
  -5   3   5   -1.50    1.20
  -5   3   5    6.10    2.70
  -5   3   5    6.00    2.40
  -4   3   5   91.59    8.70
  -4   3   5   86.69    6.40
  -4   3   5   79.19    5.40
  -4   3   5   94.39    6.00
  -4   3   5   82.79    6.50
  -4   3   5   99.19    9.40
  -3   3   5    5.00    1.50
  -3   3   5    4.10    2.10
  -3   3   5    2.80    1.70
  -3   3   5    5.80    1.50
  -3   3   5    4.20    2.00
  -3   3   5    4.10    1.40
   2  -3  -5  156.08    9.10
  -2   3   5  146.89    8.60
  -2   3   5  147.49    5.90
  -2   3   5  151.68    7.70
  -2   3   5  152.88    5.80
  -2   3   5  146.29    8.20
  -2   3   5  127.79    8.50
   1  -3  -5   54.49    6.10
   1  -3  -5   57.79    5.60
  -1   3   5   52.29    3.50
  -1   3   5   53.69    5.50
  -1   3   5   48.70    5.20
  -1   3   5   49.70    4.90
   0  -3  -5   64.89    5.90
   0  -3  -5   80.99    7.60
   0   3   5   65.19    4.80
   0   3   5   60.39    6.20
   0   3   5   76.49    5.10
  -1  -3  -5  338.57   13.40
  -1  -3  -5  346.97   15.60
  -1  -3  -5  353.16   15.90
   1   3   5  351.96   13.50
   1   3   5  371.46   15.80
   1   3   5  323.87   15.20
  -2  -3  -5  255.17   12.90
  -2  -3  -5  230.08   12.60
  -2  -3  -5  238.78   13.00
   2   3   5  251.37   10.60
   2   3   5  231.18   12.60
   2   3   5  250.07   10.60
  -3  -3  -5  199.98   11.70
  -3  -3  -5  181.98   12.10
  -3  -3  -5  211.78   12.30
  -4  -3  -5  121.59   11.90
  -4  -3  -5  116.59    9.40
  -4  -3  -5  143.49   10.90
   4   3   5  134.89    6.20
  -5  -3  -5   97.79   11.60
  -5  -3  -5  114.39   12.70
  -5  -3  -5  127.39   12.10
  -6  -3  -5   58.59    8.90
  -6  -3  -5   56.89    9.60
  -6  -3  -5   66.69   10.20
  -7  -3  -5    0.30    3.10
  -9   4   5   15.90    6.50
  -8   4   5    9.20    5.20
  -8   4   5    1.40    3.00
  -7   4   5    0.20    2.80
  -7   4   5   -2.70    2.40
  -6   4   5  220.68   14.00
  -6   4   5  176.98   12.40
  -6   4   5  204.88   13.20
  -5   4   5   26.50    5.40
  -5   4   5   20.70    4.20
  -5   4   5   24.30    5.30
  -4   4   5    0.80    1.00
  -4   4   5    0.20    1.60
  -4   4   5    2.80    1.70
  -4   4   5   -0.80    1.80
   3  -4  -5  165.28   10.50
   3  -4  -5  166.58   10.30
  -3   4   5  163.98    7.40
  -3   4   5  161.68    8.10
  -3   4   5  163.48   10.30
  -3   4   5  154.88    9.10
  -3   4   5  173.08   10.70
   2  -4  -5    5.50    2.50
   2  -4  -5    2.90    2.00
  -2   4   5    4.50    2.10
  -2   4   5    3.00    1.50
  -2   4   5    6.60    2.30
  -2   4   5    6.20    2.40
   1  -4  -5  185.88   10.00
   1  -4  -5  155.68   10.00
  -1   4   5  171.38   10.40
  -1   4   5  178.58    8.70
  -1   4   5  181.28    8.90
  -1   4   5  178.78    9.80
  -1   4   5  183.48   10.00
   0  -4  -5   -0.30    1.20
   0  -4  -5    4.80    1.90
   0   4   5    7.10    2.40
   0   4   5    5.20    2.10
   0   4   5    2.90    1.90
   0   4   5    3.60    1.90
  -1  -4  -5   71.59    5.30
  -1  -4  -5   66.49    7.30
  -1  -4  -5   61.39    7.20
  -1  -4  -5   54.79    6.90
   1   4   5   67.39    6.20
   1   4   5   76.59    8.10
   1   4   5   66.59    7.50
  -2  -4  -5  185.18   11.60
  -2  -4  -5  177.88   11.60
  -2  -4  -5  168.18   10.90
   2   4   5  194.48   11.80
   2   4   5  206.08   12.60
  -3  -4  -5    0.30    2.00
  -3  -4  -5    2.10    2.30
  -3  -4  -5    1.20    2.20
   3   4   5    1.10    2.30
  -4  -4  -5   -0.60    1.90
  -4  -4  -5    2.50    3.40
  -4  -4  -5   -1.10    1.80
  -5  -4  -5   67.19    9.20
  -5  -4  -5   78.39   11.20
  -5  -4  -5   80.79   11.30
  -6  -4  -5   46.50    9.40
  -6  -4  -5   41.00    9.20
  -7  -4  -5    0.10    3.90
  -8   5   5    3.90    4.20
  -8   5   5    1.10    3.60
  -7   5   5    6.50    3.90
  -7   5   5    4.10    3.70
  -7   5   5    2.80    3.10
  -6   5   5   95.09   11.50
  -6   5   5   86.19   10.30
  -6   5   5   80.39    9.50
  -5   5   5   36.40    6.90
  -5   5   5   49.10    7.60
  -4   5   5   25.60    5.30
  -4   5   5   22.70    5.20
   3  -5  -5  477.85   22.10
  -3   5   5  519.45   20.60
  -3   5   5  501.15   22.70
  -3   5   5  501.95   17.20
  -3   5   5  521.55   22.40
   2  -5  -5  148.49    9.80
   2  -5  -5  127.29    9.60
  -2   5   5  140.19    9.50
  -2   5   5  141.69    9.90
  -2   5   5  139.09    8.90
   1  -5  -5    0.70    1.60
   1  -5  -5    0.30    1.40
  -1   5   5    0.10    1.60
  -1   5   5   -1.70    1.10
  -1   5   5    0.50    1.70
   0  -5  -5    0.50    2.10
   0  -5  -5   -0.90    1.20
   0   5   5    1.60    1.70
   0   5   5    0.90    1.70
   0   5   5    1.80    1.80
   0   5   5   -0.80    1.30
  -1  -5  -5    4.70    2.20
  -1  -5  -5   10.10    3.50
  -1  -5  -5    6.50    3.00
  -1  -5  -5    1.10    1.80
   1   5   5    8.00    3.20
   1   5   5    5.00    2.30
   1   5   5    4.90    2.70
  -2  -5  -5    3.20    2.70
  -2  -5  -5    2.50    2.30
  -2  -5  -5    2.40    2.50
   2   5   5    0.40    2.20
   2   5   5    1.30    2.20
  -3  -5  -5    2.10    2.60
  -3  -5  -5    5.20    3.10
  -3  -5  -5    0.00    2.40
   3   5   5    2.30    2.50
  -4  -5  -5    0.60    2.40
  -4  -5  -5   -2.20    1.70
  -5  -5  -5    8.00    5.00
  -5  -5  -5    9.80    4.70
  -6  -5  -5   14.20    6.00
  -8   6   5    4.90    4.80
  -8   6   5    2.70    3.90
  -7   6   5    2.80    3.40
  -7   6   5    1.60    3.00
  -7   6   5    2.10    3.50
  -6   6   5    5.00    3.70
  -6   6   5    5.40    3.60
  -6   6   5    2.40    2.70
  -5   6   5    5.40    3.70
  -5   6   5    7.00    3.70
  -5   6   5    3.90    2.30
   4  -6  -5   23.10    5.50
  -4   6   5   12.50    4.50
  -4   6   5    8.50    3.70
   3  -6  -5    0.50    1.60
   3  -6  -5    0.60    2.40
  -3   6   5   -1.40    1.90
  -3   6   5    3.20    2.50
   2  -6  -5   41.60    6.80
   2  -6  -5   43.90    6.80
  -2   6   5   42.80    6.70
  -2   6   5   40.80    6.80
   1  -6  -5   26.60    5.10
   1  -6  -5   20.30    4.80
  -1   6   5   19.60    4.30
  -1   6   5   20.10    4.40
  -1   6   5   28.20    6.00
   0  -6  -5    0.40    1.80
   0  -6  -5    0.30    1.90
   0   6   5    4.10    2.80
   0   6   5    4.00    2.20
   0   6   5    2.00    2.40
  -1  -6  -5   77.59    9.70
  -1  -6  -5   72.09    9.20
  -1  -6  -5   82.59    9.70
   1   6   5   78.09    9.50
  -2  -6  -5   17.80    4.80
  -2  -6  -5   25.10    6.10
  -2  -6  -5   27.30    6.20
   2   6   5   23.90    5.60
  -3  -6  -5   -3.00    1.80
  -3  -6  -5   -2.20    2.60
   3   6   5    1.50    3.30
  -4  -6  -5   15.50    5.80
  -4  -6  -5   27.20    7.10
   4   6   5    7.90    4.30
  -5  -6  -5   10.20    5.80
   5   6   5   15.20    5.80
  -7   7   5   35.90    8.20
  -7   7   5   28.70    6.40
  -7   7   5   34.20    8.20
  -6   7   5   73.89   11.30
  -6   7   5   32.10    6.00
  -6   7   5   38.70    8.40
  -5   7   5   18.70    6.00
  -5   7   5   11.10    4.60
  -5   7   5   10.30    3.60
   4  -7  -5  142.29   14.30
  -4   7   5  131.49   14.00
  -4   7   5  141.19    9.60
  -4   7   5  173.38   12.90
   3  -7  -5   80.09   10.50
  -3   7   5   84.79   10.60
  -3   7   5   66.29    9.80
   2  -7  -5    2.20    2.70
   2  -7  -5    4.90    3.00
  -2   7   5    8.10    3.60
  -2   7   5    3.90    3.10
   1  -7  -5    1.90    2.30
   1  -7  -5    0.80    2.30
  -1   7   5    1.10    2.30
  -1   7   5    0.90    2.10
   0  -7  -5    1.00    2.90
   0   7   5    1.70    2.20
   0   7   5    0.00    2.40
  -1  -7  -5   26.20    6.30
  -1  -7  -5   18.40    5.30
   1   7   5   31.70    6.40
   1   7   5   21.10    5.50
  -2  -7  -5   10.20    5.00
  -2  -7  -5    1.50    3.70
   2   7   5    8.10    4.50
  -3  -7  -5    1.10    4.00
  -3  -7  -5    4.50    4.50
   3   7   5    1.90    3.30
  -4  -7  -5    0.80    3.90
   4   7   5   11.40    5.50
  -6   8   5   22.00    6.80
  -6   8   5   10.10    5.30
  -6   8   5   12.30    4.50
   5  -8  -5    1.40    4.00
  -5   8   5    5.50    3.00
  -5   8   5   -1.40    2.80
  -5   8   5    3.80    4.00
   4  -8  -5   12.30    4.70
  -4   8   5    6.90    4.30
  -4   8   5    1.30    3.20
  -4   8   5    3.30    2.50
   3  -8  -5    2.40    3.40
  -3   8   5    1.10    2.70
  -3   8   5    1.80    3.20
  -3   8   5   -0.50    1.30
   2  -8  -5    4.90    3.60
  -2   8   5    3.30    3.50
  -2   8   5    9.30    4.10
  -2   8   5   -1.50    1.10
   1  -8  -5   -1.70    2.70
   1  -8  -5   -1.80    3.10
  -1   8   5    4.90    4.00
  -1   8   5    0.80    2.40
  -1   8   5    1.10    1.30
   0   8   5    0.50    3.20
  -4   9   5   -2.20    2.70
   3  -9  -5    6.20    5.40
  -3   9   5    1.20    1.80
  -3   9   5   -0.20    3.70
  -3   9   5    5.00    4.70
   2  -9  -5   -1.00    3.20
  -2   9   5    0.50    1.50
  -2   9   5   -2.90    2.90
  -2   9   5    3.10    3.90
  -1   9   5    3.60    1.50
   1   9  -6    6.20    4.70
  -1  -9   6    0.20    4.60
   0   9  -6   -1.00    3.30
   0  -9   6   -0.50    3.60
  -1   9  -6   -0.20    3.40
  -1   9  -6    1.20    4.10
   1  -9   6    4.40    4.40
   1  -9   6    3.00    3.70
  -2   9  -6   -1.70    3.40
   2  -9   6   -0.20    2.70
   2  -9   6   -2.10    3.30
  -3   9  -6   -1.40    2.70
   3  -9   6    3.20    4.10
   3  -9   6    1.50    3.10
  -4   9  -6    6.90    4.40
   4  -9   6    0.40    2.90
   4  -9   6    6.90    5.10
  -5   9  -6   13.00    6.00
   5  -9   6   13.70    6.20
   5  -9   6    0.10    2.90
   3   8  -6    4.70    5.10
   2   8  -6    3.30    3.90
  -2  -8   6   -0.70    3.40
   1   8  -6    5.40    4.70
  -1  -8   6    2.20    3.70
   0   8  -6   12.40    5.30
   0  -8   6    7.00    3.40
   0  -8   6    4.30    4.00
  -1   8  -6    0.60    3.30
   1  -8   6   -1.10    2.20
   1  -8   6    3.10    4.00
  -2   8  -6    1.20    3.00
   2  -8   6   -0.60    3.00
   2  -8   6    1.00    2.50
  -3   8  -6    8.70    4.10
   3  -8   6    5.10    3.70
   3  -8   6    1.80    3.20
  -4   8  -6   -1.70    2.10
   4  -8   6    2.80    3.00
   4  -8   6    1.60    3.00
  -5   8  -6    3.50    4.50
  -5   8  -6    6.40    4.20
   5  -8   6   -2.00    1.60
   5  -8   6    2.40    3.40
  -6   8  -6    0.60    3.60
  -6   8  -6    2.20    3.90
   6  -8   6    3.00    4.00
   6  -8   6    1.40    3.90
  -7   8  -6   -0.60    4.70
   7  -8   6    1.90    3.80
   7  -8   6    4.70    4.00
   4   7  -6   48.50   10.40
  -4  -7   6   31.90    9.50
   3   7  -6   -1.60    2.80
  -3  -7   6   -0.10    3.40
   2   7  -6    3.00    3.50
  -2  -7   6    3.80    3.40
   1   7  -6   10.50    4.70
  -1  -7   6    6.00    3.40
   0   7  -6   -1.00    2.20
   0  -7   6   -0.60    2.30
   0  -7   6    1.60    2.40
  -1   7  -6    2.10    2.80
   1  -7   6   16.60    4.80
   1  -7   6    0.00    2.10
   2  -7   6    0.60    2.10
   2  -7   6   -0.40    2.20
  -3   7  -6   22.50    5.40
   3  -7   6   23.10    5.20
   3  -7   6   21.30    5.60
  -4   7  -6   33.00    6.70
  -4   7  -6   30.60    6.30
   4  -7   6   30.50    6.40
   4  -7   6   29.00    5.90
  -5   7  -6    0.30    3.00
  -5   7  -6    1.20    2.80
   5  -7   6   -0.90    2.10
   5  -7   6    1.00    2.80
  -6   7  -6   30.20    6.50
  -6   7  -6   14.60    5.90
   6  -7   6   19.60    5.70
   6  -7   6   31.00    6.30
  -7   7  -6    6.50    4.90
   7  -7   6    3.20    3.60
  -8   7  -6   -0.30    4.00
   5   6  -6    9.90    5.20
  -5  -6   6   18.20    6.30
   4   6  -6   -1.00    2.80
  -4  -6   6   -0.80    2.60
  -4  -6   6    3.60    3.50
   3   6  -6    9.30    4.50
  -3  -6   6   12.30    4.30
  -3  -6   6    8.70    4.30
  -3  -6   6    9.20    3.70
   2   6  -6   19.40    5.70
  -2  -6   6   32.80    6.20
  -2  -6   6   21.00    4.80
   1   6  -6   14.00    4.90
  -1  -6   6    6.50    2.80
  -1  -6   6   16.10    4.60
   0   6  -6   11.50    4.50
   0   6  -6   10.90    1.90
   0  -6   6    8.60    3.60
   0  -6   6   11.60    3.30
   0  -6   6   12.60    3.60
  -1   6  -6   20.40    5.20
  -1   6  -6   12.50    2.20
   1  -6   6   23.10    4.90
   1  -6   6   14.10    3.70
  -2   6  -6    0.70    1.10
   2  -6   6    0.40    1.90
   2  -6   6   -0.90    1.20
  -3   6  -6    0.50    2.10
   3  -6   6    6.60    3.20
   3  -6   6    2.20    2.50
  -4   6  -6   84.29   10.00
  -4   6  -6   63.99    8.40
   4  -6   6   64.89    8.60
   4  -6   6   65.79    8.50
  -5   6  -6    5.00    3.80
  -5   6  -6    4.30    3.10
   5  -6   6    4.10    2.60
   5  -6   6    1.20    2.40
  -6   6  -6   86.99    9.70
  -6   6  -6   93.49   12.00
   6  -6   6  106.99   11.50
   6  -6   6   92.49   10.20
   7  -6   6  293.97   17.00
  -6  -5   6    0.30    4.10
  -5  -5   6   18.00    5.60
  -5  -5   6   13.70    5.30
  -4  -5   6    0.40    2.10
  -4  -5   6    2.10    2.60
  -4  -5   6    6.70    3.90
   3   5  -6   17.40    4.90
  -3  -5   6   15.40    4.20
  -3  -5   6   11.50    3.90
  -3  -5   6   13.70    4.10
  -3  -5   6   16.20    4.50
   2   5  -6  109.19    6.00
   2   5  -6  104.59   11.60
  -2  -5   6  115.19    8.80
  -2  -5   6  129.69   10.00
  -2  -5   6  103.99    9.90
  -2  -5   6  106.89   10.50
  -2  -5   6  139.69    9.60
   1   5  -6   19.50    4.90
   1   5  -6   15.70    2.20
   1   5  -6   17.10    4.80
  -1  -5   6   21.50    4.50
  -1  -5   6   24.10    4.40
  -1  -5   6   24.50    4.50
  -1  -5   6    6.10    2.60
  -1  -5   6   11.60    3.10
   0   5  -6    8.20    1.60
   0   5  -6    7.40    3.60
   0   5  -6   11.90    4.00
   0  -5   6    8.30    2.70
   0  -5   6    8.60    2.50
   0  -5   6   12.10    3.40
   0  -5   6    9.90    2.40
  -1   5  -6   11.30    3.80
  -1   5  -6   13.00    2.10
  -1   5  -6    8.40    3.30
   1  -5   6    9.00    3.00
   1  -5   6   13.00    2.90
   1  -5   6   13.40    3.30
  -2   5  -6    6.50    1.80
  -2   5  -6    4.30    2.50
  -2   5  -6   11.80    3.20
   2  -5   6    5.40    2.50
   2  -5   6    7.80    2.70
  -3   5  -6   -0.60    1.10
  -3   5  -6   -2.10    1.70
  -3   5  -6    1.40    2.10
   3  -5   6    0.90    1.50
   3  -5   6   -0.30    1.60
  -4   5  -6  169.58   11.00
  -4   5  -6  136.69    9.80
   4  -5   6  142.09   10.00
   4  -5   6  150.98   10.00
  -5   5  -6   -0.90    1.50
  -5   5  -6    4.40    3.00
   5  -5   6    1.00    2.00
   5  -5   6    3.60    2.30
  -6   5  -6    3.80    3.50
   6  -5   6    2.20    2.20
  -7   5  -6   -0.20    3.30
  -8   5  -6   -1.20    3.50
  -9   5  -6   11.80    6.00
  -7  -4   6   -0.20    3.90
  -6  -4   6   22.10    6.30
  -6  -4   6   16.10    5.60
  -5  -4   6   46.90    8.20
  -5  -4   6   55.69    9.00
  -4  -4   6  112.59   11.70
  -4  -4   6  116.19   10.80
  -4  -4   6  138.09   13.40
   3   4  -6   25.90    3.60
  -3  -4   6   22.90    4.50
  -3  -4   6   18.00    4.60
  -3  -4   6   25.80    5.20
  -3  -4   6   24.30    5.20
   2   4  -6   25.10    3.00
   2   4  -6   27.30    5.80
   2   4  -6   40.90    6.70
  -2  -4   6   26.50    4.70
  -2  -4   6   24.40    4.60
  -2  -4   6   18.40    4.00
  -2  -4   6   33.10    4.40
   1   4  -6    4.00    1.20
   1   4  -6   -1.60    1.50
   1   4  -6    1.20    1.70
  -1  -4   6    2.60    1.60
  -1  -4   6    4.10    2.00
  -1  -4   6    2.70    1.90
  -1  -4   6    1.60    1.60
  -1  -4   6    1.40    1.40
   0   4  -6   42.00    6.30
   0   4  -6   32.40    5.50
   0   4  -6   35.10    3.20
   0  -4   6   41.10    5.20
   0  -4   6   40.20    4.60
   0  -4   6   40.00    5.50
   0  -4   6   40.50    4.30
   0  -4   6   37.10    4.90
  -1   4  -6   57.49    3.90
  -1   4  -6   55.99    7.10
  -1   4  -6   50.49    6.90
  -1   4  -6   47.90    4.30
  -1   4  -6   58.39    4.30
   1  -4   6   56.69    4.00
   1  -4   6   64.19    6.70
   1  -4   6   44.60    4.70
   1  -4   6   45.80    5.90
  -2   4  -6  230.28   10.90
  -2   4  -6  202.78    9.70
  -2   4  -6  233.28   13.20
  -2   4  -6  219.98    9.90
   2  -4   6  224.38   11.40
   2  -4   6  211.68   11.20
   2  -4   6  206.08    9.70
  -3   4  -6  263.17   14.60
  -3   4  -6  239.38   12.60
  -3   4  -6  241.28   11.20
   3  -4   6  245.28   12.40
   3  -4   6  239.38   12.20
  -4   4  -6  122.99    7.70
  -4   4  -6  114.29    8.80
  -4   4  -6  116.89    7.90
   4  -4   6  116.79    8.00
   4  -4   6  108.39    7.80
  -5   4  -6   92.59    8.60
  -5   4  -6   91.79    7.20
  -5   4  -6   92.99   10.40
   5  -4   6  105.29    7.60
   5  -4   6   84.59    8.00
  -6   4  -6  885.61   36.40
   6  -4   6  854.11   32.50
  -8   4  -6    4.00    4.30
  -9   4  -6   14.30    6.70
  -8  -3   6   21.90    7.20
  -7  -3   6    7.30    5.50
  -7  -3   6    7.00    4.50
  -6  -3   6   27.70    6.70
  -6  -3   6   60.89    9.60
  -5  -3   6   43.80    7.30
  -5  -3   6   53.89    8.30
  -5  -3   6   46.50    7.80
  -5  -3   6   48.90    6.90
   4   3  -6   72.79    9.40
  -4  -3   6   88.89    9.90
  -4  -3   6   80.49    9.30
  -4  -3   6   86.09    8.70
  -4  -3   6   98.09   10.30
   3   3  -6  162.18   11.50
   3   3  -6  158.98    8.40
  -3  -3   6  176.08   11.30
  -3  -3   6  177.48   11.40
  -3  -3   6  190.98   10.70
   2   3  -6  446.56   20.10
   2   3  -6  449.26   16.80
   2   3  -6  468.65   21.10
  -2  -3   6  508.65   20.40
  -2  -3   6  446.66   19.20
  -2  -3   6  499.65   19.50
  -2  -3   6  441.66   19.70
  -2  -3   6  461.35   17.60
   1   3  -6   88.79    5.00
   1   3  -6   96.99    5.20
   1   3  -6  113.69    8.10
   1   3  -6   81.59    6.70
  -1  -3   6   94.79    6.60
  -1  -3   6   90.49    6.50
  -1  -3   6   98.79    6.30
  -1  -3   6   85.89    5.70
  -1  -3   6   83.39    6.40
   0   3  -6  530.15   18.30
   0   3  -6  522.85   21.60
   0   3  -6  536.75   18.20
   0   3  -6  518.75   21.20
   0  -3   6  524.05   18.80
   0  -3   6  520.25   20.10
   0  -3   6  532.85   19.50
   0  -3   6  523.15   20.30
   0  -3   6  510.05   19.60
  -1   3  -6   31.10    4.70
  -1   3  -6   31.10    3.30
  -1   3  -6   31.40    4.70
  -1   3  -6   39.20    3.70
  -1   3  -6   36.50    3.90
   1  -3   6   28.90    3.20
   1  -3   6   27.80    3.80
   1  -3   6   34.30    3.10
   1  -3   6   31.20    3.70
   1  -3   6   25.10    3.70
  -2   3  -6  218.58    9.90
  -2   3  -6  213.08   10.40
  -2   3  -6  208.18    9.70
  -2   3  -6  214.88   12.10
   2  -3   6  235.78   10.80
   2  -3   6  219.28   10.70
   2  -3   6  216.88    9.80
   2  -3   6  226.98    8.60
  -3   3  -6 1047.80   35.30
  -3   3  -6 1083.39   37.10
   3  -3   6 1054.49   34.20
   3  -3   6 1048.20   35.50
   3  -3   6 1035.00   34.50
   3  -3   6 1070.59   36.30
  -4   3  -6  118.39    7.20
  -4   3  -6  122.19    8.90
  -4   3  -6  126.39    7.50
   4  -3   6  109.29    7.40
   4  -3   6  123.99    7.30
   4  -3   6  105.39    7.20
  -5   3  -6  496.55   19.90
  -5   3  -6  486.65   22.70
   5  -3   6  482.65   19.70
  -6   3  -6   86.49   10.40
  -7   3  -6    7.60    4.60
  -8   3  -6  118.89   14.60
  -9   3  -6   35.60    8.90
  -8  -2   6    6.00    4.60
  -7  -2   6   -1.10    2.30
  -7  -2   6   -0.40    2.50
  -6  -2   6    1.30    2.40
  -6  -2   6    1.30    2.40
  -6  -2   6    2.70    2.60
  -6  -2   6    2.10    2.50
   5   2  -6    7.60    3.80
  -5  -2   6   20.70    4.40
  -5  -2   6   17.20    4.60
  -5  -2   6   16.70    4.80
  -5  -2   6   16.40    4.40
   4   2  -6   -0.60    1.20
   4   2  -6    0.70    2.00
  -4  -2   6    0.40    1.40
  -4  -2   6    0.00    1.60
  -4  -2   6    0.90    1.70
  -4  -2   6    2.40    2.20
   3   2  -6   86.99    5.60
   3   2  -6   73.69    8.00
  -3  -2   6   94.69    7.30
  -3  -2   6  103.39    7.50
  -3  -2   6   79.29    8.20
  -3  -2   6   85.29    6.60
  -3  -2   6   84.89    5.30
   2   2  -6    2.60    1.10
   2   2  -6    3.60    2.00
  -2  -2   6    1.70    1.50
  -2  -2   6    1.80    0.50
  -2  -2   6    5.80    2.20
  -2  -2   6    3.10    1.40
  -2  -2   6    3.40    1.80
  -2  -2   6    1.00    1.10
  -2  -2   6    1.50    0.50
   1   2  -6  213.28    8.60
   1   2  -6  199.18   10.10
   1   2  -6  188.68   10.20
  -1  -2   6  200.18    9.80
  -1  -2   6  193.18    7.30
  -1  -2   6  192.18    9.40
  -1  -2   6  210.88   10.30
  -1  -2   6  190.38    9.70
  -1  -2   6  193.48    7.20
  -1  -2   6  189.18    8.90
   0   2  -6  459.55   16.60
   0   2  -6  482.45   18.40
   0   2  -6  462.65   18.80
   0  -2   6  474.05   17.60
   0  -2   6  455.45   18.00
   0  -2   6  446.36   20.40
   0  -2   6  477.35   18.00
   0  -2   6  494.75   17.20
   0  -2   6  492.15   17.80
   0  -2   6  483.45   15.90
   0  -2   6  480.35   15.90
  -1   2  -6   57.39    3.90
  -1   2  -6   49.50    3.70
  -1   2  -6   59.19    4.00
  -1   2  -6   61.29    6.20
   1  -2   6   52.49    3.50
   1  -2   6   55.99    3.70
   1  -2   6   55.39    4.20
   1  -2   6   54.99    5.10
   1  -2   6   63.49    5.70
  -2   2  -6 1831.62   56.29
  -2   2  -6 1794.02   57.49
   2  -2   6 1843.52   56.99
   2  -2   6 1775.82   56.29
   2  -2   6 1792.32   55.29
   2  -2   6 1884.81   56.09
   2  -2   6 1741.03   56.49
  -3   2  -6  191.48    8.60
  -3   2  -6  192.78    9.20
  -3   2  -6  201.88   10.70
   3  -2   6  201.68    8.60
   3  -2   6  203.88    9.20
   3  -2   6  190.28    9.40
   3  -2   6  197.28    8.80
   3  -2   6  190.68    9.20
  -4   2  -6   61.89    5.70
  -4   2  -6   65.29    4.50
  -4   2  -6   72.89    5.20
  -4   2  -6   69.89    7.80
   4  -2   6   65.59    4.90
   4  -2   6   62.09    4.40
   4  -2   6   71.39    6.40
   4  -2   6   61.39    5.80
  -5   2  -6  138.39   10.30
  -5   2  -6  139.69    8.30
  -5   2  -6  139.59    8.50
   5  -2   6  134.59    7.90
   5  -2   6  143.09    8.60
  -6   2  -6  354.66   19.10
   6  -2   6  334.67   16.20
  -7   2  -6   -1.70    2.80
  -8   2  -6   19.30    6.20
  -9   2  -6    4.70    5.60
  -8  -1   6   94.19   12.80
  -8  -1   6   59.19   10.20
  -7  -1   6   22.80    6.00
  -7  -1   6    4.10    3.30
  -6  -1   6  191.18   12.90
  -6  -1   6  171.08   11.50
  -6  -1   6  184.58   13.20
  -6  -1   6  182.08   13.30
   5   1  -6   76.79    8.70
   5   1  -6   67.69    6.80
  -5  -1   6   66.89    8.40
  -5  -1   6   79.39    8.40
  -5  -1   6   67.49    8.00
  -5  -1   6   53.89    7.60
   4   1  -6  149.69    8.40
   4   1  -6  153.78   10.00
  -4  -1   6  144.19    9.80
  -4  -1   6  137.59    9.00
  -4  -1   6  145.09    9.80
  -4  -1   6  145.39   10.00
   3   1  -6   31.30    4.50
   3   1  -6   25.10    3.40
  -3  -1   6   27.80    4.30
  -3  -1   6   31.20    4.70
  -3  -1   6   33.20    3.30
  -3  -1   6   32.90    4.90
  -3  -1   6   28.80    4.60
  -3  -1   6   27.10    3.40
   2   1  -6  142.99    6.80
   2   1  -6  138.69    7.80
   2   1  -6  125.09    6.60
  -2  -1   6  127.19    7.80
  -2  -1   6  129.99    7.90
  -2  -1   6  120.89    7.50
  -2  -1   6  125.69    6.70
  -2  -1   6  133.99    7.70
  -2  -1   6  140.49    7.80
   1   1  -6  221.28    9.10
   1   1  -6  227.58    9.70
   1   1  -6  223.28    9.20
   1   1  -6  237.48   10.30
  -1  -1   6  225.18   10.60
  -1  -1   6  204.08   10.00
  -1  -1   6  241.68   10.40
  -1  -1   6  234.38   10.60
  -1  -1   6  213.18   10.00
  -1  -1   6  206.88    9.40
  -1  -1   6  214.88    9.00
   0   1  -6   14.30    2.10
   0   1  -6   12.10    1.90
   0   1  -6   12.90    2.60
   0   1  -6   11.10    2.10
   0  -1   6   12.20    1.90
   0  -1   6   16.40    2.60
   0  -1   6   17.60    2.70
   0  -1   6   14.90    2.60
   0  -1   6   15.60    2.10
   0  -1   6   10.20    2.10
   0  -1   6   14.20    2.60
  -1   1  -6  159.68    7.20
  -1   1  -6  165.98    8.70
  -1   1  -6  163.88    7.90
   1  -1   6  164.48    7.60
   1  -1   6  159.68    8.10
   1  -1   6  175.48    7.50
   1  -1   6  167.38    7.40
   1  -1   6  157.88    7.80
   1  -1   6  171.18    8.80
   1  -1   6  155.58    7.20
  -2   1  -6 2717.83   84.19
  -2   1  -6 2692.33   82.19
   2  -1   6 2756.02   82.99
   2  -1   6 2671.43   82.59
   2  -1   6 2734.63   82.69
   2  -1   6 2751.82   82.89
   2  -1   6 2715.03   83.69
   2  -1   6 2752.02   81.49
  -3   1  -6    9.60    2.30
  -3   1  -6   12.80    2.10
  -3   1  -6   15.20    3.30
  -3   1  -6    6.30    1.90
   3  -1   6   10.30    1.60
   3  -1   6    9.40    2.00
   3  -1   6    9.10    2.00
   3  -1   6   10.10    2.40
  -4   1  -6  391.96   16.30
  -4   1  -6  386.96   17.90
  -4   1  -6  414.86   16.80
   4  -1   6  386.96   15.10
   4  -1   6  380.26   15.90
  -5   1  -6  888.81   34.00
  -5   1  -6  865.21   32.00
  -5   1  -6  864.11   32.10
   5  -1   6  855.61   31.20
  -6   1  -6   -2.00    1.40
  -6   1  -6    1.50    2.50
  -6   1  -6   -0.50    1.80
  -7   1  -6  223.98   13.90
  -7   1  -6  224.38   15.80
  -8   1  -6    6.20    4.00
  -9   1  -6   -4.70    3.50
  -9   0   6   10.30    5.80
  -8   0   6   12.90    5.30
  -8   0   6   14.20    4.80
  -7   0   6   17.60    5.10
  -7   0   6   17.70    5.60
  -7   0   6   21.50    5.70
   6   0  -6   27.70    4.70
  -6   0   6   17.20    4.50
  -6   0   6   22.50    5.20
  -6   0   6   24.60    4.80
  -6   0   6   35.20    6.10
   5   0  -6  825.42   30.90
   5   0  -6  747.93   28.70
  -5   0   6  788.12   31.30
  -5   0   6  792.02   30.10
  -5   0   6  769.22   30.70
  -5   0   6  768.72   31.40
  -5   0   6  830.62   29.60
   4   0  -6  332.47   15.30
   4   0  -6  335.27   14.50
  -4   0   6  338.57   13.70
  -4   0   6  343.77   16.50
  -4   0   6  343.07   15.70
  -4   0   6  355.66   14.00
  -4   0   6  361.86   16.10
  -4   0   6  343.47   14.40
  -4   0   6  345.87   16.40
   3   0  -6   36.50    3.80
   3   0  -6   37.50    4.30
  -3   0   6   49.30    4.80
  -3   0   6   48.80    5.80
  -3   0   6   37.90    4.70
  -3   0   6   37.50    3.90
  -3   0   6   48.50    5.80
  -3   0   6   33.20    4.60
  -3   0   6   50.09    4.90
   2   0  -6  227.08    9.50
   2   0  -6  245.58    9.80
   2   0  -6  235.98    9.80
  -2   0   6  223.08    9.90
  -2   0   6  235.98   11.00
  -2   0   6  234.58    9.60
  -2   0   6  227.58    9.60
  -2   0   6  221.88   10.90
  -2   0   6  230.98    9.70
  -2   0   6  239.98   10.90
   1   0  -6 1661.03   52.39
   1   0  -6 1736.63   52.69
   1   0  -6 1714.23   52.89
   1   0  -6 1711.63   52.29
  -1   0   6 1718.03   52.69
  -1   0   6 1666.23   54.19
  -1   0   6 1675.13   54.39
  -1   0   6 1717.63   53.79
  -1   0   6 1713.33   53.49
  -1   0   6 1827.02   52.89
  -1   0   6 1729.23   52.69
   0   0  -6  361.26   13.50
   0   0  -6  362.26   12.40
   0   0  -6  352.26   12.20
   0   0   6  343.67   13.10
   0   0   6  361.76   13.60
   0   0   6  344.97   14.20
   0   0   6  353.96   12.90
   0   0   6  346.47   13.40
  -1   0  -6    2.70    0.70
  -1   0  -6    0.90    1.10
  -1   0  -6    2.30    0.70
   1   0   6    1.80    0.90
   1   0   6    1.10    1.00
   1   0   6    5.40    1.70
   1   0   6    3.80    1.10
   1   0   6    1.20    1.10
   1   0   6    1.80    1.10
  -2   0  -6  667.43   25.10
  -2   0  -6  678.53   24.60
  -2   0  -6  688.43   21.50
  -2   0  -6  684.33   21.50
   2   0   6  712.13   23.70
   2   0   6  692.53   23.10
   2   0   6  701.93   23.20
   2   0   6  701.23   21.60
   2   0   6  703.13   24.50
  -3   0  -6  480.95   19.00
  -3   0  -6  453.45   14.40
  -3   0  -6  443.16   19.20
  -3   0  -6  452.55   18.40
  -3   0  -6  481.05   14.50
   3   0   6  458.95   16.80
   3   0   6  486.65   18.60
   3   0   6  458.55   17.20
   3   0   6  469.25   17.20
  -4   0  -6  198.38   11.70
  -4   0  -6  205.28   11.20
  -4   0  -6  210.48   11.20
   4   0   6  188.28    9.60
   4   0   6  190.78    8.60
  -5   0  -6    3.80    2.40
  -5   0  -6    4.20    2.80
  -5   0  -6    6.30    2.60
   5   0   6    4.00    1.90
  -6   0  -6   54.79    8.10
  -6   0  -6   58.69    8.10
  -6   0  -6   49.80    7.50
  -7   0  -6   64.99    9.70
  -7   0  -6  126.99   12.90
  -7   0  -6  115.29   12.40
  -8   0  -6   53.59    9.80
  -8   0  -6   35.40    7.60
  -9   1   6    5.50    4.40
  -8   1   6    6.20    4.40
  -8   1   6    6.70    4.10
  -7   1   6    1.40    2.50
  -7   1   6    2.30    2.60
  -7   1   6    2.10    2.60
  -6   1   6    7.30    3.10
  -6   1   6    4.80    2.80
  -6   1   6    5.10    3.40
  -6   1   6    5.50    2.90
  -6   1   6    4.50    2.40
   5  -1  -6   16.30    3.10
  -5   1   6   16.80    4.30
  -5   1   6   10.90    2.80
  -5   1   6   12.70    3.30
  -5   1   6   10.80    3.30
  -5   1   6   14.40    3.70
  -5   1   6   11.90    2.80
  -5   1   6   11.50    3.30
   4  -1  -6  129.09    7.30
   4  -1  -6  139.99    7.60
  -4   1   6  130.79    7.40
  -4   1   6  121.29    7.20
  -4   1   6  121.89    7.80
  -4   1   6  131.49    8.70
  -4   1   6  123.99    8.50
  -4   1   6  132.19    8.60
  -4   1   6  139.69    8.40
   3  -1  -6   73.99    4.70
   3  -1  -6   79.19    4.60
  -3   1   6   90.79    5.70
  -3   1   6   83.69    5.20
  -3   1   6   80.09    5.80
  -3   1   6   86.19    6.30
  -3   1   6   75.99    5.50
  -3   1   6   84.89    6.20
  -3   1   6   81.89    7.40
   2  -1  -6 1688.43   52.79
   2  -1  -6 1852.71   49.90
   2  -1  -6 1636.84   50.79
  -2   1   6 1605.54   52.39
  -2   1   6 1639.34   53.39
  -2   1   6 1601.64   52.69
  -2   1   6 1621.74   51.49
  -2   1   6 1731.73   51.79
  -2   1   6 1593.14   53.49
  -2   1   6 1650.03   53.19
   1  -1  -6 2019.00   62.79
   1  -1  -6 1927.31   59.19
   1  -1  -6 2053.29   59.39
  -1   1   6 2027.70   62.49
  -1   1   6 2062.99   62.79
  -1   1   6 2006.50   63.19
  -1   1   6 1961.30   59.89
  -1   1   6 2008.70   63.39
  -1   1   6 2029.60   60.99
  -1   1   6 2096.39   61.19
   0  -1  -6  150.78    8.00
   0   1   6  146.29    6.00
   0   1   6  160.68    7.50
   0   1   6  148.89    8.00
   0   1   6  154.88    6.30
   0   1   6  157.48    8.20
  -1  -1  -6  451.85   17.70
  -1  -1  -6  459.25   17.70
   1   1   6  464.85   14.90
   1   1   6  446.56   16.40
   1   1   6  440.86   17.50
   1   1   6  437.36   15.20
   1   1   6  444.96   14.70
  -2  -1  -6   95.69    6.70
  -2  -1  -6  107.79    7.10
  -2  -1  -6  103.59    7.10
   2   1   6  103.09    4.80
   2   1   6   94.69    6.60
   2   1   6   93.39    5.50
   2   1   6  109.59    5.10
  -3  -1  -6  316.87   15.30
  -3  -1  -6  322.17   15.10
  -3  -1  -6  326.17   15.60
   3   1   6  341.77   12.80
   3   1   6  333.07   12.60
   3   1   6  340.27   12.80
  -4  -1  -6   46.40    6.50
  -4  -1  -6   35.20    5.70
  -4  -1  -6   51.49    6.70
   4   1   6   40.60    4.40
  -5  -1  -6  109.59   10.90
  -5  -1  -6  111.09   11.20
  -6  -1  -6    6.40    3.40
  -6  -1  -6   12.90    4.10
  -6  -1  -6    6.00    3.20
  -7  -1  -6   12.90    5.10
  -7  -1  -6   18.60    5.20
  -7  -1  -6    7.70    4.40
  -8  -1  -6    0.50    3.60
  -8  -1  -6    6.30    4.60
  -8  -1  -6   11.70    5.00
  -8   2   6   16.80    5.10
  -7   2   6    0.80    2.60
  -7   2   6   -0.90    2.00
  -7   2   6    2.70    2.50
  -7   2   6   -0.30    2.60
  -6   2   6   41.70    6.70
  -6   2   6   42.20    6.70
  -6   2   6   64.19    8.00
  -6   2   6   57.59    7.60
  -6   2   6   55.09    6.40
  -5   2   6  384.66   18.20
  -5   2   6  377.06   16.40
  -5   2   6  391.96   18.10
  -5   2   6  371.26   16.30
  -5   2   6  411.46   18.30
  -5   2   6  369.56   17.60
  -5   2   6  371.16   16.60
  -4   2   6   -1.00    1.00
  -4   2   6    1.30    1.10
  -4   2   6    0.80    1.40
  -4   2   6    2.80    1.70
  -4   2   6    0.90    1.30
  -4   2   6    1.90    1.80
   3  -2  -6   16.00    1.60
  -3   2   6   12.10    3.10
  -3   2   6   14.60    2.80
  -3   2   6   16.20    2.50
  -3   2   6   14.40    3.10
  -3   2   6   17.40    3.40
  -3   2   6   11.30    2.40
   2  -2  -6  202.78   10.40
  -2   2   6  210.28    8.60
  -2   2   6  204.28   10.20
  -2   2   6  203.18    9.80
  -2   2   6  202.78    8.50
  -2   2   6  200.68   10.30
   1  -2  -6  131.09    7.70
  -1   2   6  147.59    5.60
  -1   2   6  133.29    7.80
  -1   2   6  140.09    5.50
  -1   2   6  137.19    7.70
  -1   2   6  141.59    5.20
  -1   2   6  131.39    7.30
  -1   2   6  136.09    7.50
   0  -2  -6  559.24   21.80
   0   2   6  592.04   21.70
   0   2   6  578.84   20.80
   0   2   6  583.14   20.40
  -1  -2  -6   91.19    6.60
  -1  -2  -6   93.59    6.60
   1   2   6   97.49    5.70
   1   2   6   94.29    6.50
   1   2   6   93.89    5.00
  -2  -2  -6  794.42   30.20
  -2  -2  -6  819.42   30.30
  -2  -2  -6  834.52   30.70
   2   2   6  821.12   30.20
   2   2   6  843.82   27.70
   2   2   6  811.12   25.70
  -3  -2  -6  395.06   18.20
  -3  -2  -6  371.26   18.10
   3   2   6  433.56   19.10
  -4  -2  -6   17.00    4.50
  -4  -2  -6    8.00    3.10
  -4  -2  -6   10.70    3.50
   4   2   6   19.30    2.80
  -5  -2  -6    3.00    2.60
  -5  -2  -6    0.90    2.30
  -5  -2  -6    0.40    2.10
  -6  -2  -6  290.97   17.90
  -6  -2  -6  301.37   18.50
  -6  -2  -6  290.77   17.50
  -7  -2  -6    8.00    4.20
  -7  -2  -6   16.30    5.60
  -7  -2  -6   12.10    4.90
  -8  -2  -6   -0.10    3.70
  -8   3   6    2.00    3.20
  -8   3   6    2.60    4.30
  -7   3   6    5.00    3.60
  -7   3   6   10.40    4.50
  -7   3   6   11.70    4.20
  -6   3   6   97.59   10.50
  -6   3   6  118.29   11.70
  -6   3   6  136.09   12.70
  -6   3   6  119.19    9.50
  -5   3   6  502.85   22.00
  -5   3   6  487.95   20.10
  -5   3   6  510.65   21.30
  -5   3   6  475.75   21.80
  -5   3   6  475.25   20.80
  -4   3   6    8.40    2.20
  -4   3   6    9.00    2.90
  -4   3   6    7.40    2.80
  -4   3   6    6.50    2.50
  -4   3   6    3.70    1.60
  -4   3   6    7.30    2.80
   3  -3  -6  644.34   25.70
  -3   3   6  676.53   25.10
  -3   3   6  669.73   22.80
  -3   3   6  679.83   23.80
  -3   3   6  650.53   25.70
  -3   3   6  642.24   25.40
  -3   3   6  623.04   24.30
   2  -3  -6 2890.41   90.79
  -2   3   6 2857.41   85.99
  -2   3   6 2902.81   90.79
  -2   3   6 2983.40   88.99
  -2   3   6 2823.02   89.59
  -2   3   6 2902.81   90.19
  -2   3   6 2849.61   85.89
   1  -3  -6    8.90    2.70
  -1   3   6    7.50    2.10
  -1   3   6    5.60    2.10
  -1   3   6   12.40    1.90
  -1   3   6    5.50    2.00
   0  -3  -6   40.50    4.70
   0  -3  -6   47.50    5.90
   0   3   6   48.40    4.90
   0   3   6   44.60    5.70
   0   3   6   45.90    4.80
  -1  -3  -6    0.00    1.00
  -1  -3  -6    2.80    1.70
  -1  -3  -6   -0.30    1.00
   1   3   6    0.70    1.40
   1   3   6    0.20    1.00
   1   3   6    1.60    1.20
  -2  -3  -6   40.50    5.90
  -2  -3  -6   50.69    6.70
   2   3   6   48.60    5.00
   2   3   6   49.80    6.50
  -3  -3  -6   53.09    7.10
  -3  -3  -6   36.20    5.80
  -3  -3  -6   47.60    7.10
   3   3   6   43.60    6.60
  -4  -3  -6    4.80    2.90
  -4  -3  -6    5.70    3.10
  -4  -3  -6    3.60    2.90
   4   3   6    8.20    1.90
  -5  -3  -6   62.49    9.70
  -5  -3  -6   55.09    8.70
  -5  -3  -6   57.79    8.20
  -6  -3  -6  146.89   16.20
  -6  -3  -6  165.58   12.90
  -6  -3  -6  174.68   16.90
  -7  -3  -6   -0.70    3.10
  -9   4   6    1.30    5.00
  -8   4   6   -3.00    3.30
  -8   4   6    1.30    3.80
  -7   4   6    1.60    2.20
  -7   4   6    0.20    2.60
  -6   4   6   96.59   10.80
  -6   4   6  102.69   10.80
  -6   4   6  101.89   11.60
  -5   4   6   64.39    7.60
  -5   4   6   56.19    7.90
  -5   4   6   78.19    9.70
  -4   4   6   -0.20    1.50
  -4   4   6    2.50    2.20
  -4   4   6   -1.30    1.60
  -4   4   6    1.50    1.20
   3  -4  -6   -0.60    1.70
  -3   4   6    3.60    2.20
  -3   4   6    4.50    2.60
  -3   4   6    2.80    1.50
  -3   4   6    4.80    1.40
  -3   4   6    2.20    2.00
   2  -4  -6  126.29    8.80
   2  -4  -6  110.29    7.90
  -2   4   6  102.19    7.70
  -2   4   6  109.89    7.00
  -2   4   6  114.89    7.90
  -2   4   6  104.79    8.20
   1  -4  -6    1.30    1.50
   1  -4  -6    1.60    1.80
  -1   4   6    5.00    2.20
  -1   4   6    2.00    1.80
  -1   4   6    2.80    1.90
   0  -4  -6   20.80    4.30
   0  -4  -6   12.10    2.90
   0   4   6   18.80    4.10
   0   4   6   18.30    3.30
   0   4   6   11.30    2.90
   0   4   6   16.00    3.30
  -1  -4  -6   17.20    4.00
  -1  -4  -6   33.30    5.50
  -1  -4  -6   34.30    4.50
   1   4   6   36.20    5.80
   1   4   6   30.10    4.10
   1   4   6   21.40    4.30
  -2  -4  -6  149.19   10.60
  -2  -4  -6  139.59   10.00
  -2  -4  -6  154.48   11.00
   2   4   6  158.98   10.80
   2   4   6  162.98    8.70
   2   4   6  144.89   10.80
  -3  -4  -6    0.60    2.00
  -3  -4  -6   -0.60    2.10
  -3  -4  -6    1.10    2.20
   3   4   6    0.90    2.20
  -4  -4  -6    0.90    2.60
  -4  -4  -6    6.60    3.50
  -4  -4  -6    2.10    2.90
  -5  -4  -6   33.30    7.50
  -5  -4  -6   13.80    5.10
  -5  -4  -6   37.30    7.10
  -6  -4  -6    3.90    4.30
  -8   5   6    0.40    3.60
  -8   5   6   -1.00    3.30
  -7   5   6   49.40    8.20
  -7   5   6   56.79    9.50
  -7   5   6   57.49    9.00
  -6   5   6  182.68   14.40
  -6   5   6  262.77   15.00
  -6   5   6  212.58   14.50
  -5   5   6   23.10    5.70
  -5   5   6   43.70    7.20
  -4   5   6  227.78   14.20
  -4   5   6  247.28   15.00
   3  -5  -6  351.56   18.20
   3  -5  -6  363.26   18.00
  -3   5   6  348.37   17.80
  -3   5   6  353.36   13.10
  -3   5   6  348.77   18.20
  -3   5   6  366.86   16.60
   2  -5  -6   14.40    4.00
   2  -5  -6   11.90    3.50
  -2   5   6    5.20    2.20
  -2   5   6   10.00    3.40
  -2   5   6    9.20    3.00
   1  -5  -6   18.30    4.60
   1  -5  -6    9.70    3.10
  -1   5   6    8.50    2.90
  -1   5   6   21.20    4.80
  -1   5   6   16.30    3.80
   0  -5  -6    2.00    1.80
   0  -5  -6    1.60    2.00
   0   5   6   -1.40    1.80
   0   5   6    2.70    2.10
  -1  -5  -6   46.30    6.90
  -1  -5  -6   46.60    7.50
   1   5   6   53.69    7.40
  -2  -5  -6  126.89    9.80
   2   5   6   96.89   11.00
   2   5   6  106.39   11.20
  -3  -5  -6   -2.20    1.80
  -3  -5  -6    1.20    2.10
  -3  -5  -6    5.00    3.40
   3   5   6    4.90    3.10
  -4  -5  -6    2.00    3.00
  -4  -5  -6    0.70    2.80
  -4  -5  -6    4.70    3.50
   4   5   6    9.60    4.30
  -5  -5  -6   69.19   11.30
  -5  -5  -6   70.19   13.20
   5   5   6   77.89   11.50
  -6  -5  -6    5.60    4.70
  -8   6   6   10.10    5.80
  -8   6   6    7.70    5.10
  -7   6   6   86.39   10.90
  -7   6   6  107.89   13.60
  -7   6   6  106.99   13.90
  -6   6   6  232.58   16.20
  -6   6   6  183.68   13.10
  -6   6   6  210.78   15.20
  -5   6   6    1.40    2.60
  -5   6   6    5.20    3.70
  -4   6   6   51.59    8.50
  -4   6   6   36.10    7.00
   3  -6  -6   15.20    4.70
   3  -6  -6   19.70    4.90
  -3   6   6   24.80    5.60
  -3   6   6   27.20    5.70
   2  -6  -6   15.40    4.30
   2  -6  -6   15.30    4.80
  -2   6   6   21.40    5.20
  -2   6   6   12.60    3.80
  -2   6   6   11.30    4.00
   1  -6  -6   45.40    6.80
  -1   6   6   42.40    7.20
  -1   6   6   43.10    6.50
   0  -6  -6    3.60    3.00
   0  -6  -6    2.10    2.30
   0   6   6   11.70    3.60
   0   6   6    4.00    3.00
   0   6   6    1.20    2.60
  -1  -6  -6    8.80    3.90
  -1  -6  -6    2.60    2.90
   1   6   6    3.40    2.80
  -2  -6  -6    7.30    3.80
  -2  -6  -6    8.90    4.00
  -2  -6  -6   10.20    4.50
   2   6   6    6.30    3.30
  -3  -6  -6   -0.50    2.40
  -3  -6  -6    3.00    3.40
   3   6   6    2.20    3.20
  -4  -6  -6    0.80    3.20
  -4  -6  -6    2.90    4.30
   4   6   6   -1.10    3.10
  -5  -6  -6   26.10    7.30
   5   6   6    8.90    5.40
  -7   7   6   48.40    8.10
  -7   7   6   19.90    6.10
  -7   7   6   43.90    9.30
  -6   7   6    9.30    3.80
  -6   7   6   21.60    6.60
  -6   7   6    5.50    4.40
  -5   7   6   -0.50    3.10
  -5   7   6    2.20    2.10
  -5   7   6   -0.30    2.60
   4  -7  -6   13.20    4.90
  -4   7   6    5.40    3.60
  -4   7   6   14.40    5.00
   3  -7  -6   12.90    4.80
  -3   7   6   10.50    4.10
  -3   7   6    6.30    3.90
   2  -7  -6   -0.80    1.90
   2  -7  -6   -0.60    2.20
  -2   7   6    2.90    3.00
  -2   7   6    4.10    3.70
   1  -7  -6    8.10    3.90
   1  -7  -6    7.60    3.90
  -1   7   6   15.90    4.50
  -1   7   6   14.90    5.00
   0  -7  -6   16.40    5.50
   0   7   6    7.60    3.90
   0   7   6    7.90    3.90
  -1  -7  -6    2.70    3.20
   1   7   6   -1.50    2.50
   1   7   6    2.90    3.40
  -2  -7  -6    8.60    4.50
  -2  -7  -6    3.20    3.30
   2   7   6    1.60    3.10
  -3  -7  -6    3.90    4.20
   3   7   6    3.70    4.30
  -6   8   6    5.80    3.60
  -6   8   6    6.70    4.80
  -5   8   6    2.30    3.90
  -5   8   6    2.30    2.70
  -5   8   6    4.30    4.10
   4  -8  -6    3.80    4.10
  -4   8   6    5.30    4.00
  -4   8   6    5.20    3.90
  -4   8   6    2.50    2.60
   3  -8  -6    6.70    4.10
  -3   8   6    3.40    3.50
  -3   8   6    5.00    2.10
  -3   8   6    4.80    4.50
   2  -8  -6    9.00    4.70
   2  -8  -6   19.60    6.50
  -2   8   6    3.60    3.80
  -2   8   6    6.20    3.90
   1  -8  -6   -1.60    3.00
   1  -8  -6    0.70    3.20
  -1   8   6    1.30    3.30
  -1   8   6    1.70    3.60
   0  -8  -6    8.60    4.50
   0   8   6   -1.20    3.50
   3  -9  -6   -3.10    3.80
  -3   9   6    1.50    4.40
  -3   9   6    0.60    2.60
  -3   9   6    5.60    4.70
   2  -9  -6    2.20    4.40
  -2   9   6   -0.20    1.50
  -2   9   6    2.10    3.90
  -2   9   6   -1.30    3.90
   1   9  -7   -1.30    3.40
   0   9  -7   -1.40    2.70
   0  -9   7   -5.10    3.70
  -1   9  -7   -2.70    3.60
   1  -9   7    3.00    3.50
   1  -9   7   -0.90    3.10
  -2   9  -7   -3.20    3.10
   2  -9   7    0.40    3.40
   2  -9   7   -0.50    3.80
  -3   9  -7   -1.70    3.60
   3  -9   7    0.90    3.30
   3  -9   7    3.90    4.40
  -4   9  -7   -0.30    3.90
   4  -9   7    1.10    3.20
   4  -9   7    0.30    3.60
   5  -9   7    0.40    3.40
   5  -9   7    3.70    4.80
   3   8  -7    0.90    4.70
   2   8  -7    0.60    3.90
  -2  -8   7   -2.80    3.50
   1   8  -7    5.00    4.50
  -1  -8   7    5.10    4.20
   0   8  -7   -3.80    2.80
   0  -8   7    2.80    3.10
   0  -8   7    2.30    2.80
  -1   8  -7    2.90    3.40
   1  -8   7   -0.80    3.20
   1  -8   7    3.00    2.70
   2  -8   7    1.10    2.80
   2  -8   7    1.80    3.60
  -3   8  -7    0.10    2.80
   3  -8   7    0.70    2.30
   3  -8   7    2.30    3.80
  -4   8  -7    8.40    3.70
   4  -8   7    7.90    3.90
   4  -8   7    2.80    3.30
  -5   8  -7   12.90    5.50
   5  -8   7   15.10    5.20
   5  -8   7    7.80    3.90
  -6   8  -7    0.60    3.60
  -6   8  -7   -1.30    3.90
   6  -8   7    7.90    4.60
   6  -8   7    1.60    3.00
   4   7  -7    0.90    4.10
   3   7  -7    0.70    3.80
  -3  -7   7    4.60    3.40
   2   7  -7   22.10    6.20
  -2  -7   7   22.00    6.30
   1   7  -7   37.60    7.80
  -1  -7   7   33.90    8.50
  -1  -7   7   37.60    7.40
   0   7  -7    0.90    2.60
   0  -7   7   -0.40    2.80
   0  -7   7    2.00    2.60
  -1   7  -7   13.80    5.30
   1  -7   7   27.10    5.70
   1  -7   7   20.00    5.10
   2  -7   7    5.40    3.10
   2  -7   7   -1.40    2.30
  -3   7  -7    2.20    2.80
   3  -7   7   -0.30    2.30
   3  -7   7    1.10    2.60
  -4   7  -7   61.19    9.30
   4  -7   7   55.69    8.80
   4  -7   7   54.49    8.30
  -5   7  -7   49.10    8.80
  -5   7  -7   47.50    8.20
   5  -7   7   54.79    8.50
   5  -7   7   59.19    8.80
  -6   7  -7   -3.80    3.40
  -6   7  -7    1.10    2.90
   6  -7   7    2.30    3.60
   6  -7   7    2.40    3.20
  -7   7  -7   10.40    5.50
   7  -7   7    8.90    4.60
   5   6  -7   -4.10    3.40
  -5  -6   7    6.70    5.30
   4   6  -7   -0.10    3.30
  -4  -6   7    6.50    3.60
  -4  -6   7    0.90    3.40
  -4  -6   7   -2.10    2.80
   3   6  -7   11.90    5.20
  -3  -6   7   11.20    4.20
  -3  -6   7   15.90    5.20
  -3  -6   7    2.80    3.30
   2   6  -7   15.60    5.30
  -2  -6   7    8.10    3.50
  -2  -6   7   16.50    5.10
  -2  -6   7    7.60    3.60
   1   6  -7    9.70    4.20
  -1  -6   7    9.40    3.10
  -1  -6   7    3.20    2.80
  -1  -6   7    9.70    3.40
   0   6  -7    5.20    1.60
   0   6  -7    8.30    3.80
   0  -6   7    5.60    2.70
   0  -6   7   12.10    3.90
   0  -6   7   12.80    3.60
  -1   6  -7   12.40    4.30
   1  -6   7   17.70    4.20
   1  -6   7   13.90    4.00
   2  -6   7   14.80    4.10
   2  -6   7    9.60    3.60
  -3   6  -7   37.40    6.10
   3  -6   7   42.10    6.80
   3  -6   7   26.10    5.20
  -4   6  -7   18.50    4.90
  -4   6  -7   26.40    5.50
   4  -6   7   22.00    5.00
   4  -6   7   32.10    6.00
  -5   6  -7   15.10    4.40
  -5   6  -7   19.10    5.60
   5  -6   7   19.20    4.90
   5  -6   7   18.10    4.80
  -6   6  -7   22.70    6.50
   6  -6   7   40.80    7.00
   6  -6   7   20.40    5.20
  -7   6  -7   76.19   11.60
   7  -6   7  104.39   11.30
  -8   6  -7    8.20    5.50
  -6  -5   7    4.30    3.90
  -5  -5   7   33.00    7.40
   4   5  -7   15.80    5.30
  -4  -5   7   23.00    5.80
  -4  -5   7   21.70    5.40
  -4  -5   7    3.90    2.80
   3   5  -7   11.70    4.90
  -3  -5   7   28.90    5.90
  -3  -5   7   18.20    5.00
  -3  -5   7   18.50    5.00
  -3  -5   7   15.90    4.10
   2   5  -7   16.70    5.10
  -2  -5   7    8.20    3.20
  -2  -5   7   12.10    3.30
  -2  -5   7   15.90    4.20
  -2  -5   7   12.70    3.70
  -2  -5   7   10.70    3.80
   1   5  -7   23.90    3.20
   1   5  -7   48.60    8.00
  -1  -5   7   35.80    5.30
  -1  -5   7   27.30    5.20
  -1  -5   7   36.20    5.80
  -1  -5   7   34.90    5.50
  -1  -5   7   36.00    5.40
   0   5  -7   23.30    3.10
   0   5  -7   30.20    6.20
   0   5  -7   21.70    5.40
   0  -5   7   18.30    3.70
   0  -5   7   17.20    3.70
   0  -5   7   21.40    4.60
   0  -5   7   26.10    4.70
  -1   5  -7   18.90    4.90
  -1   5  -7   18.00    2.70
  -1   5  -7    5.40    3.00
   1  -5   7    9.20    3.00
   1  -5   7   14.90    3.10
   1  -5   7   10.80    3.40
  -2   5  -7    6.50    3.20
  -2   5  -7   15.50    3.50
   2  -5   7   11.50    3.40
   2  -5   7   19.50    4.20
  -3   5  -7  214.68   14.30
  -3   5  -7  245.58   12.90
  -3   5  -7  214.68   11.30
   3  -5   7  228.68   12.90
   3  -5   7  239.38   13.00
  -4   5  -7  285.97   15.50
  -4   5  -7  299.27   15.00
   4  -5   7  266.37   14.50
   4  -5   7  284.97   14.90
  -5   5  -7    3.00    3.00
  -5   5  -7    1.70    2.00
   5  -5   7    0.40    2.10
   5  -5   7    1.60    2.10
  -6   5  -7  144.29   14.40
   6  -5   7  130.99   12.10
  -7   5  -7   15.50    6.00
  -8   5  -7   13.30    5.50
  -7  -4   7    3.60    5.10
  -6  -4   7   25.30    7.50
  -6  -4   7    8.90    4.60
  -5  -4   7   66.59    8.80
  -5  -4   7   31.80    7.00
  -5  -4   7   47.20    8.30
  -4  -4   7   24.30    5.60
  -4  -4   7   34.10    6.60
  -4  -4   7   32.70    6.00
   3   4  -7  130.89   12.80
  -3  -4   7  135.79   10.10
  -3  -4   7  126.49   12.10
  -3  -4   7  122.19    9.30
  -3  -4   7  109.89   11.10
   2   4  -7  146.79   10.60
   2   4  -7  140.19   11.10
   2   4  -7  128.29    7.20
  -2  -4   7  142.89    9.60
  -2  -4   7  139.69   10.10
  -2  -4   7  123.59    7.90
  -2  -4   7  132.19    9.20
  -2  -4   7  144.09    9.90
   1   4  -7   14.00    4.10
   1   4  -7   13.30    2.40
   1   4  -7   18.20    4.30
  -1  -4   7   12.50    3.20
  -1  -4   7   14.00    3.40
  -1  -4   7   12.10    2.90
  -1  -4   7   13.90    3.30
  -1  -4   7   14.70    3.20
   0   4  -7  171.08    8.10
   0   4  -7  162.38   11.10
   0   4  -7  163.58   11.00
   0  -4   7  173.08    8.60
   0  -4   7  194.68   10.10
   0  -4   7  169.38    9.30
   0  -4   7  175.18   10.30
   0  -4   7  171.78    9.90
  -1   4  -7   81.69    9.00
  -1   4  -7   86.69    9.00
  -1   4  -7   77.29    5.00
  -1   4  -7   82.99    5.30
  -1   4  -7   73.19    5.10
   1  -4   7   71.69    7.40
   1  -4   7   65.29    4.80
   1  -4   7   65.59    7.10
   1  -4   7   75.09    5.60
  -2   4  -7    8.70    2.10
  -2   4  -7    9.80    2.70
  -2   4  -7   16.30    4.30
   2  -4   7   14.10    3.30
   2  -4   7   16.50    2.90
   2  -4   7   12.50    3.20
  -3   4  -7   99.89    9.10
  -3   4  -7   97.19   10.40
  -3   4  -7   91.09    6.30
   3  -4   7  105.29    9.40
   3  -4   7   88.29    6.80
  -4   4  -7   11.70    2.90
  -4   4  -7   13.20    3.40
  -4   4  -7    6.50    3.00
   4  -4   7   19.90    4.20
   4  -4   7    7.70    2.70
  -5   4  -7   59.19    6.80
  -5   4  -7   52.79    7.80
  -5   4  -7   93.29    9.70
   5  -4   7   73.99    8.10
   5  -4   7   71.29    7.40
  -6   4  -7    0.80    2.90
   6  -4   7   -0.60    1.90
  -7   4  -7   -1.70    2.50
  -8   4  -7    6.50    4.40
  -9   4  -7   22.40    8.00
  -7  -3   7    6.80    4.90
  -6  -3   7    7.20    4.50
  -6  -3   7    0.90    2.80
  -5  -3   7   38.30    7.50
  -5  -3   7   27.40    5.90
  -5  -3   7   26.40    5.20
  -5  -3   7   26.50    6.50
   4   3  -7    1.00    2.80
  -4  -3   7   -1.00    2.00
  -4  -3   7   -0.50    2.00
  -4  -3   7    2.70    2.20
  -4  -3   7   -1.70    1.70
   3   3  -7  140.09   10.70
   3   3  -7  138.99    7.90
  -3  -3   7  148.29    9.80
  -3  -3   7  140.49   10.10
  -3  -3   7  144.79    9.50
  -3  -3   7  134.99   10.10
  -3  -3   7  139.39    7.90
   2   3  -7  183.08   11.20
   2   3  -7  189.18   11.80
   2   3  -7  171.48    8.70
  -2  -3   7  174.48   10.70
  -2  -3   7  168.88    8.90
  -2  -3   7  195.08   10.80
  -2  -3   7  181.38   11.10
  -2  -3   7  174.98   10.20
   1   3  -7   85.09    8.70
   1   3  -7   83.29    8.30
   1   3  -7   84.59    5.20
  -1  -3   7   85.09    5.90
  -1  -3   7   85.59    6.20
  -1  -3   7   78.69    7.80
  -1  -3   7   79.19    6.30
  -1  -3   7  102.99    7.10
   0   3  -7  568.34   22.50
   0   3  -7  544.05   22.90
   0   3  -7  549.85   19.70
   0  -3   7  549.15   20.70
   0  -3   7  553.74   21.50
   0  -3   7  551.74   20.00
   0  -3   7  555.34   20.90
   0  -3   7  546.15   21.40
  -1   3  -7   24.90    3.30
  -1   3  -7   19.50    2.80
  -1   3  -7   27.30    3.30
  -1   3  -7   26.20    4.80
   1  -3   7   24.40    3.00
   1  -3   7   23.40    3.80
   1  -3   7   18.70    3.10
   1  -3   7   17.90    3.30
   1  -3   7   27.20    2.00
   1  -3   7   20.10    3.00
  -2   3  -7   25.40    3.50
  -2   3  -7   26.40    4.00
  -2   3  -7   25.50    4.80
   2  -3   7   17.40    3.40
   2  -3   7   18.50    3.00
   2  -3   7   21.80    2.60
   2  -3   7   28.20    4.00
  -3   3  -7  380.16   17.00
  -3   3  -7  376.56   15.70
   3  -3   7  376.66   15.70
   3  -3   7  402.86   14.90
   3  -3   7  384.16   16.40
   3  -3   7  393.86   15.60
  -4   3  -7   17.30    3.20
  -4   3  -7   18.70    3.30
  -4   3  -7   16.80    4.30
   4  -3   7   25.10    4.30
   4  -3   7   14.70    2.90
   4  -3   7   23.60    3.90
  -5   3  -7    5.20    2.20
  -5   3  -7   10.90    4.00
   5  -3   7    7.70    2.70
  -6   3  -7  102.19   12.00
  -7   3  -7   16.20    5.50
  -8   3  -7    1.40    3.20
  -9   3  -7    3.80    4.00
  -8  -2   7    2.80    3.60
  -7  -2   7   17.80    6.10
  -7  -2   7   20.40    6.10
  -6  -2   7   50.99    7.20
  -6  -2   7   53.79    8.90
  -6  -2   7   70.69   10.30
   5   2  -7   29.60    6.20
  -5  -2   7   16.20    4.70
  -5  -2   7   20.90    5.10
  -5  -2   7   33.50    5.90
  -5  -2   7   27.60    6.10
   4   2  -7  621.64   26.90
   4   2  -7  599.34   23.50
  -4  -2   7  636.24   26.40
  -4  -2   7  636.84   25.60
  -4  -2   7  607.14   26.70
  -4  -2   7  637.24   26.90
   3   2  -7   50.29    5.00
   3   2  -7   58.29    7.40
  -3  -2   7   52.09    6.60
  -3  -2   7   53.29    5.10
  -3  -2   7   46.10    6.00
  -3  -2   7   52.29    6.60
  -3  -2   7   60.89    7.40
   2   2  -7  154.98    9.40
   2   2  -7  152.78    7.50
   2   2  -7  149.59   10.80
  -2  -2   7  127.79    8.30
  -2  -2   7  136.79    8.50
  -2  -2   7  141.69    9.00
  -2  -2   7  129.89    7.40
  -2  -2   7  136.49    8.80
  -2  -2   7  137.69    5.90
   1   2  -7   65.29    5.30
   1   2  -7   65.09    6.70
   1   2  -7   58.69    4.20
  -1  -2   7   59.89    5.50
  -1  -2   7   72.49    6.60
  -1  -2   7   69.89    6.40
  -1  -2   7   59.29    6.20
  -1  -2   7   55.19    5.60
  -1  -2   7   58.19    3.60
   0   2  -7    7.70    2.50
   0   2  -7    9.20    1.90
   0   2  -7    9.50    2.50
   0  -2   7   10.00    2.40
   0  -2   7    8.70    1.60
   0  -2   7    5.80    1.90
   0  -2   7    9.60    2.40
   0  -2   7    5.50    1.80
  -1   2  -7  384.56   17.00
  -1   2  -7  402.06   15.00
  -1   2  -7  396.26   14.90
   1  -2   7  378.96   15.30
   1  -2   7  381.56   14.30
   1  -2   7  385.76   15.80
   1  -2   7  391.16   14.60
   1  -2   7  389.76   15.60
  -2   2  -7  275.77   12.40
  -2   2  -7  263.17   11.50
   2  -2   7  276.07   11.40
   2  -2   7  289.87   12.30
   2  -2   7  286.17   11.60
   2  -2   7  273.77   11.10
   2  -2   7  259.47   12.00
  -3   2  -7   80.29    5.60
  -3   2  -7   92.79    7.10
   3  -2   7   93.69    6.20
   3  -2   7   94.29    5.60
   3  -2   7   90.79    5.90
   3  -2   7   99.69    5.60
   3  -2   7   89.09    6.10
  -4   2  -7  253.97   14.20
  -4   2  -7  276.17   12.40
  -4   2  -7  268.37   12.20
   4  -2   7  293.87   12.40
   4  -2   7  296.17   12.90
   4  -2   7  281.57   12.70
   4  -2   7  269.47   12.90
  -5   2  -7   97.59   10.70
  -5   2  -7   82.89    7.80
   5  -2   7   86.89    7.90
   5  -2   7   93.19    6.50
  -6   2  -7   78.99   10.10
   6  -2   7   62.69    7.20
  -7   2  -7   45.30    8.50
  -9   2  -7    7.10    5.10
  -8  -1   7   11.70    5.30
  -7  -1   7   19.60    5.90
  -7  -1   7    7.90    4.10
  -6  -1   7   74.89    9.70
  -6  -1   7   87.09   10.90
  -6  -1   7   76.89    8.80
  -6  -1   7   60.79    8.80
   5   1  -7    4.00    2.20
   5   1  -7    7.00    3.10
  -5  -1   7    6.40    3.20
  -5  -1   7   10.40    3.80
  -5  -1   7    9.90    3.50
  -5  -1   7   10.00    3.40
   4   1  -7  813.52   29.40
   4   1  -7  777.92   31.10
  -4  -1   7  814.92   32.30
  -4  -1   7  827.02   28.20
  -4  -1   7  823.42   31.00
  -4  -1   7  884.31   32.30
  -4  -1   7  808.32   32.00
   3   1  -7  476.35   20.30
   3   1  -7  540.05   19.20
  -3  -1   7  512.55   21.20
  -3  -1   7  490.15   20.30
  -3  -1   7  522.55   21.50
  -3  -1   7  476.65   20.70
  -3  -1   7  485.75   18.60
   2   1  -7    4.20    1.70
   2   1  -7    5.40    1.70
  -2  -1   7    2.00    1.60
  -2  -1   7    7.70    2.40
  -2  -1   7    2.10    1.40
  -2  -1   7    7.60    2.10
  -2  -1   7    3.40    1.70
  -2  -1   7    3.90    1.80
   1   1  -7 5992.10  176.98
   1   1  -7 6030.00  177.48
   1   1  -7 5999.70  178.08
  -1  -1   7 6055.19  177.78
  -1  -1   7 5947.30  179.28
  -1  -1   7 5783.52  178.38
  -1  -1   7 6104.49  178.48
  -1  -1   7 5883.61  178.28
   0   1  -7 1928.91   57.19
   0   1  -7 1870.31   56.99
   0   1  -7 1850.21   58.59
   0  -1   7 1891.21   56.99
   0  -1   7 1909.61   58.09
   0  -1   7 1784.72   57.89
   0  -1   7 1679.13   58.19
   0  -1   7 1858.61   58.79
   0  -1   7 1871.61   58.09
  -1   1  -7  542.35   18.80
  -1   1  -7  540.95   19.80
   1  -1   7  548.35   19.80
   1  -1   7  538.15   20.40
   1  -1   7  557.64   19.10
   1  -1   7  554.34   19.70
   1  -1   7  507.05   20.70
  -2   1  -7    1.90    1.40
  -2   1  -7    6.40    1.60
   2  -1   7    4.30    1.70
   2  -1   7    5.10    1.40
   2  -1   7    1.70    1.10
   2  -1   7    5.70    1.70
   2  -1   7    3.90    1.60
  -3   1  -7   -0.10    0.70
  -3   1  -7   -0.50    0.90
  -3   1  -7    0.20    1.30
   3  -1   7    2.10    0.90
   3  -1   7    1.60    1.40
   3  -1   7    0.10    0.80
   3  -1   7    0.90    1.10
  -4   1  -7   19.00    3.50
  -4   1  -7   23.00    4.10
  -4   1  -7   34.10    5.70
   4  -1   7   27.60    4.00
   4  -1   7   38.90    4.40
   4  -1   7   24.20    4.20
  -5   1  -7  113.29   11.20
  -5   1  -7  113.59    8.40
  -5   1  -7  111.09    8.10
   5  -1   7  127.19    8.10
  -6   1  -7    2.30    3.40
  -6   1  -7    0.10    1.70
  -6   1  -7    1.40    1.90
  -7   1  -7   40.60    8.00
  -8   1  -7   78.79   11.50
  -9   1  -7    4.50    5.00
  -9   0   7   -0.30    3.80
  -8   0   7   11.40    5.40
  -8   0   7   15.40    5.30
  -7   0   7    0.70    2.50
  -7   0   7   -1.00    2.60
  -7   0   7   -1.70    2.00
  -7   0   7    2.20    3.30
   6   0  -7    1.80    2.00
  -6   0   7   -0.40    2.10
  -6   0   7   -0.70    1.90
  -6   0   7    3.20    2.50
  -6   0   7    2.60    2.40
   5   0  -7   69.69    7.00
  -5   0   7   80.39    9.50
  -5   0   7   68.29    8.60
  -5   0   7   61.39    7.50
   4   0  -7   16.30    3.40
   4   0  -7   20.10    3.20
  -4   0   7   16.10    3.00
  -4   0   7   27.40    4.20
  -4   0   7   18.40    4.10
  -4   0   7   21.90    4.30
  -4   0   7   15.00    3.60
  -4   0   7   21.60    4.30
  -4   0   7   31.90    4.10
   3   0  -7    6.90    1.80
   3   0  -7    9.50    2.30
  -3   0   7   12.00    2.50
  -3   0   7   12.30    2.30
  -3   0   7   11.00    2.80
  -3   0   7   10.20    2.80
  -3   0   7   12.90    2.60
  -3   0   7    9.20    2.70
  -3   0   7   15.30    3.30
   2   0  -7  104.19    5.50
   2   0  -7   80.79    5.10
   2   0  -7   80.59    5.10
  -2   0   7   97.69    5.40
  -2   0   7   79.99    6.10
  -2   0   7   88.49    6.30
  -2   0   7   89.69    5.70
  -2   0   7   85.49    5.20
  -2   0   7   84.79    5.20
  -2   0   7   87.69    6.10
   1   0  -7  417.46   15.60
   1   0  -7  414.76   15.30
   1   0  -7  413.06   15.00
  -1   0   7  425.06   16.30
  -1   0   7  397.26   16.50
  -1   0   7  398.56   15.30
  -1   0   7  409.56   16.00
  -1   0   7  433.16   15.30
  -1   0   7  431.76   15.30
  -1   0   7  438.26   17.20
   0   0  -7  717.63   24.20
   0   0  -7  732.13   22.60
   0   0   7  689.33   24.10
   0   0   7  679.13   23.70
   0   0   7  700.43   25.10
   0   0   7  621.24   24.30
   0   0   7  671.23   23.80
   0   0   7  732.03   23.40
  -1   0  -7  134.79    5.60
  -1   0  -7  136.49    7.60
  -1   0  -7  132.39    5.50
   1   0   7  135.99    6.50
   1   0   7  143.89    7.60
   1   0   7  131.69    7.60
   1   0   7  128.29    6.20
   1   0   7  135.39    7.80
   1   0   7  134.99    7.10
  -2   0  -7  186.88    6.70
  -2   0  -7  177.68    9.40
  -2   0  -7  179.98    6.60
  -2   0  -7  170.38    9.70
   2   0   7  175.98    9.20
   2   0   7  186.08    7.20
   2   0   7  179.28    8.20
   2   0   7  181.88    8.70
   2   0   7  195.98    8.50
  -3   0  -7  580.94   22.90
  -3   0  -7  558.94   22.00
  -3   0  -7  567.94   22.30
   3   0   7  549.05   20.30
   3   0   7  554.84   20.20
   3   0   7  556.54   20.50
   3   0   7  568.14   21.90
  -4   0  -7   -1.70    1.20
  -4   0  -7    2.80    2.10
  -4   0  -7   -0.60    1.70
   4   0   7    0.10    1.40
   4   0   7    0.90    1.10
   4   0   7    0.40    1.10
  -5   0  -7    0.10    2.10
  -5   0  -7   -0.40    1.60
  -5   0  -7   -0.70    1.70
  -6   0  -7    2.20    2.40
  -6   0  -7    1.50    2.20
  -6   0  -7    1.00    2.70
  -7   0  -7   42.70    7.70
  -7   0  -7   52.09    8.80
  -7   0  -7   38.80    6.90
  -8   0  -7    3.10    3.90
  -8   0  -7   19.10    5.50
  -9   1   7   16.70    6.50
  -8   1   7  100.59   12.80
  -8   1   7   71.39   10.60
  -7   1   7    2.40    2.60
  -7   1   7    8.20    4.00
  -7   1   7   13.10    4.50
  -6   1   7   29.80    5.40
  -6   1   7   29.00    5.40
  -6   1   7   26.60    5.30
  -6   1   7   16.80    4.40
  -6   1   7   19.40    4.80
  -5   1   7  792.12   30.20
  -5   1   7  813.32   29.60
  -5   1   7  772.02   31.10
  -5   1   7  756.72   31.00
  -5   1   7  735.73   27.70
  -5   1   7  798.72   28.60
  -5   1   7  794.92   30.80
   4  -1  -7  717.03   25.90
  -4   1   7  731.03   27.10
  -4   1   7  741.03   28.70
  -4   1   7  741.63   26.50
  -4   1   7  754.32   28.70
  -4   1   7  720.63   26.50
  -4   1   7  805.72   28.30
  -4   1   7  700.23   28.10
   3  -1  -7   93.79    5.00
   3  -1  -7   93.69    5.50
  -3   1   7  100.49    6.40
  -3   1   7   91.59    6.90
  -3   1   7   88.89    6.70
  -3   1   7  104.69    7.00
  -3   1   7   94.09    6.30
  -3   1   7   88.09    6.90
  -3   1   7   96.89    5.90
   2  -1  -7 1939.11   61.89
   2  -1  -7 1900.61   59.39
   2  -1  -7 2064.29   58.59
  -2   1   7 2004.90   61.89
  -2   1   7 1977.80   61.79
  -2   1   7 2006.70   62.59
  -2   1   7 1964.40   62.89
  -2   1   7 1965.00   60.59
  -2   1   7 1801.82   60.49
  -2   1   7 1977.70   62.49
   1  -1  -7 3054.29   92.79
   1  -1  -7 3184.78   96.89
   1  -1  -7 3180.78   92.79
  -1   1   7 3151.98   96.49
  -1   1   7 3250.97   97.49
  -1   1   7 3210.68   96.79
  -1   1   7 3220.88   97.49
  -1   1   7 3149.39   95.09
  -1   1   7 3111.89   93.89
  -1   1   7 3198.18   94.89
   0  -1  -7   65.09    5.10
   0   1   7   67.49    3.80
   0   1   7   76.39    4.10
   0   1   7   66.69    5.20
   0   1   7   73.49    4.50
   0   1   7   67.79    5.20
   0   1   7   64.09    4.70
   0   1   7   58.49    4.30
  -1  -1  -7   76.79    5.80
   1   1   7   76.59    4.00
   1   1   7   67.89    3.90
   1   1   7   73.09    5.70
   1   1   7   68.69    4.10
   1   1   7   77.99    5.10
  -2  -1  -7    5.50    2.20
  -2  -1  -7    8.50    2.90
   2   1   7    7.70    2.40
   2   1   7    6.10    1.40
   2   1   7    6.70    1.20
   2   1   7    8.80    2.20
  -3  -1  -7  590.74   24.60
  -3  -1  -7  619.24   24.50
  -3  -1  -7  621.74   24.90
   3   1   7  614.04   21.70
   3   1   7  615.04   21.40
   3   1   7  628.44   24.50
  -4  -1  -7  124.59    9.60
  -4  -1  -7  125.29    9.30
  -4  -1  -7  126.99    9.20
   4   1   7  136.29    7.60
  -5  -1  -7   93.89   10.20
  -5  -1  -7   92.39   10.40
  -5  -1  -7   60.29    8.20
  -6  -1  -7  139.89   13.80
  -6  -1  -7  159.08   14.70
  -7  -1  -7  140.59   14.90
  -7  -1  -7  118.69   13.10
  -7  -1  -7  121.89   13.70
  -8  -1  -7    9.60    5.50
  -8  -1  -7    5.70    3.90
  -8  -1  -7    0.30    3.40
  -9   2   7   -2.90    3.20
  -8   2   7   31.50    6.70
  -8   2   7   37.60    7.20
  -7   2   7    3.50    3.10
  -7   2   7   14.00    4.60
  -7   2   7    3.30    2.60
  -7   2   7    2.70    2.60
  -6   2   7   96.89   10.00
  -6   2   7  118.39   11.50
  -6   2   7  104.59   11.10
  -6   2   7   95.69   10.10
  -6   2   7   97.19    9.00
  -5   2   7 1821.12   60.49
  -5   2   7 1869.21   58.29
  -5   2   7 1738.33   58.09
  -5   2   7 1713.33   58.69
  -5   2   7 1769.92   59.99
  -5   2   7 1766.32   60.69
  -5   2   7 1793.82   60.39
  -4   2   7  143.29    8.20
  -4   2   7  133.29    8.90
  -4   2   7  141.59    8.60
  -4   2   7  144.89    9.40
  -4   2   7  158.98    9.90
  -4   2   7  145.19    9.40
  -4   2   7  146.69    8.90
   3  -2  -7   49.00    2.60
   3  -2  -7   45.90    5.80
  -3   2   7   39.50    5.30
  -3   2   7   46.60    5.90
  -3   2   7   38.70    4.10
  -3   2   7   39.60    5.30
  -3   2   7   35.00    4.70
  -3   2   7   56.29    5.80
   2  -2  -7  354.26   15.90
  -2   2   7  365.46   13.70
  -2   2   7  347.97   15.70
  -2   2   7  375.96   15.80
  -2   2   7  383.06   15.70
  -2   2   7  356.26   15.20
  -2   2   7  373.26   13.90
   1  -2  -7  272.67   13.20
  -1   2   7  290.17   12.80
  -1   2   7  309.07   10.90
  -1   2   7  289.67   12.80
  -1   2   7  297.77   10.70
  -1   2   7  280.77   13.40
  -1   2   7  299.97   10.00
  -1   2   7  302.87   13.40
   0  -2  -7  200.38   10.60
   0   2   7  215.28   10.00
   0   2   7  209.38    7.20
   0   2   7  203.68    7.10
   0   2   7  206.08    9.40
   0   2   7  197.68   10.60
   0   2   7  192.48   10.40
  -1  -2  -7   11.10    3.30
   1   2   7    8.50    1.80
   1   2   7    9.70    2.40
   1   2   7   12.30    3.00
  -2  -2  -7    1.20    1.70
  -2  -2  -7    1.20    1.50
  -2  -2  -7   -0.20    1.10
   2   2   7   -1.70    1.20
   2   2   7   -0.30    0.40
   2   2   7    1.30    1.30
  -3  -2  -7   18.80    4.20
  -3  -2  -7   39.60    6.30
  -3  -2  -7   21.90    4.40
   3   2   7   25.70    4.00
   3   2   7   34.70    5.50
  -4  -2  -7   62.59    8.10
  -4  -2  -7   45.00    6.70
  -4  -2  -7   42.70    6.80
   4   2   7   47.80    4.80
  -5  -2  -7   13.10    4.30
  -5  -2  -7    7.40    3.40
  -5  -2  -7   11.60    4.10
  -6  -2  -7   20.70    5.90
  -6  -2  -7   15.70    5.10
  -6  -2  -7   41.10    7.70
  -7  -2  -7   31.60    7.10
  -7  -2  -7   52.29    9.20
  -7  -2  -7   42.80    8.30
  -8  -2  -7    7.30    4.90
  -8  -2  -7    5.90    5.30
  -8   3   7   18.80    6.00
  -8   3   7   17.60    6.20
  -7   3   7    5.20    3.50
  -7   3   7    1.40    2.70
  -7   3   7    0.80    2.70
  -6   3   7  154.48   14.00
  -6   3   7  137.39   10.50
  -6   3   7  146.09   11.00
  -6   3   7  134.89    9.40
  -6   3   7  123.39   10.00
  -5   3   7  238.48   13.70
  -5   3   7  231.58   13.90
  -5   3   7  245.88   14.20
  -5   3   7  262.47   13.90
  -4   3   7   23.30    4.60
  -4   3   7   19.60    3.20
  -4   3   7   25.40    4.80
  -4   3   7   15.60    2.90
  -4   3   7   26.00    4.50
   3  -3  -7  486.95   20.80
  -3   3   7  492.85   20.30
  -3   3   7  482.95   17.90
  -3   3   7  485.85   20.90
  -3   3   7  487.45   19.20
  -3   3   7  457.05   20.30
   2  -3  -7   23.50    4.60
  -2   3   7   25.90    2.70
  -2   3   7   29.90    4.70
  -2   3   7   26.30    4.50
  -2   3   7   24.30    4.50
  -2   3   7   21.80    3.60
   1  -3  -7   86.99    6.80
  -1   3   7   83.19    6.10
  -1   3   7   70.39    6.80
  -1   3   7   87.39    4.60
  -1   3   7   91.59    6.80
   0  -3  -7   65.89    7.20
   0   3   7   62.09    4.70
   0   3   7   83.09    7.20
   0   3   7   69.49    7.10
   0   3   7   53.79    5.60
  -1  -3  -7    7.10    2.70
  -1  -3  -7   10.90    3.40
   1   3   7    8.00    2.80
   1   3   7    7.20    2.30
   1   3   7    8.20    2.00
  -2  -3  -7  159.18   10.50
  -2  -3  -7  167.78   10.90
  -2  -3  -7  148.19   10.10
   2   3   7  144.69    8.20
   2   3   7  171.68   10.80
  -3  -3  -7   70.69    8.80
  -3  -3  -7   32.70    6.00
  -3  -3  -7   71.99    8.60
   3   3   7   73.39    8.70
  -4  -3  -7    4.40    2.80
  -4  -3  -7    4.80    2.80
  -4  -3  -7   12.00    4.20
   4   3   7    4.70    2.90
  -5  -3  -7    2.90    3.00
  -5  -3  -7    0.40    2.00
  -5  -3  -7    1.10    3.10
  -6  -3  -7   10.30    4.80
  -6  -3  -7    8.70    4.60
  -6  -3  -7   19.20    5.90
  -7  -3  -7   47.20    9.40
  -7  -3  -7   36.00    8.50
  -8   4   7   24.50    6.60
  -8   4   7   27.50    6.90
  -7   4   7   69.99   10.00
  -7   4   7   61.79    9.90
  -6   4   7  314.57   18.20
  -5   4   7  489.15   23.30
  -5   4   7  517.55   22.40
  -5   4   7  508.65   23.60
  -4   4   7   37.20    6.10
  -4   4   7   41.10    6.90
  -4   4   7   33.00    5.90
   3  -4  -7   89.19    9.60
  -3   4   7   87.79    5.30
  -3   4   7  106.59   10.70
  -3   4   7   85.59    8.70
  -3   4   7   80.59    6.20
  -3   4   7   87.29    8.50
   2  -4  -7   -1.10    1.50
  -2   4   7   -1.10    1.30
  -2   4   7    0.50    0.50
  -2   4   7    0.20    1.50
  -2   4   7   -0.30    1.10
  -2   4   7   -0.10    1.50
   1  -4  -7  162.08   10.50
  -1   4   7  164.18    9.80
  -1   4   7  169.08   10.20
  -1   4   7  154.48    9.60
   0  -4  -7   99.69   10.00
   0  -4  -7   84.19    7.70
   0   4   7   79.69    7.50
   0   4   7   92.09    9.00
  -1  -4  -7   -0.10    1.60
  -1  -4  -7   -1.10    1.70
   1   4   7    0.00    1.70
   1   4   7    0.50    1.60
   1   4   7   -0.60    1.20
   1   4   7    4.60    2.10
  -2  -4  -7  205.98   13.00
  -2  -4  -7  213.88   13.70
  -2  -4  -7  217.98   13.60
   2   4   7  225.78   13.70
   2   4   7  210.08   10.90
   2   4   7  226.88   13.50
  -3  -4  -7   17.40    5.10
  -3  -4  -7   28.60    6.10
  -3  -4  -7   18.30    5.20
   3   4   7   12.40    4.10
  -4  -4  -7   -0.40    2.00
  -4  -4  -7    3.90    3.20
  -4  -4  -7    1.30    2.80
   4   4   7    2.80    2.50
  -5  -4  -7    7.00    4.00
  -5  -4  -7   11.70    4.50
  -5  -4  -7   10.40    4.20
   5   4   7    9.70    4.60
  -6  -4  -7   86.19   12.40
   6   4   7   73.49   11.40
  -8   5   7   -0.80    3.20
  -8   5   7    4.90    4.80
  -7   5   7   25.10    5.80
  -7   5   7   27.40    7.10
  -7   5   7   29.60    7.20
  -6   5   7   29.60    6.80
  -6   5   7   29.20    7.00
  -5   5   7    3.90    3.20
  -5   5   7    5.10    3.20
  -4   5   7   13.30    3.80
  -4   5   7   10.60    4.10
  -4   5   7    9.50    3.70
   3  -5  -7    7.70    3.10
  -3   5   7    3.70    2.50
  -3   5   7    6.40    2.80
  -3   5   7    6.20    3.10
  -3   5   7    8.50    1.80
   2  -5  -7  156.38   11.40
  -2   5   7  164.88   11.00
  -2   5   7  198.38   12.60
   1  -5  -7   15.40    4.30
   1  -5  -7   15.40    3.80
  -1   5   7   16.40    4.00
  -1   5   7   13.50    4.00
  -1   5   7   25.60    4.90
   0  -5  -7   63.89    7.40
   0  -5  -7   61.39    7.90
   0   5   7   67.89    7.30
   0   5   7   63.59    8.00
  -1  -5  -7    5.10    3.00
  -1  -5  -7    9.90    3.50
   1   5   7    7.20    3.30
  -2  -5  -7   26.10    5.50
  -2  -5  -7   30.10    6.40
  -2  -5  -7   30.10    6.50
   2   5   7   34.00    6.60
  -3  -5  -7   14.60    4.50
  -3  -5  -7   16.80    5.30
  -3  -5  -7   21.20    5.90
   3   5   7   13.90    4.40
  -4  -5  -7    1.80    3.40
  -4  -5  -7    0.00    3.00
  -4  -5  -7    1.90    3.00
   4   5   7   -1.60    3.10
  -5  -5  -7   25.10    7.30
   5   5   7   32.50    7.70
  -8   6   7   16.00    7.10
  -7   6   7   42.20    8.80
  -7   6   7   53.69    9.90
  -7   6   7   49.20    8.30
  -6   6   7   31.10    7.00
  -6   6   7   15.70    4.70
  -6   6   7   19.70    6.20
  -5   6   7    0.40    3.10
  -5   6   7    4.10    3.50
  -4   6   7    3.70    3.10
  -4   6   7    4.40    3.10
   3  -6  -7    3.50    3.00
  -3   6   7    7.70    3.50
  -3   6   7    4.90    3.60
   2  -6  -7   46.90    7.60
   2  -6  -7   61.19    9.00
  -2   6   7   42.70    6.90
  -2   6   7   37.50    6.30
  -2   6   7   48.90    8.20
   1  -6  -7    3.00    2.70
   1  -6  -7   -0.60    2.00
  -1   6   7    4.00    2.60
  -1   6   7    0.50    2.00
  -1   6   7    3.80    2.60
   0  -6  -7    4.10    3.00
   0   6   7    0.20    2.50
   0   6   7    2.50    3.00
   0   6   7    2.70    2.60
  -1  -6  -7   40.00    7.10
   1   6   7   36.60    7.30
  -2  -6  -7    7.20    3.90
  -2  -6  -7   15.30    5.10
   2   6   7   15.50    5.20
  -3  -6  -7    7.80    4.30
  -3  -6  -7    9.10    5.40
  -3  -6  -7    6.20    4.00
   3   6   7    5.60    4.00
  -4  -6  -7    6.70    4.50
   4   6   7    1.60    3.30
  -7   7   7    4.00    4.00
  -7   7   7    4.80    4.00
  -6   7   7    6.60    4.80
  -6   7   7    8.50    4.60
  -6   7   7    0.20    2.60
  -5   7   7    5.50    2.80
  -5   7   7    2.40    3.20
  -5   7   7    4.90    4.00
  -4   7   7   18.40    5.80
  -4   7   7   13.90    5.20
   3  -7  -7    4.60    3.70
  -3   7   7    1.80    2.70
  -3   7   7    8.30    3.60
   2  -7  -7   -0.30    2.70
   2  -7  -7    1.70    3.00
  -2   7   7    2.20    3.20
  -2   7   7    4.30    3.30
   1  -7  -7    1.50    2.90
   1  -7  -7    0.90    3.00
  -1   7   7    0.40    3.20
  -1   7   7    0.00    2.60
   0  -7  -7   -0.20    2.80
   0   7   7    0.20    3.20
   0   7   7    0.00    2.90
  -1  -7  -7   18.60    5.40
   1   7   7   23.70    6.30
   1   7   7   10.50    4.50
  -2  -7  -7   16.70    6.30
  -2  -7  -7   14.50    6.00
   2   7   7   13.30    5.40
  -3  -7  -7    2.60    4.80
   3   7   7    1.00    3.40
  -5   8   7    1.00    4.10
  -5   8   7    0.60    3.50
  -5   8   7    1.10    2.60
  -4   8   7    5.60    4.40
  -4   8   7    9.90    4.80
  -4   8   7    3.20    2.00
   3  -8  -7    4.90    4.60
  -3   8   7   -0.40    3.30
  -3   8   7   -1.20    3.00
   2  -8  -7    9.40    5.20
   2  -8  -7    9.60    5.00
  -2   8   7   -2.70    3.00
  -2   8   7    9.90    4.40
   1  -8  -7    3.10    3.80
  -1   8   7   11.10    4.70
   0  -8  -7    2.10    3.60
   0   8   7    0.80    3.50
   0   9  -8    7.80    5.20
   0  -9   8    4.80    4.70
  -1   9  -8    4.50    4.60
   1  -9   8   -2.80    3.80
   1  -9   8    2.30    3.50
  -2   9  -8   -1.30    2.80
   2  -9   8    6.10    4.90
   2  -9   8    1.70    3.50
  -3   9  -8    1.50    3.70
   3  -9   8    0.50    3.30
   3  -9   8    3.10    4.40
  -4   9  -8    4.50    4.00
   4  -9   8    4.10    4.30
   4  -9   8    8.70    4.80
   2   8  -8   -0.90    3.70
  -2  -8   8    2.90    4.10
   1   8  -8   12.70    5.00
  -1  -8   8   15.20    6.20
   0   8  -8    1.80    3.70
   0  -8   8   -0.70    3.00
   0  -8   8    0.40    2.80
  -1   8  -8    1.50    3.20
   1  -8   8   -3.40    1.90
   1  -8   8    1.10    3.50
   2  -8   8   11.00    5.00
   2  -8   8   14.60    5.30
  -3   8  -8    3.60    3.90
   3  -8   8    5.10    3.60
   3  -8   8    4.80    3.20
  -4   8  -8    0.60    3.20
   4  -8   8   -0.90    2.50
   4  -8   8    0.90    2.70
  -5   8  -8    2.60    3.70
   5  -8   8    3.10    3.50
   5  -8   8    7.50    4.30
  -6   8  -8    1.80    3.80
   6  -8   8    4.30    3.80
   6  -8   8    8.90    4.50
   4   7  -8   11.20    5.50
   3   7  -8   -3.10    2.90
  -3  -7   8   -1.90    3.10
   2   7  -8    0.00    2.70
  -2  -7   8    6.00    4.00
   1   7  -8    1.30    3.30
  -1  -7   8   -1.00    2.50
  -1  -7   8   -0.50    3.00
   0   7  -8    0.90    2.60
   0  -7   8    1.10    2.60
   0  -7   8    3.20    3.30
  -1   7  -8    9.80    4.60
   1  -7   8    5.60    3.30
   1  -7   8    5.40    3.10
   2  -7   8   13.10    4.40
   2  -7   8    6.00    3.30
   3  -7   8    1.10    2.90
   3  -7   8    1.50    2.70
  -4   7  -8   39.50    7.20
   4  -7   8   40.00    7.10
   4  -7   8   53.39    8.40
  -5   7  -8   22.80    5.90
  -5   7  -8   15.20    5.10
   5  -7   8   18.60    5.20
   5  -7   8   17.80    5.20
  -6   7  -8    7.70    4.40
  -6   7  -8    3.20    4.20
   6  -7   8    5.00    3.50
   6  -7   8    9.90    4.10
  -7   7  -8    7.20    5.10
   7  -7   8   22.80    6.40
   5   6  -8    1.80    4.50
  -5  -6   8   -1.00    4.30
   4   6  -8    2.60    3.90
  -4  -6   8    9.10    5.00
  -4  -6   8    6.10    4.00
  -4  -6   8   15.50    5.80
   3   6  -8   30.80    7.50
  -3  -6   8   22.40    5.90
  -3  -6   8   33.70    6.80
  -3  -6   8   30.10    6.40
   2   6  -8   27.60    6.60
  -2  -6   8   33.50    6.50
  -2  -6   8   33.00    6.50
  -2  -6   8   40.00    7.20
   1   6  -8   11.30    4.60
  -1  -6   8    4.50    3.50
  -1  -6   8   15.30    3.90
  -1  -6   8   15.00    4.60
   0   6  -8   18.00    5.20
   0  -6   8   18.50    4.30
   0  -6   8   16.50    5.00
   0  -6   8   13.20    3.70
  -1   6  -8   29.40    6.80
   1  -6   8   27.90    5.30
   1  -6   8   34.90    6.50
   2  -6   8    0.80    2.00
   2  -6   8    0.20    1.90
   3  -6   8    0.90    2.00
   3  -6   8   -0.50    2.00
  -4   6  -8    7.10    3.70
  -4   6  -8    6.50    3.50
   4  -6   8    9.90    3.80
   4  -6   8    7.30    3.20
  -5   6  -8   21.90    5.60
  -5   6  -8   25.90    5.70
   5  -6   8   20.10    5.10
   5  -6   8   15.40    4.30
  -6   6  -8   14.40    5.20
   6  -6   8   21.00    5.10
  -7   6  -8   -1.00    3.40
   7  -6   8    3.10    3.20
  -8   6  -8   -3.30    3.50
  -6  -5   8   -2.60    3.30
   5   5  -8   12.60    5.30
  -5  -5   8    9.40    4.80
  -5  -5   8    4.80    4.10
   4   5  -8    2.70    3.80
  -4  -5   8    1.70    2.20
  -4  -5   8   -0.20    2.10
  -4  -5   8    5.60    3.20
   3   5  -8   21.50    6.10
  -3  -5   8    8.50    3.60
  -3  -5   8   26.50    6.00
  -3  -5   8   15.50    4.90
  -3  -5   8   16.80    5.00
   2   5  -8  189.78   13.70
  -2  -5   8  193.58   12.80
  -2  -5   8  199.38   13.10
  -2  -5   8  222.18   13.80
  -2  -5   8  205.98   11.40
  -2  -5   8  196.08   12.20
   1   5  -8   15.20    4.60
   1   5  -8   21.80    3.90
  -1  -5   8   26.20    5.10
  -1  -5   8   21.80    4.10
  -1  -5   8   14.10    3.60
  -1  -5   8   21.90    4.90
   0   5  -8  156.18    8.60
   0   5  -8  198.28   12.90
   0   5  -8  148.59   15.80
   0  -5   8  189.28   14.30
   0  -5   8  171.68   11.40
   0  -5   8  178.48   10.60
   0  -5   8  196.68   11.30
  -1   5  -8  389.16   15.60
  -1   5  -8  370.76   19.50
  -1   5  -8  380.86   20.30
   1  -5   8  378.16   16.90
   1  -5   8  379.66   17.60
   1  -5   8  367.26   18.20
  -2   5  -8    3.80    2.80
  -2   5  -8    2.20    1.50
   2  -5   8    0.80    1.70
   2  -5   8    2.70    2.20
  -3   5  -8    1.50    2.10
   3  -5   8    0.40    1.60
   3  -5   8   -0.80    1.70
  -4   5  -8    5.00    3.30
  -4   5  -8    2.30    2.20
   4  -5   8   -0.50    1.70
   4  -5   8    0.80    1.70
  -5   5  -8    5.10    2.60
  -5   5  -8    8.70    4.00
   5  -5   8    5.50    2.80
   5  -5   8    2.00    2.50
  -6   5  -8   -3.60    2.40
   6  -5   8   -0.40    2.00
  -7   5  -8    1.00    3.50
  -8   5  -8   -2.10    3.60
  -7  -4   8    3.80    5.00
  -6  -4   8   -1.40    3.20
  -6  -4   8    8.80    4.80
  -5  -4   8    4.70    3.60
  -5  -4   8    2.60    2.80
  -5  -4   8   -1.90    2.50
  -4  -4   8    1.50    2.90
  -4  -4   8    2.30    2.70
  -4  -4   8    5.10    3.40
  -4  -4   8   -0.10    2.30
   3   4  -8   25.80    6.00
  -3  -4   8   18.20    4.50
  -3  -4   8   13.40    4.00
  -3  -4   8   18.10    5.00
  -3  -4   8   13.60    4.10
   2   4  -8   55.69    5.60
   2   4  -8   48.40    8.00
   2   4  -8   59.09    8.10
  -2  -4   8   54.09    7.30
  -2  -4   8   50.59    5.80
  -2  -4   8   50.39    6.50
  -2  -4   8   52.79    7.10
  -2  -4   8   50.29    6.90
   1   4  -8   -1.70    1.60
   1   4  -8   -0.60    1.90
   1   4  -8    2.10    1.30
  -1  -4   8    1.10    1.50
  -1  -4   8    0.40    1.20
  -1  -4   8    0.30    1.40
  -1  -4   8    0.70    1.50
  -1  -4   8   -1.80    1.20
   0   4  -8   18.50    2.90
   0   4  -8   13.90    4.00
   0   4  -8   24.70    5.00
   0  -4   8   18.40    3.70
   0  -4   8   16.40    3.70
   0  -4   8   23.20    4.10
   0  -4   8   20.80    3.40
   0  -4   8   27.10    4.20
  -1   4  -8  120.19    9.20
  -1   4  -8  151.08   10.70
  -1   4  -8  122.49    7.20
   1  -4   8  130.89    7.40
   1  -4   8  144.99    8.60
   1  -4   8  132.19    8.80
   1  -4   8  128.89    8.50
  -2   4  -8   73.29    8.80
  -2   4  -8   48.80    5.20
  -2   4  -8   63.39    6.60
   2  -4   8   51.89    6.40
   2  -4   8   59.49    5.80
   2  -4   8   78.29    8.00
  -3   4  -8   10.80    3.10
  -3   4  -8   12.00    4.00
  -3   4  -8    6.70    2.20
   3  -4   8   10.20    2.90
   3  -4   8    6.20    2.40
  -4   4  -8  140.49   10.10
  -4   4  -8  130.99    8.70
  -4   4  -8  128.49    8.50
   4  -4   8  144.49    9.00
   4  -4   8  128.29    9.00
  -5   4  -8   44.10    5.70
  -5   4  -8   45.00    7.40
   5  -4   8   37.80    5.70
  -6   4  -8   -0.20    2.80
   6  -4   8   -0.50    2.00
  -7   4  -8    1.90    3.60
  -8   4  -8   26.30    7.40
  -7  -3   8   39.80    8.70
  -6  -3   8   12.60    4.80
  -6  -3   8    2.50    3.20
  -6  -3   8   10.20    5.40
  -5  -3   8   83.29    9.70
  -5  -3   8   90.89   11.40
  -5  -3   8   85.49   10.70
  -4  -3   8   42.40    7.20
  -4  -3   8   50.69    7.70
  -4  -3   8   43.70    6.60
  -4  -3   8   63.29    8.90
   3   3  -8  449.86   18.10
   3   3  -8  453.75   21.10
   3   3  -8  454.65   21.90
  -3  -3   8  456.25   17.90
  -3  -3   8  434.06   20.10
  -3  -3   8  457.55   21.30
  -3  -3   8  405.86   19.90
  -3  -3   8  448.56   21.20
   2   3  -8   61.49    5.60
   2   3  -8   62.39    8.00
   2   3  -8   61.59    8.10
  -2  -3   8   74.89    8.30
  -2  -3   8   69.09    7.70
  -2  -3   8   75.09    7.90
  -2  -3   8   60.69    7.20
  -2  -3   8   65.69    6.50
   1   3  -8  308.47   15.40
   1   3  -8  331.97   13.40
   1   3  -8  317.87   16.20
  -1  -3   8  321.27   15.00
  -1  -3   8  316.67   14.30
  -1  -3   8  312.37   14.00
  -1  -3   8  318.07   15.10
   0   3  -8 2043.10   67.09
   0   3  -8 2023.90   63.09
   0   3  -8 2061.99   65.99
   0  -3   8 2045.00   65.19
   0  -3   8 2000.80   63.39
   0  -3   8 2026.70   64.49
   0  -3   8 2010.70   65.39
   0  -3   8 1974.60   64.19
  -1   3  -8   55.99    5.20
  -1   3  -8   51.49    4.80
  -1   3  -8   59.59    7.30
   1  -3   8   44.50    5.30
   1  -3   8   48.10    4.60
   1  -3   8   46.30    4.90
   1  -3   8   51.79    5.70
   1  -3   8   56.89    6.10
   1  -3   8   49.60    3.30
  -2   3  -8   97.79    8.10
  -2   3  -8   92.39    6.60
  -2   3  -8  100.39    6.40
   2  -3   8   96.39    5.50
   2  -3   8   91.09    6.40
   2  -3   8   93.09    6.80
   2  -3   8  101.49    6.80
  -3   3  -8   39.00    5.60
  -3   3  -8   44.20    5.10
   3  -3   8   36.80    4.70
   3  -3   8   37.10    4.50
   3  -3   8   33.30    5.00
  -4   3  -8    2.70    1.80
  -4   3  -8    5.00    2.10
  -4   3  -8    2.00    2.00
   4  -3   8    0.40    1.80
   4  -3   8    3.20    1.80
   4  -3   8   -0.10    1.80
  -5   3  -8   58.29    8.50
   5  -3   8   49.70    6.30
  -6   3  -8   25.30    6.00
  -7   3  -8    9.40    4.50
  -8   3  -8   64.49   11.10
  -9   3  -8   -3.00    3.30
  -8  -2   8    2.60    4.30
  -7  -2   8    0.20    3.40
  -7  -2   8    9.20    4.40
  -6  -2   8   49.10    8.20
  -6  -2   8   32.00    6.00
  -6  -2   8   48.20    8.40
   5   2  -8    5.00    3.80
  -5  -2   8    4.30    2.80
  -5  -2   8    8.00    3.30
  -5  -2   8    1.00    2.40
  -5  -2   8    2.40    3.00
   4   2  -8  502.55   20.60
   4   2  -8  521.25   23.80
  -4  -2   8  502.15   23.10
  -4  -2   8  508.65   23.40
  -4  -2   8  518.55   24.00
  -4  -2   8  506.15   22.40
   3   2  -8  522.05   20.30
   3   2  -8  541.95   23.20
  -3  -2   8  533.35   23.10
  -3  -2   8  508.75   20.00
  -3  -2   8  530.65   23.30
  -3  -2   8  516.65   22.20
  -3  -2   8  557.34   23.10
   2   2  -8   79.19    6.50
   2   2  -8   82.49    7.00
   2   2  -8   85.19    5.70
  -2  -2   8   96.19    7.40
  -2  -2   8   71.79    6.50
  -2  -2   8   87.79    6.80
  -2  -2   8   90.69    8.50
  -2  -2   8   75.89    7.70
   1   2  -8   27.90    4.30
   1   2  -8   29.40    3.70
   1   2  -8   29.40    4.70
  -1  -2   8   24.50    4.00
  -1  -2   8   26.00    4.00
  -1  -2   8   24.90    4.10
  -1  -2   8   27.80    4.50
  -1  -2   8   32.30    3.30
  -1  -2   8   25.30    3.90
   0   2  -8  278.97   13.60
   0   2  -8  303.67   12.60
   0   2  -8  325.47   11.90
   0   2  -8  316.67   14.80
   0  -2   8  315.07   13.70
   0  -2   8  312.47   13.20
   0  -2   8  303.37   14.10
   0  -2   8  317.37   12.10
   0  -2   8  316.07   13.70
  -1   2  -8   59.99    4.50
  -1   2  -8   63.69    4.60
  -1   2  -8   50.49    6.10
   1  -2   8   66.59    6.10
   1  -2   8   74.09    6.70
   1  -2   8   54.89    5.50
   1  -2   8   59.19    4.30
   1  -2   8   57.09    5.30
  -2   2  -8   27.10    3.40
  -2   2  -8   26.90    4.10
   2  -2   8   27.50    4.00
   2  -2   8   28.30    4.10
   2  -2   8   30.60    3.70
   2  -2   8   25.70    3.50
   2  -2   8   25.00    3.40
  -3   2  -8   38.00    5.70
  -3   2  -8   36.80    4.10
   3  -2   8   36.80    4.20
   3  -2   8   36.90    4.50
   3  -2   8   41.50    4.40
   3  -2   8   37.80    4.80
   3  -2   8   30.60    4.20
  -4   2  -8  101.29    7.40
  -4   2  -8  123.09    9.00
   4  -2   8  109.29    7.60
   4  -2   8  103.59    7.10
   4  -2   8  104.19    6.80
   4  -2   8  119.79    7.50
  -5   2  -8   97.79   10.60
   5  -2   8   93.89    8.20
   5  -2   8   96.39    7.30
  -6   2  -8   35.60    7.10
  -7   2  -8   30.70    7.40
  -8   2  -8    6.20    4.90
  -9   2  -8   36.20   10.10
  -8  -1   8   23.10    6.70
  -7  -1   8    9.40    4.40
  -7  -1   8   20.90    5.90
  -7  -1   8   27.70    5.70
  -6  -1   8    0.50    2.20
  -6  -1   8    1.70    2.60
  -6  -1   8    1.50    2.70
  -6  -1   8   -0.20    2.30
   5   1  -8    2.90    2.70
  -5  -1   8    3.60    2.60
  -5  -1   8    1.30    2.00
  -5  -1   8    3.10    2.60
  -5  -1   8    1.20    1.90
   4   1  -8  374.06   16.50
   4   1  -8  384.96   18.20
  -4  -1   8  374.16   18.80
  -4  -1   8  389.86   18.20
  -4  -1   8  403.16   19.00
  -4  -1   8  402.66   19.50
  -4  -1   8  403.16   16.10
   3   1  -8   10.30    2.30
   3   1  -8    8.70    2.60
  -3  -1   8    2.80    2.00
  -3  -1   8    4.80    2.20
  -3  -1   8    5.90    2.40
  -3  -1   8   12.00    2.80
  -3  -1   8    9.40    3.00
   2   1  -8  520.85   17.70
   2   1  -8  491.25   20.00
   2   1  -8  524.75   19.80
   2   1  -8  521.35   19.20
  -2  -1   8  527.35   19.70
  -2  -1   8  529.55   21.40
  -2  -1   8  514.95   21.90
  -2  -1   8  542.75   21.50
  -2  -1   8  505.35   20.70
  -2  -1   8  502.25   17.70
  -2  -1   8  494.85   20.40
   1   1  -8 1209.98   41.50
   1   1  -8 1263.47   40.80
   1   1  -8 1274.07   40.30
   1   1  -8 1240.38   39.40
  -1  -1   8 1260.67   41.80
  -1  -1   8 1300.27   41.80
  -1  -1   8 1239.68   41.20
  -1  -1   8 1291.07   42.80
  -1  -1   8 1206.88   41.90
   0   1  -8    3.00    1.70
   0   1  -8    2.00    1.30
   0   1  -8    1.20    0.90
   0  -1   8   -0.30    1.10
   0  -1   8    0.20    1.10
   0  -1   8    1.80    1.40
   0  -1   8    2.40    1.40
   0  -1   8    2.10    1.00
   0  -1   8    2.50    1.50
  -1   1  -8   14.70    2.90
  -1   1  -8   16.90    2.40
   1  -1   8   19.30    3.30
   1  -1   8   18.40    3.10
   1  -1   8   16.80    2.80
   1  -1   8   15.50    2.50
  -2   1  -8   11.20    2.10
  -2   1  -8    9.30    2.60
   2  -1   8    8.40    1.80
   2  -1   8   11.00    2.80
   2  -1   8    5.20    1.70
   2  -1   8    6.90    1.90
   2  -1   8    7.50    2.00
  -3   1  -8   32.40    5.20
  -3   1  -8   31.50    4.40
  -3   1  -8   30.10    3.40
   3  -1   8   42.00    5.10
   3  -1   8   30.60    4.10
   3  -1   8   37.60    4.60
   3  -1   8   30.30    3.10
   3  -1   8   28.00    4.30
  -4   1  -8  241.38   13.90
  -4   1  -8  251.67   12.70
   4  -1   8  256.27   12.60
   4  -1   8  250.37   11.60
   4  -1   8  261.57   12.30
  -5   1  -8    8.90    3.10
  -5   1  -8    4.90    2.30
  -5   1  -8    8.20    3.60
   5  -1   8    9.20    2.90
   5  -1   8   10.00    3.20
  -6   1  -8    2.70    2.00
  -6   1  -8   -0.80    2.50
  -6   1  -8   -0.30    1.70
   6  -1   8    0.80    2.30
  -7   1  -8  109.09   13.00
  -8   1  -8    5.00    4.60
  -8   0   8   41.10    8.60
  -8   0   8   31.20    8.10
  -7   0   8  113.59   13.10
  -7   0   8   92.09   11.50
  -7   0   8   92.49   10.80
  -7   0   8  107.49   14.60
  -6   0   8    6.50    3.30
  -6   0   8   12.00    4.60
  -6   0   8   10.90    3.70
  -6   0   8   13.20    4.30
   5   0  -8  438.66   18.30
  -5   0   8  383.46   20.20
  -5   0   8  443.36   20.30
  -5   0   8  422.16   19.70
  -5   0   8  387.16   20.10
   4   0  -8 2763.72   90.49
  -4   0   8 2640.04   84.99
  -4   0   8 2673.93   83.99
  -4   0   8 2694.83   82.79
  -4   0   8 2621.74   82.49
  -4   0   8 2594.74   85.69
  -4   0   8 2599.64   85.29
  -4   0   8 2665.93   86.19
   3   0  -8   19.00    3.20
   3   0  -8   18.60    2.90
  -3   0   8   24.10    4.20
  -3   0   8   25.00    3.80
  -3   0   8   26.50    3.50
  -3   0   8   23.30    3.50
  -3   0   8   22.30    4.30
  -3   0   8   17.00    3.80
  -3   0   8   16.30    3.60
   2   0  -8    1.10    1.00
   2   0  -8   -0.10    0.70
   2   0  -8   -0.10    0.90
   2   0  -8   -0.20    1.00
  -2   0   8    1.70    1.60
  -2   0   8    0.60    1.10
  -2   0   8    1.20    1.10
  -2   0   8    3.40    1.40
  -2   0   8    1.80    1.40
  -2   0   8    1.70    1.50
  -2   0   8    0.70    1.40
   1   0  -8   54.09    5.10
   1   0  -8   44.60    3.80
   1   0  -8   61.29    3.90
  -1   0   8   56.19    5.50
  -1   0   8   44.60    3.70
  -1   0   8   46.30    5.30
  -1   0   8   50.59    5.70
  -1   0   8   53.89    5.40
   0   0  -8  303.67   11.50
   0   0  -8  305.67   13.10
   0   0   8  296.37   13.10
   0   0   8  324.17   14.20
   0   0   8  310.17   12.90
   0   0   8  324.57   12.40
   0   0   8  307.17   13.60
   0   0   8  309.67   12.80
  -1   0  -8  286.07   12.60
  -1   0  -8  269.97    9.80
   1   0   8  277.97   11.00
   1   0   8  253.17   12.60
   1   0   8  268.47   12.40
   1   0   8  282.57   11.30
   1   0   8  247.08   11.60
   1   0   8  270.87   12.60
  -2   0  -8  154.18    6.70
  -2   0  -8  166.78    6.10
  -2   0  -8  165.48    9.50
   2   0   8  171.88    8.10
   2   0   8  152.38    8.90
   2   0   8  158.78    7.90
   2   0   8  163.68    9.50
   2   0   8  157.68    6.90
   2   0   8  169.38    8.60
  -3   0  -8   22.40    4.60
  -3   0  -8   20.60    3.80
   3   0   8   20.60    3.90
   3   0   8   24.10    3.50
   3   0   8   20.30    3.30
  -4   0  -8  106.49    8.60
  -4   0  -8  116.19   10.90
  -4   0  -8  114.99    8.40
   4   0   8  119.59    6.90
   4   0   8  117.49    7.50
   4   0   8  113.49    8.40
  -5   0  -8   16.30    4.10
  -5   0  -8   21.70    5.40
  -5   0  -8   33.40    5.80
   5   0   8   28.10    5.40
  -6   0  -8   17.40    4.50
  -6   0  -8   25.90    6.30
  -6   0  -8   22.90    5.40
  -7   0  -8   57.49    9.00
  -7   0  -8   45.10    7.60
  -7   0  -8   44.20    8.20
  -8   0  -8   17.90    6.50
  -8   0  -8   30.00    7.90
  -9   1   8   -1.20    4.20
  -8   1   8    4.10    3.80
  -8   1   8   11.80    4.40
  -7   1   8   -1.00    2.10
  -7   1   8    6.10    3.50
  -7   1   8    3.20    2.70
  -6   1   8   82.89   10.20
  -6   1   8  107.19   11.90
  -6   1   8  111.39   10.70
  -6   1   8  118.39   11.90
  -5   1   8   80.49    7.30
  -5   1   8   96.39   10.00
  -5   1   8   86.79    9.00
  -5   1   8   72.49    8.60
  -5   1   8   87.49    8.00
  -5   1   8   75.99    8.40
  -5   1   8   82.39    9.10
  -4   1   8    0.00    1.50
  -4   1   8    2.60    2.00
  -4   1   8    1.50    1.60
  -4   1   8    2.20    2.10
  -4   1   8    1.10    1.90
  -4   1   8   -1.00    1.20
  -4   1   8    0.60    1.20
   3  -1  -8   15.60    2.50
   3  -1  -8   18.70    3.50
  -3   1   8   24.00    4.60
  -3   1   8   18.10    3.60
  -3   1   8   17.20    3.30
  -3   1   8   13.10    3.40
  -3   1   8   22.50    3.80
  -3   1   8   25.00    3.60
   2  -1  -8  413.16   14.20
   2  -1  -8  381.96   16.10
   2  -1  -8  404.86   13.40
  -2   1   8  390.16   16.20
  -2   1   8  398.66   17.20
  -2   1   8  419.36   16.50
  -2   1   8  377.26   15.20
  -2   1   8  400.36   13.40
  -2   1   8  387.16   16.90
  -2   1   8  390.56   16.90
   1  -1  -8  869.91   27.30
   1  -1  -8  936.11   31.80
   1  -1  -8  906.51   27.40
  -1   1   8  910.51   28.90
  -1   1   8  904.11   31.50
  -1   1   8  957.90   30.20
  -1   1   8  908.11   29.90
  -1   1   8  908.01   32.30
  -1   1   8  912.31   31.40
  -1   1   8  926.61   32.50
   0  -1  -8  118.59    7.50
   0   1   8  122.59    7.20
   0   1   8  115.49    7.60
   0   1   8  118.99    5.90
   0   1   8  126.49    6.90
   0   1   8  120.29    6.50
   0   1   8  119.39    6.10
   0   1   8  131.69    8.10
  -1  -1  -8  420.26   17.50
   1   1   8  388.16   14.70
   1   1   8  406.76   17.10
   1   1   8  406.86   17.50
   1   1   8  418.66   16.30
   1   1   8  401.26   14.70
  -2  -1  -8  106.09    7.50
  -2  -1  -8  100.99    7.40
   2   1   8   95.39    6.10
   2   1   8   97.59    5.60
   2   1   8  103.69    7.30
   2   1   8   98.19    6.30
  -3  -1  -8   21.70    4.50
  -3  -1  -8   28.50    5.10
  -3  -1  -8   21.60    4.30
   3   1   8   19.20    3.30
   3   1   8   19.60    4.10
   3   1   8   17.40    2.80
  -4  -1  -8  106.59   10.50
  -4  -1  -8   92.39    9.70
  -4  -1  -8  106.89   11.00
   4   1   8   88.89    6.30
  -5  -1  -8  108.29   11.50
  -5  -1  -8  105.59   11.10
  -5  -1  -8  110.39   11.30
   5   1   8  101.99   10.70
  -6  -1  -8    0.00    2.30
  -6  -1  -8    1.20    2.70
  -6  -1  -8   -0.70    1.80
  -7  -1  -8   87.59   11.60
  -7  -1  -8   76.09   11.00
  -8  -1  -8   65.39   10.60
  -8  -1  -8   65.49   10.80
  -9   2   8   27.30    7.60
  -8   2   8   73.39   10.00
  -8   2   8   68.89   10.10
  -7   2   8   18.40    5.00
  -7   2   8   10.90    4.60
  -7   2   8   12.80    4.90
  -6   2   8  145.79   13.60
  -6   2   8  154.88   10.90
  -6   2   8  139.19   13.00
  -6   2   8  138.49   11.00
  -5   2   8  337.97   17.40
  -5   2   8  346.47   17.80
  -5   2   8  332.37   16.00
  -5   2   8  345.37   17.70
  -5   2   8  372.56   17.50
  -5   2   8  368.06   16.00
  -5   2   8  335.07   16.50
  -4   2   8  148.19   10.10
  -4   2   8  148.69    8.50
  -4   2   8  127.89    9.30
  -4   2   8  139.59    9.80
  -4   2   8  143.79    9.50
  -4   2   8  155.88    9.20
  -4   2   8  151.28    9.40
   3  -2  -8   35.40    5.10
  -3   2   8   33.80    5.20
  -3   2   8   29.00    4.80
  -3   2   8   31.80    5.20
  -3   2   8   27.20    3.60
  -3   2   8   30.70    4.60
  -3   2   8   39.00    5.20
   2  -2  -8   42.40    5.80
  -2   2   8   30.30    3.60
  -2   2   8   34.20    5.00
  -2   2   8   35.60    4.80
  -2   2   8   30.60    4.50
  -2   2   8   32.30    4.90
  -2   2   8   32.40    3.50
  -2   2   8   27.90    4.40
   1  -2  -8  798.02   29.10
  -1   2   8  805.72   29.40
  -1   2   8  798.02   28.20
  -1   2   8  832.12   29.30
  -1   2   8  791.72   28.30
  -1   2   8  749.03   25.60
  -1   2   8  750.72   24.60
  -1   2   8  804.62   25.90
   0  -2  -8  314.87   14.50
   0   2   8  298.97   10.80
   0   2   8  314.07   13.00
   0   2   8  303.77   11.00
   0   2   8  310.97   13.50
   0   2   8  293.27   14.30
   0   2   8  283.07   14.10
  -1  -2  -8    2.60    1.90
   1   2   8   -0.20    0.90
   1   2   8    0.40    1.10
   1   2   8   -1.00    1.10
   1   2   8    0.00    0.50
  -2  -2  -8    2.70    2.30
  -2  -2  -8    7.60    2.80
   2   2   8    4.20    2.10
   2   2   8    2.80    0.90
   2   2   8    4.10    1.90
  -3  -2  -8  166.78   11.70
  -3  -2  -8  204.78   12.50
  -3  -2  -8  196.88   12.30
   3   2   8  211.08   12.40
   3   2   8  210.58   11.20
  -4  -2  -8   27.20    5.50
  -4  -2  -8   35.40    6.70
  -4  -2  -8   39.30    6.80
   4   2   8   44.20    7.30
  -5  -2  -8    8.60    4.00
  -5  -2  -8    7.60    3.40
  -5  -2  -8    6.90    3.10
   5   2   8    4.00    3.10
  -6  -2  -8    8.40    4.10
  -6  -2  -8   10.30    4.00
  -6  -2  -8   17.20    5.50
   6   2   8    9.00    4.20
  -7  -2  -8   11.00    5.30
  -7  -2  -8   20.00    6.10
  -7  -2  -8    8.70    4.50
  -8   3   8   29.70    7.30
  -8   3   8   30.50    7.20
  -7   3   8    4.40    3.60
  -7   3   8    8.30    3.80
  -7   3   8    1.30    2.80
  -6   3   8   99.89   10.50
  -6   3   8  108.09   11.00
  -6   3   8   96.59   11.20
  -6   3   8   89.49    9.20
  -6   3   8  108.79   11.80
  -5   3   8    0.60    1.80
  -5   3   8   -2.30    1.90
  -5   3   8   -0.10    1.80
  -5   3   8    1.10    2.00
  -5   3   8   -2.10    1.70
  -4   3   8    7.20    2.90
  -4   3   8   11.10    3.70
  -4   3   8   10.80    2.80
  -4   3   8   16.40    3.40
  -4   3   8    6.60    2.90
  -4   3   8    5.30    2.30
   3  -3  -8   40.00    6.10
  -3   3   8   26.00    4.60
  -3   3   8   27.00    4.90
  -3   3   8   26.50    4.60
  -3   3   8   26.60    4.10
  -3   3   8   33.20    5.60
  -3   3   8   28.00    3.60
   2  -3  -8  102.19    8.00
  -2   3   8  104.59    8.00
  -2   3   8  102.89    5.60
  -2   3   8   98.49    7.30
  -2   3   8  112.09    7.80
  -2   3   8   99.09    7.20
  -2   3   8  105.79    7.70
   1  -3  -8  142.09    9.60
  -1   3   8  160.28    9.20
  -1   3   8  177.08   10.00
  -1   3   8  160.78    6.40
  -1   3   8  154.18    9.80
  -1   3   8  162.98    9.40
   0  -3  -8   66.89    7.50
   0   3   8   80.09    8.20
   0   3   8   65.89    6.20
   0   3   8   72.49    7.10
   0   3   8   64.39    5.00
  -1  -3  -8   50.89    6.70
   1   3   8   46.50    5.40
   1   3   8   38.90    6.30
   1   3   8   48.40    5.00
  -2  -3  -8    9.00    3.40
  -2  -3  -8    8.70    3.20
   2   3   8    7.00    2.90
   2   3   8    5.90    2.10
  -3  -3  -8  346.57   17.90
  -3  -3  -8  315.57   17.70
  -3  -3  -8  333.47   17.40
   3   3   8  298.57   16.90
  -4  -3  -8   36.20    7.10
  -4  -3  -8   35.10    7.10
   4   3   8   49.20    8.10
  -5  -3  -8    8.40    4.20
  -5  -3  -8    5.30    3.70
  -5  -3  -8    3.70    3.40
   5   3   8   16.00    5.20
  -6  -3  -8  135.89   14.80
  -6  -3  -8  140.89   15.20
  -6  -3  -8  174.68   16.70
   6   3   8  164.88   16.90
  -7  -3  -8   60.09   10.20
  -7  -3  -8   84.19   12.60
   7   3   8   62.39   10.50
  -8   4   8    7.30    4.50
  -8   4   8    8.00    5.40
  -7   4   8   -2.00    2.10
  -7   4   8    3.00    3.30
  -6   4   8   11.20    4.10
  -6   4   8   12.90    4.80
  -6   4   8   21.40    5.30
  -5   4   8  140.99   13.40
  -5   4   8  111.49   12.10
  -5   4   8  131.29    9.90
  -4   4   8    9.30    3.90
  -4   4   8    4.80    2.90
  -4   4   8   -0.40    1.70
   3  -4  -8   11.50    3.60
  -3   4   8   22.80    4.90
  -3   4   8   21.90    4.50
  -3   4   8   18.20    4.30
  -3   4   8   20.60    3.80
  -3   4   8   20.00    2.90
   2  -4  -8  169.88   11.60
  -2   4   8  175.88    7.50
  -2   4   8  203.98   12.30
  -2   4   8  201.08   11.40
  -2   4   8  192.98   11.50
  -2   4   8  167.78   10.30
   1  -4  -8   36.30    6.10
  -1   4   8   47.80    6.10
  -1   4   8   37.80    5.40
  -1   4   8   45.30    6.40
   0  -4  -8  117.09   11.30
   0   4   8  117.29    7.90
   0   4   8  139.09    8.80
   0   4   8  107.49    8.50
  -1  -4  -8   19.70    4.40
   1   4   8   41.90    5.30
   1   4   8   33.60    6.00
  -2  -4  -8    0.30    2.00
  -2  -4  -8    1.90    2.20
   2   4   8    1.60    2.60
   2   4   8    4.30    2.30
   2   4   8    2.60    2.10
  -3  -4  -8   21.90    5.50
  -3  -4  -8   25.00    6.20
  -3  -4  -8   21.80    5.40
   3   4   8   16.00    4.60
  -4  -4  -8   19.30    6.20
  -4  -4  -8   19.70    5.40
  -4  -4  -8   17.10    5.20
   4   4   8   17.90    5.60
  -5  -4  -8    1.00    2.90
  -5  -4  -8    5.20    3.80
  -5  -4  -8    6.50    3.70
   5   4   8    6.10    4.20
  -6  -4  -8   -1.20    3.20
  -6  -4  -8    1.20    3.80
   6   4   8   -4.80    2.60
  -8   5   8    5.00    4.10
  -8   5   8    3.00    3.20
  -7   5   8   -0.50    2.50
  -7   5   8   -3.50    2.50
  -7   5   8    2.30    3.90
  -6   5   8   29.30    6.90
  -6   5   8   29.10    7.10
  -5   5   8   24.30    6.00
  -5   5   8   32.00    6.80
  -4   5   8   -0.10    2.20
  -4   5   8    0.00    2.30
  -4   5   8   -0.70    1.60
   3  -5  -8   11.80    3.80
  -3   5   8    6.60    2.90
  -3   5   8    8.40    2.40
  -3   5   8    7.40    3.00
  -3   5   8   10.50    4.10
   2  -5  -8   45.40    7.20
  -2   5   8   51.59    7.50
  -2   5   8   63.19    7.90
  -2   5   8   59.79    8.50
   1  -5  -8   17.20    4.60
  -1   5   8    9.90    3.40
  -1   5   8   19.70    5.00
  -1   5   8   17.90    4.20
  -1   5   8   19.30    4.30
   0  -5  -8   41.90    7.10
   0   5   8   29.60    5.80
   0   5   8   34.30    5.30
  -1  -5  -8   11.20    4.10
   1   5   8   16.90    4.00
   1   5   8   14.10    4.40
  -2  -5  -8   37.10    6.80
  -2  -5  -8   26.80    6.20
   2   5   8   36.50    6.80
  -3  -5  -8    3.60    3.20
  -3  -5  -8    6.00    4.20
  -3  -5  -8    2.60    3.10
   3   5   8    0.70    2.80
  -4  -5  -8    1.00    3.20
  -4  -5  -8   -0.30    2.90
  -4  -5  -8    2.70    3.70
   4   5   8   -0.50    2.70
  -5  -5  -8   11.30    5.50
  -5  -5  -8    4.70    6.50
   5   5   8    5.30    4.90
  -7   6   8    0.40    3.50
  -7   6   8    4.40    3.80
  -7   6   8    4.80    4.80
  -6   6   8   17.50    5.70
  -6   6   8   12.70    5.70
  -5   6   8   23.60    6.00
  -5   6   8   34.00    7.50
  -4   6   8   19.90    5.40
  -4   6   8   14.60    4.80
   3  -6  -8   11.80    4.40
  -3   6   8   12.10    4.40
  -3   6   8   10.30    4.10
   2  -6  -8   11.50    4.30
  -2   6   8    8.70    4.10
  -2   6   8   12.20    4.10
  -2   6   8   17.50    4.90
   1  -6  -8   49.99    8.30
  -1   6   8   49.70    7.60
  -1   6   8   35.40    6.30
  -1   6   8   41.10    7.40
   0  -6  -8    1.60    2.40
   0   6   8    6.50    3.10
   0   6   8   10.20    4.40
  -1  -6  -8    2.10    2.70
   1   6   8    3.80    3.50
  -2  -6  -8   28.20    6.40
   2   6   8   31.00    6.80
  -3  -6  -8    0.40    3.00
  -3  -6  -8    2.80    3.80
   3   6   8   -0.40    2.70
  -4  -6  -8    3.30    5.20
   4   6   8    1.20    3.40
  -6   7   8    3.60    3.90
  -6   7   8   10.00    4.70
  -6   7   8   18.20    5.40
  -5   7   8    2.00    3.30
  -5   7   8   -2.90    2.50
  -4   7   8    9.10    4.50
   3  -7  -8   15.90    5.90
  -3   7   8   18.20    5.50
  -3   7   8   24.30    6.20
   2  -7  -8   47.90    9.10
  -2   7   8   19.30    5.50
  -2   7   8    7.30    4.30
   1  -7  -8   18.70    5.50
  -1   7   8   20.00    5.30
  -1   7   8   10.50    4.80
   0  -7  -8   19.30    5.80
   0   7   8   14.80    5.20
   0   7   8    8.30    4.10
  -1  -7  -8    4.70    3.60
   1   7   8    9.70    4.70
   1   7   8   13.60    5.50
  -2  -7  -8   29.80    7.40
   2   7   8   17.20    5.90
  -3  -7  -8    5.10    4.30
   3   7   8    2.60    4.30
  -5   8   8    0.70    3.50
  -5   8   8    3.50    3.70
  -4   8   8    3.50    3.60
  -4   8   8    0.90    3.00
  -3   8   8    3.10    3.70
  -3   8   8   -0.20    3.40
   2  -8  -8    0.50    3.80
  -2   8   8    6.30    4.60
  -2   8   8    5.30    4.60
   1  -8  -8    5.50    4.40
  -1   8   8    5.20    4.10
   0  -8  -8    0.90    3.70
   0   8   8    4.40    3.80
  -1  -8  -8   -0.20    4.60
   1   8   8    2.10    4.30
   0   9  -9    0.40    4.20
   1  -9   9    1.30    4.30
   1  -9   9    8.10    4.10
   2  -9   9    7.70    4.20
   2  -9   9   12.90    6.10
  -3   9  -9    4.50    4.90
   3  -9   9    4.50    3.60
   3  -9   9   11.40    6.10
   4  -9   9    0.00    3.30
   2   8  -9    7.50    5.80
  -2  -8   9    3.10    3.90
   1   8  -9    5.40    4.40
  -1  -8   9   -0.60    3.20
   0   8  -9    0.40    3.30
   0  -8   9   -0.50    3.10
   0  -8   9    4.70    3.30
  -1   8  -9    7.50    4.90
   1  -8   9    1.60    3.50
   1  -8   9    1.20    3.30
   2  -8   9    0.50    2.90
   2  -8   9    1.30    3.20
   3  -8   9   -0.60    3.00
   3  -8   9   -2.90    2.40
  -4   8  -9    0.60    3.10
   4  -8   9    1.40    3.10
   4  -8   9   -1.90    2.40
  -5   8  -9    6.00    4.10
   5  -8   9    1.40    3.50
   5  -8   9    1.40    3.00
  -6   8  -9   11.90    4.90
   6  -8   9   10.60    4.80
   6  -8   9    4.60    4.60
   4   7  -9   -0.40    4.20
  -4  -7   9   -2.30    3.70
   3   7  -9   -2.20    3.40
  -3  -7   9   -0.60    3.70
   2   7  -9   46.40    9.50
  -2  -7   9   35.60    7.60
   1   7  -9  109.79   14.10
  -1  -7   9  101.99   12.20
  -1  -7   9  105.79   11.10
   0   7  -9    9.00    4.60
   0  -7   9    9.30    4.30
   0  -7   9   13.40    4.00
  -1   7  -9  185.88   14.70
   1  -7   9  164.58   12.90
   1  -7   9  175.38   12.10
   2  -7   9  103.09   12.10
   2  -7   9   72.49    9.40
   3  -7   9    0.50    2.10
   3  -7   9   -0.70    2.90
  -4   7  -9   -1.60    2.00
   4  -7   9   -0.50    2.90
   4  -7   9    2.00    2.80
  -5   7  -9    0.90    2.30
   5  -7   9    4.80    3.10
   5  -7   9   -0.80    2.10
  -6   7  -9    8.20    4.60
   6  -7   9    4.90    3.80
  -7   7  -9    4.50    4.70
   7  -7   9    1.30    3.50
   5   6  -9    9.60    5.40
  -5  -6   9    4.10    5.00
   4   6  -9   -2.80    3.40
  -4  -6   9    0.90    3.20
  -4  -6   9    1.70    3.70
  -4  -6   9    2.30    3.90
   3   6  -9    5.30    3.90
  -3  -6   9    4.70    3.30
  -3  -6   9    3.20    3.90
   2   6  -9   57.39    9.50
  -2  -6   9   47.30    7.60
  -2  -6   9   31.40    6.70
  -2  -6   9   56.79   10.70
   1   6  -9   19.80    5.80
  -1  -6   9    7.60    3.40
  -1  -6   9   16.50    4.90
  -1  -6   9   11.40    3.50
   0   6  -9   16.40    5.10
   0  -6   9   13.80    4.50
   0  -6   9   14.50    4.60
   0  -6   9   12.30    3.90
  -1   6  -9   10.70    4.70
   1  -6   9    5.80    3.20
   1  -6   9    4.80    2.90
   2  -6   9   27.50    5.50
   2  -6   9   38.80    6.60
   3  -6   9    1.60    2.00
   3  -6   9    5.70    3.10
  -4   6  -9   12.80    4.30
  -4   6  -9    8.10    3.70
   4  -6   9   12.10    3.80
   4  -6   9   15.40    4.40
  -5   6  -9   26.20    6.40
  -5   6  -9   36.70    6.50
   5  -6   9   40.20    7.10
   5  -6   9   20.00    5.30
  -6   6  -9   -2.20    2.60
   6  -6   9   -0.20    2.40
  -7   6  -9   -1.80    3.50
   7  -6   9   -0.20    2.90
  -8   6  -9    0.00    4.40
   6   5  -9    9.00    5.30
  -6  -5   9   17.10    6.30
   5   5  -9    1.20    3.90
  -5  -5   9    5.70    3.90
  -5  -5   9    2.60    3.20
  -5  -5   9   -2.20    4.00
   4   5  -9    3.40    3.60
  -4  -5   9    9.50    4.10
  -4  -5   9    1.40    3.00
  -4  -5   9    3.90    3.50
   3   5  -9  162.28   15.90
  -3  -5   9  149.79   11.50
  -3  -5   9  141.99   13.70
  -3  -5   9  139.69   13.80
   2   5  -9  133.79   13.80
  -2  -5   9  122.79    8.70
  -2  -5   9  106.59   11.00
  -2  -5   9  121.09   11.40
  -2  -5   9  108.89   10.90
  -2  -5   9  107.59   11.30
   1   5  -9   -1.20    1.90
  -1  -5   9    0.90    2.10
  -1  -5   9   -0.70    1.60
  -1  -5   9    2.00    2.00
  -1  -5   9    1.00    2.00
   0   5  -9  365.16   20.00
   0  -5   9  432.06   19.40
   0  -5   9  407.16   19.50
  -1   5  -9  310.77   17.40
   1  -5   9  293.37   14.80
   1  -5   9  291.77   15.20
   1  -5   9  303.87   16.10
   2  -5   9    1.30    2.00
   2  -5   9    4.80    2.70
  -3   5  -9   -0.30    2.00
   3  -5   9   -1.90    1.40
   3  -5   9    1.00    2.00
  -4   5  -9    5.10    2.90
   4  -5   9    1.30    2.30
   4  -5   9    1.10    2.20
  -5   5  -9   31.20    6.40
   5  -5   9   23.70    7.20
   5  -5   9   18.90    4.50
  -6   5  -9   16.50    5.40
   6  -5   9   25.50    5.40
  -7   5  -9    3.40    4.10
  -8   5  -9   23.00    7.20
  -6  -4   9   31.50    7.50
  -5  -4   9   19.20    5.90
  -5  -4   9   20.30    5.30
  -5  -4   9   18.10    5.80
   4   4  -9   56.29    8.80
  -4  -4   9   45.10    7.40
  -4  -4   9   80.99   10.80
  -4  -4   9   72.49    9.80
   3   4  -9  629.34   28.30
  -3  -4   9  610.54   28.10
  -3  -4   9  567.24   27.10
  -3  -4   9  645.34   27.20
  -3  -4   9  650.73   27.20
   2   4  -9  150.28   11.40
   2   4  -9  170.48   13.90
  -2  -4   9  158.18   11.00
  -2  -4   9  156.28   10.80
  -2  -4   9  175.68    9.90
  -2  -4   9  156.18   10.30
  -2  -4   9  163.38   11.50
   1   4  -9    8.80    2.30
   1   4  -9   22.80    5.30
   1   4  -9   12.10    4.30
  -1  -4   9   17.00    4.10
  -1  -4   9   14.90    3.40
  -1  -4   9   17.40    4.10
  -1  -4   9   10.00    2.90
  -1  -4   9   12.50    3.50
   0   4  -9  146.89   10.40
   0   4  -9  175.18   11.90
   0   4  -9  144.29    8.20
   0  -4   9  153.28    8.70
   0  -4   9  138.39    9.60
   0  -4   9  165.08   10.10
   0  -4   9  153.38    9.30
   0  -4   9  150.98    9.40
  -1   4  -9    1.40    1.20
  -1   4  -9    4.50    2.90
   1  -4   9   -0.30    1.40
   1  -4   9    0.80    1.90
   1  -4   9    1.80    1.90
   1  -4   9    1.70    1.40
  -2   4  -9   28.40    5.80
  -2   4  -9   39.60    4.70
  -2   4  -9   39.40    5.50
   2  -4   9   45.20    6.10
   2  -4   9   41.90    5.20
   2  -4   9   31.10    5.00
  -3   4  -9    7.60    3.50
  -3   4  -9   14.70    3.00
  -3   4  -9   22.10    4.60
   3  -4   9   14.70    3.50
   3  -4   9   19.30    4.10
  -4   4  -9   13.00    3.30
  -4   4  -9   16.50    4.20
   4  -4   9    8.00    2.70
   4  -4   9   13.70    3.70
  -5   4  -9   10.60    3.20
  -5   4  -9    8.50    3.70
   5  -4   9    7.10    2.80
  -6   4  -9   14.50    4.80
   6  -4   9   20.50    4.90
  -7   4  -9    4.70    4.10
  -8   4  -9   -0.70    3.90
  -7  -3   9    0.50    3.80
  -6  -3   9    5.50    3.90
  -6  -3   9    3.20    3.90
  -6  -3   9    1.00    2.90
  -5  -3   9   12.40    4.40
  -5  -3   9   12.20    4.10
  -5  -3   9   17.30    5.30
  -4  -3   9  149.19   13.60
  -4  -3   9  133.49   13.40
  -4  -3   9  125.39   12.80
  -4  -3   9  133.29   12.30
   3   3  -9  200.28   13.50
   3   3  -9  200.98   12.80
  -3  -3   9  180.68   12.50
  -3  -3   9  193.68   12.00
  -3  -3   9  198.88   12.50
  -3  -3   9  189.88   10.20
  -3  -3   9  182.38   12.50
   2   3  -9    9.10    3.10
   2   3  -9    8.20    3.30
   2   3  -9    6.10    2.00
  -2  -3   9    7.60    2.70
  -2  -3   9    2.50    1.80
  -2  -3   9    0.60    1.90
  -2  -3   9   11.60    3.20
  -2  -3   9    5.40    2.60
   1   3  -9  245.48   13.70
   1   3  -9  256.67   11.70
   1   3  -9  238.08   13.90
  -1  -3   9  275.47   13.50
  -1  -3   9  242.38   13.10
  -1  -3   9  271.87   12.70
  -1  -3   9  260.37   12.70
   0   3  -9  158.68    8.40
   0   3  -9  152.18   10.60
   0   3  -9  176.58   10.40
   0  -3   9  165.38    9.40
   0  -3   9  163.58    8.90
   0  -3   9  155.78    9.80
   0  -3   9  165.18    9.70
   0  -3   9  157.28    9.20
  -1   3  -9   83.89    9.10
  -1   3  -9   87.99    6.00
  -1   3  -9   80.49    5.60
   1  -3   9  102.69    7.20
   1  -3   9   84.19    5.60
   1  -3   9   91.59    6.70
   1  -3   9   75.29    7.50
  -2   3  -9   38.30    4.60
  -2   3  -9   50.99    6.00
  -2   3  -9   38.90    6.30
   2  -3   9   32.50    4.90
   2  -3   9   39.70    5.00
   2  -3   9   37.10    4.80
  -3   3  -9   87.29    6.40
  -3   3  -9  103.59    9.50
   3  -3   9   89.29    8.50
   3  -3   9   91.99    6.60
   3  -3   9  100.69    7.10
  -4   3  -9  108.79   10.60
  -4   3  -9  109.39    7.40
   4  -3   9   99.49    8.90
  -5   3  -9    9.20    4.20
   5  -3   9    5.00    2.60
  -6   3  -9    9.80    4.40
  -7   3  -9   14.30    5.20
  -8   3  -9    6.60    4.60
  -8  -2   9   -3.70    3.30
  -7  -2   9   79.99   12.40
  -7  -2   9   61.79   10.50
  -6  -2   9   34.40    6.70
  -6  -2   9   13.50    4.60
  -6  -2   9   35.70    7.30
  -5  -2   9   42.00    6.90
  -5  -2   9   44.10    7.80
  -5  -2   9   38.40    7.10
  -5  -2   9   41.40    7.20
   4   2  -9  874.51   34.00
  -4  -2   9  800.22   32.50
  -4  -2   9  826.12   33.80
  -4  -2   9  828.12   34.20
  -4  -2   9  817.62   33.50
   3   2  -9  572.04   24.90
   3   2  -9  550.84   22.40
   3   2  -9  612.74   24.50
  -3  -2   9  578.94   24.60
  -3  -2   9  580.14   24.80
  -3  -2   9  611.34   25.70
  -3  -2   9  593.44   22.40
  -3  -2   9  603.74   25.60
   2   2  -9  125.69    8.30
   2   2  -9  114.19    7.10
   2   2  -9  113.69    8.50
  -2  -2   9   99.49    7.80
  -2  -2   9  117.99    8.80
  -2  -2   9  129.89    7.80
  -2  -2   9  106.89    8.00
  -2  -2   9  101.89    8.10
   1   2  -9   37.70    5.50
   1   2  -9   35.50    4.20
   1   2  -9   56.89    6.40
  -1  -2   9   38.90    5.40
  -1  -2   9   42.10    5.50
  -1  -2   9   37.90    5.00
  -1  -2   9   37.60    5.10
  -1  -2   9   44.00    5.40
  -1  -2   9   38.30    3.80
   0   2  -9   24.10    4.00
   0   2  -9   25.80    3.40
   0   2  -9   22.40    3.10
   0  -2   9   24.10    3.90
   0  -2   9   26.70    4.20
   0  -2   9   31.40    4.70
   0  -2   9   19.30    2.80
  -1   2  -9 1009.70   33.90
  -1   2  -9  972.30   36.30
  -1   2  -9 1025.20   33.70
   1  -2   9  996.30   34.70
   1  -2   9  989.30   34.20
   1  -2   9 1013.90   33.40
   1  -2   9  993.50   35.20
   1  -2   9  979.00   33.80
  -2   2  -9   28.70    3.60
  -2   2  -9   39.60    5.40
   2  -2   9   27.50    4.40
   2  -2   9   27.80    3.90
   2  -2   9   20.70    3.60
   2  -2   9   31.70    4.20
   2  -2   9   20.20    2.90
  -3   2  -9    0.50    1.50
  -3   2  -9    0.70    1.00
   3  -2   9    1.20    1.10
   3  -2   9    0.50    1.10
   3  -2   9    0.10    1.20
   3  -2   9   -0.30    1.30
   3  -2   9    1.00    1.50
  -4   2  -9  155.08   10.90
   4  -2   9  169.68    9.70
   4  -2   9  170.88    9.70
   4  -2   9  167.08   10.10
  -5   2  -9    3.00    2.80
   5  -2   9    2.00    2.00
   5  -2   9    5.80    2.60
   5  -2   9    2.80    2.00
  -6   2  -9   15.10    5.00
  -7   2  -9   31.40    7.40
  -8   2  -9   33.20    8.40
  -8  -1   9    2.90    4.10
  -7  -1   9   50.09    8.80
  -7  -1   9   43.90    8.30
  -7  -1   9   49.99    8.20
  -6  -1   9    4.00    3.20
  -6  -1   9    0.10    2.30
  -6  -1   9    3.20    3.10
  -6  -1   9    0.00    2.40
  -5  -1   9  215.78   14.50
  -5  -1   9  237.88   14.50
  -5  -1   9  210.58   13.40
  -5  -1   9  206.68   13.90
   4   1  -9  159.28   10.40
   4   1  -9  154.18    9.30
  -4  -1   9  160.48   10.60
  -4  -1   9  170.18   11.30
  -4  -1   9  141.29   10.60
  -4  -1   9  143.09    8.70
  -4  -1   9  136.99   10.60
   3   1  -9   88.99    7.20
   3   1  -9   82.79    6.20
  -3  -1   9   88.99    6.40
  -3  -1   9   92.29    9.20
  -3  -1   9   78.19    8.30
  -3  -1   9   81.59    8.70
  -3  -1   9   73.29    7.80
   2   1  -9   -1.40    1.00
   2   1  -9    1.00    1.00
   2   1  -9    1.00    1.10
   2   1  -9    1.20    1.50
  -2  -1   9    2.60    1.70
  -2  -1   9   -0.10    1.40
  -2  -1   9    0.90    1.40
  -2  -1   9    0.80    1.40
  -2  -1   9    0.20    1.20
   1   1  -9    3.80    1.70
   1   1  -9    4.20    1.40
   1   1  -9    3.10    1.50
   1   1  -9    1.40    1.40
  -1  -1   9    2.70    1.70
  -1  -1   9    4.80    1.90
  -1  -1   9    4.10    1.70
  -1  -1   9    4.40    1.90
   0   1  -9  445.66   18.30
   0   1  -9  439.06   16.60
   0   1  -9  424.36   16.70
   0  -1   9  438.36   17.50
   0  -1   9  455.55   17.90
   0  -1   9  435.26   18.50
   0  -1   9  445.16   18.00
  -1   1  -9  121.39    7.50
  -1   1  -9  127.69    6.70
   1  -1   9  116.49    6.80
   1  -1   9  119.19    7.50
   1  -1   9  128.29    7.00
   1  -1   9  139.99    8.00
  -2   1  -9  191.78    8.70
  -2   1  -9  180.38   10.40
   2  -1   9  203.88   10.10
   2  -1   9  183.68    9.90
   2  -1   9  198.58    8.80
   2  -1   9  188.38    9.40
   2  -1   9  189.88   10.60
  -3   1  -9  102.49    9.50
   3  -1   9   96.29    7.00
   3  -1   9   89.89    7.20
   3  -1   9   94.09    6.50
   3  -1   9   92.89    6.40
  -4   1  -9   35.40    5.30
  -4   1  -9   43.80    6.70
   4  -1   9   51.99    5.70
   4  -1   9   37.60    5.10
   4  -1   9   34.10    5.10
  -5   1  -9  113.99   11.80
  -5   1  -9   98.89    9.40
   5  -1   9  106.59    8.30
  -6   1  -9   13.90    4.10
  -6   1  -9   12.90    3.90
  -6   1  -9    9.90    4.40
  -7   1  -9   25.00    6.60
  -8   1  -9  108.19   14.20
  -8   0   9   20.80    8.20
  -8   0   9   26.10    7.20
  -7   0   9   27.50    6.40
  -7   0   9   17.00    5.40
  -7   0   9   19.70    5.60
  -6   0   9    5.50    3.20
  -6   0   9    7.00    3.50
  -6   0   9    5.10    3.40
  -6   0   9    7.30    3.50
  -5   0   9  288.57   15.80
  -5   0   9  299.27   16.90
  -5   0   9  264.77   15.50
  -5   0   9  278.67   16.20
   4   0  -9    2.80    1.60
  -4   0   9    2.90    2.10
  -4   0   9    4.60    2.80
  -4   0   9    4.00    2.60
  -4   0   9    5.20    2.70
  -4   0   9    7.10    3.00
   3   0  -9   53.59    5.20
   3   0  -9   49.50    5.10
  -3   0   9   40.40    5.70
  -3   0   9   50.99    6.50
  -3   0   9   45.90    5.40
  -3   0   9   44.80    6.40
  -3   0   9   56.69    5.60
  -3   0   9   47.00    6.40
   2   0  -9   86.19    5.50
   2   0  -9   97.09    5.30
   2   0  -9   77.49    5.30
   2   0  -9   81.59    5.60
  -2   0   9   84.89    5.50
  -2   0   9   82.59    6.40
  -2   0   9   81.19    8.00
  -2   0   9   71.39    7.80
  -2   0   9   98.99    8.30
  -2   0   9   82.29    5.60
   1   0  -9  139.29    7.50
   1   0  -9  131.99    7.60
   1   0  -9  141.29    7.00
  -1   0   9  140.99    8.70
  -1   0   9  137.69    7.40
  -1   0   9  153.38    8.40
  -1   0   9  150.98    9.10
  -1   0   9  146.79    8.30
   0   0  -9  875.01   30.20
   0   0  -9  884.51   27.90
   0   0   9  877.01   30.00
   0   0   9  836.72   30.80
   0   0   9  833.82   29.60
   0   0   9  856.01   30.20
   0   0   9  855.71   31.40
  -1   0  -9   20.90    2.20
  -1   0  -9   15.00    3.10
   1   0   9   16.60    4.10
   1   0   9   31.40    4.30
   1   0   9   22.60    3.10
   1   0   9   21.30    3.90
   1   0   9   15.10    3.40
  -2   0  -9  122.79    8.50
   2   0   9  123.69    8.60
   2   0   9  121.89    8.10
   2   0   9  127.09    7.10
   2   0   9  127.59    7.60
   2   0   9  145.69    6.50
  -3   0  -9  104.99    9.90
  -3   0  -9  107.19    7.80
   3   0   9  112.29    7.90
   3   0   9  109.99    6.80
   3   0   9   89.59    6.50
  -4   0  -9    0.70    1.80
  -4   0  -9   -0.20    1.60
   4   0   9    0.50    1.50
   4   0   9    1.60    1.80
   4   0   9    1.30    1.30
  -5   0  -9  184.28   12.00
  -5   0  -9  173.18   11.90
  -5   0  -9  172.98   12.50
   5   0   9  173.08   11.60
  -6   0  -9   35.60    7.50
  -6   0  -9   40.90    7.20
  -6   0  -9   39.70    7.30
   6   0   9   30.10    6.30
  -7   0  -9   30.10    6.70
  -7   0  -9   37.30    8.20
  -7   0  -9   28.00    7.00
  -8   0  -9    0.90    3.60
  -8   1   9   18.80    6.20
  -8   1   9   31.90    7.10
  -8   1   9   18.20    6.10
  -7   1   9   -0.40    2.60
  -7   1   9    0.00    2.80
  -7   1   9    1.00    2.70
  -6   1   9   10.70    3.80
  -6   1   9   10.60    3.90
  -6   1   9   10.70    4.00
  -6   1   9    5.90    3.40
  -5   1   9  227.68   13.40
  -5   1   9  222.78   12.00
  -5   1   9  248.78   13.20
  -5   1   9  256.77   12.60
  -5   1   9  208.78   13.70
  -5   1   9  224.48   14.10
  -5   1   9  213.88   13.50
  -4   1   9  230.98   13.20
  -4   1   9  240.28   13.90
  -4   1   9  218.78   13.30
  -4   1   9  271.77   14.40
  -4   1   9  268.47   12.30
  -4   1   9  232.28   12.30
  -4   1   9  237.38   12.40
   3  -1  -9  265.97   12.60
  -3   1   9  269.77   13.80
  -3   1   9  279.57   13.90
  -3   1   9  258.37   12.80
  -3   1   9  251.07   11.80
  -3   1   9  261.97   13.90
  -3   1   9  255.87   12.60
   2  -1  -9   41.20    5.40
  -2   1   9   37.30    4.90
  -2   1   9   43.10    4.50
  -2   1   9   38.90    5.00
  -2   1   9   37.40    5.60
  -2   1   9   36.40    5.10
  -2   1   9   39.70    5.30
   1  -1  -9   11.20    2.80
   1  -1  -9    9.90    0.90
  -1   1   9   13.10    2.50
  -1   1   9    7.90    2.70
  -1   1   9   12.80    2.90
  -1   1   9   13.40    2.40
  -1   1   9   13.80    3.20
  -1   1   9    8.30    2.50
  -1   1   9   10.90    1.80
   0  -1  -9  184.18   10.30
   0   1   9  195.88    8.60
   0   1   9  203.28   11.10
   0   1   9  189.08    9.40
   0   1   9  191.58   10.70
   0   1   9  191.18    9.30
   0   1   9  199.08    8.90
   0   1   9  195.18   10.00
  -1  -1  -9    0.40    1.40
   1   1   9    2.30    1.50
   1   1   9    2.40    1.50
   1   1   9    2.50    1.30
   1   1   9    1.10    1.00
   1   1   9    1.60    1.60
  -2  -1  -9   15.40    3.90
   2   1   9   17.70    3.30
   2   1   9   19.00    4.10
  -3  -1  -9   98.49    9.80
  -3  -1  -9   88.89    9.30
   3   1   9  114.49    7.00
   3   1   9  104.49    6.40
   3   1   9   77.79    8.50
  -4  -1  -9  122.19   11.50
  -4  -1  -9  132.89   12.60
  -4  -1  -9  127.19    9.90
   4   1   9   90.09   10.00
  -5  -1  -9    7.00    3.40
  -5  -1  -9   13.70    4.90
  -5  -1  -9   13.10    4.80
   5   1   9    7.40    3.50
  -6  -1  -9   16.50    5.00
  -6  -1  -9    9.20    4.20
  -6  -1  -9   16.10    4.80
   6   1   9   12.90    4.80
  -7  -1  -9  150.28   15.60
  -7  -1  -9  110.99   13.50
  -7  -1  -9  144.79   15.70
   7   1   9  150.18   15.60
  -8  -1  -9    1.50    3.10
  -8  -1  -9   -0.40    3.50
   8   1   9   -1.60    3.80
  -8   2   9    2.60    4.00
  -8   2   9    4.60    3.80
  -7   2   9    4.10    3.30
  -7   2   9   14.10    4.60
  -7   2   9    5.70    3.10
  -6   2   9    3.80    3.00
  -6   2   9   10.40    3.90
  -6   2   9    3.80    3.00
  -6   2   9   13.10    4.20
  -5   2   9    7.70    3.60
  -5   2   9    5.30    3.00
  -5   2   9   12.30    4.10
  -5   2   9   11.70    3.50
  -5   2   9    6.10    2.90
  -5   2   9   10.40    3.20
  -4   2   9  397.96   19.10
  -4   2   9  382.46   18.20
  -4   2   9  409.16   19.30
  -4   2   9  379.46   18.00
  -4   2   9  409.66   17.00
  -4   2   9  406.56   17.90
  -4   2   9  405.16   19.10
   3  -2  -9   15.30    3.60
  -3   2   9   17.10    3.90
  -3   2   9   17.10    3.60
  -3   2   9   18.30    3.80
  -3   2   9   11.80    3.30
  -3   2   9   14.80    2.80
  -3   2   9   20.70    4.20
   2  -2  -9   -1.10    1.30
  -2   2   9   -1.60    0.80
  -2   2   9    2.00    1.10
  -2   2   9    1.70    1.50
  -2   2   9   -0.70    1.20
  -2   2   9   -0.40    1.20
  -2   2   9    0.60    1.00
  -2   2   9    0.40    1.60
   1  -2  -9   45.60    5.90
  -1   2   9   23.80    4.00
  -1   2   9   32.10    4.50
  -1   2   9   34.80    3.60
  -1   2   9   39.40    5.40
  -1   2   9   36.40    5.40
   0  -2  -9  213.88   11.70
   0   2   9  214.48   10.80
   0   2   9  198.78    8.50
   0   2   9  213.38   11.70
   0   2   9  216.18   10.40
   0   2   9  201.18   11.50
  -1  -2  -9  104.79    8.30
   1   2   9  130.69    7.80
   1   2   9  115.79    5.50
   1   2   9  114.79    8.40
   1   2   9  113.69    6.40
  -2  -2  -9   64.49    8.20
  -2  -2  -9   65.69    7.90
   2   2   9   59.49    7.50
   2   2   9   73.09    7.00
  -3  -2  -9   52.79    7.70
  -3  -2  -9   44.70    6.90
   3   2   9   43.70    7.30
   3   2   9   51.39    7.20
  -4  -2  -9   76.19   10.10
  -4  -2  -9   61.09    8.40
  -4  -2  -9   60.89    8.70
   4   2   9   85.09   10.20
  -5  -2  -9    5.20    3.40
  -5  -2  -9    0.30    2.70
  -5  -2  -9   -0.90    2.10
   5   2   9    5.00    3.10
  -6  -2  -9    2.30    3.30
  -6  -2  -9    6.10    3.90
  -6  -2  -9    6.10    3.70
   6   2   9   12.40    5.30
  -7  -2  -9    6.70    4.40
  -7  -2  -9    1.90    4.50
   7   2   9    3.50    4.70
  -8   3   9   11.90    4.70
  -8   3   9   17.00    5.50
  -7   3   9    3.90    3.70
  -7   3   9    4.70    3.90
  -7   3   9    6.40    3.70
  -6   3   9    0.00    2.80
  -6   3   9    1.30    2.80
  -6   3   9    0.40    2.00
  -6   3   9    2.20    3.00
  -6   3   9   -1.20    1.60
  -5   3   9  258.77   13.80
  -5   3   9  240.28   14.20
  -5   3   9  229.88   13.90
  -5   3   9  222.98   13.70
  -5   3   9  207.28   13.90
  -4   3   9  197.08   12.20
  -4   3   9  162.68   11.40
  -4   3   9  191.78   11.90
  -4   3   9  186.48   10.90
  -4   3   9  162.38   10.60
   3  -3  -9   -0.60    1.60
  -3   3   9   -0.50    1.40
  -3   3   9   -0.50    0.80
  -3   3   9   -0.60    1.30
  -3   3   9   -0.50    1.30
  -3   3   9    1.10    1.80
  -3   3   9    0.90    1.40
   2  -3  -9   17.80    4.20
  -2   3   9   17.10    4.20
  -2   3   9   11.80    3.20
  -2   3   9   14.70    3.70
  -2   3   9   14.60    2.50
  -2   3   9   17.40    3.60
  -2   3   9   13.30    3.80
   1  -3  -9  639.24   25.40
  -1   3   9  600.04   23.60
  -1   3   9  599.44   24.90
  -1   3   9  593.64   20.30
  -1   3   9  643.24   25.00
  -1   3   9  589.04   23.90
   0  -3  -9   -0.40    1.50
   0   3   9   -0.70    1.40
   0   3   9    0.70    1.70
   0   3   9    1.70    0.70
   0   3   9    1.30    1.30
   0   3   9    1.20    1.50
  -1  -3  -9  213.18   12.80
   1   3   9  225.28   11.40
   1   3   9  206.08    7.40
   1   3   9  208.48   12.70
  -2  -3  -9   21.20    5.00
  -2  -3  -9   24.10    5.30
   2   3   9   26.30    5.20
   2   3   9   28.50    4.50
   2   3   9   30.40    2.30
  -3  -3  -9   15.00    4.40
  -3  -3  -9   13.80    4.40
   3   3   9   17.30    4.60
  -4  -3  -9   62.79    9.30
  -4  -3  -9   44.70    7.60
  -4  -3  -9   52.79    8.30
   4   3   9   58.59    8.80
  -5  -3  -9   19.70    5.60
  -5  -3  -9   15.40    5.40
  -5  -3  -9   23.50    6.20
   5   3   9   19.50    6.10
  -6  -3  -9   11.20    4.80
  -6  -3  -9   11.10    5.70
  -6  -3  -9   11.20    5.10
   6   3   9   11.50    5.50
  -7  -3  -9    6.70    4.40
  -7  -3  -9   -0.10    4.50
   7   3   9   -2.40    4.60
  -8   4   9    7.00    4.60
  -8   4   9    3.30    4.10
  -7   4   9    5.90    4.20
  -7   4   9   -0.40    3.10
  -6   4   9    3.00    2.60
  -6   4   9   -0.50    2.80
  -6   4   9    5.70    3.30
  -6   4   9    3.00    3.20
  -5   4   9    6.70    3.50
  -5   4   9    6.80    3.80
  -5   4   9    4.60    3.10
  -5   4   9    3.70    2.50
  -5   4   9    0.50    2.60
  -4   4   9   13.30    4.10
  -4   4   9    2.80    2.50
  -4   4   9   14.40    4.30
   3  -4  -9    5.10    2.90
  -3   4   9    6.00    3.10
  -3   4   9    4.40    2.60
  -3   4   9   -0.30    1.70
  -3   4   9    1.20    2.00
   2  -4  -9   47.20    7.30
  -2   4   9   56.59    7.20
  -2   4   9   53.89    6.90
  -2   4   9   59.39    8.10
  -2   4   9   64.79    7.70
  -2   4   9   55.89    3.90
  -2   4   9   60.39    7.20
   1  -4  -9  293.57   16.00
  -1   4   9  267.87   14.60
  -1   4   9  313.67   15.90
  -1   4   9  269.57   14.40
  -1   4   9  298.87   14.60
   0  -4  -9   14.50    4.00
   0   4   9   19.70    3.90
   0   4   9   11.80    3.50
   0   4   9   21.00    4.60
   0   4   9   12.90    3.60
  -1  -4  -9   11.00    3.90
   1   4   9   14.80    3.60
   1   4   9   17.80    4.70
  -2  -4  -9   16.10    4.70
  -2  -4  -9   16.20    4.70
   2   4   9   24.70    5.60
   2   4   9   21.50    4.70
  -3  -4  -9   10.20    4.10
  -3  -4  -9   20.20    5.70
   3   4   9   18.80    5.10
  -4  -4  -9   37.20    7.40
  -4  -4  -9   41.30    8.00
  -4  -4  -9   33.60    7.20
   4   4   9   35.30    7.40
  -5  -4  -9    0.50    3.00
  -5  -4  -9    1.10    3.20
  -5  -4  -9    0.80    2.80
   5   4   9    1.70    3.80
  -6  -4  -9    3.20    4.00
  -6  -4  -9    2.80    4.50
   6   4   9    5.80    5.40
  -8   5   9   13.00    5.80
  -8   5   9    2.60    5.00
  -7   5   9   11.40    5.70
  -7   5   9    7.50    4.90
  -7   5   9    6.30    3.70
  -6   5   9   -3.10    2.80
  -6   5   9    2.80    3.50
  -5   5   9   23.60    5.80
  -5   5   9   31.50    6.60
  -4   5   9    3.90    2.60
  -4   5   9   -1.90    2.00
  -4   5   9    4.30    3.20
   3  -5  -9   47.70    7.90
  -3   5   9   46.90    7.20
  -3   5   9   47.90    7.70
  -3   5   9   31.30    6.50
   2  -5  -9   54.59    8.50
  -2   5   9   64.69    9.10
  -2   5   9   66.49    8.20
  -2   5   9   75.79    9.10
   1  -5  -9    5.40    3.50
  -1   5   9   13.70    3.90
  -1   5   9   10.50    3.60
  -1   5   9   10.30    3.60
  -1   5   9    7.60    3.90
   0  -5  -9   33.00    6.40
   0   5   9   28.90    5.70
   0   5   9   44.90    6.60
  -1  -5  -9    2.80    2.80
   1   5   9   -2.40    1.60
   1   5   9   -2.20    1.90
  -2  -5  -9  132.29   14.00
   2   5   9  117.49   12.80
  -3  -5  -9  134.79   14.10
  -3  -5  -9  131.99   14.70
   3   5   9  125.69   14.00
  -4  -5  -9    5.30    4.00
  -4  -5  -9    4.00    4.40
  -4  -5  -9    0.50    3.40
   4   5   9    1.20    3.00
  -5  -5  -9    9.90    5.40
  -5  -5  -9    1.80    4.20
   5   5   9   -0.40    3.20
  -7   6   9   10.60    5.90
  -7   6   9    0.80    3.90
  -7   6   9    4.80    3.30
  -6   6   9    8.00    4.40
  -6   6   9    6.10    4.40
  -5   6   9   27.00    6.70
  -5   6   9   26.50    6.60
  -4   6   9   24.70    6.00
  -4   6   9   11.10    4.80
   3  -6  -9   20.10    5.90
  -3   6   9   23.70    6.70
  -3   6   9   24.00    8.10
  -3   6   9   22.30    5.40
   2  -6  -9   34.80    7.40
  -2   6   9   30.30    6.70
  -2   6   9   49.70    7.70
  -2   6   9   24.60    5.50
   1  -6  -9    9.00    4.00
  -1   6   9   13.00    4.60
  -1   6   9    9.60    4.30
  -1   6   9   12.00    4.10
   0  -6  -9   62.29    9.60
   0   6   9   68.49    9.40
   0   6   9   89.99   10.00
   0   6   9   71.09    9.90
  -1  -6  -9    0.50    2.50
   1   6   9    7.20    4.20
  -2  -6  -9    2.50    3.40
   2   6   9    2.70    3.30
  -3  -6  -9   21.30    6.60
  -3  -6  -9   14.70    5.60
   3   6   9   16.90    5.80
  -4  -6  -9    1.20    4.00
  -4  -6  -9   -0.70    3.50
   4   6   9    3.20    4.00
  -6   7   9    7.90    4.80
  -6   7   9    7.60    3.80
  -6   7   9    0.80    3.90
  -5   7   9    1.00    3.10
  -5   7   9    1.00    3.30
  -4   7   9    3.70    3.60
  -4   7   9    0.90    3.40
   3  -7  -9    0.00    2.50
  -3   7   9   -0.20    2.60
  -3   7   9   -1.40    3.30
   2  -7  -9   23.80    6.80
  -2   7   9   19.40    6.10
  -2   7   9   19.60    5.50
   1  -7  -9    1.60    3.70
  -1   7   9   -2.60    2.90
  -1   7   9    0.20    3.30
   0  -7  -9    6.70    4.00
   0   7   9   29.10    7.00
   0   7   9   11.40    4.30
   0   7   9   27.90    7.10
  -1  -7  -9   59.69   10.40
   1   7   9   39.30    7.70
   1   7   9   47.30    9.00
  -2  -7  -9   44.60    8.90
   2   7   9   31.20    8.10
  -4   8   9    8.00    4.70
  -4   8   9    4.00    4.40
  -3   8   9    0.10    2.80
  -3   8   9    2.40    3.80
   2  -8  -9   19.10    6.90
  -2   8   9   28.20    7.30
  -2   8   9   17.00    5.90
  -1   8   9   23.80    7.30
   0  -8  -9    1.10    4.30
   0   8   9    3.50    4.40
   1  -9  10   -2.90    3.30
   2  -9  10   23.40    6.20
   3  -9  10    8.50    4.30
   2   8 -10   14.80    7.00
  -2  -8  10   31.00    8.10
   1   8 -10   44.30    9.60
  -1  -8  10   38.10    8.10
   0   8 -10   16.60    6.50
   0  -8  10   14.40    5.30
   0  -8  10   11.10    4.50
   1  -8  10    7.00    4.00
   1  -8  10    8.50    4.50
   2  -8  10    0.90    2.40
   2  -8  10    2.70    3.50
   3  -8  10   -0.90    2.70
   3  -8  10    1.30    3.00
  -4   8 -10   -0.80    3.10
   4  -8  10    0.50    3.00
   4  -8  10   -0.90    2.90
  -5   8 -10    7.70    4.70
   5  -8  10    3.20    3.70
   5  -8  10    3.00    3.50
   6  -8  10   -0.20    3.00
   3   7 -10    6.60    4.80
  -3  -7  10    2.20    4.30
   2   7 -10   39.70    9.40
  -2  -7  10   54.59    9.60
   1   7 -10    6.80    4.80
  -1  -7  10    6.00    3.90
  -1  -7  10    2.30    2.80
   0   7 -10   -0.90    3.10
   0  -7  10   -0.20    2.90
   0  -7  10    3.00    2.80
  -1   7 -10   32.40    7.40
   1  -7  10   28.10    6.50
   1  -7  10   35.70    6.60
   2  -7  10    3.50    3.50
   2  -7  10    1.40    2.80
   3  -7  10    1.00    2.50
   3  -7  10   -0.80    2.60
  -4   7 -10    8.60    3.90
   4  -7  10    2.90    2.80
   4  -7  10    4.30    3.60
  -5   7 -10    6.30    3.80
   5  -7  10    0.10    2.60
   5  -7  10   -1.40    2.70
  -6   7 -10    1.20    3.50
   6  -7  10   -1.60    2.80
  -7   7 -10   -1.00    3.90
   7  -7  10    1.60    3.40
   5   6 -10   25.80    8.30
  -5  -6  10   36.40    8.90
   4   6 -10    2.30    3.40
  -4  -6  10    4.40    3.90
  -4  -6  10    3.40    4.60
  -4  -6  10    4.00    4.20
   3   6 -10  106.09   13.70
  -3  -6  10  151.48   15.10
  -3  -6  10  136.79   13.90
   2   6 -10  265.07   18.50
  -2  -6  10  265.37   16.70
   1   6 -10   30.30    7.10
  -1  -6  10   30.90    5.90
  -1  -6  10   34.50    6.70
  -1  -6  10   41.40    7.60
   0   6 -10    0.40    2.40
   0  -6  10   -0.50    1.50
   0  -6  10    2.10    2.50
  -1   6 -10   17.20    5.50
   1  -6  10   24.00    5.30
   1  -6  10   27.30    6.00
   2  -6  10   45.80    7.50
   2  -6  10   22.80    5.10
   3  -6  10    7.60    3.50
   3  -6  10   10.70    4.10
   4  -6  10   -0.80    2.20
   4  -6  10    0.10    2.10
  -5   6 -10    0.00    2.90
  -5   6 -10    0.80    3.80
   5  -6  10    2.40    2.50
   5  -6  10    4.10    3.10
  -6   6 -10   15.90    5.70
   6  -6  10    8.40    4.20
  -7   6 -10   -2.20    3.30
   7  -6  10   10.30    4.40
   6   5 -10   -1.50    4.10
  -6  -5  10   -3.80    3.70
   5   5 -10    4.30    4.10
  -5  -5  10    4.00    5.40
  -5  -5  10    0.40    3.60
  -5  -5  10   -0.70    3.10
   4   5 -10    2.40    3.30
  -4  -5  10    1.20    3.50
  -4  -5  10    2.20    2.80
  -4  -5  10    7.30    4.20
   3   5 -10   63.39   10.40
  -3  -5  10   34.80    7.00
  -3  -5  10   65.79    9.10
  -3  -5  10   44.30    7.40
   2   5 -10   58.79    9.50
  -2  -5  10   44.30    7.00
  -2  -5  10   54.79    8.30
  -2  -5  10   53.79    7.90
  -2  -5  10   37.00    5.80
  -2  -5  10   38.40    6.70
   1   5 -10    8.20    4.00
  -1  -5  10    5.30    2.60
  -1  -5  10   11.70    3.70
  -1  -5  10    7.60    3.30
  -1  -5  10    6.60    2.70
   0   5 -10    1.30    2.20
   0  -5  10    2.30    1.90
   0  -5  10    1.30    1.80
   0  -5  10    0.80    2.20
   1  -5  10   48.20    6.30
   1  -5  10   34.90    6.20
   1  -5  10   50.79    7.00
   2  -5  10    8.10    3.40
   2  -5  10    8.90    3.20
  -3   5 -10   27.00    5.30
   3  -5  10   18.80    4.80
   3  -5  10   32.10    5.70
  -4   5 -10   34.40    6.50
   4  -5  10   39.70    6.30
   4  -5  10   47.90    7.30
  -5   5 -10    0.20    2.60
   5  -5  10    4.80    3.00
  -6   5 -10   38.90    7.70
   6  -5  10   38.30    6.50
  -7   5 -10    5.40    4.90
  -8   5 -10   -0.40    3.80
  -6  -4  10   32.60    8.50
   5   4 -10   10.40    4.10
  -5  -4  10   10.00    4.70
  -5  -4  10    8.70    4.30
  -5  -4  10   15.00    5.60
   4   4 -10   51.89    9.00
  -4  -4  10   53.09    8.80
  -4  -4  10   51.89    8.00
  -4  -4  10   59.19    9.20
   3   4 -10  361.16   20.10
  -3  -4  10  356.66   20.10
  -3  -4  10  361.56   19.00
  -3  -4  10  395.96   19.80
  -3  -4  10  397.46   20.50
   2   4 -10   29.10    6.00
  -2  -4  10   13.10    3.80
  -2  -4  10   24.50    5.30
  -2  -4  10   19.60    4.20
  -2  -4  10   25.70    5.30
  -2  -4  10   26.00    5.40
   1   4 -10   -0.60    1.90
   1   4 -10    5.00    2.60
  -1  -4  10    5.50    2.30
  -1  -4  10    4.00    2.30
  -1  -4  10    2.30    2.00
  -1  -4  10    5.90    2.60
  -1  -4  10    1.40    1.90
   0   4 -10   39.80    6.60
   0   4 -10   38.10    6.70
   0   4 -10   34.60    4.50
   0  -4  10   24.60    4.90
   0  -4  10   35.10    5.70
   0  -4  10   33.80    5.30
   0  -4  10   33.50    5.20
   0  -4  10   43.90    6.10
  -1   4 -10   77.79    9.50
  -1   4 -10   83.89    6.40
   1  -4  10   88.79    8.80
   1  -4  10  102.99    7.80
   1  -4  10  107.49    9.90
   1  -4  10   86.69    6.50
  -2   4 -10  157.88    9.50
  -2   4 -10  178.68   12.70
  -2   4 -10  164.68    9.50
   2  -4  10  169.68   10.10
   2  -4  10  139.49    9.70
   2  -4  10  149.88   10.10
  -3   4 -10    7.40    3.00
  -3   4 -10    9.00    2.60
   3  -4  10    7.40    3.00
   3  -4  10    7.00    2.70
  -4   4 -10   49.20    6.40
  -4   4 -10   62.09    8.40
   4  -4  10   63.69    7.20
   4  -4  10   51.09    7.10
  -5   4 -10   32.80    6.60
   5  -4  10   25.90    5.30
  -6   4 -10    5.20    3.50
   6  -4  10    3.00    2.50
  -7   4 -10   -1.70    2.80
  -8   4 -10   14.90    6.10
  -7  -3  10   14.50    6.50
  -6  -3  10   11.90    5.10
  -6  -3  10   11.30    4.70
  -6  -3  10   10.90    5.10
  -5  -3  10   -0.10    2.60
  -5  -3  10    7.80    4.10
  -5  -3  10    6.40    3.60
   4   3 -10   58.39    8.40
  -4  -3  10   42.80    7.50
  -4  -3  10   58.19    8.40
  -4  -3  10   60.99    8.60
  -4  -3  10   47.40    7.80
   3   3 -10   73.39    9.40
   3   3 -10   77.09    9.40
  -3  -3  10   93.49   10.30
  -3  -3  10   74.39    9.10
  -3  -3  10   74.19    8.70
  -3  -3  10   76.39    7.50
  -3  -3  10   77.19    9.50
   2   3 -10  207.38   13.10
   2   3 -10  176.58   11.70
   2   3 -10  187.38   10.40
  -2  -3  10  186.68   12.10
  -2  -3  10  202.18   12.20
  -2  -3  10  197.68   12.60
  -2  -3  10  189.38   11.60
  -2  -3  10  199.38   10.90
   1   3 -10    1.60    2.10
   1   3 -10    1.10    1.80
   1   3 -10    0.50    1.20
  -1  -3  10    1.90    1.70
  -1  -3  10    3.80    2.00
  -1  -3  10    1.00    1.60
  -1  -3  10    1.70    2.10
  -1  -3  10    2.30    1.80
   0   3 -10  282.77   15.20
   0   3 -10  262.97   12.20
   0   3 -10  239.08   13.60
   0  -3  10  256.17   13.10
   0  -3  10  267.97   13.90
   0  -3  10  230.98   12.90
   0  -3  10  285.57   12.80
   0  -3  10  261.17   13.20
  -1   3 -10   40.90    5.00
  -1   3 -10   49.40    5.40
  -1   3 -10   45.30    6.90
   1  -3  10   38.40    5.40
   1  -3  10   47.50    6.00
   1  -3  10   47.40    6.10
   1  -3  10   52.89    5.60
  -2   3 -10   84.29    6.90
  -2   3 -10  103.99    6.90
  -2   3 -10   94.89   10.30
   2  -3  10  105.09    9.30
   2  -3  10  111.69    7.80
   2  -3  10  103.39    7.20
  -3   3 -10   -1.10    1.00
  -3   3 -10   -0.80    1.60
   3  -3  10    2.20    1.70
   3  -3  10    1.20    1.60
   3  -3  10    1.90    1.80
  -4   3 -10   11.60    3.90
   4  -3  10   13.20    3.50
  -5   3 -10  118.59   12.20
   5  -3  10  133.19    9.40
  -6   3 -10   27.10    6.40
  -7   3 -10    4.80    4.50
  -8   3 -10   82.59   12.60
  -7  -2  10    8.10    4.20
  -6  -2  10   13.90    4.90
  -6  -2  10    6.90    4.00
  -6  -2  10   20.00    6.20
  -5  -2  10   -0.70    2.00
  -5  -2  10    2.20    3.10
  -5  -2  10    1.20    2.30
  -5  -2  10    3.70    3.00
   4   2 -10   33.70    6.40
  -4  -2  10   29.80    6.10
  -4  -2  10   27.70    6.10
  -4  -2  10   30.40    6.00
  -4  -2  10   32.30    6.10
   3   2 -10   57.99    6.20
   3   2 -10   44.30    6.60
   3   2 -10   60.39    7.60
  -3  -2  10   52.39    7.30
  -3  -2  10   58.79    6.70
  -3  -2  10   61.09    8.20
  -3  -2  10   56.99    7.70
  -3  -2  10   58.99    7.80
   2   2 -10    0.40    1.80
   2   2 -10   -0.80    0.90
   2   2 -10   -1.10    1.40
  -2  -2  10    0.40    1.50
  -2  -2  10   -0.50    1.40
  -2  -2  10    0.30    1.60
  -2  -2  10    2.90    1.90
  -2  -2  10    1.10    1.70
   1   2 -10   52.19    6.60
   1   2 -10   42.10    4.60
   1   2 -10   48.00    6.00
  -1  -2  10   57.99    6.60
  -1  -2  10   54.49    6.40
  -1  -2  10   44.80    4.50
  -1  -2  10   48.90    6.50
  -1  -2  10   46.70    5.70
  -1  -2  10   48.90    6.30
   0   2 -10  324.37   15.90
   0   2 -10  334.57   13.30
   0   2 -10  332.77   14.10
   0  -2  10  349.96   15.10
   0  -2  10  350.66   13.70
   0  -2  10  346.27   15.30
   0  -2  10  322.87   14.90
   0  -2  10  266.27   14.90
  -1   2 -10    2.40    1.40
  -1   2 -10    4.00    1.80
  -1   2 -10    5.10    2.40
   1  -2  10    2.50    1.70
   1  -2  10    1.10    1.30
   1  -2  10    6.10    2.20
   1  -2  10    3.40    1.80
   1  -2  10    2.30    1.30
  -2   2 -10   95.49    7.10
  -2   2 -10   98.49    6.40
   2  -2  10   89.39    7.20
   2  -2  10   96.79    6.50
   2  -2  10  105.29    6.70
   2  -2  10   95.29    6.70
   2  -2  10   96.79    7.20
  -3   2 -10   55.69    5.60
  -3   2 -10   62.69    7.60
   3  -2  10   50.39    5.70
   3  -2  10   64.09    4.90
   3  -2  10   53.19    5.80
   3  -2  10   70.99    7.60
   3  -2  10   51.29    6.40
  -4   2 -10   22.90    5.00
   4  -2  10   18.20    3.50
   4  -2  10   23.90    4.30
   4  -2  10   22.50    4.50
  -5   2 -10   73.79    9.70
   5  -2  10   57.79    8.00
   5  -2  10   60.99    7.10
   5  -2  10   72.69    7.50
  -6   2 -10   27.40    6.80
  -7   2 -10    0.00    3.40
  -8   2 -10   -1.10    4.20
  -8  -1  10   21.90    7.00
  -7  -1  10   -1.20    3.10
  -7  -1  10    4.50    3.90
  -7  -1  10   -0.20    2.90
  -6  -1  10   32.00    6.80
  -6  -1  10   22.10    5.70
  -6  -1  10   30.10    6.70
  -5  -1  10    5.30    3.00
  -5  -1  10   -1.20    1.80
  -5  -1  10    0.20    1.80
  -5  -1  10    2.90    2.80
   4   1 -10  124.29    8.30
  -4  -1  10  116.39   11.20
  -4  -1  10  116.39   11.60
  -4  -1  10  108.89   11.30
  -4  -1  10  109.59    7.80
  -4  -1  10  118.09   11.70
   3   1 -10  390.56   16.20
   3   1 -10  359.76   16.40
   3   1 -10  366.16   17.00
  -3  -1  10  376.56   18.20
  -3  -1  10  376.06   18.60
  -3  -1  10  363.56   16.40
  -3  -1  10  378.06   18.00
  -3  -1  10  381.76   18.70
   2   1 -10  163.18    9.50
   2   1 -10  171.58    9.10
   2   1 -10  156.78    8.60
  -2  -1  10  155.98    9.90
  -2  -1  10  172.68   10.40
  -2  -1  10  150.48   10.20
  -2  -1  10  156.98   10.30
  -2  -1  10  141.39    9.00
   1   1 -10   13.40    2.70
   1   1 -10    9.30    2.70
   1   1 -10   15.60    2.70
   1   1 -10   11.70    2.70
  -1  -1  10   16.20    3.40
  -1  -1  10    9.00    2.80
  -1  -1  10   12.10    3.00
  -1  -1  10   11.50    3.00
   0   1 -10    1.30    1.60
   0   1 -10    1.80    1.20
   0   1 -10    1.30    1.30
   0  -1  10    1.60    1.20
   0  -1  10    2.80    1.70
   0  -1  10    3.80    2.00
   0  -1  10    1.80    1.50
   0  -1  10    1.30    1.70
  -1   1 -10   88.59    5.60
  -1   1 -10   96.09    6.70
   1  -1  10   91.69    7.20
   1  -1  10   89.49    6.00
   1  -1  10   85.39    6.50
   1  -1  10   88.19    5.90
   1  -1  10   94.49    6.80
  -2   1 -10  150.98    9.50
   2  -1  10  151.18    9.80
   2  -1  10  147.39    8.30
   2  -1  10  156.78    9.00
   2  -1  10  149.39    8.90
   2  -1  10  140.89    7.60
  -3   1 -10  144.99   10.00
   3  -1  10  150.38    9.00
   3  -1  10  147.89    8.80
   3  -1  10  157.38    9.40
   3  -1  10  151.48    9.90
  -4   1 -10   91.19   10.00
   4  -1  10  110.29    7.50
   4  -1  10  111.49   10.40
   4  -1  10  107.29    8.10
   4  -1  10   99.79    7.40
  -5   1 -10    1.20    2.10
  -5   1 -10    2.40    2.50
   5  -1  10    4.90    2.80
  -6   1 -10   13.60    4.90
  -7   1 -10   45.00    8.90
  -8   1 -10   30.80    7.90
  -8   0  10   19.40    9.50
  -8   0  10    8.60    4.70
  -7   0  10    9.90    4.30
  -7   0  10    5.50    3.70
  -7   0  10   11.70    4.50
  -6   0  10   50.79    8.00
  -6   0  10   57.59    8.60
  -6   0  10   59.79    9.30
  -6   0  10   38.60    7.50
  -5   0  10    7.20    3.10
  -5   0  10    3.10    2.50
  -5   0  10    6.50    2.70
  -5   0  10    6.90    3.20
  -4   0  10  130.09   10.40
  -4   0  10  131.59   10.10
  -4   0  10  166.48   10.90
  -4   0  10  140.49    9.00
  -4   0  10  142.79   10.40
   3   0 -10   23.40    3.70
   3   0 -10   16.40    3.20
  -3   0  10   19.10    4.10
  -3   0  10   19.80    4.50
  -3   0  10   19.30    3.90
  -3   0  10   15.50    3.10
  -3   0  10   19.20    4.50
  -3   0  10   16.00    3.90
   2   0 -10  161.38    8.30
   2   0 -10  157.98    8.40
   2   0 -10  170.78    8.80
  -2   0  10  163.88    8.70
  -2   0  10  144.89   10.50
  -2   0  10  139.09    9.70
  -2   0  10  154.88   10.10
  -2   0  10  175.58   10.00
  -2   0  10  158.78    9.30
   1   0 -10    1.90    1.10
   1   0 -10    0.90    1.10
   1   0 -10    1.30    1.40
  -1   0  10    1.90    1.60
  -1   0  10    4.20    2.10
  -1   0  10    0.30    1.20
  -1   0  10    4.40    2.30
  -1   0  10    1.90    1.70
   0   0 -10  216.98   10.90
   0   0 -10  200.18    8.60
   0   0  10  172.98   10.10
   0   0  10  210.88   10.40
   0   0  10  216.38   11.80
   0   0  10  219.88   10.70
   0   0  10  208.88   11.30
  -1   0 -10  953.30   33.60
   1   0  10  919.01   32.70
   1   0  10  887.81   34.00
   1   0  10  925.01   31.20
   1   0  10  951.10   33.80
  -2   0 -10    0.40    1.80
   2   0  10    0.10    1.40
   2   0  10   -0.70    0.90
   2   0  10    0.30    1.60
   2   0  10   -0.10    1.10
   2   0  10    1.00    1.10
  -3   0 -10    0.50    2.00
   3   0  10    3.80    1.90
   3   0  10    1.20    1.70
   3   0  10   -0.10    1.10
   3   0  10    4.10    1.90
  -4   0 -10  105.99   11.30
  -4   0 -10  128.59   11.70
   4   0  10  119.09    8.90
   4   0  10   98.99    7.20
  -5   0 -10    0.00    1.90
  -5   0 -10    4.50    3.40
   5   0  10    1.10    2.20
  -6   0 -10   30.30    6.90
  -6   0 -10   26.90    6.10
   6   0  10   24.90    5.70
  -7   0 -10    4.50    3.50
  -7   0 -10    6.70    4.10
  -7   0 -10    3.50    4.00
   7   0  10    2.50    3.60
  -8   0 -10   -1.20    4.20
  -8   1  10    2.80    4.10
  -8   1  10    6.00    4.40
  -8   1  10    6.20    4.30
  -7   1  10   66.19    9.80
  -7   1  10   59.69    9.50
  -7   1  10   64.99    9.90
  -6   1  10    8.30    3.70
  -6   1  10   -0.40    2.40
  -6   1  10   -0.30    2.10
  -6   1  10    3.90    3.00
  -5   1  10   -0.20    1.90
  -5   1  10    0.90    2.30
  -5   1  10    1.60    2.30
  -5   1  10   -1.10    1.80
  -5   1  10    3.10    2.20
  -4   1  10  147.39    9.00
  -4   1  10  147.49   10.40
  -4   1  10  144.59   10.30
  -4   1  10  133.09    9.10
  -4   1  10  149.69    9.40
  -4   1  10  151.88   10.80
  -4   1  10  146.49   10.80
   3  -1 -10    3.20    2.10
  -3   1  10    7.80    3.10
  -3   1  10    6.50    2.70
  -3   1  10    0.80    1.60
  -3   1  10    6.10    2.80
  -3   1  10    6.10    2.10
  -3   1  10   10.90    3.10
   2  -1 -10   13.20    3.10
  -2   1  10   11.60    3.30
  -2   1  10   12.10    3.20
  -2   1  10    9.50    2.90
  -2   1  10   15.00    3.70
  -2   1  10   22.90    4.30
  -2   1  10   12.80    2.70
   1  -1 -10  131.99    8.40
  -1   1  10  130.29    8.30
  -1   1  10  127.19    7.10
  -1   1  10  140.49    8.40
  -1   1  10  125.09    8.70
  -1   1  10  133.59    9.10
   0  -1 -10  165.28    9.80
   0   1  10  162.18    8.70
   0   1  10  144.49    8.90
   0   1  10  165.98    8.20
   0   1  10  159.58   10.00
   0   1  10  166.98    8.60
   0   1  10  152.98   10.00
   0   1  10  144.79    7.70
  -1  -1 -10  298.07   14.50
   1   1  10  276.47   11.70
   1   1  10  251.17   12.80
   1   1  10  296.97   14.80
   1   1  10  282.57   14.30
   1   1  10  274.97   14.20
  -2  -1 -10  106.59   10.00
   2   1  10   63.49    7.70
   2   1  10   84.99    8.60
   2   1  10   75.19    7.20
  -3  -1 -10   -0.10    1.40
  -3  -1 -10    0.10    1.90
   3   1  10   -0.50    1.30
   3   1  10    2.00    2.00
   3   1  10    0.90    1.20
  -4  -1 -10  216.08   13.50
  -4  -1 -10  221.88   14.20
   4   1  10  209.28   13.10
  -5  -1 -10   28.60    6.20
  -5  -1 -10   32.30    6.20
   5   1  10   45.90    7.70
  -6  -1 -10    3.10    3.40
  -6  -1 -10    6.20    4.10
  -6  -1 -10    4.00    3.40
   6   1  10    4.00    3.50
  -7  -1 -10   -3.00    3.20
  -7  -1 -10    1.50    3.90
  -7  -1 -10    2.10    3.80
   7   1  10   -4.90    2.50
  -8   2  10    7.50    4.80
  -8   2  10   13.20    5.20
  -7   2  10   33.80    7.40
  -7   2  10   33.20    7.10
  -7   2  10   33.20    7.00
  -6   2  10    3.30    2.90
  -6   2  10    4.30    3.70
  -6   2  10    3.00    3.20
  -6   2  10    5.60    3.50
  -5   2  10    8.90    3.00
  -5   2  10    6.20    3.30
  -5   2  10    5.00    2.90
  -5   2  10    5.90    3.00
  -5   2  10    4.40    2.70
  -5   2  10    7.10    3.20
  -4   2  10   63.29    7.90
  -4   2  10   67.79    8.60
  -4   2  10   57.89    7.10
  -4   2  10   60.69    7.80
  -4   2  10   72.99    8.20
  -4   2  10   57.09    7.30
   3  -2 -10    9.30    3.20
  -3   2  10    9.20    2.50
  -3   2  10    5.90    2.70
  -3   2  10   10.50    3.20
  -3   2  10    5.10    2.80
  -3   2  10   10.50    3.20
  -3   2  10    9.90    3.40
   2  -2 -10    0.80    1.80
  -2   2  10    0.10    1.30
  -2   2  10    0.80    1.30
  -2   2  10   -1.40    1.40
  -2   2  10    0.50    1.50
  -2   2  10   -1.30    0.90
  -2   2  10    1.20    1.20
   1  -2 -10  329.57   16.00
  -1   2  10  338.07   15.50
  -1   2  10  326.07   16.20
  -1   2  10  338.47   15.40
  -1   2  10  333.37   16.40
  -1   2  10  343.27   13.50
   0  -2 -10  315.87   15.70
   0   2  10  322.77   14.10
   0   2  10  319.77   12.50
   0   2  10  305.07   14.60
   0   2  10  330.07   16.10
   0   2  10  298.17   15.60
  -1  -2 -10   57.09    7.30
   1   2  10   41.80    6.60
   1   2  10   38.10    5.20
   1   2  10   44.40    6.10
   1   2  10   43.30    3.90
   1   2  10   35.00    4.20
  -2  -2 -10  117.49   11.40
   2   2  10   98.49    7.10
   2   2  10  100.39   10.30
  -3  -2 -10   28.90    5.80
  -3  -2 -10   21.40    4.90
   3   2  10   33.10    6.10
  -4  -2 -10   40.50    7.10
  -4  -2 -10   35.10    6.80
   4   2  10   54.59    8.10
  -5  -2 -10  101.79   11.90
  -5  -2 -10  107.59   12.20
  -5  -2 -10  103.49   12.00
   5   2  10  143.29   14.40
  -6  -2 -10   -1.10    2.60
  -6  -2 -10   -1.00    2.80
  -6  -2 -10   -1.80    3.10
   6   2  10   -0.90    2.70
  -7  -2 -10    8.60    5.30
  -7  -2 -10   -1.10    2.70
   7   2  10   17.60    6.90
  -8   3  10   15.90    5.90
  -8   3  10   19.20    6.00
  -7   3  10    2.50    2.70
  -7   3  10    3.30    3.30
  -7   3  10   -3.20    2.60
  -6   3  10   17.50    5.10
  -6   3  10   11.50    4.30
  -6   3  10   10.80    3.60
  -6   3  10    7.60    3.80
  -6   3  10   12.60    4.70
  -5   3  10   28.40    6.50
  -5   3  10   29.00    5.70
  -5   3  10   34.60    6.40
  -5   3  10   22.20    5.40
  -5   3  10   27.10    5.50
  -4   3  10   37.70    6.50
  -4   3  10   39.90    6.40
  -4   3  10   43.10    6.90
  -4   3  10   42.10    6.20
  -4   3  10   51.89    7.30
   3  -3 -10   51.09    7.50
  -3   3  10   49.50    7.00
  -3   3  10   51.09    7.10
  -3   3  10   43.20    5.80
  -3   3  10   57.19    7.30
   2  -3 -10    5.20    2.90
  -2   3  10    2.90    2.10
  -2   3  10    4.70    2.60
  -2   3  10    6.90    1.90
  -2   3  10    4.20    2.50
  -2   3  10    7.50    3.00
  -2   3  10    6.80    2.80
   1  -3 -10    3.10    2.10
  -1   3  10    1.90    1.80
  -1   3  10    3.50    2.50
  -1   3  10    2.50    1.10
  -1   3  10    2.60    1.90
  -1   3  10    1.70    2.30
   0  -3 -10  134.19   12.10
   0   3  10  115.49    9.00
   0   3  10  114.89    5.60
   0   3  10  113.69    8.10
   0   3  10  109.59    7.50
   0   3  10  112.09   10.40
  -1  -3 -10    0.40    1.90
   1   3  10    3.90    2.20
   1   3  10    2.00    1.00
   1   3  10    2.40    2.20
  -2  -3 -10  171.48   12.00
   2   3  10  163.08    9.80
   2   3  10  173.68   12.10
   2   3  10  158.08    7.30
  -3  -3 -10  304.17   17.90
  -3  -3 -10  343.97   18.90
   3   3  10  324.57   18.10
  -4  -3 -10   43.00    7.90
  -4  -3 -10   41.00    7.50
   4   3  10   45.10    7.90
  -5  -3 -10    3.40    3.60
  -5  -3 -10    7.50    3.90
   5   3  10    4.00    4.20
  -6  -3 -10    5.20    4.10
  -6  -3 -10    6.40    4.20
   6   3  10    9.50    5.30
  -8   4  10   14.50    6.10
  -8   4  10   22.70    7.00
  -7   4  10    6.50    4.80
  -7   4  10    0.30    3.00
  -6   4  10   11.80    4.20
  -6   4  10   12.10    4.70
  -6   4  10   14.60    5.10
  -6   4  10   11.90    4.10
  -5   4  10   52.09    7.70
  -5   4  10   59.89    8.50
  -5   4  10   45.20    8.10
  -5   4  10   51.19    7.60
  -4   4  10   66.49    9.20
  -4   4  10   74.79    9.00
  -4   4  10   67.69    8.70
  -4   4  10   68.49    9.10
   3  -4 -10   41.90    7.10
  -3   4  10   41.20    6.40
  -3   4  10   42.00    6.70
  -3   4  10   63.39    8.50
  -3   4  10   48.20    7.20
   2  -4 -10   20.10    5.20
  -2   4  10   20.30    4.50
  -2   4  10   11.30    3.40
  -2   4  10   23.50    5.00
  -2   4  10   10.80    3.90
  -2   4  10   14.10    2.60
  -2   4  10   12.70    3.70
   1  -4 -10    8.10    3.10
  -1   4  10    2.10    2.10
  -1   4  10    6.40    2.80
  -1   4  10    2.40    2.30
  -1   4  10    3.50    1.20
  -1   4  10    2.00    2.20
   0  -4 -10  263.77   15.50
   0   4  10  248.28   15.00
   0   4  10  264.47   13.40
   0   4  10  258.27   13.90
   0   4  10  272.37   15.30
  -1  -4 -10   41.10    6.90
   1   4  10   48.80    7.40
   1   4  10   51.29    6.60
  -2  -4 -10   -1.30    2.30
   2   4  10   -1.00    1.80
  -3  -4 -10   42.70    7.80
  -3  -4 -10   43.70    7.70
   3   4  10   40.80    7.30
  -4  -4 -10   14.30    5.40
   4   4  10   15.70    5.30
  -5  -4 -10    0.50    3.40
  -5  -4 -10    3.30    3.60
   5   4  10   -2.60    2.50
  -6  -4 -10   13.20    6.00
  -6  -4 -10    8.30    5.00
   6   4  10    6.50    5.50
  -7   5  10    1.80    3.20
  -7   5  10    2.80    3.30
  -7   5  10    1.30    3.20
  -6   5  10    1.20    3.00
  -6   5  10   -1.30    3.20
  -6   5  10    4.20    3.00
  -5   5  10   95.79   11.90
  -5   5  10   70.99    9.50
  -5   5  10   72.39   10.40
  -5   5  10  109.29   11.90
  -4   5  10   11.40    4.30
  -4   5  10   15.60    4.90
  -4   5  10   13.40    4.60
  -4   5  10    9.70    4.00
   3  -5 -10   35.80    6.80
  -3   5  10   16.90    4.60
  -3   5  10   29.80    6.10
  -3   5  10   28.60    6.30
  -3   5  10   27.50    5.60
   2  -5 -10   73.39   10.40
  -2   5  10   83.19   10.40
  -2   5  10   87.19    9.70
  -2   5  10   96.59   10.20
  -2   5  10   81.89    9.60
   1  -5 -10  202.18   14.10
  -1   5  10  214.28   13.00
  -1   5  10  215.28   14.60
  -1   5  10  220.08   13.70
  -1   5  10  215.98   14.10
  -1   5  10  235.08   13.60
   0  -5 -10    6.80    3.80
   0   5  10    2.50    2.30
   0   5  10    4.80    3.20
   0   5  10    2.50    2.30
  -1  -5 -10  168.28   15.70
   1   5  10  169.88   12.70
   1   5  10  148.69   10.60
  -2  -5 -10  125.89   13.60
   2   5  10  135.99   14.50
  -3  -5 -10    3.80    3.70
  -3  -5 -10    0.40    3.70
   3   5  10    1.10    3.10
  -4  -5 -10    6.10    4.80
  -4  -5 -10    6.70    4.20
   4   5  10   10.00    4.70
  -5  -5 -10    5.20    4.50
  -5  -5 -10    2.40    4.10
   5   5  10   -0.60    3.70
  -7   6  10    9.50    4.30
  -7   6  10   12.70    4.90
  -7   6  10    1.40    5.00
  -6   6  10    5.30    4.50
  -6   6  10    1.00    3.30
  -6   6  10    2.20    3.70
  -5   6  10   -1.60    2.20
  -5   6  10    3.10    3.70
  -4   6  10    2.30    3.40
  -4   6  10   -0.70    2.40
   3  -6 -10    1.30    3.10
  -3   6  10    1.50    3.10
  -3   6  10   -1.40    2.40
  -3   6  10    0.30    2.60
   2  -6 -10   98.39   12.10
  -2   6  10  102.29   11.60
  -2   6  10   68.69    9.10
  -2   6  10   87.99   11.80
   1  -6 -10  238.58   16.20
  -1   6  10  217.98   15.60
  -1   6  10  233.48   14.60
  -1   6  10  226.88   15.30
  -1   6  10  210.08   15.90
   0  -6 -10    7.30    3.70
   0   6  10   13.00    4.80
   0   6  10    3.90    3.50
   0   6  10    8.70    3.60
  -1  -6 -10   23.10    6.50
   1   6  10   22.60    6.00
  -2  -6 -10   10.60    4.70
   2   6  10    4.50    4.20
  -3  -6 -10    0.00    3.70
   3   6  10   -3.30    2.90
  -6   7  10   -2.50    3.90
  -5   7  10    7.40    4.60
  -5   7  10    3.70    4.40
  -4   7  10    6.70    5.10
  -4   7  10   15.90    5.50
   3  -7 -10   60.79   10.40
  -3   7  10   47.00    8.50
  -3   7  10   31.50    7.50
   2  -7 -10   61.69   10.10
  -2   7  10   91.19   11.10
  -2   7  10   61.09    9.90
   1  -7 -10   25.80    7.00
  -1   7  10   32.80    7.10
  -1   7  10   28.10    7.00
   0  -7 -10   14.00    5.90
   0   7  10    3.20    4.10
   0   7  10    5.70    4.00
   0   7  10   18.70    5.30
  -1  -7 -10   18.80    6.10
   1   7  10   30.20    7.20
   1   7  10   19.40    6.00
  -2  -7 -10   -1.60    2.90
   2   7  10   -1.00    3.90
  -3   8  10   21.20    6.70
  -3   8  10   23.40    6.90
   2  -8 -10   50.39    9.60
  -2   8  10   48.40    9.70
   1  -8 -10    0.50    3.40
  -1   8  10    4.90    4.00
  -1   8  10   12.50    5.30
   1   8 -11   20.30    6.90
  -1  -8  11    8.00    5.50
   0   8 -11   -0.70    3.70
   0  -8  11    3.80    3.60
   0  -8  11   -1.50    2.90
   1  -8  11    0.40    3.90
   1  -8  11   -0.10    2.90
   2  -8  11    3.00    3.30
   2  -8  11    5.20    3.40
   3  -8  11   12.50    4.60
   3  -8  11   26.20    7.40
  -4   8 -11    0.20    3.30
   4  -8  11    0.90    3.20
   4  -8  11   -2.40    2.60
  -5   8 -11    4.50    4.70
   5  -8  11    3.50    3.50
   5  -8  11   -0.30    3.10
   3   7 -11    7.60    5.00
  -3  -7  11    1.00    3.60
   2   7 -11   56.89   10.70
  -2  -7  11   42.80    9.10
   1   7 -11   25.40    7.30
  -1  -7  11   20.30    6.00
  -1  -7  11   24.90    5.80
   0   7 -11   12.30    5.30
   0  -7  11    4.40    3.30
   0  -7  11   18.00    5.40
   1  -7  11   -2.10    1.80
   1  -7  11    0.90    2.80
   2  -7  11    6.10    3.50
   2  -7  11    5.20    3.10
   3  -7  11    1.50    2.90
   3  -7  11    2.30    2.90
   4  -7  11   -0.30    2.50
   4  -7  11   -0.50    2.70
  -5   7 -11    2.30    3.30
   5  -7  11    8.20    4.50
   5  -7  11    0.70    3.20
   6  -7  11    4.70    3.80
   4   6 -11    5.00    5.00
  -4  -6  11   -1.40    3.00
  -4  -6  11   -1.70    3.90
   3   6 -11   15.40    5.90
  -3  -6  11    7.60    4.40
  -3  -6  11    9.80    4.60
   2   6 -11   22.10    6.50
  -2  -6  11   19.90    5.60
   1   6 -11   16.50    6.00
  -1  -6  11   22.20    6.10
  -1  -6  11   27.10    5.70
  -1  -6  11   25.20    6.10
   0   6 -11    2.60    2.80
   0  -6  11    3.80    2.90
   0  -6  11    2.90    3.00
   1  -6  11   68.89    9.50
   1  -6  11   75.39    9.50
   2  -6  11   45.10    7.50
   2  -6  11   35.40    6.50
   3  -6  11    8.90    4.10
   3  -6  11   10.20    3.90
   4  -6  11    4.80    3.40
   4  -6  11    3.00    3.00
  -5   6 -11   13.60    4.80
   5  -6  11   11.20    4.10
  -6   6 -11    3.90    3.90
   6  -6  11    4.40    3.50
  -7   6 -11    6.10    5.20
   7  -6  11    8.90    5.90
   5   5 -11   -1.30    4.00
  -5  -5  11    7.10    5.00
  -5  -5  11    6.60    4.00
   4   5 -11   -0.90    3.40
  -4  -5  11   -0.50    2.80
  -4  -5  11    3.30    3.10
  -4  -5  11    1.30    3.80
   3   5 -11   52.39    9.20
  -3  -5  11   69.89    9.70
  -3  -5  11   72.59   10.40
  -3  -5  11   60.79    9.00
   2   5 -11   95.09   12.00
  -2  -5  11  115.39   11.30
  -2  -5  11   81.49   10.30
  -2  -5  11   93.89    9.50
  -2  -5  11   92.09   11.00
  -2  -5  11   93.49   10.50
   1   5 -11   93.19   11.40
  -1  -5  11   81.79   10.20
  -1  -5  11   90.69   10.50
  -1  -5  11   83.99    9.10
  -1  -5  11  123.99   11.40
   0   5 -11   33.90    6.90
   0  -5  11   26.30    5.50
   0  -5  11   28.50    5.50
   0  -5  11   37.10    6.50
   1  -5  11   -0.20    1.80
   1  -5  11    0.00    1.70
   1  -5  11   -0.60    1.90
   2  -5  11   20.80    4.90
   2  -5  11   25.90    5.50
   3  -5  11    1.50    2.00
   3  -5  11    5.80    2.90
  -4   5 -11   46.50    7.50
   4  -5  11   26.00    5.30
   4  -5  11   34.40    6.10
  -5   5 -11   24.30    6.10
   5  -5  11   32.30    6.30
  -6   5 -11    9.70    4.80
   6  -5  11    0.70    2.70
  -7   5 -11   -1.70    3.00
   6   4 -11   16.80    5.60
  -6  -4  11   17.10    7.10
  -6  -4  11   17.40    5.80
   5   4 -11    8.40    4.60
  -5  -4  11   21.00    5.80
  -5  -4  11    9.50    4.50
  -5  -4  11    8.40    4.40
   4   4 -11    3.10    3.30
  -4  -4  11    1.40    3.20
  -4  -4  11    3.70    3.20
  -4  -4  11    2.20    2.70
   3   4 -11   33.00    7.00
  -3  -4  11   48.00    8.20
  -3  -4  11   36.90    6.60
  -3  -4  11   40.70    7.40
  -3  -4  11   37.50    7.20
   2   4 -11   64.09    9.30
  -2  -4  11   50.59    6.50
  -2  -4  11   62.39    8.30
  -2  -4  11   54.39    7.70
  -2  -4  11   54.39    7.80
  -2  -4  11   66.39    8.60
   1   4 -11    7.50    3.50
  -1  -4  11    7.30    3.60
  -1  -4  11    8.00    3.00
  -1  -4  11    5.70    2.70
  -1  -4  11    3.20    2.50
  -1  -4  11   12.60    3.30
   0   4 -11    6.80    3.30
   0   4 -11    4.90    3.10
   0  -4  11    3.10    2.40
   0  -4  11   11.30    3.40
   0  -4  11    7.80    2.90
   0  -4  11    6.10    2.70
  -1   4 -11   52.19    8.20
  -1   4 -11   57.09    6.20
   1  -4  11   80.39    8.60
   1  -4  11   73.39    8.00
   1  -4  11   55.29    6.80
  -2   4 -11  137.89    8.80
   2  -4  11  130.19    9.20
   2  -4  11  119.19    9.00
   2  -4  11  124.19    9.20
  -3   4 -11    9.50    3.30
  -3   4 -11   16.60    3.50
   3  -4  11    7.20    3.00
   3  -4  11    8.20    3.40
  -4   4 -11    2.00    2.00
  -4   4 -11    2.60    2.30
   4  -4  11    3.20    2.40
  -5   4 -11    9.70    4.00
   5  -4  11    6.00    3.30
  -6   4 -11   24.10    6.20
   6  -4  11   30.90    6.20
  -7   4 -11    9.00    5.20
  -8   4 -11    7.00    5.60
  -7  -3  11    8.40    5.40
  -6  -3  11   24.20    8.20
  -6  -3  11   16.30    5.50
  -6  -3  11   27.00    7.70
   5   3 -11   11.20    4.40
  -5  -3  11   10.00    5.00
  -5  -3  11   17.80    5.30
  -5  -3  11   12.30    4.70
   4   3 -11   17.00    5.10
  -4  -3  11   19.80    5.10
  -4  -3  11   24.90    6.10
  -4  -3  11   20.70    5.50
   3   3 -11  176.78   13.00
   3   3 -11  171.48   11.90
  -3  -3  11  156.58   12.10
  -3  -3  11  138.29    9.50
  -3  -3  11  151.48   11.90
  -3  -3  11  164.68   11.60
  -3  -3  11  164.88   11.70
   2   3 -11  102.49   10.50
   2   3 -11  136.09   10.60
  -2  -3  11  125.09   11.90
  -2  -3  11  127.99    9.60
  -2  -3  11  134.09    8.90
  -2  -3  11  118.89   11.40
  -2  -3  11  122.99   11.50
   1   3 -11   13.40    3.90
   1   3 -11    8.00    3.50
   1   3 -11   12.40    3.00
  -1  -3  11   12.20    3.30
  -1  -3  11    6.20    2.80
  -1  -3  11    7.40    2.70
  -1  -3  11    3.50    2.10
  -1  -3  11   10.30    3.30
   0   3 -11  219.48   12.60
   0   3 -11  214.68   13.60
   0   3 -11  215.68   11.20
   0  -3  11  210.58   12.10
   0  -3  11  192.18   11.50
   0  -3  11  225.58   11.60
   0  -3  11  197.88   12.30
   0  -3  11  240.28   12.60
  -1   3 -11  242.28   11.90
  -1   3 -11  229.58   14.20
  -1   3 -11  222.18   14.60
   1  -3  11  214.88   12.10
   1  -3  11  249.48   11.80
   1  -3  11  233.88   13.10
   1  -3  11  227.48   12.50
  -2   3 -11    2.40    2.40
  -2   3 -11    5.00    2.50
  -2   3 -11    2.10    1.70
   2  -3  11    6.80    2.80
   2  -3  11    8.40    2.70
   2  -3  11    5.50    2.40
  -3   3 -11  113.89    8.80
  -3   3 -11   97.29    7.20
   3  -3  11  117.49   10.40
   3  -3  11  116.49    7.80
   3  -3  11   89.99    8.60
  -4   3 -11   52.19    7.80
   4  -3  11   47.10    6.50
  -5   3 -11   14.60    4.70
   5  -3  11   14.70    4.20
  -6   3 -11   86.59   11.80
  -7   3 -11   -1.30    3.10
  -8   3 -11    3.40    4.90
  -7  -2  11   11.40    5.00
  -7  -2  11    3.50    4.40
  -6  -2  11   49.20    8.80
  -6  -2  11   52.89    8.40
  -6  -2  11   32.90    7.10
  -5  -2  11   11.20    4.30
  -5  -2  11   10.20    4.20
  -5  -2  11   24.80    6.40
   4   2 -11    5.20    3.10
  -4  -2  11    8.90    3.40
  -4  -2  11    8.40    3.80
  -4  -2  11    3.50    2.80
  -4  -2  11    7.40    3.20
   3   2 -11  130.99    9.40
   3   2 -11  109.89    8.00
   3   2 -11  122.99    9.70
  -3  -2  11  115.19   11.40
  -3  -2  11  140.59   10.20
  -3  -2  11   92.99   10.40
  -3  -2  11  119.09    8.40
  -3  -2  11  115.89   11.30
   2   2 -11    6.00    2.50
   2   2 -11   15.30    3.90
   2   2 -11    6.50    2.20
  -2  -2  11    4.60    2.60
  -2  -2  11    7.70    3.00
  -2  -2  11   11.90    3.70
  -2  -2  11   12.10    3.70
  -2  -2  11    3.30    2.20
   1   2 -11    7.40    2.20
   1   2 -11   10.60    3.00
   1   2 -11    7.60    2.70
  -1  -2  11    8.40    2.70
  -1  -2  11    8.10    3.00
  -1  -2  11    8.70    2.80
  -1  -2  11   10.70    3.10
  -1  -2  11   11.30    3.20
   0   2 -11  148.99    8.90
   0   2 -11  186.68   11.40
   0   2 -11  158.68    8.50
   0  -2  11  169.28   10.80
   0  -2  11  166.98    9.90
   0  -2  11  186.38    9.10
   0  -2  11  169.98   10.10
   0  -2  11  164.68    9.90
  -1   2 -11  280.97   12.70
  -1   2 -11  272.07   14.90
  -1   2 -11  264.77   12.80
   1  -2  11  279.97   13.30
   1  -2  11  257.37   14.00
   1  -2  11  268.17   13.70
   1  -2  11  276.67   12.50
   1  -2  11  269.87   13.10
  -2   2 -11   73.49    5.70
  -2   2 -11   93.49    8.80
   2  -2  11   87.59    6.60
   2  -2  11   78.39    8.00
   2  -2  11   81.39    7.30
   2  -2  11   75.29    6.90
   2  -2  11   89.39    8.40
  -3   2 -11  103.69   10.30
   3  -2  11   99.69    7.20
   3  -2  11  104.69    9.50
   3  -2  11  110.99    8.40
   3  -2  11   94.29    7.10
  -4   2 -11   69.49    8.80
   4  -2  11   74.09    8.40
   4  -2  11   75.79    7.50
   4  -2  11   76.69    8.00
  -5   2 -11    0.00    2.60
   5  -2  11    3.90    2.60
  -6   2 -11   56.19    9.50
  -7   2 -11   -0.40    2.90
  -8   2 -11    1.00    4.10
  -8  -1  11    9.50    5.70
  -7  -1  11   26.10    8.60
  -7  -1  11   31.90    7.60
  -7  -1  11   25.20    6.80
  -6  -1  11    8.40    4.20
  -6  -1  11   12.80    5.10
  -6  -1  11    6.30    3.70
  -5  -1  11   19.00    5.40
  -5  -1  11    7.90    3.40
  -5  -1  11   10.70    4.40
  -5  -1  11   21.20    5.20
   4   1 -11    8.80    2.80
  -4  -1  11   23.00    5.50
  -4  -1  11    9.10    3.10
  -4  -1  11    7.30    3.40
  -4  -1  11   13.00    4.30
  -4  -1  11   15.10    4.30
   3   1 -11   20.90    3.70
  -3  -1  11   20.80    4.90
  -3  -1  11   11.00    3.50
  -3  -1  11   10.00    3.20
  -3  -1  11   17.00    4.30
  -3  -1  11   15.10    4.20
   2   1 -11  121.19    8.40
   2   1 -11  132.19    8.00
  -2  -1  11  140.39   10.10
  -2  -1  11  137.69   10.10
  -2  -1  11  131.39    9.40
  -2  -1  11  133.29    9.40
  -2  -1  11  136.99    8.90
   1   1 -11   18.70    3.30
   1   1 -11   23.50    4.00
   1   1 -11   28.70    3.90
  -1  -1  11   25.50    4.40
  -1  -1  11   20.20    4.20
  -1  -1  11   21.80    4.00
  -1  -1  11   26.60    4.80
   0   1 -11  560.34   20.70
   0   1 -11  570.54   21.50
   0   1 -11  545.95   22.60
   0  -1  11  549.85   22.30
   0  -1  11  529.55   21.80
   0  -1  11  566.94   23.60
   0  -1  11  539.55   22.50
   0  -1  11  581.44   21.10
  -1   1 -11    0.30    1.40
   1  -1  11    1.90    1.40
   1  -1  11   -0.40    1.00
   1  -1  11    2.70    1.70
   1  -1  11    0.40    1.50
   1  -1  11    1.60    1.90
  -2   1 -11  172.88   10.50
   2  -1  11  155.28    9.10
   2  -1  11  172.38   10.00
   2  -1  11  160.78   10.60
   2  -1  11  164.08    8.60
   2  -1  11  168.28   10.00
  -3   1 -11   58.69    8.10
   3  -1  11   49.99    6.10
   3  -1  11   49.00    6.50
   3  -1  11   43.60    5.50
   3  -1  11   33.70    5.50
  -4   1 -11  202.28   13.30
   4  -1  11  206.78   12.90
   4  -1  11  188.68   11.70
   4  -1  11  200.68   11.20
  -5   1 -11  233.08   15.60
   5  -1  11  249.48   14.40
   5  -1  11  258.27   15.40
  -6   1 -11   -0.80    2.70
  -7   1 -11   -1.40    3.10
  -8   1 -11    8.10    5.20
  -8   0  11   -0.30    3.30
  -8   0  11   -0.50    3.40
  -7   0  11   42.20    8.60
  -7   0  11   46.80    8.70
  -7   0  11   39.50    8.60
  -6   0  11    4.20    3.50
  -6   0  11   12.70    4.50
  -6   0  11   16.10    5.40
  -5   0  11   19.80    5.10
  -5   0  11   17.80    4.90
  -5   0  11   10.90    3.90
  -5   0  11   13.50    4.10
  -4   0  11   21.10    4.30
  -4   0  11   25.50    5.60
  -4   0  11   37.90    6.80
  -4   0  11   22.60    5.30
  -4   0  11   28.90    5.60
  -3   0  11   52.09    7.20
  -3   0  11   58.09    7.60
  -3   0  11   39.30    5.80
  -3   0  11   55.79    7.80
  -3   0  11   54.99    7.70
   2   0 -11   86.79    7.90
  -2   0  11   84.69    8.40
  -2   0  11   78.89    8.60
  -2   0  11   65.89    8.00
  -2   0  11   62.69    7.40
  -2   0  11   69.19    6.70
   1   0 -11  130.39    8.20
   1   0 -11  131.19    7.80
  -1   0  11  155.28    9.70
  -1   0  11  128.59    8.50
  -1   0  11  133.09    8.70
  -1   0  11  118.89    9.00
   0   0 -11  384.86   16.90
   0   0  11  381.96   17.60
   0   0  11  389.16   16.40
   0   0  11  381.16   16.90
   0   0  11  388.96   18.30
  -1   0 -11  189.58   11.00
   1   0  11  184.88   10.40
   1   0  11  176.48   10.80
   1   0  11  180.28   11.40
   1   0  11  192.58    9.50
  -2   0 -11  266.07   14.20
   2   0  11  286.37   14.40
   2   0  11  247.68   13.00
   2   0  11  263.57   12.40
   2   0  11  274.47   14.70
  -3   0 -11   47.00    7.20
   3   0  11   37.40    6.00
   3   0  11   50.49    7.10
   3   0  11   34.90    4.80
   3   0  11   40.20    5.60
  -4   0 -11    1.00    2.50
   4   0  11   -1.30    2.10
   4   0  11   -1.70    1.50
  -5   0 -11  137.39   14.30
   5   0  11  137.89   12.80
  -6   0 -11    2.40    2.80
  -6   0 -11   13.70    5.40
   6   0  11    5.20    3.10
  -7   0 -11   20.70    6.20
  -7   0 -11   22.10    7.10
  -8   1  11   29.60    7.40
  -8   1  11   19.70    6.50
  -7   1  11    1.50    2.70
  -7   1  11   -1.20    2.50
  -7   1  11   -0.40    2.60
  -6   1  11   27.40    6.10
  -6   1  11   30.40    7.00
  -6   1  11   19.10    5.30
  -6   1  11   21.50    5.90
  -5   1  11    7.90    3.30
  -5   1  11    1.00    2.00
  -5   1  11   -0.30    2.30
  -5   1  11    5.20    2.70
  -5   1  11    1.20    2.20
  -4   1  11   67.59    6.80
  -4   1  11   71.69    8.10
  -4   1  11   69.19    7.70
  -4   1  11   67.39    8.60
  -4   1  11   66.79    8.90
  -4   1  11   70.89    8.80
  -4   1  11   70.59    8.60
   3  -1 -11  189.48   11.20
  -3   1  11  211.68   11.50
  -3   1  11  219.28   11.00
  -3   1  11  203.18   12.80
  -3   1  11  210.88   12.80
  -3   1  11  211.48   11.90
  -3   1  11  202.28   12.50
   2  -1 -11   30.70    5.00
  -2   1  11   25.10    3.70
  -2   1  11   17.70    3.80
  -2   1  11   25.30    4.50
  -2   1  11   24.60    4.70
  -2   1  11   22.60    4.50
  -2   1  11   19.00    4.30
   1  -1 -11   10.30    3.30
  -1   1  11   11.70    2.70
  -1   1  11   18.00    4.00
  -1   1  11   29.70    5.00
  -1   1  11   15.00    3.40
  -1   1  11   16.30    4.10
   0  -1 -11   65.79    7.60
   0   1  11   65.09    6.40
   0   1  11   61.29    7.10
   0   1  11   64.39    7.80
   0   1  11   69.49    7.90
  -1  -1 -11   49.10    6.80
   1   1  11   52.99    6.50
   1   1  11   38.60    5.90
   1   1  11   64.49    7.70
   1   1  11   49.10    5.30
  -2  -1 -11  185.78   12.20
   2   1  11  203.18   12.90
   2   1  11  222.28   11.50
   2   1  11  223.58   12.80
  -3  -1 -11  572.54   24.90
   3   1  11  517.15   21.60
  -4  -1 -11  256.57   15.30
  -4  -1 -11  231.08   15.10
   4   1  11  244.28   14.70
  -5  -1 -11   10.30    4.70
  -5  -1 -11   25.90    6.40
  -6  -1 -11   -1.70    2.70
  -6  -1 -11    2.10    2.80
   6   1  11   -1.20    2.80
  -7  -1 -11    9.80    5.20
  -7  -1 -11    3.00    3.50
   7   1  11    8.40    4.90
  -8   2  11    6.50    5.00
  -8   2  11   16.10    6.10
  -7   2  11    0.40    3.10
  -7   2  11   -1.00    3.30
  -7   2  11    0.30    3.20
  -6   2  11   51.69    8.50
  -6   2  11   47.00    7.90
  -6   2  11   68.69   10.10
  -5   2  11   63.39    8.90
  -5   2  11   56.99    7.90
  -5   2  11   52.19    8.50
  -5   2  11   44.60    6.90
  -5   2  11   56.19    7.50
  -5   2  11   39.70    7.20
  -4   2  11   68.09    8.10
  -4   2  11   59.69    8.30
  -4   2  11   59.49    8.20
  -4   2  11   71.09    8.60
  -4   2  11   73.39    9.20
  -4   2  11   92.29    9.60
   3  -2 -11   50.39    7.10
  -3   2  11   35.70    6.30
  -3   2  11   50.79    7.10
  -3   2  11   45.60    7.00
  -3   2  11   56.79    7.80
  -3   2  11   48.00    6.50
   2  -2 -11  112.89    8.50
  -2   2  11  122.29   10.90
  -2   2  11  118.39   11.10
  -2   2  11  111.59   10.20
  -2   2  11  105.39    8.40
  -2   2  11  107.49    8.30
  -2   2  11  105.09    6.90
   1  -2 -11   24.40    4.90
  -1   2  11   17.60    3.80
  -1   2  11   12.80    3.60
  -1   2  11   17.70    3.00
  -1   2  11   21.40    4.20
  -1   2  11   21.50    4.40
   0  -2 -11  613.74   25.50
   0   2  11  583.94   21.50
   0   2  11  605.64   25.70
   0   2  11  597.84   25.60
   0   2  11  619.24   23.50
   0   2  11  619.14   24.40
  -1  -2 -11  767.02   31.70
   1   2  11  845.12   30.30
   1   2  11  785.32   31.80
   1   2  11  798.62   32.30
   1   2  11  806.92   27.50
  -2  -2 -11   10.70    4.00
   2   2  11   11.20    3.80
   2   2  11   21.70    5.00
   2   2  11   11.40    3.20
  -3  -2 -11   18.40    4.90
   3   2  11   29.10    6.00
  -4  -2 -11   29.50    6.30
  -4  -2 -11   25.90    6.00
   4   2  11   31.40    6.40
  -5  -2 -11   16.70    5.60
  -5  -2 -11   18.60    5.30
   5   2  11   16.60    5.60
  -6  -2 -11   12.30    5.20
  -6  -2 -11    9.90    5.00
   6   2  11    8.30    4.60
  -7  -2 -11   25.20    7.40
  -7  -2 -11   25.20    6.90
   7   2  11    1.50    3.90
  -8   3  11    3.20    4.40
  -8   3  11    7.70    4.90
  -7   3  11   21.60    6.50
  -7   3  11    8.40    4.20
  -6   3  11    6.10    3.40
  -6   3  11    6.80    3.50
  -6   3  11    3.40    3.30
  -6   3  11   10.80    4.30
  -6   3  11    6.60    4.00
  -5   3  11   18.80    4.80
  -5   3  11    6.40    3.30
  -5   3  11    6.60    3.30
  -5   3  11    5.50    3.00
  -5   3  11    4.80    3.00
   4  -3 -11   83.59    9.90
  -4   3  11  117.39   10.90
  -4   3  11   99.79   10.80
  -4   3  11   84.69   10.30
  -4   3  11  100.89   10.90
  -4   3  11  106.19   10.60
   3  -3 -11    4.40    3.00
  -3   3  11    6.60    3.10
  -3   3  11    5.70    2.60
  -3   3  11   14.40    4.30
  -3   3  11    7.10    3.30
  -3   3  11    5.60    2.80
   2  -3 -11   71.79    8.90
  -2   3  11   64.59    7.90
  -2   3  11   51.99    7.10
  -2   3  11   85.79    9.80
  -2   3  11   48.60    7.20
  -2   3  11   62.59    7.80
   1  -3 -11  337.07   17.30
  -1   3  11  340.97   17.50
  -1   3  11  340.37   17.60
  -1   3  11  332.47   13.60
  -1   3  11  323.37   16.30
  -1   3  11  341.07   16.30
   0  -3 -11  193.18   12.50
   0   3  11  190.48    8.50
   0   3  11  174.18   12.00
   0   3  11  167.18   10.70
   0   3  11  187.18   10.60
   0   3  11  170.08   11.80
  -1  -3 -11   75.69    9.80
   1   3  11   80.59    9.40
   1   3  11  118.39   10.40
   1   3  11   88.09   10.10
   1   3  11   83.69    5.10
  -2  -3 -11  181.88   13.00
   2   3  11  188.78   13.10
   2   3  11  184.48   10.90
  -3  -3 -11  104.39   12.20
   3   3  11   86.99   11.00
  -4  -3 -11   42.60    8.00
  -4  -3 -11   46.20    8.00
   4   3  11   54.29    9.00
  -5  -3 -11   -0.30    3.10
  -5  -3 -11   -0.50    2.80
   5   3  11   -0.70    2.80
  -6  -3 -11   50.49    9.90
  -6  -3 -11   23.40    7.10
   6   3  11   29.00    7.70
  -7   4  11   16.10    7.40
  -7   4  11   16.90    6.60
  -7   4  11   10.50    4.70
  -6   4  11    4.70    3.50
  -6   4  11    2.80    3.40
  -6   4  11    2.80    3.30
  -6   4  11    3.20    3.80
  -5   4  11   -2.60    1.70
  -5   4  11    4.00    3.30
  -5   4  11    4.80    3.60
  -5   4  11   -0.70    2.30
  -5   4  11    2.30    2.80
   4  -4 -11   61.69    9.10
  -4   4  11   44.30    7.20
  -4   4  11   55.59    8.30
  -4   4  11   59.29    8.80
  -4   4  11   58.19    8.70
   3  -4 -11    5.00    2.90
  -3   4  11   12.20    4.40
  -3   4  11   10.30    4.00
  -3   4  11    8.50    3.10
  -3   4  11    7.40    3.40
   2  -4 -11   37.40    7.10
  -2   4  11   46.50    7.50
  -2   4  11   52.29    7.50
  -2   4  11   39.70    6.30
  -2   4  11   46.60    7.80
  -2   4  11   46.20    6.70
   1  -4 -11  627.94   28.10
  -1   4  11  608.94   22.40
  -1   4  11  650.03   28.10
  -1   4  11  661.53   27.70
  -1   4  11  656.53   27.10
  -1   4  11  650.83   26.40
   0  -4 -11  350.06   18.90
   0   4  11  316.17   16.70
   0   4  11  341.07   18.50
   0   4  11  350.76   18.50
  -1  -4 -11   27.40    6.10
   1   4  11   19.10    4.90
   1   4  11   22.40    5.60
   1   4  11   31.30    5.70
  -2  -4 -11   71.99    9.90
   2   4  11   79.39   10.70
  -3  -4 -11    0.80    2.80
   3   4  11    0.40    2.70
  -4  -4 -11   65.99   10.30
  -4  -4 -11   57.49    9.60
   4   4  11   50.99    9.20
  -5  -4 -11    6.90    4.60
  -5  -4 -11   10.30    5.70
   5   4  11   21.40    6.90
  -7   5  11    7.60    4.20
  -7   5  11    7.30    5.40
  -7   5  11    7.60    5.90
  -6   5  11    0.40    3.80
  -6   5  11    8.30    4.10
  -6   5  11    8.20    4.50
  -5   5  11    4.60    3.80
  -5   5  11    3.00    3.10
  -5   5  11    8.90    4.60
  -5   5  11   13.10    4.70
   4  -5 -11   12.30    4.60
  -4   5  11    2.30    3.10
  -4   5  11   10.90    4.50
  -4   5  11   10.70    4.50
  -4   5  11    5.50    3.00
   3  -5 -11   12.30    4.80
  -3   5  11   10.10    3.90
  -3   5  11    5.40    3.00
  -3   5  11   12.00    4.80
  -3   5  11    1.10    2.30
   2  -5 -11   51.99    8.90
  -2   5  11   47.20    7.40
  -2   5  11   36.00    6.50
  -2   5  11   36.60    6.50
  -2   5  11   30.80    7.00
   1  -5 -11  103.99   11.90
  -1   5  11  130.19   13.70
  -1   5  11  136.29   13.20
  -1   5  11  134.39   10.20
  -1   5  11  137.79   10.80
  -1   5  11  109.89   11.20
   0  -5 -11   61.79    9.50
   0   5  11   40.70    7.50
   0   5  11   45.50    7.20
   0   5  11   35.30    6.70
  -1  -5 -11    0.50    2.50
   1   5  11    3.00    2.60
   1   5  11    0.50    2.70
  -2  -5 -11    0.60    2.50
   2   5  11    0.20    3.20
  -3  -5 -11   16.30    5.60
   3   5  11    6.20    4.30
  -4  -5 -11    5.80    4.40
  -4  -5 -11   -6.70    3.50
   4   5  11   -1.10    3.10
  -6   6  11   18.30    6.30
  -6   6  11    6.40    4.20
  -6   6  11    5.40    4.20
  -5   6  11   35.70    8.20
  -5   6  11   22.80    6.50
  -5   6  11   25.90    6.00
  -4   6  11   21.40    6.30
  -4   6  11   23.90    6.20
  -4   6  11   39.20    8.30
   3  -6 -11   16.80    5.50
  -3   6  11   24.70    6.80
  -3   6  11   27.00    6.10
  -3   6  11   18.40    5.30
  -3   6  11   21.30    5.80
   2  -6 -11  137.79   15.10
  -2   6  11  102.09   11.70
  -2   6  11  103.49   12.20
  -2   6  11  149.69   15.80
  -2   6  11  141.99   13.60
   1  -6 -11  102.69   13.60
  -1   6  11   97.39   12.00
  -1   6  11  103.79   12.20
  -1   6  11   79.69   10.50
   0  -6 -11   16.90    5.90
   0   6  11   15.30    5.50
   0   6  11    8.60    3.80
  -1  -6 -11   22.30    6.70
   1   6  11   27.20    6.60
  -2  -6 -11    0.30    3.80
   2   6  11   -2.10    3.50
  -3  -6 -11   11.50    5.40
   3   6  11   21.20    7.10
  -5   7  11    8.50    4.80
  -5   7  11    9.60    4.70
  -5   7  11   12.20    5.60
  -4   7  11    6.00    4.60
  -4   7  11    3.10    3.90
  -4   7  11    2.10    3.30
   3  -7 -11    4.60    3.80
  -3   7  11    5.00    4.50
  -3   7  11    6.20    4.30
  -3   7  11    5.60    3.80
   2  -7 -11    6.10    4.60
  -2   7  11   15.00    5.50
  -2   7  11   12.60    4.40
  -2   7  11   14.60    6.70
   1  -7 -11   43.00    9.00
  -1   7  11   34.10    7.40
  -1   7  11   35.50    7.70
  -1   7  11   34.20    7.60
   0  -7 -11   34.70    8.00
   0   7  11   39.70    7.80
   0   7  11   37.80    8.30
   0   7  11   54.09    9.70
  -1  -7 -11   -1.80    2.70
   1   7  11    3.80    3.90
   1   7  11   -0.20    3.20
   1   8 -12   -3.60    3.70
   0   8 -12    0.50    4.50
   0  -8  12    4.00    4.90
   0  -8  12    0.60    3.00
   1  -8  12    2.20    3.30
   1  -8  12    0.90    3.50
   2  -8  12    0.50    3.30
   2  -8  12    1.80    3.10
   3  -8  12    5.10    3.90
   3  -8  12    2.30    3.30
  -4   8 -12    0.20    3.10
   4  -8  12    1.50    4.40
   4  -8  12   -1.20    2.60
  -5   8 -12   -1.10    3.50
   5  -8  12    3.00    3.90
   5  -8  12    4.80    4.40
   3   7 -12    1.40    4.60
  -3  -7  12   -0.90    3.40
   2   7 -12   23.70    7.50
  -2  -7  12   22.20    6.30
   1   7 -12   44.10    9.30
  -1  -7  12   53.59    8.10
  -1  -7  12   56.89    9.80
   0   7 -12   47.90    9.80
   0  -7  12   30.30    7.40
   0  -7  12   32.10    6.60
   1  -7  12   -0.20    2.90
   1  -7  12    4.50    2.80
   2  -7  12    3.10    3.00
   2  -7  12    3.90    3.70
   3  -7  12   20.00    5.90
   3  -7  12   14.40    5.00
   4  -7  12    0.90    2.90
   4  -7  12   -2.10    3.10
   5  -7  12    7.90    3.90
   6  -7  12    0.50    2.80
   4   6 -12    3.90    4.40
  -4  -6  12   12.20    5.10
   3   6 -12    1.90    3.90
  -3  -6  12    1.80    3.80
  -3  -6  12    2.30    2.90
   2   6 -12   19.90    6.60
  -2  -6  12   15.00    5.20
   1   6 -12   -0.20    2.80
  -1  -6  12    3.30    3.50
  -1  -6  12    3.80    2.90
   0   6 -12    1.20    2.90
   0  -6  12   -1.50    2.20
   0  -6  12   -1.30    2.10
   1  -6  12   21.40    5.60
   1  -6  12   19.80    5.20
   2  -6  12   43.40    7.30
   2  -6  12   33.20    6.50
   3  -6  12   86.99   10.70
   3  -6  12   66.19    8.90
   4  -6  12    3.80    3.10
   4  -6  12    1.30    2.40
   5  -6  12   15.50    4.80
  -6   6 -12    2.30    4.10
   6  -6  12    1.50    3.00
  -7   6 -12   -1.70    2.90
   5   5 -12    4.60    4.70
  -5  -5  12    9.20    5.30
  -5  -5  12   11.30    5.00
   4   5 -12    3.90    4.40
  -4  -5  12   -1.80    3.20
  -4  -5  12    2.70    3.20
  -4  -5  12    1.10    3.40
   3   5 -12   19.50    5.60
  -3  -5  12   10.70    4.60
  -3  -5  12   14.00    4.90
  -3  -5  12    6.10    4.20
   2   5 -12   38.60    7.80
  -2  -5  12   37.30    7.30
  -2  -5  12   40.60    6.50
  -2  -5  12   38.60    7.30
   1   5 -12    3.20    3.40
  -1  -5  12    9.40    3.40
  -1  -5  12    2.70    2.80
  -1  -5  12    3.30    2.40
  -1  -5  12    6.30    3.00
   0   5 -12   41.30    7.90
   0  -5  12   21.40    5.00
   0  -5  12   47.00    7.00
   0  -5  12   44.00    7.20
   1  -5  12   37.00    6.70
   1  -5  12   21.20    4.70
   1  -5  12   28.00    5.40
   2  -5  12   21.90    4.80
   2  -5  12   15.90    4.40
   3  -5  12   11.80    4.00
   3  -5  12    8.00    3.60
  -4   5 -12    0.20    2.80
   4  -5  12   -2.00    1.90
   4  -5  12   -1.50    2.20
  -5   5 -12    7.90    4.10
   5  -5  12    8.30    4.00
  -6   5 -12   53.09    9.20
   6  -5  12   44.20    7.30
  -7   5 -12   14.50    5.90
  -6  -4  12    5.40    4.80
  -6  -4  12    2.90    4.50
   5   4 -12   36.50    8.10
  -5  -4  12   21.90    6.30
  -5  -4  12   21.60    7.10
  -5  -4  12   28.60    7.00
   4   4 -12    0.80    2.90
  -4  -4  12   -0.90    2.50
  -4  -4  12    3.10    3.20
  -4  -4  12   -1.00    2.50
   3   4 -12    6.40    3.70
  -3  -4  12    5.80    3.80
  -3  -4  12    4.50    3.40
  -3  -4  12   11.80    4.50
   2   4 -12    2.10    2.50
  -2  -4  12   -0.60    1.80
  -2  -4  12    0.90    2.40
  -2  -4  12    0.60    2.50
  -2  -4  12    2.10    2.70
  -2  -4  12    2.00    2.50
   1   4 -12   57.49    8.40
  -1  -4  12   38.70    6.50
  -1  -4  12   45.10    6.40
  -1  -4  12   31.60    5.50
  -1  -4  12   35.80    6.70
  -1  -4  12   40.60    6.40
   0   4 -12   27.90    5.70
   0  -4  12   30.50    5.30
   0  -4  12   23.40    5.00
   0  -4  12   34.20    5.80
   0  -4  12   24.40    5.20
   1  -4  12  389.16   18.10
   1  -4  12  345.37   17.80
   1  -4  12  341.97   17.60
   2  -4  12   92.59    9.40
   2  -4  12  109.39   10.50
   2  -4  12   82.39    8.80
  -3   4 -12    2.50    2.40
   3  -4  12    2.50    2.50
   3  -4  12    1.00    2.40
  -4   4 -12   70.29    9.30
   4  -4  12   67.19    8.90
  -5   4 -12   23.40    6.20
   5  -4  12   26.10    6.00
  -6   4 -12   23.10    6.70
   6  -4  12   26.10    5.70
  -7   4 -12   37.60    8.60
  -6  -3  12   10.70    5.10
  -6  -3  12   14.90    6.20
  -5  -3  12    3.80    3.50
  -5  -3  12   19.40    5.90
  -5  -3  12    6.80    3.70
   4   3 -12    1.00    2.70
  -4  -3  12    0.30    2.30
  -4  -3  12    0.50    2.90
  -4  -3  12    3.10    2.90
   3   3 -12    7.60    3.40
  -3  -3  12    3.70    3.20
  -3  -3  12    9.30    3.20
  -3  -3  12    3.00    2.70
  -3  -3  12    3.40    3.10
  -3  -3  12   10.40    4.10
   2   3 -12   50.89    7.60
   2   3 -12   56.29    8.50
  -2  -3  12   53.09    7.60
  -2  -3  12   59.59    8.00
  -2  -3  12   52.19    7.70
  -2  -3  12   52.89    7.70
  -2  -3  12   44.00    6.50
   1   3 -12   38.90    5.20
   1   3 -12   48.90    7.50
   1   3 -12   71.99    8.50
  -1  -3  12   68.69    8.10
  -1  -3  12   56.69    7.20
  -1  -3  12   58.79    7.90
  -1  -3  12   58.69    7.40
  -1  -3  12   49.50    7.00
   0   3 -12  144.49   10.90
   0   3 -12  140.79    8.80
   0  -3  12  138.59    9.70
   0  -3  12  140.69    9.80
   0  -3  12  148.89   10.50
   0  -3  12  127.29    9.30
   0  -3  12  141.59    9.30
  -1   3 -12   -0.40    1.20
  -1   3 -12   -0.40    2.20
   1  -3  12   -2.30    1.40
   1  -3  12   -1.60    1.10
   1  -3  12   -1.30    1.80
   1  -3  12   -0.70    1.20
  -2   3 -12   66.89    7.70
  -2   3 -12   70.09    6.80
   2  -3  12   61.59    7.60
   2  -3  12   70.19    8.00
   2  -3  12   67.09    7.50
  -3   3 -12   13.60    4.20
   3  -3  12    4.50    2.40
   3  -3  12    9.30    3.20
   3  -3  12    4.10    2.30
  -4   3 -12  281.87   16.60
   4  -3  12  305.07   15.90
  -5   3 -12  265.97   16.60
   5  -3  12  247.98   14.40
  -6   3 -12   19.80    6.00
  -7   3 -12    6.30    4.40
  -8   3 -12    2.50    3.90
  -7  -2  12   -0.40    3.70
  -7  -2  12   -1.20    3.40
  -6  -2  12   13.50    5.30
  -6  -2  12   12.10    5.00
  -6  -2  12   17.50    5.70
  -5  -2  12    7.10    4.30
  -5  -2  12    6.30    3.80
  -5  -2  12    8.20    4.10
  -4  -2  12   29.90    6.60
  -4  -2  12   40.90    7.30
  -4  -2  12   35.20    6.50
  -4  -2  12   29.70    6.40
   3   2 -12  183.88   10.60
  -3  -2  12  161.38   12.20
  -3  -2  12  174.18   11.00
  -3  -2  12  159.28   12.10
  -3  -2  12  166.68   11.80
  -3  -2  12  184.98   12.50
   2   2 -12    8.20    3.10
   2   2 -12    6.40    2.20
   2   2 -12    9.50    3.60
  -2  -2  12    6.00    3.00
  -2  -2  12   10.00    3.60
  -2  -2  12   10.10    3.40
  -2  -2  12   13.60    4.10
  -2  -2  12   10.50    3.40
   1   2 -12   12.20    2.90
   1   2 -12   22.60    4.60
   1   2 -12   10.50    3.40
  -1  -2  12   19.80    4.60
  -1  -2  12   26.90    5.10
  -1  -2  12   19.80    4.40
  -1  -2  12   16.90    4.00
  -1  -2  12   27.10    5.20
   0   2 -12   28.90    4.30
   0   2 -12   33.60    5.80
   0  -2  12   24.90    4.50
   0  -2  12   40.40    5.90
   0  -2  12   35.10    6.00
   0  -2  12   31.80    5.20
   0  -2  12   44.10    6.40
  -1   2 -12   41.10    5.40
  -1   2 -12   35.30    4.60
  -1   2 -12   26.50    5.30
   1  -2  12   34.20    5.80
   1  -2  12   34.90    4.50
   1  -2  12   20.60    4.50
   1  -2  12   47.60    5.90
   1  -2  12   38.80    5.60
  -2   2 -12  480.15   20.90
   2  -2  12  505.25   19.80
   2  -2  12  502.35   20.50
   2  -2  12  471.65   19.70
   2  -2  12  472.95   20.80
   2  -2  12  456.75   21.60
  -3   2 -12   12.00    4.10
   3  -2  12   12.40    3.10
   3  -2  12   11.50    3.40
   3  -2  12   12.10    3.40
   3  -2  12    8.10    3.20
  -4   2 -12   21.80    5.50
   4  -2  12    7.20    3.30
   4  -2  12    8.10    3.40
   4  -2  12    7.80    2.70
  -5   2 -12   20.70    5.30
   5  -2  12   28.80    5.50
  -6   2 -12   20.70    6.30
  -7   2 -12    2.70    4.20
  -8   2 -12   27.70    8.40
  -7  -1  12   25.30    6.80
  -7  -1  12   33.80    8.00
  -6  -1  12   19.80    6.00
  -6  -1  12   16.80    5.80
  -6  -1  12   15.90    5.10
  -5  -1  12    5.50    3.60
  -5  -1  12    2.50    3.00
  -5  -1  12    8.10    4.20
  -4  -1  12   44.60    6.20
  -4  -1  12   56.19    8.40
  -4  -1  12   51.69    8.20
  -4  -1  12   71.79    9.80
  -4  -1  12   48.10    7.90
  -3  -1  12  201.48   13.30
  -3  -1  12  207.88   13.30
  -3  -1  12  202.68   12.80
  -3  -1  12  180.98   12.90
  -3  -1  12  213.88   12.00
   2   1 -12   47.50    5.40
  -2  -1  12   55.79    7.00
  -2  -1  12   53.99    7.20
  -2  -1  12   57.29    7.70
  -2  -1  12   40.80    6.40
  -2  -1  12   48.70    7.20
   1   1 -12   52.09    6.60
   1   1 -12   50.69    5.60
   1   1 -12   52.29    5.80
  -1  -1  12   50.29    6.90
  -1  -1  12   49.70    6.30
  -1  -1  12   62.39    7.90
  -1  -1  12   56.19    6.80
   0   1 -12  667.53   25.90
   0   1 -12  702.63   27.50
   0  -1  12  705.93   28.60
   0  -1  12  693.73   25.60
   0  -1  12  719.43   26.90
   0  -1  12  703.13   27.30
   0  -1  12  679.23   27.40
  -1   1 -12  440.36   18.90
   1  -1  12  439.86   20.30
   1  -1  12  432.76   19.00
   1  -1  12  433.26   17.70
   1  -1  12  408.56   18.80
   1  -1  12  410.96   17.70
  -2   1 -12   18.90    4.70
   2  -1  12   15.60    3.90
   2  -1  12   12.60    3.30
   2  -1  12   14.20    3.20
   2  -1  12   19.10    4.50
  -3   1 -12  332.97   17.30
   3  -1  12  318.37   16.20
   3  -1  12  337.37   17.40
   3  -1  12  335.77   15.50
   3  -1  12  322.07   15.90
  -4   1 -12  481.65   24.00
   4  -1  12  511.45   22.40
   4  -1  12  497.65   23.50
   4  -1  12  524.75   21.80
  -5   1 -12    5.20    3.10
   5  -1  12    3.60    3.10
   5  -1  12    0.70    4.60
  -6   1 -12   46.00    8.60
  -7   0  12    2.30    4.00
  -7   0  12    2.70    4.10
  -7   0  12   10.80    4.90
  -6   0  12   73.39   10.60
  -6   0  12   79.69   11.30
  -6   0  12   46.10    8.40
  -5   0  12   34.90    7.10
  -5   0  12   20.80    5.00
  -5   0  12   44.10    7.60
  -5   0  12   27.20    6.40
  -4   0  12   34.60    5.70
  -4   0  12   41.80    7.50
  -4   0  12   41.10    7.10
  -4   0  12   42.20    7.20
  -4   0  12   32.60    6.20
  -3   0  12   36.40    5.80
  -3   0  12   22.60    5.10
  -3   0  12   35.20    6.30
  -3   0  12   32.10    6.10
  -3   0  12   33.90    6.00
   2   0 -12   98.79    7.10
  -2   0  12  109.59   10.50
  -2   0  12   96.09    9.60
  -2   0  12  102.29    7.10
  -2   0  12   86.79    8.70
  -2   0  12  103.79   10.50
   1   0 -12   44.30    5.90
  -1   0  12   40.70    5.90
  -1   0  12   29.80    5.40
  -1   0  12   49.10    6.30
  -1   0  12   35.90    6.00
   0   0 -12  595.84   24.20
   0   0  12  621.04   26.20
   0   0  12  620.94   25.40
   0   0  12  612.34   24.50
   0   0  12  603.24   23.70
  -1   0 -12  944.61   34.50
   1   0  12  883.11   35.30
   1   0  12  958.80   35.00
   1   0  12  885.01   32.00
   1   0  12  933.01   34.00
  -2   0 -12   82.59    9.30
   2   0  12   86.29    8.50
   2   0  12   71.29    6.80
   2   0  12   72.99    8.90
   2   0  12   76.39    8.50
  -3   0 -12  230.88   14.20
   3   0  12  257.77   14.90
   3   0  12  231.98   13.60
   3   0  12  232.08   12.70
  -4   0 -12   52.59    8.30
   4   0  12   51.19    7.70
   4   0  12   45.00    7.20
  -5   0 -12   47.90    8.50
   5   0  12   40.00    7.50
  -6   0 -12   52.79    8.60
  -6   0 -12   62.09   10.20
   6   0  12   63.89    9.60
  -7   0 -12    0.70    3.80
  -8   1  12    2.40    4.40
  -8   1  12    3.90    4.60
  -7   1  12    1.90    3.60
  -7   1  12    3.20    3.90
  -7   1  12    3.20    3.50
  -6   1  12    0.60    2.80
  -6   1  12    2.30    3.10
  -6   1  12    4.30    3.40
  -5   1  12   26.60    5.70
  -5   1  12   28.20    5.60
  -5   1  12   29.00    6.20
  -5   1  12   41.80    7.60
  -5   1  12   27.40    6.30
  -4   1  12   33.60    6.50
  -4   1  12   18.80    4.90
  -4   1  12   28.90    5.80
  -4   1  12   30.50    6.30
  -4   1  12   24.30    5.10
   3  -1 -12   -0.80    1.90
  -3   1  12    2.90    2.10
  -3   1  12   -0.20    1.60
  -3   1  12    2.10    2.20
  -3   1  12    0.30    1.80
  -3   1  12    1.80    2.10
  -3   1  12   -0.70    1.50
   2  -1 -12  154.08    9.80
  -2   1  12  137.49    9.70
  -2   1  12  145.09   10.00
  -2   1  12  141.59    9.50
  -2   1  12  160.38    9.30
  -2   1  12  176.88   11.50
  -2   1  12  148.89   10.60
   1  -1 -12   97.99    9.30
  -1   1  12  104.99   10.30
  -1   1  12  100.99    9.20
  -1   1  12   76.19    8.20
  -1   1  12  100.69   10.00
   0  -1 -12 1116.69   40.00
   0   1  12 1082.39   38.10
   0   1  12 1130.49   41.00
   0   1  12 1068.89   39.20
   0   1  12 1116.49   41.30
  -1  -1 -12  145.09   10.40
   1   1  12  166.98   10.00
   1   1  12  145.69   10.70
   1   1  12  147.39   10.70
   1   1  12  134.49   13.80
  -2  -1 -12   35.40    6.10
   2   1  12   30.70    5.70
   2   1  12   33.20    5.90
   2   1  12   34.10    5.20
  -3  -1 -12   65.29    9.30
   3   1  12   50.59    7.90
   3   1  12   49.40    6.50
  -4  -1 -12    0.80    2.30
   4   1  12    0.10    2.10
  -5  -1 -12   46.70    8.20
  -5  -1 -12   32.20    6.80
   5   1  12   48.00    8.20
  -6  -1 -12   14.10    5.40
  -6  -1 -12   37.10    8.00
   6   1  12   21.00    6.20
  -7  -1 -12   59.29   10.90
  -7  -1 -12   46.70    9.00
   7   1  12   35.50    8.40
  -8   2  12   -1.30    3.90
  -8   2  12    3.30    4.50
  -7   2  12   35.80    8.20
  -7   2  12   28.60    7.50
  -7   2  12   28.90    7.30
  -6   2  12    8.00    4.50
  -6   2  12    9.70    4.30
  -6   2  12   10.00    4.40
  -5   2  12   16.50    4.90
  -5   2  12   16.00    5.10
  -5   2  12   14.30    4.20
  -5   2  12    7.20    3.20
  -5   2  12   14.90    3.90
  -5   2  12   12.40    4.40
  -4   2  12   46.60    7.10
  -4   2  12   28.30    5.50
  -4   2  12   35.50    6.10
  -4   2  12   46.40    7.40
  -4   2  12   41.20    6.90
  -4   2  12   30.50    6.40
   3  -2 -12   45.80    7.00
  -3   2  12   44.10    7.00
  -3   2  12   41.10    6.40
  -3   2  12   51.09    7.50
  -3   2  12   55.29    7.60
  -3   2  12   38.70    6.30
   2  -2 -12   18.90    4.40
  -2   2  12   10.20    3.30
  -2   2  12   19.60    4.40
  -2   2  12   16.70    4.20
  -2   2  12   11.00    3.70
  -2   2  12   24.20    5.10
   1  -2 -12  395.16   19.00
  -1   2  12  382.96   18.30
  -1   2  12  395.76   19.50
  -1   2  12  389.46   18.10
  -1   2  12  415.36   19.80
   0  -2 -12 1171.88   43.20
   0   2  12 1165.48   43.90
   0   2  12 1186.48   42.00
   0   2  12 1174.68   43.70
   0   2  12 1177.08   39.80
   0   2  12 1203.18   40.90
  -1  -2 -12    0.60    2.30
   1   2  12    0.10    1.60
   1   2  12   -0.10    1.70
   1   2  12    1.80    2.00
  -2  -2 -12  171.08   12.30
   2   2  12  177.48   10.90
   2   2  12  164.68   11.90
   2   2  12  202.08   13.40
  -3  -2 -12   39.70    7.10
   3   2  12   57.99    8.60
  -4  -2 -12   41.10    8.10
   4   2  12   50.39    8.70
  -5  -2 -12  127.99   14.40
  -5  -2 -12   94.49   11.90
   5   2  12  131.89   14.70
  -6  -2 -12    6.30    4.40
  -6  -2 -12   10.10    5.00
   6   2  12    2.00    4.80
  -7   3  12   27.80    7.10
  -7   3  12   23.50    7.30
  -6   3  12   35.80    7.10
  -6   3  12   27.70    7.00
  -6   3  12   23.30    6.40
  -6   3  12   24.50    5.70
  -6   3  12   30.50    7.10
  -5   3  12    3.00    3.20
  -5   3  12   -0.50    2.50
  -5   3  12   -1.10    1.90
  -5   3  12    0.80    2.80
  -5   3  12    0.80    2.70
   4  -3 -12   63.79    9.00
  -4   3  12   74.19    9.90
  -4   3  12   49.20    7.80
  -4   3  12   66.89    8.90
  -4   3  12   51.49    7.40
  -4   3  12   69.29    8.80
   3  -3 -12   43.80    7.10
  -3   3  12   40.60    6.40
  -3   3  12   41.40    7.30
  -3   3  12   50.89    7.70
  -3   3  12   22.00    4.80
  -3   3  12   42.80    6.80
   2  -3 -12    1.40    2.30
  -2   3  12    1.20    2.10
  -2   3  12    0.90    2.00
  -2   3  12    0.90    2.20
  -2   3  12    2.60    2.40
  -2   3  12    2.20    2.40
   1  -3 -12   31.50    5.80
  -1   3  12   32.20    6.50
  -1   3  12   36.60    6.00
  -1   3  12   34.50    6.00
  -1   3  12   31.00    5.40
   0  -3 -12  364.36   19.00
   0   3  12  350.66   17.40
   0   3  12  326.07   18.20
   0   3  12  332.67   18.30
   0   3  12  374.06   20.80
  -1  -3 -12  208.48   13.90
   1   3  12  207.08   13.80
   1   3  12  213.08   12.50
   1   3  12  202.78   13.90
  -2  -3 -12   29.00    6.50
   2   3  12   31.50    6.50
   2   3  12   26.70    4.90
   2   3  12   20.70    5.20
  -3  -3 -12    7.20    3.80
   3   3  12   17.80    5.80
  -4  -3 -12   -2.00    2.30
  -4  -3 -12   -0.60    2.70
   4   3  12   -1.90    2.90
  -5  -3 -12   21.10    6.10
  -5  -3 -12   28.00    7.30
   5   3  12   39.50    8.80
  -6  -3 -12    0.70    3.40
  -6  -3 -12    5.00    4.70
   6   3  12    7.00    5.30
  -7   4  12    2.00    3.70
  -7   4  12   -1.20    3.30
  -7   4  12    5.30    4.60
  -6   4  12   15.30    5.10
  -6   4  12   20.10    5.60
  -6   4  12   25.30    6.70
  -6   4  12   14.80    5.40
  -5   4  12   24.30    5.90
  -5   4  12   23.70    5.70
  -5   4  12   18.50    5.20
  -5   4  12   12.20    5.00
  -5   4  12   27.00    6.60
   4  -4 -12   57.29    8.90
  -4   4  12   54.79    8.90
  -4   4  12   44.90    7.80
  -4   4  12   59.59    8.80
   3  -4 -12    5.10    3.20
  -3   4  12   -2.20    1.80
  -3   4  12   -0.70    2.10
  -3   4  12    5.50    3.20
  -3   4  12    2.60    2.80
   2  -4 -12   48.70    8.00
  -2   4  12   43.70    7.40
  -2   4  12   42.80    7.60
  -2   4  12   30.70    6.00
  -2   4  12   33.60    6.20
  -2   4  12   40.80    6.80
   1  -4 -12  194.78   13.40
  -1   4  12  153.68   12.30
  -1   4  12  192.58   12.10
  -1   4  12  183.98   12.20
  -1   4  12  178.08   12.60
   0  -4 -12    6.70    3.60
   0   4  12    6.70    3.20
   0   4  12    6.00    3.30
   0   4  12    5.10    3.10
  -1  -4 -12  105.89   12.40
   1   4  12   93.69    9.90
   1   4  12  103.89   12.20
   1   4  12   95.39   11.40
  -2  -4 -12    0.30    2.50
   2   4  12   -0.80    2.20
  -3  -4 -12   14.90    5.30
   3   4  12   14.40    5.40
  -4  -4 -12    3.50    4.30
   4   4  12    1.80    4.10
  -5  -4 -12   21.00    7.00
  -5  -4 -12   13.50    6.10
   5   4  12   24.90    7.30
  -7   5  12    3.60    3.70
  -7   5  12   -1.70    3.50
  -6   5  12   -1.50    2.40
  -6   5  12    3.70    3.50
  -6   5  12   -1.20    3.80
  -5   5  12   16.50    5.80
  -5   5  12   12.30    4.80
  -5   5  12   10.60    4.30
  -5   5  12   28.40    7.10
   4  -5 -12   27.80    6.90
  -4   5  12   22.60    6.20
  -4   5  12    6.00    3.80
  -4   5  12   15.20    5.00
  -4   5  12   13.40    5.10
   3  -5 -12   40.70    7.80
  -3   5  12   36.40    7.20
  -3   5  12   52.79    8.30
  -3   5  12   50.99    8.90
  -3   5  12   43.30    7.70
   2  -5 -12   12.40    4.30
  -2   5  12   11.30    4.40
  -2   5  12   17.20    5.40
  -2   5  12    9.80    3.90
  -2   5  12    7.80    3.70
   1  -5 -12   17.10    5.50
  -1   5  12   20.40    5.50
  -1   5  12   24.40    6.10
  -1   5  12   17.80    5.30
  -1   5  12   22.70    5.30
   0  -5 -12  151.48   15.30
   0   5  12  167.18   12.00
   0   5  12  176.58   16.50
  -1  -5 -12  119.39   14.50
   1   5  12  131.99   14.10
   1   5  12   77.69    9.40
  -2  -5 -12    6.20    4.60
   2   5  12    2.20    3.10
  -3  -5 -12    5.60    4.20
   3   5  12    8.10    4.80
  -4  -5 -12   14.80    5.80
   4   5  12   26.40    8.20
  -6   6  12   -1.80    3.20
  -6   6  12    0.70    3.50
  -5   6  12    1.50    3.20
  -5   6  12   -0.60    2.90
  -5   6  12    3.80    3.90
   4  -6 -12   20.30    6.30
  -4   6  12   14.00    4.80
  -4   6  12   23.00    6.80
  -4   6  12   31.20    7.60
   3  -6 -12    4.80    4.00
  -3   6  12   11.60    4.90
  -3   6  12    9.20    5.50
  -3   6  12    8.90    3.70
  -3   6  12   14.80    4.70
   2  -6 -12    2.50    3.40
  -2   6  12    4.30    3.20
  -2   6  12    3.00    3.10
  -2   6  12    4.80    3.60
  -2   6  12    7.90    4.00
   1  -6 -12    3.20    3.60
  -1   6  12   -0.20    2.70
  -1   6  12    6.10    4.70
  -1   6  12    4.90    3.80
   0  -6 -12    0.20    2.40
   0   6  12    1.80    3.00
   0   6  12   -0.50    2.80
  -1  -6 -12    5.30    4.00
   1   6  12   11.00    4.90
  -2  -6 -12    1.30    3.60
   2   6  12    3.30    4.30
  -4   7  12   -1.90    3.70
  -4   7  12    1.20    3.70
  -4   7  12    2.30    3.10
   3  -7 -12   -0.70    3.30
  -3   7  12    4.30    4.40
  -3   7  12    7.80    3.90
  -3   7  12    4.40    4.80
   2  -7 -12    7.70    5.00
  -2   7  12   -0.80    2.90
  -2   7  12   -1.00    4.10
   1  -7 -12    0.30    3.50
  -1   7  12    3.20    3.40
  -1   7  12   10.00    4.80
  -1   7  12    6.70    4.10
   0  -7 -12    4.00    4.20
   0   7  12    3.20    4.00
   0   7  12    4.50    3.70
   0   7  12    0.70    3.60
   0   8 -13    2.50    4.70
   0  -8  13   -1.10    3.20
   1  -8  13    2.40    3.60
   1  -8  13    0.30    3.10
   2  -8  13    0.30    3.20
   2  -8  13    1.60    3.10
   3  -8  13   19.30    6.70
   3  -8  13   12.10    5.10
  -4   8 -13    6.10    4.60
   4  -8  13    8.90    5.20
   4  -8  13    3.60    3.50
   2   7 -13    2.40    4.80
  -2  -7  13    0.50    3.80
   1   7 -13    3.10    4.30
  -1  -7  13    0.10    3.50
  -1  -7  13    2.60    3.40
   0   7 -13    5.10    4.70
   0  -7  13    9.30    4.80
   0  -7  13    6.30    4.10
   1  -7  13    5.20    3.50
   1  -7  13    7.20    4.70
   2  -7  13   -1.70    2.80
   2  -7  13   -0.40    2.80
   3  -7  13    7.40    4.30
   3  -7  13    8.70    4.20
   4  -7  13    1.00    2.90
   4  -7  13    2.80    3.90
   5  -7  13   -0.40    2.90
   4   6 -13    3.30    4.50
  -4  -6  13    0.70    3.80
   3   6 -13    1.60    4.30
  -3  -6  13    0.10    3.10
   2   6 -13    0.80    3.90
  -2  -6  13   -1.40    2.70
   1   6 -13   -0.20    3.10
  -1  -6  13    1.10    2.50
  -1  -6  13    1.70    3.50
   0   6 -13    2.00    3.60
   0  -6  13    2.30    3.00
   0  -6  13    5.20    3.50
   1  -6  13   -1.00    2.10
   1  -6  13    2.70    3.30
   2  -6  13    9.60    4.00
   2  -6  13    2.60    2.80
   3  -6  13   15.10    4.80
   3  -6  13   17.80    5.00
   4  -6  13   -0.60    2.40
   4  -6  13    8.60    4.10
   5  -6  13   -0.90    2.30
  -6   6 -13    4.00    4.40
   6  -6  13   -2.50    2.70
   5   5 -13   -0.60    4.10
  -5  -5  13    5.90    4.40
  -5  -5  13   -0.20    4.60
   4   5 -13   11.70    5.30
  -4  -5  13   10.40    5.20
  -4  -5  13    9.70    4.80
  -4  -5  13    9.90    4.70
   3   5 -13    1.70    3.40
  -3  -5  13    7.60    4.50
  -3  -5  13    6.90    4.50
  -3  -5  13    6.10    3.80
   2   5 -13   33.90    7.50
  -2  -5  13   23.00    6.20
  -2  -5  13   40.60    7.50
  -2  -5  13   49.20    7.20
   1   5 -13   88.89   11.50
  -1  -5  13   73.89    9.00
  -1  -5  13   69.69    9.40
  -1  -5  13   99.49   11.60
   0   5 -13   27.90    6.60
   0  -5  13   31.60    6.10
   0  -5  13   31.10    6.40
   0  -5  13   27.20    5.50
   1  -5  13   61.79    8.90
   1  -5  13   57.39    8.00
   1  -5  13   56.59    8.00
   2  -5  13   69.69    9.00
   2  -5  13   85.29   10.30
   3  -5  13   72.59    9.20
   3  -5  13   62.59    9.20
   4  -5  13   21.90    5.70
  -5   5 -13  164.98   15.90
   5  -5  13  141.99   13.90
  -6   5 -13   59.39   10.40
   6  -5  13   67.99    9.80
  -7   5 -13    1.20    3.70
  -5  -4  13   -1.50    2.70
  -5  -4  13    1.50    3.50
   4   4 -13   35.80    7.70
  -4  -4  13   31.50    7.50
  -4  -4  13   19.60    5.80
  -4  -4  13   28.00    6.70
   3   4 -13    5.20    3.70
  -3  -4  13    6.50    3.90
  -3  -4  13    9.80    4.40
  -3  -4  13   14.50    4.90
   2   4 -13   22.70    6.00
  -2  -4  13   38.90    7.10
  -2  -4  13   42.70    7.90
  -2  -4  13   39.50    7.30
  -2  -4  13   37.40    6.30
  -2  -4  13   28.10    6.60
   1   4 -13   43.30    7.70
  -1  -4  13   41.30    6.50
  -1  -4  13   40.90    6.80
  -1  -4  13   15.90    4.60
  -1  -4  13   49.90    7.70
  -1  -4  13   42.50    6.70
   0  -4  13   -2.90    1.80
   0  -4  13    0.50    1.90
   0  -4  13    2.00    2.00
   0  -4  13    0.80    1.90
   1  -4  13  132.79   12.10
   1  -4  13  132.59   10.30
   1  -4  13  136.89   10.20
   2  -4  13  380.96   19.10
   2  -4  13  371.96   18.90
   2  -4  13  364.36   18.20
  -3   4 -13  294.17   15.60
   3  -4  13  247.38   14.90
   3  -4  13  256.77   14.50
  -4   4 -13   28.00    6.30
   4  -4  13   33.60    6.40
  -5   4 -13   44.80    8.10
   5  -4  13   42.40    7.20
  -6   4 -13    1.30    3.70
  -7   4 -13    6.10    5.00
  -6  -3  13   -0.80    3.60
  -6  -3  13   -2.30    4.20
  -5  -3  13    0.10    3.00
  -5  -3  13    3.60    4.10
  -5  -3  13    1.00    3.60
  -4  -3  13    0.30    2.30
  -4  -3  13    1.30    2.90
  -4  -3  13    1.50    2.60
  -3  -3  13   37.10    5.90
  -3  -3  13   39.60    7.60
  -3  -3  13   38.30    7.20
  -3  -3  13   26.10    5.80
   2   3 -13   75.29   11.00
   2   3 -13   84.89    9.80
  -2  -3  13   78.19    9.50
  -2  -3  13   67.49    9.00
  -2  -3  13   83.09   10.30
  -2  -3  13   85.49   10.30
  -2  -3  13   99.89    9.80
   1   3 -13    3.30    3.00
   1   3 -13    1.10    2.40
  -1  -3  13    3.00    2.30
  -1  -3  13    0.90    1.70
  -1  -3  13    2.40    2.50
  -1  -3  13    1.80    2.40
  -1  -3  13    0.00    1.60
   0   3 -13    5.00    2.40
   0   3 -13    6.50    3.50
   0  -3  13    2.60    2.40
   0  -3  13    9.70    3.50
   0  -3  13    3.40    2.40
   0  -3  13    8.50    2.90
   0  -3  13    1.60    2.00
  -1   3 -13  372.26   19.70
  -1   3 -13  358.66   16.40
   1  -3  13  352.86   18.20
   1  -3  13  335.87   17.30
   1  -3  13  328.17   16.80
  -2   3 -13  266.17   14.30
   2  -3  13  296.87   15.80
   2  -3  13  256.87   14.70
   2  -3  13  285.67   14.50
  -3   3 -13    4.00    2.60
   3  -3  13   -1.00    1.50
   3  -3  13    0.90    2.00
  -4   3 -13   47.60    7.90
   4  -3  13   42.70    6.80
  -5   3 -13   64.99    9.70
   5  -3  13   70.79    9.10
  -6   3 -13    8.10    4.60
  -7   3 -13    1.10    3.40
  -7  -2  13   14.50    6.60
  -7  -2  13   10.90    4.80
  -6  -2  13    2.40    3.50
  -6  -2  13    5.50    4.30
  -5  -2  13   61.39   10.50
  -5  -2  13   43.30    8.20
  -5  -2  13   43.90    8.10
  -4  -2  13   -0.60    2.20
  -4  -2  13   -0.50    2.40
  -4  -2  13    2.80    2.70
  -3  -2  13    3.90    3.10
  -3  -2  13   11.80    4.00
  -3  -2  13    9.60    3.50
  -3  -2  13    4.80    3.50
  -3  -2  13   12.60    4.50
   2   2 -13   27.50    4.70
  -2  -2  13   38.70    6.70
  -2  -2  13   33.10    5.70
  -2  -2  13   29.20    6.00
  -2  -2  13   29.40    6.00
  -2  -2  13   30.70    5.80
   1   2 -13   88.69    9.80
   1   2 -13   90.69    8.40
  -1  -2  13   88.79    9.30
  -1  -2  13   93.79    9.80
  -1  -2  13   98.59   10.30
  -1  -2  13   90.89    9.70
  -1  -2  13   87.69   10.00
   0   2 -13  251.57   14.50
   0   2 -13  233.28   12.30
   0  -2  13  240.38   13.50
   0  -2  13  236.28   13.40
   0  -2  13  236.08   14.50
   0  -2  13  265.87   13.70
  -1   2 -13 1744.73   58.29
   1  -2  13 1835.42   59.49
   1  -2  13 1758.02   58.79
   1  -2  13 1683.73   57.99
   1  -2  13 1817.72   60.09
  -2   2 -13  701.23   28.00
   2  -2  13  687.03   26.60
   2  -2  13  708.23   28.20
   2  -2  13  688.73   27.30
   2  -2  13  687.93   26.40
   2  -2  13  677.23   28.90
  -3   2 -13   16.90    5.00
   3  -2  13   19.50    4.10
   3  -2  13   22.20    4.80
   3  -2  13   16.30    4.20
  -4   2 -13  160.38   12.30
   4  -2  13  192.38   13.00
   4  -2  13  192.38   11.80
  -5   2 -13    5.10    3.80
   5  -2  13    4.50    4.80
  -6   2 -13  111.89   13.60
  -7   2 -13   11.40    5.70
  -7  -1  13   35.90    8.30
  -7  -1  13   25.00    7.50
  -6  -1  13    2.50    3.90
  -6  -1  13    8.40    4.30
  -6  -1  13    5.90    4.20
  -5  -1  13   69.39   10.30
  -5  -1  13   79.29   10.60
  -5  -1  13   76.19   10.80
  -4  -1  13   -0.10    2.50
  -4  -1  13    1.60    3.00
  -4  -1  13   -1.50    1.80
  -4  -1  13   -1.40    2.60
  -4  -1  13    4.30    2.80
  -3  -1  13   18.80    4.60
  -3  -1  13    5.30    3.10
  -3  -1  13    7.20    3.40
  -3  -1  13    9.10    3.60
  -3  -1  13   15.90    4.90
  -2  -1  13   69.29    8.40
  -2  -1  13   53.29    7.80
  -2  -1  13   69.39    9.00
  -2  -1  13   62.29    7.90
  -2  -1  13   80.29    9.50
  -1  -1  13    5.20    2.70
  -1  -1  13    3.70    2.20
  -1  -1  13    9.60    3.40
  -1  -1  13    4.20    2.50
   0   1 -13   65.79    7.20
   0  -1  13   41.90    6.70
   0  -1  13   54.69    6.20
   0  -1  13   72.89    8.30
   0  -1  13   64.89    8.00
   0  -1  13   54.39    6.70
  -1   1 -13  539.25   22.30
   1  -1  13  525.35   22.50
   1  -1  13  505.05   22.50
   1  -1  13  540.55   21.20
   1  -1  13  516.25   23.80
   1  -1  13  504.15   21.10
  -2   1 -13  263.47   14.40
   2  -1  13  237.88   13.80
   2  -1  13  252.67   12.80
   2  -1  13  235.48   13.40
  -3   1 -13  100.49   10.90
   3  -1  13   85.29    9.40
   3  -1  13  106.09   10.10
   3  -1  13   91.09   10.10
  -4   1 -13   18.30    5.10
   4  -1  13   21.80    5.50
   4  -1  13   20.60    4.80
   4  -1  13   28.80    5.40
  -5   1 -13   23.20    5.80
   5  -1  13    7.00    3.50
  -6   1 -13    5.80    4.40
  -7   1 -13    9.90    5.90
  -7   0  13   -0.70    3.90
  -7   0  13   -2.00    3.00
  -6   0  13   -0.10    3.20
  -6   0  13    5.20    4.10
  -6   0  13   -0.30    3.00
  -5   0  13   13.30    4.30
  -5   0  13   12.50    4.90
  -5   0  13   18.30    5.70
  -4   0  13   48.10    6.70
  -4   0  13   55.09    8.20
  -4   0  13   39.10    7.10
  -4   0  13   45.60    7.60
  -4   0  13   39.40    7.50
  -3   0  13  206.68   13.40
  -3   0  13  199.48   13.90
  -3   0  13  204.18   13.60
  -3   0  13  227.88   13.00
  -3   0  13  202.38   13.70
   2   0 -13   27.60    4.70
  -2   0  13   22.30    4.80
  -2   0  13   24.10    5.00
  -2   0  13   24.90    5.50
  -2   0  13   31.50    5.80
   1   0 -13    0.80    1.70
  -1   0  13    0.20    1.80
  -1   0  13    0.00    1.70
  -1   0  13   -0.40    1.40
  -1   0  13   -1.10    1.40
   0   0 -13  617.84   25.10
   0   0  13  610.84   24.50
   0   0  13  654.73   26.50
   0   0  13  598.84   26.90
  -1   0 -13  995.30   37.70
   1   0  13 1036.60   38.50
   1   0  13 1030.90   35.60
   1   0  13  975.10   38.90
   1   0  13 1024.00   37.30
  -2   0 -13  103.49   11.20
   2   0  13   72.69    8.20
   2   0  13   86.59    9.90
   2   0  13   79.39    9.70
  -3   0 -13   13.90    4.60
   3   0  13   18.10    4.90
   3   0  13   21.60    4.70
   3   0  13   12.90    4.30
  -4   0 -13    2.70    2.80
   4   0  13    0.70    2.60
   4   0  13   -0.40    1.70
  -5   0 -13   52.99    9.20
   5   0  13   62.09    9.40
  -6   0 -13    7.20    4.30
   6   0  13    4.30    3.60
  -7   0 -13   23.30    7.00
  -7   1  13    0.90    3.40
  -7   1  13    4.90    4.20
  -6   1  13   89.59   12.10
  -6   1  13   57.59    9.40
  -6   1  13   81.19   11.40
  -5   1  13    0.40    2.50
  -5   1  13    3.00    3.00
  -5   1  13    3.90    3.50
  -5   1  13    4.20    2.70
  -5   1  13    2.80    2.80
  -4   1  13   97.79   12.00
  -4   1  13   89.69   11.10
  -4   1  13   79.09    8.90
  -4   1  13   91.29   10.60
  -4   1  13   93.69   10.70
   3  -1 -13  174.08   11.00
  -3   1  13  179.58   12.00
  -3   1  13  175.28   11.00
  -3   1  13  178.08   12.60
  -3   1  13  173.68   12.60
  -3   1  13  156.68   11.00
   2  -1 -13    9.20    3.20
  -2   1  13   11.10    3.30
  -2   1  13   24.10    4.90
  -2   1  13   10.80    3.70
  -2   1  13   18.40    4.40
  -2   1  13   11.70    3.70
   1  -1 -13  150.48   10.20
  -1   1  13  125.89    9.60
  -1   1  13  161.48   11.40
  -1   1  13  152.58   11.00
  -1   1  13  157.08   10.00
   0  -1 -13   22.30    5.00
   0   1  13   24.80    5.30
   0   1  13   21.70    4.60
   0   1  13   29.10    4.90
   0   1  13   24.90    5.10
  -1  -1 -13  390.06   19.90
   1   1  13  427.36   20.70
   1   1  13  416.06   21.00
   1   1  13  435.66   19.40
  -2  -1 -13  552.14   25.50
   2   1  13  585.04   24.10
   2   1  13  559.64   25.60
   2   1  13  594.94   26.70
  -3  -1 -13   54.49    8.50
   3   1  13   75.99    8.10
   3   1  13   60.49    8.50
  -4  -1 -13   12.50    4.80
   4   1  13   25.70    6.10
  -5  -1 -13   43.00    8.20
   5   1  13   33.70    7.50
  -6  -1 -13   19.90    6.60
  -6  -1 -13   20.90    6.10
   6   1  13   26.50    7.30
  -7   2  13    9.10    5.30
  -7   2  13   11.00    5.60
  -7   2  13    5.80    4.50
  -6   2  13   72.29   11.00
  -6   2  13   79.39   11.20
  -6   2  13   80.69   11.60
  -5   2  13   11.20    3.80
  -5   2  13    5.50    3.60
  -5   2  13   12.20    4.60
  -5   2  13    4.90    3.80
  -5   2  13   10.80    4.10
   4  -2 -13   29.80    5.80
  -4   2  13   31.80    6.10
  -4   2  13   19.20    5.20
  -4   2  13   26.30    5.40
  -4   2  13   23.70    5.40
  -4   2  13   26.00    6.00
   3  -2 -13  121.19   11.60
  -3   2  13  107.89   11.70
  -3   2  13   93.19   10.30
  -3   2  13   85.59   10.10
  -3   2  13  102.79   10.70
  -3   2  13   81.79    9.40
   2  -2 -13   27.90    5.60
  -2   2  13   23.30    5.20
  -2   2  13   23.90    5.10
  -2   2  13   25.60    5.30
  -2   2  13   22.50    4.90
   1  -2 -13    1.20    2.50
  -1   2  13    1.50    2.20
  -1   2  13   -0.80    1.40
  -1   2  13    1.30    2.00
  -1   2  13    2.50    2.30
   0  -2 -13   60.39    8.10
   0   2  13   68.69    7.50
   0   2  13   55.79    7.40
   0   2  13   67.89    9.00
   0   2  13   58.89    8.20
  -1  -2 -13    7.10    3.60
   1   2  13    2.60    2.50
   1   2  13    1.20    2.10
   1   2  13    3.00    2.50
  -2  -2 -13    3.30    2.70
   2   2  13    4.50    2.90
   2   2  13   -0.20    1.70
   2   2  13   -1.10    2.30
  -3  -2 -13   45.80    8.30
   3   2  13   49.80    8.30
  -4  -2 -13    3.30    3.10
   4   2  13    9.20    4.40
  -5  -2 -13   51.29    9.10
   5   2  13   53.39    9.70
  -6  -2 -13   45.00    9.30
  -6  -2 -13   46.10    9.20
   6   2  13   23.30    7.10
  -7   3  13   -0.80    3.40
  -7   3  13    0.70    3.60
  -6   3  13    1.90    3.40
  -6   3  13    6.10    4.90
  -6   3  13    9.30    4.60
  -6   3  13    7.20    3.80
  -5   3  13   20.50    5.20
  -5   3  13    9.20    3.80
  -5   3  13    9.50    4.50
  -5   3  13   14.20    5.00
  -5   3  13   10.70    4.30
   4  -3 -13   26.80    5.80
  -4   3  13   22.00    5.70
  -4   3  13   28.60    6.30
  -4   3  13   38.10    7.00
  -4   3  13   26.80    6.50
   3  -3 -13   14.50    4.30
  -3   3  13   19.80    4.90
  -3   3  13    8.60    3.50
  -3   3  13    8.50    3.90
  -3   3  13    7.50    4.00
  -3   3  13   17.50    5.00
   2  -3 -13  195.38   13.20
  -2   3  13  192.58   13.40
  -2   3  13  193.08   12.70
  -2   3  13  177.78   12.80
  -2   3  13  210.78   13.00
   1  -3 -13    0.10    2.10
  -1   3  13    7.20    3.30
  -1   3  13    8.00    3.50
  -1   3  13   10.90    4.00
  -1   3  13    6.80    3.40
   0  -3 -13    0.20    2.10
   0   3  13    4.30    3.00
   0   3  13    1.90    2.50
   0   3  13    0.90    2.30
  -1  -3 -13  165.88   12.90
   1   3  13  196.48   12.20
   1   3  13  187.78   13.60
   1   3  13  214.08   14.20
  -2  -3 -13   44.60    7.90
   2   3  13   30.30    5.70
   2   3  13   35.00    6.90
  -3  -3 -13    9.80    4.50
   3   3  13    1.70    2.70
  -4  -3 -13   24.30    6.60
   4   3  13   24.10    6.80
  -5  -3 -13    6.50    5.10
   5   3  13   10.80    5.50
  -7   4  13   27.70   11.10
  -7   4  13   53.39   10.20
  -6   4  13    1.70    3.00
  -6   4  13   -1.80    2.80
  -6   4  13    0.20    3.20
  -6   4  13   -2.80    3.20
  -5   4  13    6.70    3.90
  -5   4  13    5.70    3.70
  -5   4  13    1.20    2.70
  -5   4  13    2.50    3.30
  -5   4  13    6.60    3.60
   4  -4 -13    9.20    4.60
  -4   4  13    5.10    3.50
  -4   4  13   14.30    4.60
  -4   4  13    5.20    3.50
  -4   4  13    4.80    3.40
   3  -4 -13  112.79   12.50
  -3   4  13   96.29   11.00
  -3   4  13  116.69   13.10
  -3   4  13  124.79   13.00
  -3   4  13   94.69   11.30
   2  -4 -13   54.89    8.80
  -2   4  13   64.09    8.80
  -2   4  13   64.79    9.80
  -2   4  13   56.29    8.50
  -2   4  13   57.29    8.50
  -2   4  13   49.99    7.80
   1  -4 -13   -0.40    2.00
  -1   4  13    2.60    2.70
  -1   4  13    2.40    2.90
  -1   4  13    2.90    2.90
  -1   4  13    1.60    2.50
   0  -4 -13    1.60    2.30
   0   4  13    0.80    2.60
   0   4  13    0.10    2.30
   0   4  13    3.10    2.80
  -1  -4 -13   71.39   10.30
   1   4  13   96.19   11.80
   1   4  13   79.19    9.30
  -2  -4 -13   29.70    7.10
   2   4  13   23.60    6.30
  -3  -4 -13   -1.00    2.80
   3   4  13   -2.60    3.00
  -4  -4 -13   37.40    8.50
   4   4  13   42.60    9.30
  -6   5  13    3.40    4.90
  -6   5  13    4.30    4.40
  -6   5  13   10.40    5.20
  -5   5  13    5.70    3.90
  -5   5  13    5.40    4.10
  -5   5  13    0.40    3.90
  -5   5  13   11.00    5.00
   4  -5 -13   17.50    6.10
  -4   5  13   13.50    4.20
  -4   5  13   14.60    5.40
  -4   5  13   14.40    5.00
  -4   5  13   11.30    4.90
   3  -5 -13    9.40    4.60
  -3   5  13   15.20    5.30
  -3   5  13    8.40    3.90
  -3   5  13   22.60    6.80
  -3   5  13   13.90    5.40
   2  -5 -13   -1.40    2.90
  -2   5  13    0.50    2.70
  -2   5  13    1.00    2.30
  -2   5  13   -2.60    2.60
  -2   5  13   -2.60    2.40
   1  -5 -13    5.50    3.50
  -1   5  13    4.30    3.00
  -1   5  13    6.20    3.60
  -1   5  13    6.80    4.30
   0  -5 -13    7.00    4.00
   0   5  13    4.40    3.20
   0   5  13    6.80    3.80
  -1  -5 -13    7.00    4.40
   1   5  13   15.40    6.00
   1   5  13   13.60    4.40
  -2  -5 -13    2.10    3.70
   2   5  13    2.20    3.70
  -3  -5 -13    9.20    4.90
   3   5  13    7.80    4.90
  -5   6  13   -0.50    2.90
  -5   6  13    5.90    4.60
  -5   6  13    1.80    4.60
   4  -6 -13   23.90    7.30
  -4   6  13   20.30    5.60
  -4   6  13   19.90    6.40
  -4   6  13   34.30    8.30
  -4   6  13   14.80    8.80
   3  -6 -13   19.10    6.50
  -3   6  13   31.20    6.90
  -3   6  13   22.50    5.60
  -3   6  13   41.80    8.20
  -3   6  13   21.30    6.60
   2  -6 -13   -1.80    3.00
  -2   6  13    2.10    4.10
  -2   6  13    0.10    3.40
  -2   6  13   -0.70    3.00
   1  -6 -13   11.60    5.30
  -1   6  13   -0.30    3.70
  -1   6  13    4.80    3.80
  -1   6  13    5.10    3.70
   0  -6 -13    6.20    4.00
   0   6  13    4.50    3.80
   0   6  13   11.40    5.10
  -1  -6 -13    9.00    5.60
   1   6  13    4.80    4.60
  -2  -6 -13   13.60    6.20
   2   6  13    7.60    5.00
   3  -7 -13    6.20    5.20
  -3   7  13    2.80    3.30
  -3   7  13    1.90    4.40
  -3   7  13    7.90    5.00
   2  -7 -13    0.50    3.50
  -2   7  13   -2.10    3.10
  -2   7  13   -0.70    3.00
  -2   7  13   -0.30    4.20
   1  -7 -13    3.50    4.60
  -1   7  13    4.00    4.40
  -1   7  13    2.80    3.40
  -1   7  13    6.00    4.60
   1  -8  14    1.70    3.50
   2  -8  14    5.40    4.20
   3  -8  14    8.80    5.80
   3  -8  14    0.50    3.80
   2   7 -14    1.90    4.10
   1   7 -14   11.90    5.90
  -1  -7  14    8.90    5.20
  -1  -7  14   11.20    4.70
   0  -7  14    8.50    4.70
   0  -7  14    6.10    4.10
   1  -7  14    4.30    3.80
   1  -7  14   -0.70    2.90
   2  -7  14   20.60    6.30
   2  -7  14    6.00    4.90
   3  -7  14   21.60    6.00
   3  -7  14   28.80    7.20
   4  -7  14   12.50    5.10
   4  -7  14    6.20    4.00
   5  -7  14    4.60    3.90
   3   6 -14   10.50    6.30
  -3  -6  14    5.60    4.40
   2   6 -14   -0.20    3.70
  -2  -6  14    1.70    2.90
   1   6 -14    3.90    4.20
  -1  -6  14   -0.40    2.20
  -1  -6  14    4.30    3.60
   0  -6  14   26.90    6.50
   0  -6  14   34.30    7.60
   1  -6  14    3.10    3.10
   1  -6  14   -1.60    2.80
   2  -6  14   90.19   11.30
   2  -6  14   91.49   11.70
   3  -6  14  203.38   14.60
   3  -6  14  204.98   14.50
   4  -6  14   22.90    5.70
   5  -6  14   24.20    6.30
   6  -6  14    0.80    3.80
   4   5 -14    5.10    4.30
  -4  -5  14    5.10    4.90
  -4  -5  14    9.00    5.00
   3   5 -14    2.80    3.90
  -3  -5  14    4.20    4.00
  -3  -5  14    9.10    4.50
   2   5 -14   -0.40    3.00
  -2  -5  14    0.50    3.10
  -2  -5  14    0.10    2.60
  -2  -5  14    1.70    3.20
   1   5 -14    3.00    3.50
  -1  -5  14   -2.30    2.10
  -1  -5  14    5.00    3.80
   0  -5  14    9.80    3.80
   0  -5  14   13.20    4.70
   0  -5  14    3.90    3.10
   1  -5  14   -1.80    1.90
   1  -5  14    0.30    2.00
   1  -5  14    2.70    3.20
   2  -5  14   84.29   10.30
   2  -5  14   80.09   10.10
   3  -5  14   34.30    6.70
   3  -5  14   61.69    8.60
   4  -5  14    8.30    3.80
  -5   5 -14    0.80    3.50
   5  -5  14    7.80    4.10
  -6   5 -14   -2.90    3.30
   6  -5  14   -0.90    2.80
  -5  -4  14    5.40    4.50
  -5  -4  14   -1.80    3.60
  -4  -4  14   -0.60    3.10
  -4  -4  14    3.80    3.80
  -4  -4  14    5.80    3.60
  -3  -4  14    3.20    3.60
  -3  -4  14    2.70    2.90
  -3  -4  14   -1.10    2.70
   2   4 -14   10.70    4.40
  -2  -4  14   26.30    6.60
  -2  -4  14   27.10    6.40
  -2  -4  14   19.60    4.80
  -2  -4  14   28.10    6.10
   1   4 -14   20.90    5.70
  -1  -4  14   27.00    5.90
  -1  -4  14   19.30    5.30
  -1  -4  14   16.50    4.10
   0  -4  14   30.60    6.20
   0  -4  14   22.40    5.10
   0  -4  14   32.70    6.20
   0  -4  14   22.90    5.20
   1  -4  14   67.29    8.70
   1  -4  14   74.79    9.40
   1  -4  14   87.19   10.10
   2  -4  14  453.55   22.60
   2  -4  14  482.35   22.20
   2  -4  14  488.35   22.90
   3  -4  14   59.79    8.70
   4  -4  14   16.80    4.80
  -5   4 -14    3.00    3.50
   5  -4  14    5.90    3.60
  -6   4 -14   14.60    5.70
  -7   4 -14   33.50    8.90
  -6  -3  14   17.50    6.60
  -6  -3  14   14.60    6.70
  -5  -3  14    6.70    5.00
  -5  -3  14   20.40    6.90
  -5  -3  14   16.50    5.40
  -4  -3  14   33.00    7.30
  -4  -3  14    8.80    4.60
  -4  -3  14   60.99   10.20
  -3  -3  14   30.30    6.60
  -3  -3  14   29.10    6.50
  -3  -3  14   15.00    5.20
  -3  -3  14   21.00    4.80
  -2  -3  14  115.69   12.30
  -2  -3  14  117.99   12.20
  -2  -3  14   89.99   11.00
  -2  -3  14  105.49   11.50
  -2  -3  14  115.09   11.10
  -1  -3  14   88.39    9.50
  -1  -3  14   75.69    9.30
  -1  -3  14   87.59   10.60
  -1  -3  14   94.79   10.40
  -1  -3  14   67.49    8.70
   0   3 -14   -0.50    1.80
   0  -3  14    0.80    2.40
   0  -3  14    1.70    2.40
   0  -3  14   -2.10    1.70
   0  -3  14    0.20    1.70
   0  -3  14    1.50    1.90
   1  -3  14   24.20    4.90
   1  -3  14   16.90    4.80
   1  -3  14   13.00    4.10
   2  -3  14  110.59   10.30
   2  -3  14  116.19   11.40
   2  -3  14  114.79   11.50
  -3   3 -14  142.99   10.90
   3  -3  14  148.79   13.30
   3  -3  14  138.19   10.70
  -4   3 -14   49.70    8.00
   4  -3  14   39.70    6.70
  -5   3 -14   13.70    5.00
   5  -3  14   10.70    4.20
  -6   3 -14    4.90    4.10
  -7   3 -14   18.30    6.70
  -6  -2  14    0.30    3.80
  -6  -2  14    1.60    3.30
  -5  -2  14   22.40    6.40
  -5  -2  14   29.20    7.60
  -5  -2  14   16.00    5.70
  -4  -2  14   56.09    8.90
  -4  -2  14   47.10    8.60
  -4  -2  14   42.40    8.40
  -3  -2  14   11.80    4.60
  -3  -2  14    6.30    3.80
  -3  -2  14    8.20    3.80
  -3  -2  14    4.70    3.50
  -2  -2  14  122.79   11.70
  -2  -2  14   85.29   10.20
  -2  -2  14   87.69   10.50
  -2  -2  14   80.79    9.70
  -2  -2  14  131.69   12.90
  -1  -2  14    4.40    2.70
  -1  -2  14    6.20    3.10
  -1  -2  14    4.50    2.80
  -1  -2  14    5.50    2.70
  -1  -2  14    1.50    2.30
   0   2 -14   39.90    6.60
   0  -2  14   56.69    7.60
   0  -2  14   39.30    6.70
   0  -2  14   49.40    6.80
   0  -2  14   42.80    6.90
  -1   2 -14   46.50    6.60
   1  -2  14   44.50    6.40
   1  -2  14   70.39    8.70
   1  -2  14   35.70    6.10
  -2   2 -14   14.40    4.40
   2  -2  14   18.10    4.20
   2  -2  14   19.20    4.60
   2  -2  14   10.90    3.70
  -3   2 -14   41.60    7.20
   3  -2  14   44.10    7.20
   3  -2  14   39.30    6.40
  -4   2 -14   32.80    7.00
   4  -2  14   35.60    6.70
   4  -2  14   32.30    6.00
  -5   2 -14   38.60    7.90
  -6   2 -14    2.50    3.40
  -7   2 -14   33.00    8.20
  -7  -1  14   -2.40    3.30
  -7  -1  14   -1.20    3.30
  -6  -1  14    0.70    3.40
  -6  -1  14   -1.60    2.60
  -5  -1  14   -1.00    2.60
  -5  -1  14    7.30    4.20
  -5  -1  14    4.70    3.70
  -4  -1  14    4.00    3.50
  -4  -1  14    4.30    3.00
  -4  -1  14    9.00    3.80
  -4  -1  14    0.00    2.40
  -3  -1  14   82.99   10.50
  -3  -1  14   89.29   11.50
  -3  -1  14   80.09   10.50
  -3  -1  14  104.39   10.50
  -3  -1  14  105.19   11.50
  -2  -1  14   87.89    9.80
  -2  -1  14   97.09   11.00
  -2  -1  14   87.29   10.50
  -2  -1  14   92.59    9.80
  -2  -1  14   85.79   10.50
  -1  -1  14  104.89   10.90
  -1  -1  14   86.29    9.60
  -1  -1  14   83.69    9.20
  -1  -1  14   97.19   10.50
   0  -1  14   -0.50    2.00
   0  -1  14    3.60    2.70
   0  -1  14    8.50    3.40
   0  -1  14    2.90    2.50
   0  -1  14    3.60    2.10
  -1   1 -14   -0.30    1.70
   1  -1  14    1.00    1.60
   1  -1  14    2.40    2.50
   1  -1  14    2.10    2.20
   1  -1  14   -0.20    1.60
   1  -1  14    0.60    1.60
  -2   1 -14  262.17   14.90
   2  -1  14  243.08   14.00
   2  -1  14  248.18   14.50
   2  -1  14  267.07   15.90
  -3   1 -14  133.99   13.10
   3  -1  14  117.99   11.20
   3  -1  14  126.99   12.10
   3  -1  14  113.09   11.70
  -4   1 -14    5.80    3.80
   4  -1  14    2.40    2.70
   4  -1  14    1.40    2.40
   4  -1  14    1.50    2.50
  -5   1 -14    6.90    4.30
  -6   1 -14   47.30    9.30
  -7   1 -14    2.40    4.60
  -7   0  14   -1.00    3.80
  -7   0  14   -1.10    3.60
  -6   0  14   42.50    8.50
  -6   0  14   56.59    9.60
  -6   0  14   19.90    6.40
  -5   0  14   66.89   10.20
  -5   0  14   54.39    8.70
  -5   0  14   61.59    9.90
  -4   0  14    5.80    3.40
  -4   0  14    4.00    2.70
  -4   0  14    7.00    3.70
  -4   0  14    5.70    3.50
  -4   0  14    2.00    3.80
  -3   0  14   -0.90    1.90
  -3   0  14    0.40    2.10
  -3   0  14    0.20    1.80
  -3   0  14    5.30    3.20
  -3   0  14    1.90    2.50
  -2   0  14  106.09   11.80
  -2   0  14   92.49    9.80
  -2   0  14  100.59   11.00
  -2   0  14   85.19    9.40
   1   0 -14   90.09    9.40
  -1   0  14   82.29    9.80
  -1   0  14   99.99    9.90
  -1   0  14   99.39    9.90
  -1   0  14  113.89   11.70
   0   0 -14   90.39    9.50
   0   0  14   75.99    9.70
   0   0  14   73.59    7.90
   0   0  14   77.59    8.70
   0   0  14   71.19    8.90
  -1   0 -14  101.89   10.70
   1   0  14  106.99   11.00
   1   0  14   75.89    9.30
   1   0  14   95.89    9.50
  -2   0 -14    2.60    2.70
   2   0  14    1.40    2.20
   2   0  14    0.90    2.20
   2   0  14    0.60    2.40
  -3   0 -14   76.39   10.30
   3   0  14   62.09    7.80
   3   0  14   52.69    8.00
   3   0  14   64.59    8.70
  -4   0 -14   58.19    9.10
   4   0  14   57.49    8.80
  -5   0 -14    7.70    4.20
   5   0  14    2.20    3.60
  -6   0 -14  128.69   15.70
  -7   1  14    7.70    4.70
  -7   1  14   -0.10    3.40
  -6   1  14   58.69    9.90
  -6   1  14   64.19   10.40
  -6   1  14   28.50    7.00
  -5   1  14   56.09    8.10
  -5   1  14   57.99    9.40
  -5   1  14   54.99    9.50
  -5   1  14   60.49   10.00
  -4   1  14    4.90    3.40
  -4   1  14   -0.10    2.30
  -4   1  14    1.50    3.10
  -4   1  14    5.20    3.50
  -4   1  14    5.50    3.30
   3  -1 -14    0.20    2.40
  -3   1  14    1.40    2.20
  -3   1  14   -1.50    1.50
  -3   1  14    1.10    2.20
  -3   1  14    1.80    2.50
   2  -1 -14   75.89    8.70
  -2   1  14   53.19    7.60
  -2   1  14   61.39    8.50
  -2   1  14   55.19    7.50
  -2   1  14   60.39    8.70
  -2   1  14   59.99    8.30
   1  -1 -14   26.00    5.30
  -1   1  14   16.40    4.00
  -1   1  14   21.00    5.20
  -1   1  14   20.40    5.00
  -1   1  14   13.50    4.00
   0  -1 -14  115.09   11.20
   0   1  14  107.89   10.50
   0   1  14  104.39   11.00
   0   1  14  113.19   11.70
   0   1  14  105.29    8.10
  -1  -1 -14   -1.60    2.00
   1   1  14   -0.10    1.80
   1   1  14   -0.10    2.30
   1   1  14    5.60    3.20
  -2  -1 -14    3.10    2.80
   2   1  14    0.20    2.20
   2   1  14    1.80    2.50
   2   1  14    6.80    3.30
  -3  -1 -14   65.29    9.40
   3   1  14   55.39    7.40
  -4  -1 -14   42.90    8.30
   4   1  14   60.29    9.40
  -5  -1 -14   22.50    6.80
   5   1  14   10.50    4.70
  -6  -1 -14   13.30    5.80
   6   1  14    5.60    4.90
  -7   2  14   22.20    7.00
  -7   2  14    9.70    5.10
  -6   2  14   12.80    5.10
  -6   2  14   12.30    4.80
  -6   2  14    6.00    4.00
  -5   2  14   23.80    6.30
  -5   2  14   11.90    4.20
  -5   2  14   21.60    5.60
  -5   2  14   25.40    6.90
   4  -2 -14   18.00    4.90
  -4   2  14   14.80    5.20
  -4   2  14   23.80    5.80
  -4   2  14   31.70    5.90
  -4   2  14   19.70    5.90
  -4   2  14   10.30    4.30
   3  -2 -14   11.30    3.90
  -3   2  14    0.00    2.40
  -3   2  14   14.30    4.40
  -3   2  14    9.10    3.90
  -3   2  14    3.00    2.80
  -3   2  14    3.10    3.10
   2  -2 -14  263.77   15.00
  -2   2  14  241.18   14.60
  -2   2  14  234.58   15.20
  -2   2  14  251.97   15.70
  -2   2  14  240.48   14.60
  -2   2  14  244.68   14.50
   1  -2 -14    4.40    3.10
  -1   2  14    7.40    3.50
  -1   2  14    8.40    3.40
  -1   2  14    9.90    3.60
  -1   2  14   14.40    4.20
   0  -2 -14    1.70    2.30
   0   2  14    5.80    3.60
   0   2  14    3.20    2.60
   0   2  14    2.70    2.70
  -1  -2 -14   19.10    5.30
   1   2  14   10.70    3.80
   1   2  14   12.80    3.90
   1   2  14   13.30    4.70
  -2  -2 -14   97.29   11.50
   2   2  14   93.19   10.10
   2   2  14   91.79   11.30
  -3  -2 -14    3.20    3.00
   3   2  14    4.60    3.40
  -4  -2 -14   21.30    6.20
   4   2  14   14.70    5.60
  -5  -2 -14   25.60    7.60
   5   2  14   37.80    8.90
  -7   3  14   25.90    7.10
  -6   3  14  105.09   13.60
  -6   3  14   85.19   11.70
  -6   3  14   74.99   10.30
  -6   3  14   69.69   11.10
  -5   3  14    4.00    3.60
  -5   3  14    3.10    3.20
  -5   3  14    0.10    2.70
  -5   3  14    0.40    3.10
  -5   3  14   -0.20    3.20
   4  -3 -14   50.29    8.20
  -4   3  14   35.80    7.20
  -4   3  14   46.20    8.30
  -4   3  14   41.90    7.30
  -4   3  14   61.79    9.60
   3  -3 -14   17.80    5.20
  -3   3  14   31.20    6.10
  -3   3  14   40.10    7.10
  -3   3  14   23.90    6.10
  -3   3  14   28.50    6.40
  -3   3  14   28.40    6.40
   2  -3 -14   28.60    6.50
  -2   3  14   14.60    4.50
  -2   3  14   22.80    5.40
  -2   3  14   25.20    5.60
  -2   3  14   24.60    5.70
  -2   3  14   23.90    5.60
   1  -3 -14   57.79    8.70
  -1   3  14   51.89    8.20
  -1   3  14   42.40    7.20
  -1   3  14   46.80    7.50
  -1   3  14   55.69    7.90
   0  -3 -14   30.30    6.60
   0   3  14   34.70    7.30
   0   3  14   44.00    7.00
   0   3  14   33.80    6.90
  -1  -3 -14  103.09   12.30
   1   3  14   77.89    9.40
   1   3  14   86.69   11.20
  -2  -3 -14  161.38   15.90
   2   3  14  127.69   14.10
   2   3  14  132.89   12.20
  -3  -3 -14   12.90    5.30
   3   3  14    9.00    5.00
  -4  -3 -14    0.40    3.20
   4   3  14    3.20    4.50
  -5  -3 -14   28.30    7.70
   5   3  14    5.50    4.90
  -6   4  14   11.70    4.30
  -6   4  14   18.10    6.20
  -6   4  14   17.60    6.10
  -6   4  14   18.60    6.70
  -5   4  14    1.20    2.60
  -5   4  14    4.10    3.60
  -5   4  14    7.40    4.70
  -5   4  14    3.60    3.70
  -5   4  14    2.90    4.00
   4  -4 -14    4.80    4.00
  -4   4  14    5.60    3.90
  -4   4  14   10.90    5.00
  -4   4  14    4.20    3.30
  -4   4  14    6.70    3.70
   3  -4 -14   19.80    5.80
  -3   4  14   21.00    5.80
  -3   4  14   28.00    6.90
  -3   4  14   25.60    6.00
  -3   4  14   29.70    6.70
   2  -4 -14    4.40    3.70
  -2   4  14    1.80    2.40
  -2   4  14    3.00    2.40
  -2   4  14    6.70    4.10
  -2   4  14    4.60    3.20
  -2   4  14    2.60    3.00
   1  -4 -14   41.00    7.80
  -1   4  14   44.20    8.40
  -1   4  14   43.20    7.50
   0  -4 -14    8.30    4.00
   0   4  14    4.10    3.20
   0   4  14    7.70    3.90
  -1  -4 -14   -0.60    2.60
   1   4  14    0.10    2.80
   1   4  14    0.00    2.50
  -2  -4 -14   14.30    5.70
   2   4  14   12.80    5.00
  -3  -4 -14   33.60    8.40
   3   4  14   38.20    8.60
  -4  -4 -14    3.30    4.10
   4   4  14    0.10    4.00
  -6   5  14    0.10    3.10
  -6   5  14   -1.10    3.50
  -5   5  14    7.60    4.10
  -5   5  14    2.60    3.40
  -5   5  14   -0.20    3.10
  -5   5  14    0.10    3.30
   4  -5 -14    0.80    3.10
  -4   5  14    0.80    3.40
  -4   5  14   -1.10    2.70
  -4   5  14    2.20    4.00
  -4   5  14   -0.80    2.70
   3  -5 -14    4.20    4.20
  -3   5  14   21.20    6.20
  -3   5  14   16.00    4.90
  -3   5  14   18.50    6.00
  -3   5  14   12.90    4.80
   2  -5 -14   33.70    8.10
  -2   5  14   26.20    6.60
  -2   5  14   27.30    6.50
  -2   5  14   22.40    6.40
  -2   5  14   20.70    5.60
   1  -5 -14   -0.30    3.20
  -1   5  14    1.90    3.40
  -1   5  14    4.40    3.70
  -1   5  14    1.50    2.50
   0  -5 -14    0.40    3.10
   0   5  14    2.50    2.80
   0   5  14    2.60    3.60
  -1  -5 -14   26.90    7.10
   1   5  14   26.80    6.30
   1   5  14   26.60    7.50
  -2  -5 -14    1.30    3.50
   2   5  14   10.30    4.90
  -3  -5 -14   14.70    6.50
   3   5  14   -0.60    3.50
   4  -6 -14   -1.90    3.50
  -4   6  14    5.20    4.40
  -4   6  14    2.90    4.20
  -4   6  14    3.80    4.60
  -4   6  14    8.10    4.30
   3  -6 -14    9.40    5.10
  -3   6  14    6.00    4.80
  -3   6  14   16.20    5.90
  -3   6  14    2.70    4.10
  -3   6  14   11.80    5.00
   2  -6 -14   18.60    6.70
  -2   6  14    7.70    4.10
  -2   6  14   21.70    6.10
  -2   6  14   14.70    6.70
   1  -6 -14    6.10    4.40
  -1   6  14    1.20    3.40
  -1   6  14    2.90    4.00
  -1   6  14    0.00    3.40
   0  -6 -14    0.00    3.00
   0   6  14   -0.90    2.80
   0   6  14   -0.90    3.10
   0   6  14   -3.70    3.20
  -1  -6 -14   13.30    6.20
   1   6  14   16.30    6.10
   1   7 -15   -0.50    4.00
  -1  -7  15   -0.20    3.30
   0  -7  15    4.50    3.70
   0  -7  15    5.30    4.20
   1  -7  15   -1.90    2.80
   1  -7  15    4.60    4.60
   2  -7  15    1.50    3.10
   2  -7  15    3.00    3.70
   3  -7  15   16.10    5.50
   3  -7  15   22.80    6.90
   4  -7  15   21.00    6.30
   3   6 -15    7.10    5.40
   2   6 -15    0.00    4.00
  -2  -6  15    4.50    4.10
   1   6 -15    9.10    5.30
  -1  -6  15   10.50    5.00
  -1  -6  15    3.60    3.40
   0  -6  15    3.20    3.60
   0  -6  15   15.80    5.10
   1  -6  15    0.80    2.70
   1  -6  15   10.10    4.20
   2  -6  15   47.90    8.20
   2  -6  15   65.79   10.00
   3  -6  15   50.89    8.50
   3  -6  15   72.79   10.20
   4  -6  15    1.70    3.10
   5  -6  15    0.60    3.40
  -4  -5  15    9.60    4.80
  -4  -5  15    2.70    4.50
  -3  -5  15    3.50    3.30
  -3  -5  15    1.20    3.60
   2   5 -15   12.70    5.30
  -2  -5  15   10.00    4.80
  -2  -5  15    6.80    3.70
  -2  -5  15   14.00    4.40
   1   5 -15   33.10    7.80
  -1  -5  15   44.30    8.20
  -1  -5  15   27.10    6.40
   0  -5  15    1.30    2.70
   0  -5  15    0.30    2.70
   1  -5  15   22.40    5.60
   1  -5  15   19.60    5.10
   2  -5  15    7.60    4.10
   2  -5  15    9.60    4.20
   3  -5  15  125.49   13.10
   3  -5  15  115.49   13.40
   4  -5  15  100.79   12.50
   5  -5  15   16.70    5.50
  -6   5 -15    7.00    4.40
   6  -5  15    1.30    3.50
  -5  -4  15    1.30    4.00
  -5  -4  15    5.70    5.50
  -4  -4  15   24.10    7.60
  -4  -4  15   17.00    6.00
  -4  -4  15   49.20   12.00
  -3  -4  15    8.20    4.50
  -3  -4  15    9.50    4.70
  -3  -4  15   11.40    4.70
  -2  -4  15    4.40    3.30
  -2  -4  15    0.60    2.80
  -2  -4  15    1.90    3.20
  -2  -4  15    1.50    2.60
   1   4 -15   36.40    7.10
  -1  -4  15   36.70    6.80
  -1  -4  15   30.40    7.00
  -1  -4  15   43.20    7.40
   0  -4  15   14.40    4.30
   0  -4  15   20.20    5.10
   0  -4  15   10.70    4.40
   0  -4  15   21.60    5.30
   1  -4  15    0.40    2.20
   1  -4  15    3.20    3.20
   1  -4  15    0.90    2.60
   2  -4  15   17.20    4.80
   2  -4  15   14.00    4.40
   2  -4  15   20.00    5.00
   3  -4  15   10.00    4.00
  -4   4 -15    3.50    3.30
   4  -4  15    3.10    2.80
  -5   4 -15   13.60    5.10
   5  -4  15   23.20    6.00
  -6   4 -15    1.30    3.70
  -5  -3  15   -1.40    4.10
  -5  -3  15    5.20    4.90
  -4  -3  15    0.40    2.90
  -4  -3  15   20.60    6.10
  -4  -3  15   10.80    4.80
  -3  -3  15    1.70    3.10
  -3  -3  15    6.40    3.60
  -3  -3  15    3.00    3.30
  -3  -3  15    5.90    4.00
  -2  -3  15    0.00    2.70
  -2  -3  15    4.40    2.80
  -2  -3  15    5.50    3.50
  -2  -3  15   -1.30    2.00
  -1  -3  15   13.20    4.30
  -1  -3  15    3.00    2.90
  -1  -3  15   11.20    4.60
  -1  -3  15   14.00    4.50
  -1  -3  15    7.70    3.90
   0  -3  15  122.99   11.50
   0  -3  15  113.19   11.50
   0  -3  15   85.69   10.00
   0  -3  15  107.19   11.10
   1  -3  15    6.00    3.30
   1  -3  15    5.00    2.70
   1  -3  15   11.10    3.80
   2  -3  15   53.09    8.10
   2  -3  15   60.59    8.30
   2  -3  15   83.19    9.00
  -3   3 -15  166.68   12.00
   3  -3  15  175.58   12.30
   3  -3  15  161.38   12.30
  -4   3 -15    1.60    2.90
   4  -3  15    4.50    3.10
  -5   3 -15    5.00    3.90
   5  -3  15   13.90    4.50
  -6   3 -15   17.40    6.30
  -6  -2  15   11.10    5.20
  -6  -2  15    7.00    5.00
  -5  -2  15   44.30   10.30
  -5  -2  15   31.60    8.50
  -5  -2  15   35.30    7.80
  -4  -2  15    1.10    2.90
  -4  -2  15    0.20    2.80
  -4  -2  15   -0.50    2.80
  -3  -2  15   14.30    4.50
  -3  -2  15    4.50    3.50
  -3  -2  15    7.70    4.20
  -3  -2  15   10.20    4.70
  -2  -2  15    3.80    3.10
  -2  -2  15    4.20    3.00
  -2  -2  15   -0.40    2.20
  -2  -2  15    1.70    2.80
  -1  -2  15  144.79   13.70
  -1  -2  15  160.58   11.90
  -1  -2  15  155.28   12.40
  -1  -2  15  160.08   11.50
  -1  -2  15  171.98   11.70
   0  -2  15   24.90    5.60
   0  -2  15   35.50    7.10
   0  -2  15   17.80    4.50
   0  -2  15   31.00    6.10
   1  -2  15    7.60    3.30
   1  -2  15    1.50    2.30
   1  -2  15    3.10    2.40
   1  -2  15    3.50    2.40
  -2   2 -15    6.10    3.00
   2  -2  15    7.30    3.50
   2  -2  15   11.10    3.90
   2  -2  15    4.00    2.90
  -3   2 -15   18.30    5.30
   3  -2  15   14.10    4.30
   3  -2  15   16.60    4.90
  -4   2 -15    1.70    2.80
   4  -2  15    8.20    3.60
   4  -2  15    4.50    3.20
  -5   2 -15   11.60    4.90
  -6   2 -15   83.09   12.70
  -6  -1  15    8.10    4.90
  -6  -1  15   -0.70    3.80
  -5  -1  15   93.49   12.60
  -5  -1  15   99.69   12.80
  -5  -1  15  110.89   13.90
  -4  -1  15   24.50    5.50
  -4  -1  15   19.60    5.50
  -4  -1  15   18.00    5.40
  -4  -1  15   24.90    7.00
  -3  -1  15   59.39    9.10
  -3  -1  15   36.10    7.40
  -3  -1  15   50.69    8.10
  -3  -1  15   52.69    7.70
  -2  -1  15   75.69   10.10
  -2  -1  15   87.19   10.10
  -2  -1  15   83.59   10.50
  -2  -1  15   99.29   11.00
  -2  -1  15   94.89   11.60
  -1  -1  15   68.19    9.20
  -1  -1  15   53.09    7.60
  -1  -1  15   36.30    6.60
  -1  -1  15   49.80    7.60
   0   1 -15    5.00    4.00
   0  -1  15    4.70    2.50
   0  -1  15    2.10    2.60
   0  -1  15    5.10    2.50
   0  -1  15    2.50    2.60
   0  -1  15    2.40    2.50
  -1   1 -15  124.79   11.70
   1  -1  15  118.49    8.50
   1  -1  15   85.89    9.70
   1  -1  15  102.59   10.70
   1  -1  15   89.49   10.80
  -2   1 -15    3.00    2.70
   2  -1  15    7.70    3.40
   2  -1  15    8.60    3.40
   2  -1  15    9.40    3.70
  -3   1 -15   23.50    5.90
   3  -1  15   20.50    5.40
   3  -1  15   17.90    4.90
   3  -1  15   22.50    5.60
  -4   1 -15   38.80    7.70
   4  -1  15   38.90    7.70
   4  -1  15   44.40    7.10
  -5   1 -15   12.10    4.90
  -6   1 -15    1.70    3.60
  -6   0  15   30.40    7.70
  -6   0  15   20.60    7.40
  -5   0  15   17.70    5.80
  -5   0  15    8.30    4.70
  -5   0  15   12.10    4.80
  -5   0  15    7.30    5.40
  -4   0  15   74.29   10.40
  -4   0  15   51.49    7.80
  -4   0  15   50.09    8.50
  -4   0  15   49.80    8.70
  -3   0  15    2.10    2.30
  -3   0  15    0.60    2.30
  -3   0  15    3.80    3.40
  -3   0  15    1.90    2.80
  -2   0  15   40.60    7.20
  -2   0  15   58.69    8.20
  -2   0  15   66.19    9.60
  -2   0  15   47.20    7.40
   1   0 -15  145.99   10.20
  -1   0  15  175.68   12.40
  -1   0  15  150.68   10.90
  -1   0  15  143.19   10.60
  -1   0  15  126.99   12.70
   0   0 -15  117.49   11.20
   0   0  15  134.09    9.30
   0   0  15  115.49   12.20
   0   0  15  113.99   11.40
   0   0  15  121.29   12.10
  -1   0 -15   87.29    9.90
   1   0  15   87.39   10.40
   1   0  15   62.79    8.80
   1   0  15   78.89    9.20
  -2   0 -15   38.00    7.00
   2   0  15   36.10    6.80
   2   0  15   27.00    6.00
   2   0  15   43.60    6.90
  -3   0 -15   -0.60    2.30
   3   0  15    1.70    2.80
   3   0  15    5.80    3.10
  -4   0 -15   92.79   12.00
   4   0  15  120.69   13.00
  -5   0 -15   35.50    7.90
   5   0  15   42.90    7.90
  -6   0 -15   -0.20    4.00
  -7   1  15    4.80    5.10
  -6   1  15   33.70    7.80
  -6   1  15   34.40    7.80
  -5   1  15    7.10    3.70
  -5   1  15   12.00    5.20
  -5   1  15    9.30    4.80
  -5   1  15    3.80    3.50
  -4   1  15   13.60    4.70
  -4   1  15   26.50    6.30
  -4   1  15   10.50    4.20
  -4   1  15    0.00    3.00
  -3   1  15   50.69    8.20
  -3   1  15   61.59    8.90
  -3   1  15   43.20    7.70
  -3   1  15   59.09    9.30
   2  -1 -15    6.20    3.10
  -2   1  15    2.00    2.40
  -2   1  15    7.40    3.30
  -2   1  15    6.60    3.70
  -2   1  15    9.10    3.80
  -2   1  15    6.00    3.20
   1  -1 -15   77.39    9.40
  -1   1  15   90.19   11.20
  -1   1  15   88.99   10.10
  -1   1  15   72.99    9.10
  -1   1  15   69.29    9.50
   0  -1 -15    4.60    3.10
   0   1  15   -0.50    2.50
   0   1  15    1.20    2.20
   0   1  15    0.20    1.90
   0   1  15    0.40    2.10
  -1  -1 -15    2.10    2.50
   1   1  15    6.10    3.60
   1   1  15    4.30    2.50
   1   1  15    6.10    3.50
  -2  -1 -15   85.29   10.60
   2   1  15   84.99   10.80
   2   1  15  106.79   11.00
  -3  -1 -15   20.20    5.90
   3   1  15    0.50    2.50
   3   1  15   13.60    4.30
  -4  -1 -15    9.10    4.60
   4   1  15    9.40    4.60
  -5  -1 -15    1.80    3.10
   5   1  15    7.80    4.40
  -6  -1 -15   13.10    6.50
   6   1  15   24.40    8.20
  -6   2  15    0.00    3.20
  -6   2  15   -1.80    3.10
  -5   2  15    4.30    4.10
  -5   2  15    7.80    4.90
  -5   2  15   16.60    5.10
  -5   2  15   11.40    4.90
  -4   2  15   11.20    4.70
  -4   2  15   10.10    4.50
  -4   2  15    9.10    4.30
   3  -2 -15   48.10    7.40
  -3   2  15   37.80    7.20
  -3   2  15   42.30    7.20
  -3   2  15   34.70    7.70
  -3   2  15   36.60    6.90
  -3   2  15   43.70    8.10
   2  -2 -15    4.20    3.10
  -2   2  15   -2.10    1.60
  -2   2  15    4.20    3.20
  -2   2  15    6.40    3.30
  -2   2  15   -0.10    2.30
  -2   2  15   -1.50    2.20
   1  -2 -15   44.70    7.50
  -1   2  15   58.69    7.90
  -1   2  15   47.90    7.30
  -1   2  15   54.69    8.40
  -1   2  15   68.09    9.70
   0  -2 -15  153.88   14.50
   0   2  15  104.39   18.30
   0   2  15  154.68   13.70
   0   2  15  183.58   16.50
  -1  -2 -15   81.39   10.60
   1   2  15  111.89   12.90
   1   2  15   95.69   10.70
  -2  -2 -15    9.70    4.20
   2   2  15    9.30    3.70
   2   2  15   16.40    5.60
  -3  -2 -15   76.59   11.10
   3   2  15   88.29   12.00
  -4  -2 -15   24.10    6.70
   4   2  15   16.40    5.60
  -5  -2 -15   54.99   10.70
   5   2  15   35.70    9.00
  -6   3  15   14.20    5.60
  -6   3  15   11.10    5.80
  -6   3  15    6.40    4.00
  -5   3  15   18.70    5.80
  -5   3  15    7.10    4.50
  -5   3  15   16.60    5.70
  -5   3  15   15.10    4.90
   4  -3 -15    4.90    3.50
  -4   3  15   16.00    5.70
  -4   3  15    4.30    3.20
  -4   3  15   12.90    5.00
  -4   3  15    8.60    4.80
   3  -3 -15    9.50    4.20
  -3   3  15    8.30    4.20
  -3   3  15    7.00    3.80
  -3   3  15    2.90    2.90
  -3   3  15    1.80    2.90
   2  -3 -15   17.80    5.20
  -2   3  15   19.20    5.80
  -2   3  15   32.00    6.40
  -2   3  15   19.80    5.10
  -2   3  15   13.20    4.90
   1  -3 -15    2.40    3.00
  -1   3  15    2.70    3.60
  -1   3  15    3.00    4.00
  -1   3  15    7.30    3.30
   0  -3 -15   44.50    8.40
   0   3  15   50.59    7.50
   0   3  15   50.49    8.70
  -1  -3 -15   -2.20    2.20
   1   3  15    4.50    2.90
   1   3  15    2.50    3.40
  -2  -3 -15    9.20    4.30
   2   3  15    8.40    4.00
   2   3  15    9.10    4.60
  -3  -3 -15   45.40    9.20
   3   3  15   59.39   10.40
  -4  -3 -15   21.90    6.70
   4   3  15   22.70    7.50
  -6   4  15   11.10    5.30
  -6   4  15    7.80    4.80
  -6   4  15    8.00    5.80
  -5   4  15   16.60    5.70
  -5   4  15   29.70    7.80
  -5   4  15   20.00    6.10
  -5   4  15   10.70    5.00
  -5   4  15    7.50    5.10
   4  -4 -15    4.50    4.00
  -4   4  15   10.10    4.70
  -4   4  15    8.60    4.40
  -4   4  15    7.70    3.70
  -4   4  15    9.30    4.90
   3  -4 -15    5.40    3.90
  -3   4  15    1.80    2.90
  -3   4  15    1.90    3.30
  -3   4  15    3.60    3.30
  -3   4  15   -0.90    2.30
   2  -4 -15   78.29   10.90
  -2   4  15   89.39   11.40
  -2   4  15   68.99   10.40
  -2   4  15   89.19   12.20
  -2   4  15   57.19    8.80
   1  -4 -15    5.80    3.90
  -1   4  15    0.80    2.90
  -1   4  15    4.90    3.50
   0  -4 -15    9.80    4.50
   0   4  15   11.20    4.20
   0   4  15    0.20    3.40
  -1  -4 -15    3.60    3.90
   1   4  15    2.40    3.10
   1   4  15    5.30    3.90
  -2  -4 -15   41.70    8.80
   2   4  15   40.90    8.80
  -3  -4 -15   -0.90    3.20
   3   4  15    2.90    3.80
  -5   5  15   -2.10    3.40
  -5   5  15    4.30    3.60
  -5   5  15    3.80    4.40
  -5   5  15   11.80    5.40
   4  -5 -15   26.30    7.40
  -4   5  15   27.50    7.40
  -4   5  15   28.40    7.30
  -4   5  15   23.00    7.10
  -4   5  15   22.70    6.30
   3  -5 -15    2.80    3.70
  -3   5  15   -1.90    2.90
  -3   5  15    0.80    3.20
  -3   5  15    0.00    3.50
  -3   5  15   -0.70    2.20
   2  -5 -15   24.80    6.90
  -2   5  15   24.60    6.70
  -2   5  15   33.10    7.70
  -2   5  15   31.60    6.90
   1  -5 -15   19.30    6.30
  -1   5  15   24.20    6.50
  -1   5  15   21.20    6.60
  -1   5  15   26.50    7.60
   0  -5 -15    1.80    3.50
   0   5  15   -0.90    3.10
   0   5  15    1.20    3.00
  -1  -5 -15   59.99   10.60
   1   5  15   42.20    9.10
   1   5  15   65.09    9.70
  -2  -5 -15   49.90   10.50
   2   5  15   57.69   10.80
   3  -6 -15   15.30    5.70
  -3   6  15    3.80    4.30
  -3   6  15   10.10    5.50
  -3   6  15   -1.60    2.80
  -3   6  15   12.10    5.40
   2  -6 -15    0.00    3.40
  -2   6  15    0.30    3.20
  -2   6  15   -3.10    3.20
  -2   6  15    0.80    3.60
   1  -6 -15    7.70    4.60
  -1   6  15    2.30    4.30
  -1   6  15    9.70    5.00
  -1   6  15    0.00    3.60
   0  -6 -15   -1.50    3.80
   0   6  15    3.80    4.10
   0   6  15    2.30    4.10
   0   6  15    3.70    3.80
   0  -7  16    6.70    4.30
   1  -7  16    1.60    2.90
   1  -7  16    7.20    5.10
   2  -7  16    1.30    4.00
   2  -7  16    7.80    4.60
   3  -7  16    1.60    3.30
   3  -7  16    1.40    4.00
   2   6 -16    0.00    3.60
   1   6 -16    0.00    3.60
  -1  -6  16    4.90    4.10
  -1  -6  16    2.10    3.20
   0  -6  16   20.50    5.70
   0  -6  16   18.80    6.20
   1  -6  16   38.70    7.90
   1  -6  16   27.60    7.30
   2  -6  16    0.60    2.80
   2  -6  16    5.40    3.50
   3  -6  16    0.00    3.00
   3  -6  16    1.60    3.20
   4  -6  16    4.20    3.80
   5  -6  16    8.80    5.10
  -3  -5  16   16.30    6.40
  -2  -5  16   -4.50    2.10
  -2  -5  16    4.10    3.80
  -1  -5  16    3.40    4.00
  -1  -5  16   10.80    4.40
   0  -5  16   17.00    5.20
   0  -5  16   12.70    5.00
   1  -5  16    1.50    3.20
   1  -5  16    0.70    2.80
   2  -5  16    2.40    3.00
   2  -5  16    1.30    2.80
   3  -5  16    1.30    2.80
   4  -5  16    7.10    4.50
   5  -5  16   25.90    6.70
  -4  -4  16   16.20    6.70
  -4  -4  16    9.70    5.50
  -3  -4  16   20.50    6.10
  -3  -4  16   24.80    6.90
  -3  -4  16   28.20    7.30
  -2  -4  16   -0.50    3.00
  -2  -4  16   -0.50    2.70
  -2  -4  16    0.70    3.10
  -2  -4  16    2.40    2.80
  -1  -4  16   27.10    6.60
  -1  -4  16   21.10    6.00
  -1  -4  16   25.00    5.80
   0  -4  16   76.39    9.70
   0  -4  16  100.79   11.40
   1  -4  16    8.60    3.90
   1  -4  16    4.60    2.90
   2  -4  16    0.80    2.20
   2  -4  16    0.20    2.40
   2  -4  16   -2.40    2.30
   3  -4  16    5.20    3.20
   4  -4  16    4.80    3.50
  -5   4 -16    0.00    2.90
   5  -4  16    5.00    3.40
  -6   4 -16    4.60    4.60
  -5  -3  16   53.79   11.10
  -5  -3  16   43.40    9.40
  -4  -3  16   45.90   10.00
  -4  -3  16   37.90    8.40
  -3  -3  16    2.90    3.10
  -3  -3  16    0.10    3.30
  -3  -3  16    0.90    3.10
  -3  -3  16    2.80    2.80
  -2  -3  16   27.10    6.60
  -2  -3  16   25.50    5.50
  -2  -3  16   43.00    7.80
  -2  -3  16   11.80    4.50
  -1  -3  16   41.40    7.50
  -1  -3  16   47.00    8.20
  -1  -3  16   25.00    5.70
  -1  -3  16   43.00    7.70
   0  -3  16    4.70    3.00
   0  -3  16    6.20    3.50
   0  -3  16    9.60    3.80
   0  -3  16    3.40    3.10
   1  -3  16   26.80    5.90
   1  -3  16   18.00    5.20
   1  -3  16   27.50    6.00
   2  -3  16    1.60    2.60
   2  -3  16    1.10    2.30
  -3   3 -16   62.99   12.90
   3  -3  16   48.80    7.70
   3  -3  16   56.79    9.70
  -4   3 -16   44.80    8.30
   4  -3  16   68.39    9.50
  -5   3 -16   11.40    4.80
   5  -3  16    7.90    4.20
  -6   3 -16   -1.00    4.20
  -5  -2  16    4.00    4.70
  -5  -2  16    5.20    4.10
  -4  -2  16    1.50    3.60
  -4  -2  16    9.60    4.40
  -4  -2  16    0.70    3.40
  -3  -2  16    6.20    3.80
  -3  -2  16    9.10    3.80
  -3  -2  16    5.30    3.60
  -3  -2  16    9.40    4.10
  -2  -2  16   22.40    5.50
  -2  -2  16   13.20    5.00
  -2  -2  16   30.10    6.40
  -2  -2  16   14.60    4.70
  -1  -2  16   49.30    7.70
  -1  -2  16   51.09    8.40
  -1  -2  16   52.79    8.20
  -1  -2  16   69.69    9.40
   0  -2  16    5.80    3.10
   0  -2  16    4.70    3.50
   0  -2  16    6.70    4.10
   0  -2  16   -0.60    2.20
   1  -2  16   58.79    7.80
   1  -2  16   66.69    8.60
   1  -2  16   55.19    8.60
   1  -2  16   63.09    9.00
  -2   2 -16   18.20    4.80
   2  -2  16   14.10    4.30
   2  -2  16    9.90    3.90
  -3   2 -16   26.80    6.40
   3  -2  16   28.40    6.10
  -4   2 -16   25.40    6.80
   4  -2  16   20.00    5.20
  -5   2 -16   31.80    7.70
  -6   2 -16    6.40    4.80
  -6  -1  16   39.10    9.50
  -6  -1  16   36.40   10.30
  -5  -1  16   11.70    5.80
  -5  -1  16   23.10    7.10
  -4  -1  16   25.50    6.80
  -4  -1  16   17.10    5.20
  -4  -1  16   11.80    5.00
  -4  -1  16   11.10    4.90
  -3  -1  16    5.40    3.90
  -3  -1  16    6.90    4.30
  -3  -1  16    8.10    4.20
  -3  -1  16    4.30    3.30
  -2  -1  16    0.50    2.60
  -2  -1  16    0.90    2.80
  -2  -1  16    1.90    2.90
  -2  -1  16    1.70    2.90
  -1  -1  16   23.40    5.30
  -1  -1  16   37.70    7.10
  -1  -1  16   41.00    7.10
   0  -1  16   48.90    7.80
   0  -1  16   33.70    6.20
   0  -1  16   35.40    6.90
   0  -1  16   48.60    7.00
  -1   1 -16   37.00    6.50
   1  -1  16   42.80    7.30
   1  -1  16   32.20    6.80
   1  -1  16   43.50    7.10
  -2   1 -16   62.59    9.20
   2  -1  16   62.09    8.70
   2  -1  16   69.09    8.90
  -3   1 -16  101.29   12.10
   3  -1  16   85.29   10.90
   3  -1  16   85.09   10.10
  -4   1 -16   15.30    5.50
   4  -1  16   24.90    5.70
  -5   1 -16   11.90    4.80
  -6   1 -16   14.70    5.90
  -6   0  16   15.60    6.70
  -6   0  16    4.00    4.10
  -5   0  16    1.50    3.60
  -5   0  16    2.00    4.10
  -5   0  16   -1.80    3.30
  -5   0  16    2.30    3.20
  -4   0  16   29.70    7.60
  -4   0  16   22.50    6.20
  -4   0  16   36.00    6.90
  -4   0  16   37.00    8.20
  -3   0  16    8.70    4.10
  -3   0  16    6.30    3.90
  -3   0  16   10.60    3.90
  -3   0  16   13.40    4.80
  -2   0  16   26.10    6.20
  -2   0  16   13.50    4.20
  -2   0  16    8.50    3.80
  -1   0  16   45.60    7.20
  -1   0  16   45.20    7.90
  -1   0  16   55.59    8.10
   0   0 -16   31.10    6.10
   0   0  16   28.80    5.40
   0   0  16   32.40    6.30
   0   0  16   35.00    7.10
  -1   0 -16    6.30    3.40
   1   0  16   -0.80    2.50
   1   0  16    2.80    3.00
  -2   0 -16    1.60    2.80
   2   0  16    6.60    3.60
  -3   0 -16   33.20    7.30
   3   0  16   23.00    5.50
   3   0  16   46.60    8.50
  -4   0 -16    7.70    4.70
   4   0  16   15.40    5.30
  -5   0 -16   35.30    8.30
   5   0  16   17.30    6.40
  -6   0 -16  127.79   15.40
  -6   1  16    5.90    5.10
  -6   1  16    7.30    4.40
  -5   1  16   34.80    8.20
  -5   1  16   42.80    9.00
  -5   1  16   30.10    6.70
  -5   1  16   33.90    7.60
  -4   1  16   -0.10    2.80
  -4   1  16   -0.50    3.10
  -4   1  16   -0.30    2.90
  -4   1  16    2.20    3.00
  -3   1  16   63.39   10.00
  -3   1  16   74.49   10.10
  -3   1  16   61.29    8.70
   2  -1 -16   36.60    6.50
  -2   1  16   45.70    8.50
  -2   1  16   51.49    8.10
  -2   1  16   47.00    7.70
   1  -1 -16   -0.10    2.20
  -1   1  16    0.10    2.30
  -1   1  16   -0.10    2.20
  -1   1  16   -2.50    2.10
   0  -1 -16   54.79    8.50
   0   1  16   52.69    8.60
   0   1  16   59.99    8.50
  -1  -1 -16   87.39   10.70
   1   1  16   45.90    7.30
   1   1  16   85.19   11.50
  -2  -1 -16   -0.70    2.60
   2   1  16    2.30    3.10
   2   1  16    0.40    2.70
  -3  -1 -16   68.09   10.70
   3   1  16   74.69    9.60
   3   1  16   40.30    7.70
  -4  -1 -16   48.50    9.50
   4   1  16   39.10    8.00
  -5  -1 -16   11.70    5.40
   5   1  16   16.70    6.20
  -6   2  16   14.80    5.80
  -6   2  16    5.30    5.00
  -5   2  16   58.89   10.00
  -5   2  16   53.49    9.50
  -5   2  16   75.99   10.80
  -5   2  16   86.89   12.40
  -4   2  16   26.80    6.80
  -4   2  16   41.10    8.30
  -4   2  16   27.40    7.00
  -4   2  16   28.40    7.20
   3  -2 -16    5.90    3.60
  -3   2  16   -0.20    2.80
  -3   2  16    5.00    3.80
  -3   2  16    2.90    2.80
  -3   2  16    2.00    3.00
   2  -2 -16   35.50    7.00
  -2   2  16   53.99    8.40
  -2   2  16   38.90    7.20
  -2   2  16   49.20    8.20
  -2   2  16   46.20    8.70
   1  -2 -16   42.40    7.60
  -1   2  16   43.30    6.80
  -1   2  16   28.60    6.60
  -1   2  16   33.70    6.50
   0  -2 -16   55.19    8.90
   0   2  16   60.29    8.80
   0   2  16   66.69   10.10
  -1  -2 -16   11.80    4.60
   1   2  16   14.30    4.50
   1   2  16   14.80    5.00
  -2  -2 -16    9.50    4.30
   2   2  16    9.50    3.90
   2   2  16    4.30    3.60
  -3  -2 -16   -0.30    3.00
   3   2  16   -2.20    3.10
  -4  -2 -16   36.60    8.20
   4   2  16   29.00    7.60
  -5  -2 -16   57.59   10.80
   5   2  16   91.59   13.10
  -6   3  16    5.20    4.20
  -6   3  16    6.00    4.40
  -5   3  16   -2.70    5.40
  -5   3  16    1.80    4.20
  -5   3  16    3.80    3.50
  -5   3  16    0.30    3.80
   4  -3 -16   11.90    4.60
  -4   3  16   13.80    5.70
  -4   3  16   11.90    5.40
  -4   3  16   14.40    5.40
  -4   3  16   15.80    5.10
   3  -3 -16   18.50    5.40
  -3   3  16   20.30    6.30
  -3   3  16    7.30    4.30
  -3   3  16   13.20    4.80
  -3   3  16   19.50    5.70
   2  -3 -16    5.10    3.30
  -2   3  16   16.00    5.60
  -2   3  16   16.40    5.50
  -2   3  16   18.70    5.70
  -2   3  16    8.90    4.10
   1  -3 -16   81.69   11.10
  -1   3  16   53.99    8.80
  -1   3  16  110.09   12.70
   0  -3 -16   -4.60    2.20
   0   3  16    1.30    2.20
   0   3  16   -0.10    2.90
  -1  -3 -16    0.70    3.00
   1   3  16    3.70    2.90
   1   3  16    0.50    3.10
  -2  -3 -16   57.19   10.00
   2   3  16   81.49   11.90
   2   3  16   80.79   10.30
  -3  -3 -16    3.60    4.20
   3   3  16    6.40    4.40
  -4  -3 -16    1.10    4.30
   4   3  16    7.70    5.10
  -5   4  16    2.80    4.90
  -5   4  16    4.70    4.10
  -5   4  16    5.90    5.00
   4  -4 -16   -0.50    3.20
  -4   4  16    0.60    3.40
  -4   4  16    8.20    4.90
  -4   4  16    6.30    3.60
  -4   4  16    3.00    3.80
   3  -4 -16   17.60    5.90
  -3   4  16   19.30    5.90
  -3   4  16    9.20    4.60
  -3   4  16   21.00    5.80
  -3   4  16   12.00    5.10
   2  -4 -16    5.50    3.40
  -2   4  16    0.80    3.20
  -2   4  16    1.00    3.00
  -2   4  16   -1.40    2.70
  -2   4  16    1.00    2.70
   1  -4 -16   23.50    6.60
  -1   4  16   27.40    7.40
  -1   4  16   32.60    6.90
   0  -4 -16   35.90    8.40
   0   4  16   31.00    7.10
   0   4  16   34.40    8.20
  -1  -4 -16    6.40    4.40
   1   4  16    9.00    5.00
   1   4  16    8.40    3.90
  -2  -4 -16   -2.30    2.70
   2   4  16   -0.40    3.80
  -3  -4 -16    6.70    5.60
   3   4  16    7.90    5.50
   4  -5 -16    0.70    3.70
  -4   5  16    2.00    3.50
  -4   5  16    4.00    4.60
  -4   5  16    8.40    4.90
  -4   5  16    2.40    4.20
   3  -5 -16    7.30    5.00
  -3   5  16    8.00    4.80
  -3   5  16    3.30    3.60
  -3   5  16    5.20    4.40
  -3   5  16   14.70    5.40
   2  -5 -16    9.00    5.80
  -2   5  16    8.30    4.80
  -2   5  16    4.90    4.50
  -2   5  16    1.90    3.50
   1  -5 -16    5.30    4.00
  -1   5  16   -1.20    3.60
  -1   5  16    1.60    3.80
  -1   5  16    2.50    4.60
   0  -5 -16    7.20    4.80
   0   5  16   10.00    5.00
   0   5  16   13.40    5.30
  -1  -5 -16    3.40    4.00
   1   5  16    3.60    4.30
  -1  -6  17    4.80    3.40
  -1  -6  17    1.50    5.20
   0  -6  17   25.60    6.50
   0  -6  17   12.90    5.50
   1  -6  17    2.70    3.80
   1  -6  17    1.60    3.40
   2  -6  17    6.20    4.40
   2  -6  17    8.50    5.30
   3  -6  17    3.30    3.60
   4  -6  17    3.00    3.70
  -2  -5  17    4.10    3.60
  -2  -5  17   14.20    5.40
  -1  -5  17    1.60    2.90
  -1  -5  17    0.70    3.70
   0  -5  17    1.70    3.10
   0  -5  17    3.60    3.80
   1  -5  17    4.30    3.70
   1  -5  17    4.60    4.10
   2  -5  17    3.40    3.40
   2  -5  17   15.80    5.30
   3  -5  17   -0.10    2.80
   4  -5  17    5.40    4.10
   5  -5  17   -0.80    3.00
  -4  -4  17    3.10    4.20
  -3  -4  17    2.70    4.00
  -3  -4  17    0.70    3.70
  -2  -4  17   -2.40    2.60
  -2  -4  17    0.70    3.30
  -2  -4  17    0.90    3.40
  -1  -4  17    9.80    4.70
  -1  -4  17   11.20    4.70
  -1  -4  17    3.70    3.40
   0  -4  17    2.00    2.80
   0  -4  17    2.80    3.30
   1  -4  17   30.70    6.90
   1  -4  17   54.89    8.90
   2  -4  17   38.40    7.20
   3  -4  17    1.40    2.40
   4  -4  17    4.00    3.90
  -5   4 -17   50.69    9.90
   5  -4  17   54.19    9.10
  -4  -3  17    6.10    4.20
  -4  -3  17   -5.10    3.30
  -3  -3  17   13.40    4.70
  -3  -3  17   12.20    5.70
  -3  -3  17    8.70    4.50
  -3  -3  17   14.60    5.50
  -2  -3  17    3.10    3.50
  -2  -3  17    1.90    3.40
  -2  -3  17    0.30    3.40
  -2  -3  17   -1.20    3.10
  -1  -3  17   23.80    6.40
  -1  -3  17   22.20    5.50
  -1  -3  17   36.10    7.10
  -1  -3  17   28.20    6.60
   0  -3  17   17.70    5.60
   0  -3  17   13.70    4.30
   0  -3  17    5.80    3.30
   1  -3  17   10.30    4.10
   1  -3  17    7.40    3.50
   2  -3  17    4.00    2.80
   3  -3  17    1.50    2.70
  -4   3 -17   17.00    5.50
   4  -3  17    9.00    4.60
  -5   3 -17   53.39    9.90
   5  -3  17   48.10    8.20
  -5  -2  17    5.00    5.10
  -5  -2  17    9.80    5.20
  -4  -2  17   12.40    5.40
  -4  -2  17   18.90    6.30
  -3  -2  17   60.99   10.10
  -3  -2  17   61.29    9.10
  -3  -2  17   54.69    9.40
  -2  -2  17   -4.20    2.50
  -2  -2  17    0.70    3.00
  -2  -2  17    0.90    2.40
  -2  -2  17   -1.70    2.40
  -1  -2  17   17.00    5.50
  -1  -2  17    8.70    4.00
  -1  -2  17   11.40    4.40
  -1  -2  17   12.00    5.30
   0  -2  17   78.29   10.30
   0  -2  17   80.49   10.30
   0  -2  17   84.89    9.90
   1  -2  17   12.90    4.80
   1  -2  17    4.80    3.20
   2  -2  17   -2.30    2.30
  -3   2 -17   17.70    5.30
   3  -2  17    8.50    4.00
  -4   2 -17   26.80    6.80
   4  -2  17   21.40    5.70
  -5   2 -17    1.50    3.80
  -5  -1  17   11.50    5.90
  -5  -1  17   15.90    5.80
  -4  -1  17    7.90    5.00
  -4  -1  17   13.80    5.80
  -4  -1  17   16.10    6.40
  -4  -1  17   11.50    5.00
  -3  -1  17   22.80    6.40
  -3  -1  17   20.50    6.50
  -3  -1  17   26.10    5.90
  -3  -1  17   19.60    5.90
  -2  -1  17   29.00    7.10
  -2  -1  17   36.50    7.80
  -2  -1  17   26.60    6.10
  -2  -1  17   29.40    6.20
  -1  -1  17    6.60    3.50
  -1  -1  17    4.50    3.40
  -1  -1  17    5.60    4.10
   0  -1  17   53.29    8.20
   0  -1  17   79.79    9.20
   0  -1  17   81.29   10.80
  -1   1 -17   23.90    5.70
   1  -1  17   33.70    6.60
   1  -1  17   35.60    6.90
  -2   1 -17    4.90    3.70
   2  -1  17    7.10    4.00
   2  -1  17    7.70    3.90
  -3   1 -17  115.79   13.00
   3  -1  17   91.59   10.90
   3  -1  17   98.89   12.30
  -4   1 -17   62.49   10.30
   4  -1  17   68.89    9.60
  -5   1 -17   14.60    6.00
  -5   0  17   26.70    7.40
  -5   0  17   22.80    8.60
  -5   0  17   28.50    8.00
  -4   0  17   45.00    8.00
  -4   0  17   34.50    8.00
  -4   0  17   39.80    8.70
  -4   0  17   29.80    7.70
  -3   0  17    7.00    4.20
  -3   0  17    2.20    2.90
  -3   0  17   10.70    5.30
  -3   0  17    7.40    4.30
  -2   0  17   35.80    7.10
  -2   0  17   12.20    4.60
  -2   0  17   44.40    8.70
  -1   0  17   48.60    7.80
  -1   0  17   50.49    8.70
  -1   0  17   48.00    7.80
   0   0 -17   10.00    3.70
   0   0  17    3.70    3.50
   0   0  17    0.00    2.40
  -1   0 -17   48.90    8.10
   1   0  17   48.80    8.50
   1   0  17   42.30    7.50
  -2   0 -17    9.00    4.20
   2   0  17    4.40    3.30
   2   0  17    3.20    4.00
  -3   0 -17   12.10    4.70
   3   0  17   19.30    6.10
   3   0  17   15.40    4.80
  -4   0 -17    8.40    5.00
   4   0  17    8.70    5.20
  -5   0 -17   27.00    7.40
  -6   1  17    1.80    4.70
  -5   1  17    1.10    3.80
  -5   1  17    1.50    3.40
  -5   1  17    4.50    3.80
  -4   1  17   34.90    7.90
  -4   1  17   28.60    6.70
  -4   1  17   24.10    7.10
  -4   1  17   21.50    6.60
  -3   1  17    3.70    3.30
  -3   1  17    2.90    3.40
  -3   1  17    2.70    3.50
  -2   1  17    9.10    3.90
  -2   1  17   13.00    5.00
  -2   1  17    7.90    3.90
   1  -1 -17   58.29    8.50
  -1   1  17   42.40    7.70
  -1   1  17   57.99    9.50
  -1   1  17   58.69    8.30
   0  -1 -17   17.90    5.10
   0   1  17   20.20    5.20
   0   1  17   26.50    6.40
  -1  -1 -17   27.20    6.20
   1   1  17   17.20    5.20
   1   1  17   22.50    6.10
  -2  -1 -17   67.09   10.40
   2   1  17   92.39   12.50
   2   1  17   69.89    9.70
  -3  -1 -17   40.20    8.50
   3   1  17   24.80    6.70
   3   1  17   40.30    7.40
  -4  -1 -17   11.40    5.30
   4   1  17   11.90    6.10
  -5  -1 -17   -0.80    4.20
   5   1  17    0.90    4.90
  -5   2  17    4.70    4.70
  -5   2  17    1.00    3.60
  -5   2  17   -0.40    3.00
  -4   2  17   17.00    5.90
  -4   2  17    8.70    4.30
  -4   2  17   15.40    5.90
  -4   2  17   10.80    4.50
  -3   2  17    0.90    2.80
  -3   2  17    2.00    3.30
  -3   2  17   -1.20    2.40
   2  -2 -17    0.70    3.00
  -2   2  17    4.30    3.30
  -2   2  17   -0.70    2.30
  -2   2  17    5.00    3.80
  -2   2  17    1.10    2.60
   1  -2 -17   33.60    7.30
  -1   2  17   21.80    5.30
  -1   2  17   19.80    6.50
   0  -2 -17   15.10    5.30
   0   2  17    7.80    4.00
   0   2  17    8.30    3.70
  -1  -2 -17    1.50    3.30
   1   2  17    1.80    3.00
   1   2  17   -0.80    2.70
  -2  -2 -17    9.90    4.60
   2   2  17   16.00    5.50
   2   2  17   11.30    5.40
  -3  -2 -17    1.50    3.90
   3   2  17    2.70    3.80
  -4  -2 -17    4.20    4.20
   4   2  17    3.10    4.20
  -5   3  17   12.00    5.40
  -5   3  17   33.10    7.90
  -5   3  17   26.80    7.00
   4  -3 -17   -0.40    2.80
  -4   3  17    4.30    4.10
  -4   3  17    6.50    4.20
  -4   3  17    0.50    3.30
   3  -3 -17   38.40    7.90
  -3   3  17   41.10    8.30
  -3   3  17   30.50    7.20
  -3   3  17   39.60    8.40
  -3   3  17   22.30    6.30
   2  -3 -17   20.40    6.10
  -2   3  17   10.80    5.50
  -2   3  17   12.90    5.00
  -2   3  17   17.80    5.20
  -2   3  17   12.90    4.80
   1  -3 -17    5.10    3.70
  -1   3  17    3.40    3.50
  -1   3  17    8.00    3.90
   0  -3 -17   18.30    5.70
   0   3  17   21.90    6.20
  -1  -3 -17    4.00    4.20
   1   3  17    5.70    4.70
   1   3  17   10.90    4.40
  -2  -3 -17    7.60    4.70
   2   3  17    4.10    4.30
   2   3  17   -1.30    2.70
  -3  -3 -17   42.90    9.10
   3   3  17   28.90    8.80
   4  -4 -17   -1.50    3.30
  -4   4  17   -2.40    3.30
  -4   4  17   -0.50    2.70
  -4   4  17   -0.30    3.50
  -4   4  17    1.30    4.90
   3  -4 -17   17.60    6.40
  -3   4  17   12.70    5.50
  -3   4  17   12.30    5.10
  -3   4  17   12.50    5.20
  -3   4  17   10.50    5.50
   2  -4 -17   19.40    6.20
  -2   4  17    8.40    3.90
  -2   4  17   18.90    6.20
  -2   4  17   14.00    5.60
   1  -4 -17    2.50    3.90
  -1   4  17   -1.90    2.80
  -1   4  17   10.60    4.20
   0  -4 -17   15.20    5.60
   0   4  17   31.30    7.00
   0   4  17   27.30    7.70
  -1  -4 -17    4.00    4.80
   1   4  17    0.20    2.90
   1   4  17    7.70    5.20
  -2  -4 -17   32.80    8.90
   2   4  17   54.39   11.00
   2  -5 -17   32.30    8.40
  -2   5  17   29.80    7.70
  -2   5  17   14.40    5.80
  -2   5  17    9.30    5.20
   1  -5 -17   25.40    7.50
  -1   5  17   26.70    7.80
  -1   5  17   15.80    5.40
  -1   5  17   20.40    6.60
   0  -6  18    6.20    4.00
   1  -6  18    7.60    4.70
   1  -6  18    5.70    4.20
   2  -6  18    6.60    4.30
   2  -6  18    5.00    4.10
  -2  -5  18    3.30    3.80
  -1  -5  18   -0.70    2.70
  -1  -5  18    2.10    3.40
   0  -5  18    5.90    3.50
   0  -5  18    8.90    4.50
   1  -5  18   -0.50    3.30
   1  -5  18    2.10    3.80
   2  -5  18   38.30    7.90
   3  -5  18   10.80    4.80
   4  -5  18    3.60    3.90
  -3  -4  18   22.00    6.80
  -2  -4  18   34.60    8.20
  -2  -4  18   19.10    6.40
  -2  -4  18   24.50    6.60
  -1  -4  18    6.30    3.70
  -1  -4  18    5.70    4.10
  -1  -4  18    0.10    3.30
   0  -4  18   37.90    7.50
   0  -4  18   35.60    7.20
   1  -4  18    2.80    3.50
   1  -4  18   -0.30    2.60
   2  -4  18   14.60    4.80
   3  -4  18    0.50    3.00
   4  -4  18    5.70    4.10
   5  -4  18    5.30    4.30
  -4  -3  18    7.40    5.00
  -3  -3  18    3.00    4.00
  -3  -3  18    0.00    3.40
  -3  -3  18    0.20    3.30
  -2  -3  18    8.30    4.50
  -2  -3  18    9.90    4.60
  -2  -3  18   12.30    5.20
  -2  -3  18    6.40    3.90
  -1  -3  18    4.50    3.30
  -1  -3  18    0.90    3.10
  -1  -3  18    1.20    3.20
  -1  -3  18    0.80    3.40
   0  -3  18    5.40    3.40
   0  -3  18   13.90    4.80
   0  -3  18   15.70    5.10
   1  -3  18   42.60    8.00
   1  -3  18   24.00    5.70
   2  -3  18   15.50    5.20
   3  -3  18    5.90    3.40
   4  -3  18   33.90    7.40
  -5   3 -18    3.70    4.10
   5  -3  18    5.40    4.20
  -4  -2  18   56.49   10.40
  -4  -2  18   45.60    9.80
  -3  -2  18    1.90    3.30
  -3  -2  18    2.00    3.90
  -3  -2  18    0.40    2.50
  -3  -2  18    4.90    3.70
  -2  -2  18    7.40    4.20
  -2  -2  18    3.20    3.40
  -2  -2  18    4.30    4.10
  -2  -2  18   -1.10    2.90
  -1  -2  18   11.40    4.50
  -1  -2  18    7.40    4.10
  -1  -2  18   13.80    5.80
  -1  -2  18   11.90    4.90
   0  -2  18    1.60    2.30
   0  -2  18    0.50    2.70
   0  -2  18    2.70    3.30
   1  -2  18   69.99    9.90
   1  -2  18   45.90    8.30
   2  -2  18   14.70    4.70
  -3   2 -18    1.40    3.30
   3  -2  18    1.50    2.70
  -4   2 -18    0.00    2.90
   4  -2  18    1.60    3.30
  -5   2 -18   33.40    8.20
  -5  -1  18   19.80    7.50
  -4  -1  18    8.60    4.80
  -4  -1  18   16.40    6.30
  -4  -1  18   10.10    5.10
  -3  -1  18    1.00    3.10
  -3  -1  18    3.50    4.10
  -3  -1  18    3.40    4.00
  -3  -1  18   -1.30    3.00
  -2  -1  18   11.70    4.80
  -2  -1  18   11.50    4.70
  -2  -1  18   15.20    5.70
  -2  -1  18   20.50    6.40
  -1  -1  18   58.79    8.80
  -1  -1  18   62.89   10.10
  -1  -1  18   54.19    8.70
   0  -1  18   13.00    4.30
   0  -1  18   21.10    6.00
   0  -1  18   16.90    5.20
   1  -1  18    6.40    4.00
   1  -1  18    9.80    4.40
  -2   1 -18   -3.20    2.50
   2  -1  18    1.50    3.20
   2  -1  18    4.90    3.30
  -3   1 -18    2.30    3.40
   3  -1  18    2.20    3.30
  -4   1 -18   15.00    6.00
   4  -1  18   21.80    6.00
  -5   1 -18   19.20    6.80
  -5   0  18    8.20    5.20
  -4   0  18    5.40    4.90
  -4   0  18    6.40    4.40
  -4   0  18    3.00    3.60
  -3   0  18   15.90    6.30
  -3   0  18   24.10    6.40
  -3   0  18   13.40    5.60
  -3   0  18   21.80    6.40
  -2   0  18   23.00    5.90
  -2   0  18   11.20    4.30
  -2   0  18   21.90    6.20
  -1   0  18   24.10    6.80
  -1   0  18   34.60    7.20
  -1   0  18   30.90    6.50
   0   0  18   38.20    7.40
   0   0  18   30.20    7.30
  -1   0 -18    4.90    3.60
   1   0  18    1.80    2.60
   1   0  18    1.40    3.20
  -2   0 -18   -0.10    2.80
   2   0  18   -3.40    2.00
   2   0  18    0.00    2.60
  -3   0 -18    5.80    4.30
   3   0  18    1.00    3.20
   3   0  18    8.50    4.50
  -4   0 -18    8.00    5.10
   4   0  18    9.70    5.70
  -5   1  18   51.69   10.50
  -5   1  18   33.60    7.60
  -4   1  18   -1.40    3.40
  -4   1  18    1.30    4.30
  -4   1  18    0.20    2.80
  -3   1  18   28.80    7.10
  -3   1  18   27.30    6.90
  -3   1  18   29.30    7.40
  -2   1  18   15.70    5.60
  -2   1  18   14.10    5.20
  -2   1  18   14.40    5.40
   1  -1 -18    0.00    2.80
  -1   1  18    4.20    3.30
  -1   1  18    2.80    2.80
  -1   1  18    6.40    4.50
   0  -1 -18   75.29   10.30
   0   1  18  104.49   11.90
   0   1  18   65.19   10.70
  -1  -1 -18    1.50    3.00
   1   1  18    3.90    3.50
   1   1  18    2.40    3.80
  -2  -1 -18   28.70    6.90
   2   1  18   29.30    7.00
   2   1  18   17.00    6.40
  -3  -1 -18   70.59   11.40
   3   1  18   66.59   11.00
   3   1  18   46.80    8.30
  -4  -1 -18   26.00    7.60
   4   1  18   43.10    9.20
  -5   2  18   38.90    9.50
  -5   2  18   21.50    6.20
  -4   2  18    6.00    4.50
  -4   2  18    1.30    3.90
  -4   2  18   14.90    5.70
  -3   2  18    5.20    3.60
  -3   2  18    4.90    4.90
  -3   2  18    6.10    4.10
   2  -2 -18   64.59    9.60
  -2   2  18   62.19    9.70
  -2   2  18   74.59   11.70
  -2   2  18   53.69    9.20
  -2   2  18   75.99   10.60
   1  -2 -18   20.70    6.00
  -1   2  18   22.60    6.20
  -1   2  18   13.30    5.60
   0  -2 -18   30.70    7.40
   0   2  18   41.20    7.80
   0   2  18   37.90    8.30
  -1  -2 -18   19.40    6.10
   1   2  18   24.00    6.20
   1   2  18   19.90    6.90
  -2  -2 -18   54.09   10.00
   2   2  18   55.59   10.50
   2   2  18   25.70    6.30
  -3  -2 -18   54.69   10.00
   3   2  18   87.99   13.80
  -4   3  18   10.00    5.10
  -4   3  18    8.50    4.90
  -4   3  18   10.90    5.80
   3  -3 -18   -0.10    3.50
  -3   3  18    6.00    4.30
  -3   3  18    1.30    3.00
  -3   3  18    2.30    4.30
  -3   3  18    4.70    4.20
   2  -3 -18   34.30    7.60
  -2   3  18   49.10    8.70
  -2   3  18   30.90    6.70
  -2   3  18   44.10    9.20
   1  -3 -18   49.00    9.40
  -1   3  18   46.00    9.50
  -1   3  18   52.79    9.20
   0  -3 -18    0.70    3.10
   0   3  18    5.90    4.60
   0   3  18   -1.10    2.60
  -1  -3 -18   10.20    4.90
   1   3  18    7.40    5.50
   1   3  18    2.70    3.40
  -2  -3 -18   16.60    6.40
   2   3  18    3.40    4.20
   3  -4 -18    3.60    4.60
  -3   4  18   10.40    5.80
  -3   4  18    3.30    4.00
  -3   4  18    6.60    4.90
  -3   4  18   18.40    7.10
   2  -4 -18    7.30    4.80
  -2   4  18    7.10    5.00
  -2   4  18   25.10    7.00
  -2   4  18    0.20    3.40
   1  -4 -18    3.00    3.70
  -1   4  18    3.00    3.30
  -1   4  18   -2.20    3.50
  -1   4  18    7.80    5.10
   0  -4 -18   -3.00    2.90
   0   4  18    5.50    4.00
   0   4  18    8.50    5.30
  -1  -5  19   10.90    4.50
   0  -5  19    7.20    4.30
   0  -5  19    6.10    4.40
   1  -5  19    6.70    4.70
   1  -5  19    3.60    4.00
   2  -5  19    1.60    3.60
   3  -5  19    6.50    4.60
  -2  -4  19    8.70    4.90
  -2  -4  19   12.60    6.30
  -1  -4  19   11.20    5.30
  -1  -4  19    4.70    4.30
   0  -4  19   10.60    4.40
   0  -4  19   10.80    4.80
   1  -4  19    2.60    3.50
   1  -4  19    1.20    3.20
   2  -4  19    8.90    4.40
   3  -4  19    2.50    3.70
   4  -4  19   15.10    5.70
  -3  -3  19   17.30    7.90
  -3  -3  19   16.90    5.60
  -3  -3  19    7.60    5.50
  -2  -3  19    2.70    3.50
  -2  -3  19    4.80    4.20
  -2  -3  19    0.40    3.20
  -1  -3  19    5.90    4.10
  -1  -3  19    5.10    4.30
  -1  -3  19    4.50    3.80
   0  -3  19   22.30    6.10
   0  -3  19   15.50    5.80
   0  -3  19   15.10    5.60
   1  -3  19    5.40    3.70
   2  -3  19   26.40    6.10
   3  -3  19    3.50    3.70
   4  -3  19    4.30    3.90
  -4  -2  19   67.59   11.60
  -3  -2  19   34.30    8.60
  -3  -2  19   41.60    8.50
  -2  -2  19    3.10    4.20
  -2  -2  19   -2.20    4.00
  -2  -2  19    5.20    3.80
  -2  -2  19    4.70    4.30
  -1  -2  19   24.30    6.70
  -1  -2  19   67.19   10.20
  -1  -2  19   59.59   10.20
  -1  -2  19   60.69    9.30
   0  -2  19   84.19   11.40
   0  -2  19   60.29    8.80
   0  -2  19   78.59   11.50
   1  -2  19    2.10    3.40
   2  -2  19   22.90    6.40
   3  -2  19   17.80    5.50
  -4   2 -19   75.29   11.60
   4  -2  19   64.29   10.40
  -4  -1  19   28.80    8.20
  -4  -1  19   17.40    6.60
  -4  -1  19   14.00    5.30
  -3  -1  19    2.30    3.90
  -3  -1  19    6.50    4.50
  -3  -1  19   -1.70    3.80
  -2  -1  19    1.50    3.20
  -2  -1  19   -0.90    3.10
  -2  -1  19    0.30    3.20
  -2  -1  19   -1.00    3.20
  -1  -1  19   26.60    6.10
  -1  -1  19   18.80    6.10
  -1  -1  19   17.60    5.70
   0  -1  19   65.89   10.90
   0  -1  19   57.59    9.60
   1  -1  19   24.20    6.70
   1  -1  19   14.90    5.80
  -2   1 -19   -0.60    3.50
   2  -1  19   -1.80    3.00
   2  -1  19   -2.10    3.10
  -3   1 -19    6.20    4.60
   3  -1  19    9.70    4.50
  -4   1 -19   15.10    6.10
   4  -1  19   22.10    6.90
  -4   0  19   66.99   11.10
  -4   0  19   44.90   10.00
  -4   0  19   55.49    9.30
  -3   0  19    7.70    4.50
  -3   0  19   -0.90    4.00
  -3   0  19   -2.60    3.10
  -2   0  19    6.80    4.90
  -2   0  19    5.30    4.10
  -2   0  19    4.50    3.60
  -1   0  19   70.49   10.90
  -1   0  19   58.69    9.50
  -1   0  19   47.60    8.10
   0   0  19    0.20    2.80
   0   0  19    6.40    4.60
  -1   0 -19   96.49   12.00
   1   0  19   79.99   11.20
   1   0  19   74.49   11.50
  -2   0 -19    1.20    3.80
   2   0  19    3.10    3.70
   2   0  19    8.60    5.00
  -3   0 -19  136.89   15.90
   3   0  19  145.29   14.80
   3   0  19  112.79   14.20
  -4   0 -19   60.79   10.70
   4   0  19   69.29   12.50
  -4   1  19   22.60    7.70
  -4   1  19    4.00    4.80
  -4   1  19    9.70    4.70
  -3   1  19   -1.20    2.90
  -3   1  19    0.30    4.20
  -3   1  19   -2.20    3.30
  -2   1  19   46.20    8.10
  -2   1  19   45.20    8.10
  -2   1  19   62.79   11.10
  -1   1  19  155.18   17.10
  -1   1  19  139.99   14.60
   0  -1 -19   10.80    5.00
   0   1  19   17.40    5.30
   0   1  19    9.30    4.50
  -1  -1 -19    7.80    4.40
   1   1  19    9.60    4.60
   1   1  19   17.50    6.20
  -2  -1 -19    3.00    3.30
   2   1  19    2.50    3.70
   2   1  19    1.90    3.70
  -3  -1 -19   -2.10    3.50
   3   1  19    1.20    4.10
  -4   2  19    1.20    4.50
  -4   2  19   -2.30    3.70
  -4   2  19    2.10    4.10
  -3   2  19    0.20    4.40
  -3   2  19   -0.70    3.20
  -3   2  19   -3.50    3.20
  -2   2  19    1.20    3.30
  -2   2  19    0.20    2.50
  -2   2  19   -1.00    4.10
   1  -2 -19    3.90    3.60
  -1   2  19    1.80    3.40
  -1   2  19    2.90    3.90
   0  -2 -19   -2.70    3.20
   0   2  19   -3.00    3.40
   0   2  19    0.60    3.10
  -1  -2 -19    0.40    3.80
   1   2  19    2.30    4.30
   1   2  19    2.30    3.90
  -2  -2 -19   31.80    8.00
   2   2  19   38.00    9.70
   2   2  19   35.90    7.80
   3  -3 -19   10.50    5.60
  -3   3  19   16.90    6.30
  -3   3  19   21.40    7.20
  -3   3  19    6.00    4.00
   2  -3 -19   43.60    8.80
  -2   3  19   41.50    8.90
  -2   3  19   41.50    8.90
  -2   3  19   38.60    8.20
   1  -3 -19   -0.70    3.50
  -1   3  19    4.70    4.10
  -1   3  19   -0.30    2.80
   0  -3 -19   35.80    8.60
   0   3  19   36.90    8.80
   0   3  19   15.60    5.30
  -1  -3 -19    7.70    5.60
   1   3  19   -1.40    4.70
   1   3  19   -0.10    3.40
  -1  -4  20   -3.00    3.80
  -1  -4  20   -3.30    2.70
   0  -4  20    5.40    4.50
   0  -4  20   12.50    5.30
   1  -4  20   16.20    5.20
   2  -4  20    9.60    4.50
  -2  -3  20   10.60    5.10
  -2  -3  20   21.00    7.40
  -2  -3  20   18.20    6.60
  -1  -3  20    7.50    4.50
  -1  -3  20    2.80    3.90
   0  -3  20   71.39   11.10
   0  -3  20   56.39   10.20
   0  -3  20   66.79   10.20
   1  -3  20   44.10    8.30
   2  -3  20    1.90    3.00
   3  -3  20   -1.60    2.70
  -3  -2  20    3.70    4.50
  -3  -2  20    4.70    4.50
  -2  -2  20    2.90    3.80
  -2  -2  20   11.20    6.20
  -2  -2  20    4.90    4.50
  -1  -2  20    1.40    3.60
  -1  -2  20    2.10    4.50
  -1  -2  20    4.50    3.60
   0  -2  20    7.30    4.70
   0  -2  20    0.20    3.30
   1  -2  20   -1.80    2.80
   2  -2  20    6.50    3.90
   3  -2  20    2.90    3.70
  -3  -1  20   21.10    6.20
  -3  -1  20   28.70    8.70
  -3  -1  20   61.79   11.30
  -2  -1  20   -2.20    2.90
  -2  -1  20    5.40    5.10
  -2  -1  20    5.30    3.90
  -1  -1  20   26.80    7.00
  -1  -1  20   41.80    7.60
  -1  -1  20   49.80    9.20
   0  -1  20  109.79   14.20
   0  -1  20   80.49   11.40
   1  -1  20    6.70    4.60
   1  -1  20    1.90    3.40
   2  -1  20   27.20    7.80
   2  -1  20   13.80    5.70
  -3   1 -20   22.40    7.40
   3  -1  20    5.90    4.20
  -3   0  20    1.80    4.30
  -3   0  20    5.50    3.90
  -3   0  20   11.00    6.20
  -2   0  20    1.70    3.70
  -2   0  20    6.50    4.10
  -2   0  20    6.50    5.60
  -1   0  20   18.20    6.00
  -1   0  20   21.90    7.20
   0   0  20    3.00    3.40
   0   0  20    3.10    4.00
   1   0  20   37.70    8.60
   1   0  20   33.00    7.60
  -2   0 -20   26.60    7.20
   2   0  20   33.10    8.30
  -3   0 -20    0.50    4.00
   3   0  20    2.70    4.60
   3   0  20   10.80    5.10
  -3   1  20    8.70    4.80
  -3   1  20   23.10    7.20
  -3   1  20   18.40    6.60
  -2   1  20    4.70    4.20
  -2   1  20    1.80    3.50
  -2   1  20   -2.70    3.50
  -1   1  20    1.90    4.20
  -1   1  20    6.60    4.80
   0  -1 -20    6.40    4.30
   0   1  20    2.70    5.00
   0   1  20    8.50    4.80
  -1  -1 -20   -0.30    3.00
   1   1  20    1.20    3.80
   1   1  20    9.70    4.90
  -2  -1 -20   13.80    5.50
   2   1  20   10.50    5.40
   2   1  20    9.80    5.20
  -2   2  20   -1.90    2.90
  -2   2  20    2.10    4.40
   1  -2 -20    1.00    3.70
  -1   2  20   -6.50    2.80
  -1   2  20   -0.50    3.00
   0  -2 -20   35.50    8.40
   0   2  20   20.00    6.10
   0   2  20   13.70    6.50
  -1  -2 -20   42.40    9.20
   1   2  20   44.00    8.70
   1   2  20   29.30    8.30
   0  -3  21    8.60    4.60
   1  -3  21    1.80    3.50
  -1  -2  21    1.00    3.60
  -1  -2  21    1.70    4.60
  -1  -2  21    0.50    3.80
   0  -2  21    2.50    3.20
   1  -2  21   11.30    4.90
   2  -2  21   45.50    9.10
  -2  -1  21   10.70    6.60
  -2  -1  21   14.50    5.50
  -2  -1  21    9.40    5.20
  -1  -1  21   -1.20    3.60
  -1  -1  21    1.60    4.10
   0  -1  21    4.40    4.70
   0  -1  21    3.70    3.60
   1  -1  21   10.80    5.10
   1  -1  21   17.10    6.00
   2  -1  21    9.30    5.40
  -2   0  21   11.80    5.90
  -2   0  21   12.00    5.50
  -2   0  21    5.40    5.10
  -1   0  21   35.50    9.50
  -1   0  21    9.20    4.80
   0   0  21   27.80    7.30
   1   0  21   17.50    7.50
   1   0  21   12.50    4.70
  -1   1  21    2.30    4.10
  -1   1  21    3.40    3.70
   0   1  21    9.10    4.20
   0   1  21    1.20    4.10
   0   0   0    0.00    0.00

_computing_structure_solution     'SHELXT 2014/5 (Sheldrick, 2014)'
;
_shelx_hkl_checksum              7232
loop_
_space_group_symop_operation_xyz
'x, y, z'
'-x, -y, -z'
loop_
_atom_site_label
_atom_site_type_symbol
_atom_site_fract_x
_atom_site_fract_y
_atom_site_fract_z
_atom_site_U_iso_or_equiv
_atom_site_adp_type
_atom_site_occupancy
_atom_site_site_symmetry_order
_atom_site_calc_flag
_atom_site_refinement_flags_posn
_atom_site_refinement_flags_adp
_atom_site_refinement_flags_occupancy
_atom_site_disorder_assembly
_atom_site_disorder_group
S001 S 0.32720(7) 0.60278(9) 0.21857(3) 0.0472(2) Uani 1 1 d . . . . .
O002 O 0.4767(2) 0.8410(2) 0.79056(9) 0.0499(4) Uani 1 1 d . . . . .
O003 O 0.0696(2) 0.5464(3) 0.33431(11) 0.0602(5) Uani 1 1 d . . . . .
N004 N 0.7229(2) 0.8139(2) 0.45403(10) 0.0375(4) Uani 1 1 d . . . . .
C005 C 0.5960(3) 0.7476(3) 0.38691(12) 0.0349(4) Uani 1 1 d . . . . .
C006 C 0.3896(3) 0.6777(3) 0.39859(12) 0.0352(4) Uani 1 1 d . . . . .
C007 C 0.5820(3) 0.7023(3) 0.22621(12) 0.0369(4) Uani 1 1 d . . . . .
C008 C 0.4497(3) 0.7471(3) 0.55253(12) 0.0359(4) Uani 1 1 d . . . . .
C009 C 0.6537(3) 0.8150(3) 0.53518(12) 0.0356(4) Uani 1 1 d . . . . .
C00A C 0.7883(3) 0.8863(3) 0.60631(13) 0.0431(5) Uani 1 1 d . . . . .
H00A H 0.922013 0.930038 0.596647 0.052 Uiso 1 1 calc R U . . .
C00B C 0.6766(3) 0.7204(3) 0.14114(12) 0.0386(4) Uani 1 1 d . . . . .
C00C C 0.6813(3) 0.7562(3) 0.30256(12) 0.0383(4) Uani 1 1 d . . . . .
C00D C 0.3187(3) 0.6785(3) 0.48074(13) 0.0392(4) Uani 1 1 d . . . . .
C00E C 0.2465(3) 0.6066(3) 0.32622(13) 0.0412(4) Uani 1 1 d . . . . .
C00F C 0.8711(3) 0.7111(3) 0.13238(14) 0.0483(5) Uani 1 1 d . . . . .
H00F H 0.941980 0.691797 0.179929 0.058 Uiso 1 1 calc R U . . .
C00G C 0.5200(3) 0.8249(3) 0.70533(12) 0.0409(4) Uani 1 1 d . . . . .
C00H C 0.3857(3) 0.7530(3) 0.63868(13) 0.0402(4) Uani 1 1 d . . . . .
H00H H 0.252819 0.708114 0.649863 0.048 Uiso 1 1 calc R U . . .
C00I C 0.7235(3) 0.8911(3) 0.68844(13) 0.0448(5) Uani 1 1 d . . . . .
H00I H 0.813692 0.938494 0.734550 0.054 Uiso 1 1 calc R U . . .
C00J C 0.5764(4) 0.7497(4) 0.06899(14) 0.0575(6) Uani 1 1 d . . . . .
H00J H 0.446239 0.757315 0.073413 0.069 Uiso 1 1 calc R U . . .
C00K C 0.2750(4) 0.7800(4) 0.81107(15) 0.0548(6) Uani 1 1 d . . . . .
H00B H 0.262526 0.797964 0.872765 0.082 Uiso 1 1 calc R U . . .
H00C H 0.201803 0.856761 0.784195 0.082 Uiso 1 1 calc R U . . .
H00D H 0.224467 0.643920 0.790102 0.082 Uiso 1 1 calc R U . . .
C00L C 0.8582(4) 0.7579(4) -0.01737(15) 0.0627(7) Uani 1 1 d . . . . .
H00L H 0.918962 0.769746 -0.070352 0.075 Uiso 1 1 calc R U . . .
C00M C 0.9600(4) 0.7304(4) 0.05355(17) 0.0620(6) Uani 1 1 d . . . . .
H00M H 1.090573 0.724515 0.048573 0.074 Uiso 1 1 calc R U . . .
C00N C 0.6674(4) 0.7679(4) -0.00987(15) 0.0664(7) Uani 1 1 d . . . . .
H00N H 0.597819 0.787089 -0.057869 0.080 Uiso 1 1 calc R U . . .
loop_
_atom_site_aniso_label
_atom_site_aniso_U_11
_atom_site_aniso_U_22
_atom_site_aniso_U_33
_atom_site_aniso_U_23
_atom_site_aniso_U_13
_atom_site_aniso_U_12
S001 0.0346(3) 0.0668(4) 0.0360(3) -0.0030(2) -0.0063(2) 0.0089(2)
O002 0.0512(9) 0.0654(10) 0.0318(7) 0.0051(6) 0.0028(6) 0.0120(7)
O003 0.0320(8) 0.0876(12) 0.0518(9) -0.0025(8) -0.0030(7) 0.0021(8)
N004 0.0315(8) 0.0443(8) 0.0333(8) 0.0037(6) -0.0024(6) 0.0034(7)
C005 0.0319(9) 0.0358(9) 0.0358(9) 0.0032(7) -0.0023(7) 0.0068(7)
C006 0.0293(9) 0.0367(9) 0.0381(9) 0.0020(7) -0.0044(7) 0.0063(7)
C007 0.0348(10) 0.0410(9) 0.0355(9) 0.0021(7) -0.0012(7) 0.0114(8)
C008 0.0354(10) 0.0350(9) 0.0363(9) 0.0046(7) -0.0012(7) 0.0070(7)
C009 0.0342(9) 0.0364(9) 0.0349(9) 0.0048(7) -0.0010(7) 0.0062(7)
C00A 0.0343(10) 0.0522(11) 0.0386(10) 0.0038(8) -0.0048(8) 0.0035(8)
C00B 0.0403(10) 0.0392(9) 0.0345(9) 0.0010(7) -0.0029(8) 0.0082(8)
C00C 0.0340(9) 0.0445(10) 0.0354(9) 0.0047(7) -0.0019(7) 0.0078(8)
C00D 0.0335(10) 0.0416(10) 0.0402(10) 0.0025(8) -0.0013(8) 0.0060(8)
C00E 0.0316(9) 0.0494(11) 0.0405(10) -0.0002(8) -0.0040(8) 0.0085(8)
C00F 0.0413(11) 0.0607(13) 0.0449(11) 0.0102(9) 0.0027(9) 0.0149(10)
C00G 0.0482(12) 0.0416(10) 0.0334(9) 0.0060(7) 0.0018(8) 0.0115(9)
C00H 0.0378(10) 0.0422(10) 0.0392(10) 0.0063(8) 0.0029(8) 0.0067(8)
C00I 0.0426(11) 0.0513(11) 0.0371(10) 0.0033(8) -0.0069(8) 0.0063(9)
C00J 0.0486(13) 0.0881(18) 0.0382(11) 0.0082(11) -0.0033(9) 0.0214(12)
C00K 0.0583(14) 0.0586(13) 0.0441(12) 0.0071(10) 0.0126(10) 0.0074(11)
C00L 0.0644(16) 0.0785(17) 0.0396(12) 0.0062(11) 0.0106(11) 0.0075(13)
C00M 0.0455(13) 0.0836(18) 0.0579(14) 0.0131(12) 0.0133(11) 0.0156(12)
C00N 0.0631(16) 0.099(2) 0.0350(11) 0.0112(12) -0.0061(10) 0.0158(14)
loop_
_atom_type_symbol
_atom_type_description
_atom_type_scat_dispersion_real
_atom_type_scat_dispersion_imag
_atom_type_scat_source
C C 0.0033 0.0016 'International Tables Vol C Tables 4.2.6.8 and 6.1.1.4'
H H 0.0000 0.0000 'International Tables Vol C Tables 4.2.6.8 and 6.1.1.4'
N N 0.0061 0.0033 'International Tables Vol C Tables 4.2.6.8 and 6.1.1.4'
O O 0.0106 0.0060 'International Tables Vol C Tables 4.2.6.8 and 6.1.1.4'
S S 0.1246 0.1234 'International Tables Vol C Tables 4.2.6.8 and 6.1.1.4'
Cl Cl 0.1484 0.1585 'International Tables Vol C Tables 4.2.6.8 and 6.1.1.4'
loop_
_geom_angle_atom_site_label_1
_geom_angle_atom_site_label_2
_geom_angle_atom_site_label_3
_geom_angle
_geom_angle_site_symmetry_1
_geom_angle_site_symmetry_3
_geom_angle_publ_flag
C007 S001 C00E 105.88(9) . . ?
C00G O002 C00K 116.93(17) . . ?
C005 N004 C009 118.94(16) . . ?
N004 C005 C006 121.75(16) . . ?
N004 C005 C00C 115.41(16) . . ?
C006 C005 C00C 122.82(16) . . ?
C00D C006 C005 119.50(16) . . ?
C00D C006 C00E 117.50(17) . . ?
C005 C006 C00E 123.00(17) . . ?
C00C C007 C00B 123.61(17) . . ?
C00C C007 S001 122.46(15) . . ?
C00B C007 S001 113.93(13) . . ?
C00D C008 C00H 122.47(18) . . ?
C00D C008 C009 117.16(17) . . ?
C00H C008 C009 120.36(17) . . ?
N004 C009 C00A 118.90(17) . . ?
N004 C009 C008 122.85(17) . . ?
C00A C009 C008 118.25(17) . . ?
C00I C00A C009 120.40(19) . . ?
C00I C00A H00A 119.8 . . ?
C009 C00A H00A 119.8 . . ?
C00F C00B C00J 118.05(19) . . ?
C00F C00B C007 120.36(18) . . ?
C00J C00B C007 121.59(18) . . ?
C007 C00C C005 125.84(18) . . ?
C006 C00D C008 119.80(17) . . ?
O003 C00E C006 124.38(18) . . ?
O003 C00E S001 115.68(15) . . ?
C006 C00E S001 119.94(14) . . ?
C00M C00F C00B 120.4(2) . . ?
C00M C00F H00F 119.8 . . ?
C00B C00F H00F 119.8 . . ?
O002 C00G C00H 125.11(19) . . ?
O002 C00G C00I 114.56(18) . . ?
C00H C00G C00I 120.34(18) . . ?
C00G C00H C008 119.51(18) . . ?
C00G C00H H00H 120.2 . . ?
C008 C00H H00H 120.2 . . ?
C00A C00I C00G 121.13(19) . . ?
C00A C00I H00I 119.4 . . ?
C00G C00I H00I 119.4 . . ?
C00N C00J C00B 120.9(2) . . ?
C00N C00J H00J 119.6 . . ?
C00B C00J H00J 119.6 . . ?
O002 C00K H00B 109.5 . . ?
O002 C00K H00C 109.5 . . ?
H00B C00K H00C 109.5 . . ?
O002 C00K H00D 109.5 . . ?
H00B C00K H00D 109.5 . . ?
H00C C00K H00D 109.5 . . ?
C00N C00L C00M 119.6(2) . . ?
C00N C00L H00L 120.2 . . ?
C00M C00L H00L 120.2 . . ?
C00L C00M C00F 120.8(2) . . ?
C00L C00M H00M 119.6 . . ?
C00F C00M H00M 119.6 . . ?
C00L C00N C00J 120.3(2) . . ?
C00L C00N H00N 119.9 . . ?
C00J C00N H00N 119.9 . . ?
loop_
_geom_bond_atom_site_label_1
_geom_bond_atom_site_label_2
_geom_bond_distance
_geom_bond_site_symmetry_2
_geom_bond_publ_flag
S001 C007 1.749(2) . ?
S001 C00E 1.767(2) . ?
O002 C00G 1.358(2) . ?
O002 C00K 1.421(3) . ?
O003 C00E 1.219(2) . ?
N004 C005 1.334(2) . ?
N004 C009 1.352(2) . ?
C005 C006 1.428(3) . ?
C005 C00C 1.443(3) . ?
C006 C00D 1.370(3) . ?
C006 C00E 1.464(3) . ?
C007 C00C 1.342(3) . ?
C007 C00B 1.484(3) . ?
C008 C00D 1.406(3) . ?
C008 C00H 1.412(3) . ?
C008 C009 1.428(3) . ?
C009 C00A 1.415(3) . ?
C00A C00I 1.355(3) . ?
C00A H00A 0.9300 . ?
C00B C00F 1.389(3) . ?
C00B C00J 1.383(3) . ?
C00F C00M 1.380(3) . ?
C00F H00F 0.9300 . ?
C00G C00H 1.364(3) . ?
C00G C00I 1.422(3) . ?
C00H H00H 0.9300 . ?
C00I H00I 0.9300 . ?
C00J C00N 1.386(3) . ?
C00J H00J 0.9300 . ?
C00K H00B 0.9600 . ?
C00K H00C 0.9600 . ?
C00K H00D 0.9600 . ?
C00L C00N 1.363(4) . ?
C00L C00M 1.368(4) . ?
C00L H00L 0.9300 . ?
C00M H00M 0.9300 . ?
C00N H00N 0.9300 . ?
loop_
_geom_torsion_atom_site_label_1
_geom_torsion_atom_site_label_2
_geom_torsion_atom_site_label_3
_geom_torsion_atom_site_label_4
_geom_torsion
_geom_torsion_site_symmetry_1
_geom_torsion_site_symmetry_2
_geom_torsion_site_symmetry_3
_geom_torsion_site_symmetry_4
_geom_torsion_publ_flag
C009 N004 C005 C006 -0.1(3) . . . . ?
C009 N004 C005 C00C 178.45(16) . . . . ?
N004 C005 C006 C00D 0.1(3) . . . . ?
C00C C005 C006 C00D -178.37(17) . . . . ?
N004 C005 C006 C00E 179.13(18) . . . . ?
C00C C005 C006 C00E 0.7(3) . . . . ?
C00E S001 C007 C00C 3.0(2) . . . . ?
C00E S001 C007 C00B -177.21(13) . . . . ?
C005 N004 C009 C00A -179.72(17) . . . . ?
C005 N004 C009 C008 0.3(3) . . . . ?
C00D C008 C009 N004 -0.5(3) . . . . ?
C00H C008 C009 N004 -179.58(17) . . . . ?
C00D C008 C009 C00A 179.52(17) . . . . ?
C00H C008 C009 C00A 0.5(3) . . . . ?
N004 C009 C00A C00I 179.39(18) . . . . ?
C008 C009 C00A C00I -0.7(3) . . . . ?
C00C C007 C00B C00F 28.6(3) . . . . ?
S001 C007 C00B C00F -151.26(17) . . . . ?
C00C C007 C00B C00J -150.5(2) . . . . ?
S001 C007 C00B C00J 29.7(2) . . . . ?
C00B C007 C00C C005 177.87(17) . . . . ?
S001 C007 C00C C005 -2.3(3) . . . . ?
N004 C005 C00C C007 -178.28(18) . . . . ?
C006 C005 C00C C007 0.2(3) . . . . ?
C005 C006 C00D C008 -0.3(3) . . . . ?
C00E C006 C00D C008 -179.38(17) . . . . ?
C00H C008 C00D C006 179.51(17) . . . . ?
C009 C008 C00D C006 0.5(3) . . . . ?
C00D C006 C00E O003 -0.8(3) . . . . ?
C005 C006 C00E O003 -179.91(19) . . . . ?
C00D C006 C00E S001 179.63(14) . . . . ?
C005 C006 C00E S001 0.5(3) . . . . ?
C007 S001 C00E O003 178.33(16) . . . . ?
C007 S001 C00E C006 -2.08(19) . . . . ?
C00J C00B C00F C00M -0.1(3) . . . . ?
C007 C00B C00F C00M -179.2(2) . . . . ?
C00K O002 C00G C00H -0.8(3) . . . . ?
C00K O002 C00G C00I 178.98(18) . . . . ?
O002 C00G C00H C008 178.95(17) . . . . ?
C00I C00G C00H C008 -0.9(3) . . . . ?
C00D C008 C00H C00G -178.71(18) . . . . ?
C009 C008 C00H C00G 0.3(3) . . . . ?
C009 C00A C00I C00G 0.1(3) . . . . ?
O002 C00G C00I C00A -179.15(18) . . . . ?
C00H C00G C00I C00A 0.7(3) . . . . ?
C00F C00B C00J C00N 0.4(4) . . . . ?
C007 C00B C00J C00N 179.5(2) . . . . ?
C00N C00L C00M C00F 0.5(4) . . . . ?
C00B C00F C00M C00L -0.3(4) . . . . ?
C00M C00L C00N C00J -0.2(4) . . . . ?
C00B C00J C00N C00L -0.3(4) . . . . ?
