#------------------------------------------------------------------------------
#$Date: 2022-09-14 03:30:26 +0300 (Wed, 14 Sep 2022) $
#$Revision: 277822 $
#$URL: file:///home/coder/svn-repositories/cod/cif/7/15/88/7158883.cif $
#------------------------------------------------------------------------------
#
# This file is available in the Crystallography Open Database (COD),
# http://www.crystallography.net/
#
# All data on this site have been placed in the public domain by the
# contributors.
#
data_7158883
loop_
_publ_author_name
'Soundarya, Palanisamy'
'Sekar, Govindasamy'
_publ_section_title
;
 Cu-Catalyzed and iodine mediated synthesis of thioaurones via in situ
 C--S bond generation using xanthate as a sulfur surrogate
;
_journal_name_full               'Organic &amp; Biomolecular Chemistry'
_journal_paper_doi               10.1039/D2OB01211A
_journal_year                    2022
_chemical_formula_sum            'C16 H12 O S'
_chemical_formula_weight         252.32
_space_group_crystal_system      triclinic
_space_group_IT_number           2
_space_group_name_Hall           '-P 1'
_space_group_name_H-M_alt        'P -1'
_atom_sites_solution_hydrogens   geom
_audit_creation_method           SHELXL-2014/7
_audit_update_record
;
2022-01-17 deposited with the CCDC.	2022-09-06 downloaded from the CCDC.
;
_cell_angle_alpha                84.539(9)
_cell_angle_beta                 79.040(9)
_cell_angle_gamma                76.596(9)
_cell_formula_units_Z            2
_cell_length_a                   7.0327(12)
_cell_length_b                   7.7486(14)
_cell_length_c                   11.892(2)
_cell_measurement_reflns_used    1386
_cell_measurement_temperature    296(2)
_cell_measurement_theta_max      21.60
_cell_measurement_theta_min      2.71
_cell_volume                     618.00(19)
_computing_cell_refinement       'Bruker SAINT'
_computing_data_collection       'Bruker APEX2'
_computing_data_reduction        'Bruker SAINT'
_computing_molecular_graphics    'Bruker SHELXTL'
_computing_publication_material  'Bruker SHELXTL'
_computing_structure_refinement  'SHELXL-2014/7 (Sheldrick, 2014)'
_computing_structure_solution    'SHELXS-97 (Sheldrick 2008)'
_diffrn_ambient_temperature      296(2)
_diffrn_measured_fraction_theta_full 0.998
_diffrn_measured_fraction_theta_max 0.998
_diffrn_measurement_device_type  'Bruker APEX-II CCD'
_diffrn_measurement_method       '\f and \w scans'
_diffrn_radiation_type           MoK\a
_diffrn_radiation_wavelength     0.71073
_diffrn_reflns_av_R_equivalents  0.0741
_diffrn_reflns_av_unetI/netI     0.0665
_diffrn_reflns_Laue_measured_fraction_full 0.998
_diffrn_reflns_Laue_measured_fraction_max 0.998
_diffrn_reflns_limit_h_max       8
_diffrn_reflns_limit_h_min       -7
_diffrn_reflns_limit_k_max       9
_diffrn_reflns_limit_k_min       -9
_diffrn_reflns_limit_l_max       14
_diffrn_reflns_limit_l_min       -13
_diffrn_reflns_number            9200
_diffrn_reflns_point_group_measured_fraction_full 0.998
_diffrn_reflns_point_group_measured_fraction_max 0.998
_diffrn_reflns_theta_full        24.998
_diffrn_reflns_theta_max         24.998
_diffrn_reflns_theta_min         1.747
_exptl_absorpt_coefficient_mu    0.245
_exptl_absorpt_correction_T_max  0.976
_exptl_absorpt_correction_T_min  0.935
_exptl_absorpt_correction_type   multi-scan
_exptl_absorpt_process_details   'SADABS V2014/5(Bruker AXS.Inc)'
_exptl_crystal_colour            yellow
_exptl_crystal_density_diffrn    1.356
_exptl_crystal_description       Rectangular
_exptl_crystal_F_000             264
_exptl_crystal_size_max          0.280
_exptl_crystal_size_mid          0.220
_exptl_crystal_size_min          0.100
_refine_diff_density_max         0.909
_refine_diff_density_min         -0.322
_refine_diff_density_rms         0.111
_refine_ls_extinction_method     none
_refine_ls_goodness_of_fit_ref   1.013
_refine_ls_hydrogen_treatment    constr
_refine_ls_matrix_type           full
_refine_ls_number_parameters     164
_refine_ls_number_reflns         2173
_refine_ls_number_restraints     0
_refine_ls_restrained_S_all      1.013
_refine_ls_R_factor_all          0.1076
_refine_ls_R_factor_gt           0.0792
_refine_ls_shift/su_max          0.000
_refine_ls_shift/su_mean         0.000
_refine_ls_structure_factor_coef Fsqd
_refine_ls_weighting_details
'w=1/[\s^2^(Fo^2^)+(0.1670P)^2^] where P=(Fo^2^+2Fc^2^)/3'
_refine_ls_weighting_scheme      calc
_refine_ls_wR_factor_gt          0.2128
_refine_ls_wR_factor_ref         0.2405
_reflns_Friedel_coverage         0.000
_reflns_number_gt                1503
_reflns_number_total             2173
_reflns_threshold_expression     'I > 2\s(I)'
_cod_data_source_file            d2ob01211a2.cif
_cod_data_source_block           120
_cod_original_cell_volume        617.99(19)
_cod_database_code               7158883
_shelx_shelxl_version_number     2014/7
_shelx_space_group_comment
; 
The symmetry employed for this shelxl refinement is uniquely defined 
by the following loop, which should always be used as a source of 
symmetry information in preference to the above space-group names. 
They are only intended as comments. 
;
_shelx_estimated_absorpt_t_min   0.935
_shelx_estimated_absorpt_t_max   0.976
_shelx_res_file
; 
  
    120.res created by SHELXL-2014/7 
  
TITL 120 in P-1 
CELL 0.71073   7.03270   7.74860  11.89180  84.5392  79.0401  76.5958 
ZERR    2.00   0.00120   0.00140   0.00220   0.0088   0.0085   0.0087 
LATT 1 
SFAC C  H  O  S 
UNIT 32  24  2  2 
OMIT -3 50 
L.S. 8 
ACTA 
BOND $H 
FMAP 2 
PLAN 5 
SIZE 0.10 0.22 0.28 
CONF 
TEMP 23.000 
WGHT    0.167000 
FVAR       0.24079 
MOLE 1 
C1    1    0.241676    0.292208    0.291275    11.00000    0.04976    0.03965 = 
         0.03982    0.00195   -0.01116   -0.01265 
C2    1    0.227705    0.458386    0.234020    11.00000    0.07646    0.03975 = 
         0.06153    0.00831   -0.01903   -0.01589 
AFIX  43 
H2    2    0.196524    0.561457    0.274123    11.00000   -1.20000 
AFIX   0 
C3    1    0.261458    0.465327    0.116307    11.00000    0.09089    0.05405 = 
         0.05909    0.02247   -0.01938   -0.02398 
AFIX  43 
H3    2    0.253951    0.575496    0.076751    11.00000   -1.20000 
AFIX   0 
C4    1    0.306111    0.314867    0.054522    11.00000    0.08599    0.06234 = 
         0.04712    0.01226   -0.01456   -0.02206 
AFIX  43 
H4    2    0.326656    0.324198   -0.025214    11.00000   -1.20000 
AFIX   0 
C5    1    0.319991    0.150667    0.112013    11.00000    0.05960    0.05666 = 
         0.04175   -0.00636   -0.00619   -0.01512 
AFIX  43 
H5    2    0.350798    0.047970    0.071559    11.00000   -1.20000 
AFIX   0 
C6    1    0.287782    0.140508    0.229768    11.00000    0.04626    0.03532 = 
         0.04009   -0.00171   -0.00669   -0.01122 
C7    1    0.302265   -0.023044    0.304412    11.00000    0.04543    0.03462 = 
         0.04037   -0.00556   -0.00821   -0.00946 
C8    1    0.261323    0.020849    0.427413    11.00000    0.04320    0.03349 = 
         0.03877   -0.00295   -0.00595   -0.01114 
C9    1    0.269534   -0.109508    0.511392    11.00000    0.05023    0.03188 = 
         0.03975   -0.00128   -0.00801   -0.00602 
AFIX  43 
H9    2    0.302631   -0.223369    0.484514    11.00000   -1.20000 
AFIX   0 
C10   1    0.236795   -0.106251    0.635071    11.00000    0.04152    0.03786 = 
         0.03747   -0.00054   -0.00637   -0.00839 
C11   1    0.254893   -0.268250    0.702815    11.00000    0.04355    0.04221 = 
         0.03796   -0.00040   -0.00826   -0.00610 
C12   1    0.223117   -0.261432    0.819986    11.00000    0.06187    0.05474 = 
         0.04006    0.00247   -0.00703   -0.00882 
AFIX  43 
H12   2    0.233647   -0.367245    0.864754    11.00000   -1.20000 
AFIX   0 
C13   1    0.176382   -0.103979    0.873310    11.00000    0.06313    0.06902 = 
         0.03565   -0.00791   -0.00591   -0.00901 
AFIX  43 
H13   2    0.156049   -0.103977    0.952905    11.00000   -1.20000 
AFIX   0 
C14   1    0.159589    0.055018    0.808150    11.00000    0.06799    0.05580 = 
         0.04602   -0.01644   -0.00379   -0.00740 
AFIX  43 
H14   2    0.128571    0.162426    0.843536    11.00000   -1.20000 
AFIX   0 
C15   1    0.188871    0.052477    0.692081    11.00000    0.06590    0.03857 = 
         0.04833   -0.00121   -0.01065   -0.00848 
AFIX  43 
H15   2    0.176717    0.159773    0.648881    11.00000   -1.20000 
AFIX   0 
C16   1    0.307287   -0.445666    0.649733    11.00000    0.07326    0.04158 = 
         0.05442   -0.00098   -0.01043   -0.00704 
AFIX 137 
H16A  2    0.318378   -0.538870    0.708955    11.00000   -1.50000 
H16B  2    0.431547   -0.456796    0.597882    11.00000   -1.50000 
H16C  2    0.205349   -0.454477    0.608511    11.00000   -1.50000 
AFIX   0 
O1    3    0.344861   -0.173808    0.271533    11.00000    0.08920    0.03497 = 
         0.05041   -0.00940   -0.00851   -0.01090 
S1    4    0.208586    0.251541    0.440247    11.00000    0.06738    0.03246 = 
         0.04240   -0.00237   -0.01137   -0.01099 
HKLF 4 
  
REM  120 in P-1 
REM R1 =  0.0792 for    1503 Fo > 4sig(Fo)  and  0.1076 for all    2173 data 
REM    164 parameters refined using      0 restraints 
  
END 
  
WGHT      0.1670      0.0000 
  
REM Highest difference peak  0.909,  deepest hole -0.322,  1-sigma level  0.111 
Q1    1   0.2848 -0.2550  0.5624  11.00000  0.05    0.91 
Q2    1   0.1291 -0.2542  0.5591  11.00000  0.05    0.87 
Q3    1   0.0058  0.2550  0.4424  11.00000  0.05    0.84 
Q4    1   0.4643 -0.2535  0.5607  11.00000  0.05    0.83 
Q5    1   0.4067  0.2512  0.4456  11.00000  0.05    0.78 
;
_shelx_res_checksum              9902
_shelx_hkl_file
; 
   1   0   0    0.12    0.20 
   1   0   0    0.17    0.21 
   2   0   0 1000.00   65.20 
   2   0   0  850.50   65.21 
   2   0   0  958.78   65.31 
   2   0   0  981.62   65.32 
   3   0   0   -0.04    0.06 
   3   0   0    0.02    0.19 
   3   0   0    0.00    0.05 
   3   0   0    0.02    0.13 
   3   0   0    0.08    0.06 
   4   0   0   46.32    3.22 
   4   0   0   45.00    3.24 
   4   0   0   46.37    3.45 
   4   0   0   45.40    3.44 
   4   0   0   45.51    3.22 
   5   0   0    0.58    0.15 
   5   0   0    0.25    0.12 
   5   0   0    0.55    0.31 
   5   0   0    0.65    0.36 
   5   0   0    0.31    0.13 
   6   0   0    0.80    0.40 
   6   0   0    0.37    0.16 
   6   0   0    0.31    0.16 
   6   0   0    0.38    0.17 
   7   0   0    0.20    0.19 
   7   0   0   -0.06    0.16 
   7   0   0    0.54    0.38 
   8   0   0   -0.02    0.22 
   8   0   0   -0.33    0.39 
   8  -1   0    0.32    0.24 
   7  -1   0    1.41    0.46 
   7  -1   0    1.39    0.32 
   6  -1   0    1.59    0.40 
   6  -1   0    0.55    0.23 
   6  -1   0    1.24    0.27 
   6  -1   0    1.30    0.34 
   5  -1   0    0.08    0.13 
   5  -1   0    0.09    0.14 
   5  -1   0    0.14    0.13 
   5  -1   0    0.00    0.22 
   4  -1   0    2.86    0.36 
   4  -1   0    2.24    0.43 
   4  -1   0    2.78    0.34 
   4  -1   0    2.30    0.48 
   4  -1   0    2.81    0.36 
   3  -1   0    4.73    0.43 
   3  -1   0    4.03    0.51 
   3  -1   0    4.13    0.42 
   3  -1   0    4.24    0.41 
   3  -1   0    4.39    0.61 
  -3   1   0    4.31    0.34 
  -3   1   0    4.40    0.34 
   2  -1   0    2.97    0.31 
   2  -1   0    3.10    0.32 
   2  -1   0    3.61    0.33 
   2  -1   0    3.30    0.34 
   2  -1   0    3.45    0.47 
  -2   1   0    2.94    0.42 
  -2   1   0    4.88    0.46 
  -2   1   0    2.25    0.29 
  -2   1   0    2.78    0.27 
   1  -1   0   25.81    1.76 
   1  -1   0   22.50    1.73 
   1  -1   0   25.00    1.80 
  -1   1   0   25.62    1.74 
  -1   1   0   23.60    1.79 
  -1   1   0   23.13    1.71 
   0  -1   0  138.81   10.28 
   0  -1   0  140.94   10.29 
   0  -1   0  165.39   10.29 
   0  -1   0  133.86   10.26 
   0   1   0  159.03   10.30 
   0   1   0  163.52   10.29 
   0   1   0  139.91   10.29 
  -1  -1   0    7.41    0.56 
  -1  -1   0    7.64    0.56 
  -1  -1   0    7.62    0.57 
  -1  -1   0    7.71    0.56 
  -1  -1   0    7.16    0.56 
   1   1   0    6.85    0.57 
   1   1   0    7.51    0.56 
   1   1   0    6.98    0.57 
   1   1   0    7.85    0.57 
   2   1   0   47.13    3.29 
   2   1   0   47.56    3.30 
   2   1   0   46.97    3.29 
   3   1   0    2.05    0.20 
   3   1   0    1.80    0.19 
   3   1   0    2.20    0.21 
   4   1   0    1.11    0.17 
   4   1   0    1.56    0.43 
   4   1   0    0.56    0.26 
   4   1   0    1.11    0.16 
   4   1   0    1.03    0.16 
   5   1   0    0.29    0.23 
   5   1   0    0.09    0.11 
   5   1   0    0.09    0.11 
   5   1   0    0.06    0.28 
   5   1   0    0.25    0.11 
   6   1   0    0.03    0.34 
   6   1   0    0.01    0.14 
   6   1   0    0.09    0.11 
   7   1   0    0.20    0.39 
   7   1   0   -0.03    0.14 
   7   1   0    0.10    0.13 
   8   1   0    0.46    0.52 
   8   1   0    0.21    0.20 
   8  -2   0   -0.27    0.26 
   7  -2   0    2.95    0.50 
   6  -2   0   -0.09    0.17 
   6  -2   0    0.03    0.23 
   6  -2   0   -0.31    0.20 
   5  -2   0    5.83    0.67 
   5  -2   0    5.90    0.71 
   5  -2   0    6.72    0.75 
   5  -2   0    6.28    0.65 
   4  -2   0    0.37    0.19 
   4  -2   0    0.31    0.19 
   4  -2   0    0.30    0.15 
   4  -2   0    0.29    0.17 
  -4   2   0    0.49    0.12 
  -4   2   0    0.59    0.14 
   3  -2   0    4.50    0.55 
   3  -2   0    5.04    0.51 
   3  -2   0    4.21    0.54 
   3  -2   0    5.45    0.77 
  -3   2   0    6.49    0.65 
  -3   2   0    4.98    0.45 
  -3   2   0    4.51    0.46 
  -3   2   0    3.63    0.61 
   2  -2   0    5.18    0.51 
   2  -2   0    5.19    0.50 
   2  -2   0    4.96    0.50 
   2  -2   0    3.70    0.57 
  -2   2   0    4.13    0.57 
  -2   2   0    4.82    0.47 
  -2   2   0    5.15    0.47 
  -2   2   0    4.13    0.45 
   1  -2   0    8.66    0.69 
   1  -2   0    8.15    0.69 
   1  -2   0    7.49    0.68 
   1  -2   0    7.55    0.74 
  -1   2   0    6.88    0.71 
  -1   2   0    7.23    0.66 
  -1   2   0    8.47    0.69 
   0  -2   0    3.19    0.35 
   0  -2   0    2.47    0.32 
   0  -2   0    2.00    0.29 
   0  -2   0    2.62    0.26 
   0   2   0    1.88    0.30 
   0   2   0    2.91    0.34 
   0   2   0    2.06    0.31 
  -1  -2   0   10.49    0.87 
  -1  -2   0   10.10    0.84 
  -1  -2   0   11.05    0.84 
  -1  -2   0   10.46    0.84 
  -1  -2   0   10.44    0.78 
   1   2   0   10.84    0.78 
   1   2   0   10.10    0.85 
   1   2   0   10.39    0.85 
   1   2   0   10.50    0.87 
  -2  -2   0    0.79    0.15 
  -2  -2   0    0.75    0.14 
  -2  -2   0    0.28    0.12 
  -2  -2   0    0.42    0.14 
   2   2   0    0.40    0.14 
   2   2   0    0.53    0.17 
   2   2   0    0.47    0.15 
   2   2   0    0.54    0.12 
   3   2   0    0.70    0.17 
   3   2   0    0.63    0.15 
   3   2   0    0.68    0.15 
   3   2   0    0.79    0.19 
   4   2   0    1.57    0.24 
   4   2   0    1.52    0.24 
   4   2   0    2.45    0.31 
   5   2   0    1.66    0.27 
   5   2   0    1.66    0.52 
   5   2   0    1.33    0.35 
   5   2   0    1.67    0.25 
   5   2   0    1.54    0.23 
   6   2   0    1.08    0.25 
   6   2   0    0.72    0.19 
   6   2   0    1.34    0.57 
   6   2   0    0.48    0.29 
   6   2   0    1.40    0.23 
   7   2   0    1.06    0.53 
   7   2   0    0.76    0.22 
   7   2   0    0.35    0.20 
   8   2   0    0.08    0.44 
   8   2   0   -0.17    0.21 
   7  -3   0   -0.22    0.25 
   6  -3   0    1.10    0.32 
   5  -3   0   -0.11    0.21 
   5  -3   0    0.07    0.19 
  -5   3   0    0.01    0.10 
   4  -3   0    2.59    0.48 
   4  -3   0    2.80    0.43 
   4  -3   0    2.02    0.42 
  -4   3   0    2.58    0.38 
  -4   3   0    1.93    0.30 
   3  -3   0    0.09    0.18 
   3  -3   0    0.10    0.16 
   3  -3   0   -0.14    0.16 
  -3   3   0   -0.17    0.12 
  -3   3   0    0.25    0.19 
  -3   3   0    0.08    0.13 
  -3   3   0   -0.01    0.19 
   2  -3   0   -0.03    0.15 
   2  -3   0   -0.06    0.13 
   2  -3   0   -0.15    0.18 
   2  -3   0    0.08    0.16 
  -2   3   0   -0.02    0.14 
  -2   3   0   -0.15    0.12 
  -2   3   0   -0.05    0.16 
   1  -3   0    2.51    0.41 
   1  -3   0    2.36    0.38 
   1  -3   0    2.60    0.39 
  -1   3   0    1.79    0.36 
  -1   3   0    2.34    0.38 
  -1   3   0    1.48    0.30 
   0  -3   0   11.29    1.01 
   0  -3   0   15.23    1.13 
   0  -3   0   12.43    1.10 
   0  -3   0   11.87    1.08 
   0   3   0   16.78    1.17 
   0   3   0   15.65    1.13 
   0   3   0   11.91    1.10 
  -1  -3   0   27.76    1.99 
  -1  -3   0   25.14    1.98 
  -1  -3   0   26.09    1.88 
  -1  -3   0   24.72    2.00 
  -1  -3   0   26.27    1.97 
   1   3   0   26.69    1.89 
   1   3   0   25.50    1.99 
   1   3   0   26.81    2.00 
  -2  -3   0    3.65    0.38 
  -2  -3   0    3.45    0.43 
  -2  -3   0    4.06    0.45 
  -2  -3   0    2.71    0.41 
   2   3   0    3.76    0.47 
   2   3   0    3.30    0.42 
   2   3   0    3.53    0.31 
   2   3   0    2.57    0.42 
  -3  -3   0   17.86    1.27 
  -3  -3   0   16.73    1.29 
  -3  -3   0   16.71    1.27 
  -3  -3   0   16.50    1.25 
   3   3   0   16.54    1.35 
   3   3   0   16.31    1.25 
   3   3   0   15.62    1.32 
   3   3   0   16.53    1.31 
   4   3   0    0.24    0.15 
   4   3   0    0.56    0.19 
   4   3   0    0.55    0.17 
   4   3   0    0.46    0.20 
   5   3   0    0.97    0.23 
   5   3   0    0.42    0.24 
   5   3   0    0.97    0.26 
   5   3   0    1.15    0.24 
   6   3   0    0.19    0.25 
   6   3   0    0.33    0.20 
   6   3   0    0.53    0.21 
   6   3   0    0.53    0.18 
   6   3   0    0.37    0.34 
   6   3   0    0.43    0.28 
   7   3   0    0.40    0.48 
   7   3   0   -0.08    0.15 
   7   3   0    0.10    0.19 
   7   3   0    0.13    0.30 
   8   3   0    0.18    0.21 
   8   3   0    0.19    0.21 
   8   3   0   -0.19    0.42 
   8   3   0    0.47    0.50 
   7  -4   0    0.16    0.35 
   6  -4   0    0.38    0.30 
   5  -4   0    0.32    0.27 
   4  -4   0    3.84    0.62 
   4  -4   0    2.97    0.60 
   4  -4   0    2.07    0.55 
  -4   4   0    4.24    0.58 
  -4   4   0    2.99    0.71 
  -4   4   0    3.30    0.50 
  -4   4   0    4.26    0.56 
   3  -4   0    1.88    0.42 
   3  -4   0    2.13    0.41 
   3  -4   0    0.98    0.35 
  -3   4   0    1.98    0.41 
  -3   4   0    1.53    0.45 
  -3   4   0    2.02    0.35 
   2  -4   0   15.16    1.35 
   2  -4   0   14.05    1.36 
   2  -4   0   15.88    1.39 
  -2   4   0   15.36    1.43 
  -2   4   0   16.17    1.33 
  -2   4   0   15.24    1.33 
   1  -4   0    6.86    0.76 
   1  -4   0    6.36    0.76 
   1  -4   0    8.24    0.89 
  -1   4   0    5.89    0.74 
  -1   4   0    5.50    0.79 
  -1   4   0    5.69    0.70 
   0  -4   0   40.71    2.71 
   0  -4   0   31.86    2.67 
   0  -4   0   31.12    2.64 
   0  -4   0   32.01    2.55 
   0   4   0   38.58    2.72 
   0   4   0   33.74    2.68 
   0   4   0   39.56    2.69 
  -1  -4   0    0.75    0.17 
  -1  -4   0    0.27    0.21 
  -1  -4   0    0.26    0.21 
  -1  -4   0    0.17    0.20 
  -1  -4   0    0.36    0.18 
   1   4   0    0.33    0.21 
   1   4   0    0.26    0.22 
  -2  -4   0   12.41    1.06 
  -2  -4   0   11.54    1.10 
  -2  -4   0   12.29    1.02 
  -2  -4   0   10.36    1.05 
  -2  -4   0   12.43    0.94 
   2   4   0   12.31    0.92 
   2   4   0   12.68    1.10 
   2   4   0   11.29    1.07 
  -3  -4   0   15.65    1.21 
  -3  -4   0   15.97    1.26 
  -3  -4   0   15.81    1.30 
  -3  -4   0   14.73    1.22 
   3   4   0   14.04    1.32 
   3   4   0   15.07    1.14 
   3   4   0   16.45    1.30 
   3   4   0   14.45    1.30 
  -4  -4   0    7.75    0.67 
  -4  -4   0    7.57    0.70 
  -4  -4   0    7.39    0.63 
   4   4   0    7.57    0.88 
   4   4   0    7.66    0.78 
   4   4   0    6.80    0.79 
   4   4   0    7.33    0.63 
   5   4   0   13.55    1.08 
   5   4   0   11.63    1.11 
   5   4   0   13.34    1.21 
   5   4   0   14.19    1.19 
   6   4   0    0.98    0.31 
   6   4   0    1.39    0.34 
   6   4   0    1.52    0.33 
   7   4   0    2.00    0.46 
   7   4   0    2.32    0.40 
   7   4   0    2.08    0.42 
   7   4   0    1.94    0.69 
   8   4   0    0.30    0.53 
   8   4   0   -0.05    0.21 
   8   4   0   -0.09    0.26 
   6  -5   0    4.33    0.77 
   5  -5   0    0.63    0.37 
   4  -5   0   17.28    1.56 
  -4   5   0   15.51    1.46 
  -4   5   0   14.83    1.83 
   3  -5   0    0.00    0.30 
   3  -5   0    0.54    0.26 
  -3   5   0    0.00    0.29 
  -3   5   0   -0.16    0.22 
  -3   5   0   -0.10    0.26 
  -3   5   0   -0.11    0.23 
   2  -5   0   21.19    1.86 
   2  -5   0   21.90    1.92 
  -2   5   0   22.74    1.85 
  -2   5   0   22.47    1.87 
  -2   5   0   20.48    1.96 
   1  -5   0    4.45    0.66 
   1  -5   0    4.21    0.63 
  -1   5   0    5.06    0.69 
  -1   5   0    3.73    0.69 
  -1   5   0    2.83    0.53 
   0  -5   0   14.16    1.25 
   0  -5   0   14.30    1.31 
   0  -5   0   10.33    1.16 
   0   5   0   13.63    1.24 
   0   5   0   14.40    1.27 
   0   5   0   12.60    1.23 
  -1  -5   0   16.81    1.33 
  -1  -5   0   18.24    1.46 
  -1  -5   0   16.93    1.48 
  -1  -5   0   15.97    1.51 
   1   5   0   16.98    1.49 
   1   5   0   15.35    1.47 
   1   5   0   17.55    1.49 
  -2  -5   0    0.26    0.12 
  -2  -5   0    0.12    0.17 
  -2  -5   0   -0.03    0.24 
   2   5   0    0.02    0.26 
   2   5   0    0.22    0.22 
  -3  -5   0    9.38    0.81 
  -3  -5   0   10.38    0.98 
  -3  -5   0    6.69    0.82 
   3   5   0   10.42    0.96 
   3   5   0    9.69    0.75 
   3   5   0   10.13    1.00 
  -4  -5   0    3.69    0.49 
  -4  -5   0    4.75    0.64 
   4   5   0    4.25    0.39 
   4   5   0    3.45    0.57 
   4   5   0    3.85    0.63 
   5   5   0    1.26    0.35 
   5   5   0    2.27    0.50 
   5   5   0    1.39    0.22 
   5   5   0    0.51    0.31 
   6   5   0    1.85    0.29 
   6   5   0    2.43    0.44 
   6   5   0    0.97    0.37 
   7   5   0    0.10    0.23 
   7   5   0    0.04    0.40 
   7   5   0    0.19    0.28 
   8   5   0   -0.23    0.26 
   8   5   0    0.13    0.49 
   8   5   0   -0.04    0.27 
   5  -6   0    3.27    0.73 
   4  -6   0    3.52    0.72 
  -4   6   0    3.02    0.87 
   3  -6   0    6.86    0.97 
  -3   6   0    6.27    0.91 
  -3   6   0    4.29    0.76 
  -3   6   0    6.02    1.04 
   2  -6   0   11.81    1.31 
   2  -6   0   10.71    1.21 
  -2   6   0    8.13    1.09 
  -2   6   0    7.53    1.02 
  -2   6   0    8.45    1.24 
   1  -6   0    2.02    0.50 
   1  -6   0    2.28    0.60 
   1  -6   0    1.85    0.53 
  -1   6   0    2.28    0.52 
  -1   6   0    2.09    0.59 
  -1   6   0    2.31    0.52 
   0  -6   0    7.27    1.01 
   0  -6   0    7.82    0.97 
   0   6   0    6.19    0.89 
   0   6   0   10.61    1.17 
   0   6   0    5.62    0.88 
  -1  -6   0    3.99    0.65 
  -1  -6   0    4.66    0.77 
   1   6   0    4.13    0.71 
   1   6   0    3.61    0.67 
   1   6   0    4.22    0.70 
  -2  -6   0    0.35    0.27 
  -2  -6   0    0.58    0.35 
   2   6   0    0.71    0.36 
   2   6   0    0.36    0.34 
   2   6   0    0.41    0.30 
  -3  -6   0   11.36    1.08 
  -3  -6   0   14.88    1.36 
  -3  -6   0   14.55    1.26 
   3   6   0   13.97    1.31 
   3   6   0   14.91    1.38 
  -4  -6   0    0.28    0.31 
  -4  -6   0    0.03    0.20 
   4   6   0    0.10    0.29 
   4   6   0   -0.06    0.20 
  -5  -6   0    7.35    0.71 
   5   6   0    5.14    0.84 
   5   6   0    7.72    0.61 
   5   6   0    6.81    0.93 
   6   6   0    0.33    0.26 
   6   6   0    0.29    0.32 
   7   6   0    1.55    0.68 
   7   6   0    1.04    0.41 
   7   6   0    1.59    0.45 
   8   6   0    0.50    0.41 
   8   6   0    0.10    0.51 
   8   6   0    0.17    0.32 
   4  -7   0    1.03    0.58 
   3  -7   0   -0.06    0.38 
   3  -7   0   -0.07    0.39 
  -3   7   0    0.27    0.40 
  -3   7   0    0.54    0.44 
   2  -7   0    1.68    0.63 
   2  -7   0    2.49    0.70 
  -2   7   0    2.61    0.69 
  -2   7   0    2.01    0.62 
  -2   7   0    1.02    0.46 
   1  -7   0    0.38    0.39 
   1  -7   0   -0.42    0.31 
  -1   7   0    0.11    0.33 
  -1   7   0   -0.18    0.30 
  -1   7   0    0.21    0.32 
   0  -7   0    8.71    1.26 
   0  -7   0    9.80    1.28 
   0   7   0   12.01    1.38 
   0   7   0   10.29    1.24 
   0   7   0    8.18    1.17 
  -1  -7   0    2.25    0.56 
  -1  -7   0    1.20    0.50 
   1   7   0    1.01    0.43 
   1   7   0    2.44    0.57 
   1   7   0    1.28    0.42 
  -2  -7   0    8.74    1.21 
  -2  -7   0    7.19    0.97 
   2   7   0    7.49    1.08 
   2   7   0    7.86    1.09 
   2   7   0    5.17    0.89 
  -3  -7   0    7.81    1.08 
  -3  -7   0    7.63    0.95 
   3   7   0    6.73    1.02 
   3   7   0    6.94    0.95 
   3   7   0    5.39    0.90 
  -4  -7   0    1.87    0.58 
   4   7   0    0.66    0.45 
   4   7   0    0.90    0.42 
   5   7   0    5.79    0.94 
   5   7   0    6.50    0.95 
   6   7   0   -0.17    0.28 
   6   7   0    0.43    0.39 
   7   7   0    1.98    0.52 
   7   7   0    1.34    0.51 
   3  -8   0    0.55    0.66 
   3  -8   0    1.48    0.65 
  -3   8   0    1.49    0.82 
   2  -8   0    0.91    0.61 
   2  -8   0    0.68    0.56 
  -2   8   0    1.30    0.68 
  -2   8   0    0.57    0.47 
   1  -8   0    2.55    0.76 
   1  -8   0    0.02    0.49 
  -1   8   0    1.03    0.53 
  -1   8   0    0.84    0.56 
  -1   8   0    0.00    0.46 
   0  -8   0    4.01    0.89 
   0  -8   0    5.65    1.01 
   0   8   0    4.57    0.84 
   0   8   0    5.36    0.98 
   0   8   0    2.74    0.75 
  -1  -8   0   -0.06    0.32 
  -1  -8   0   -0.07    0.34 
   1   8   0    0.12    0.42 
   1   8   0   -0.25    0.33 
   1   8   0    0.36    0.39 
  -2  -8   0    5.78    1.12 
  -2  -8   0    4.52    0.81 
   2   8   0    4.97    0.88 
   2   8   0    3.25    0.73 
   2   8   0    4.35    0.93 
  -3  -8   0    0.11    0.37 
   3   8   0    0.00    0.35 
   3   8   0   -0.21    0.30 
   3   8   0    0.31    0.38 
   4   8   0    3.02    0.62 
   4   8   0    2.69    0.71 
   4   8   0    2.47    0.66 
   5   8   0    0.52    0.46 
   5   8   0    0.38    0.36 
   6   8   0    0.20    0.35 
   6   8   0    0.04    0.43 
   1  -9   0    2.81    0.85 
   1  -9   0    2.77    0.95 
  -1   9   0    1.36    0.78 
  -1   9   0    0.84    0.52 
   0  -9   0    0.02    0.47 
   0  -9   0    0.64    0.55 
   0   9   0   -0.76    0.35 
   0   9   0    0.07    0.51 
   0   9   0    0.42    0.52 
  -1  -9   0    3.88    0.89 
  -1  -9   0    3.15    0.86 
   1   9   0    3.05    0.82 
   1   9   0    2.37    0.79 
   1   9   0    3.29    0.84 
  -2  -9   0    0.75    0.56 
   2   9   0    0.54    0.51 
   2   9   0    0.85    0.52 
   2   9   0    0.18    0.44 
  -3  -9   0    2.48    0.76 
   3   9   0    2.79    0.78 
   3   9   0    2.05    0.66 
   3   9   0    1.75    0.61 
   4   9   0    1.59    0.64 
   4   9   0    0.78    0.53 
   5   9   0    1.37    0.62 
   5   9   0    0.51    0.47 
   5   9  -1    1.61    0.63 
   5   9  -1    1.45    0.69 
   4   9  -1    1.53    0.68 
   4   9  -1    2.24    0.67 
   3   9  -1    1.40    0.61 
   3   9  -1    2.33    0.71 
   3   9  -1    2.54    0.71 
  -3  -9   1    1.92    0.70 
   2   9  -1    0.70    0.60 
   2   9  -1    0.01    0.36 
   2   9  -1    0.40    0.48 
  -2  -9   1   -0.04    0.44 
   1   9  -1    0.91    0.56 
   1   9  -1    1.00    0.54 
   1   9  -1    1.70    0.69 
  -1  -9   1    1.78    0.68 
  -1  -9   1    1.49    0.70 
   0   9  -1    0.20    0.41 
   0   9  -1    0.26    0.56 
   0   9  -1   -0.13    0.57 
   0  -9   1    1.46    0.68 
   0  -9   1   -0.28    0.52 
  -1   9  -1    0.75    0.51 
  -1   9  -1    1.05    0.67 
   1  -9   1    0.56    0.60 
   1  -9   1    0.94    0.69 
   6   8  -1    0.11    0.47 
   6   8  -1   -0.20    0.31 
   5   8  -1    0.12    0.34 
   5   8  -1   -0.56    0.39 
   4   8  -1    0.48    0.37 
   4   8  -1    0.42    0.47 
   3   8  -1   -0.10    0.37 
   3   8  -1    0.19    0.33 
   3   8  -1    0.07    0.40 
  -3  -8   1    0.27    0.39 
   2   8  -1    3.79    0.86 
   2   8  -1    7.30    1.08 
   2   8  -1    7.12    1.09 
  -2  -8   1    4.96    0.98 
  -2  -8   1    7.74    1.09 
   1   8  -1    0.50    0.42 
   1   8  -1    0.72    0.43 
   1   8  -1    0.43    0.39 
  -1  -8   1    0.49    0.44 
  -1  -8   1    0.74    0.52 
   0   8  -1   11.12    1.28 
   0   8  -1    8.82    1.31 
   0   8  -1    6.45    1.09 
   0  -8   1    6.81    1.23 
   0  -8   1    9.02    1.26 
  -1   8  -1    1.33    0.51 
  -1   8  -1    2.18    0.66 
  -1   8  -1    2.51    0.79 
   1  -8   1    2.96    0.77 
   1  -8   1    0.53    0.63 
  -2   8  -1    1.01    0.62 
  -2   8  -1    1.31    0.54 
   2  -8   1    1.05    0.64 
   2  -8   1    0.93    0.67 
  -3   8  -1    1.46    0.82 
   3  -8   1    2.89    0.84 
   3  -8   1    2.31    0.85 
   7   7  -1    0.28    0.41 
   7   7  -1    0.12    0.35 
   7   7  -1    0.32    0.55 
   6   7  -1    0.84    0.45 
   6   7  -1    0.17    0.31 
   5   7  -1   -0.30    0.33 
   5   7  -1    0.20    0.26 
   4   7  -1    0.32    0.36 
   4   7  -1    0.63    0.38 
  -4  -7   1   -0.08    0.35 
   3   7  -1   -0.07    0.32 
   3   7  -1    0.43    0.33 
  -3  -7   1    0.19    0.31 
  -3  -7   1    0.73    0.39 
   2   7  -1    0.72    0.44 
   2   7  -1    0.60    0.43 
   2   7  -1    1.12    0.47 
  -2  -7   1    0.57    0.32 
  -2  -7   1    0.41    0.38 
   1   7  -1    0.58    0.36 
   1   7  -1    0.34    0.36 
   1   7  -1    0.14    0.35 
  -1  -7   1    0.76    0.38 
  -1  -7   1    0.34    0.38 
   0   7  -1   13.36    1.48 
   0   7  -1   14.46    1.42 
   0   7  -1   11.00    1.43 
   0  -7   1   11.45    1.51 
   0  -7   1   10.17    1.33 
  -1   7  -1    0.01    0.33 
  -1   7  -1    0.83    0.44 
  -1   7  -1   -0.51    0.33 
   1  -7   1   -0.09    0.31 
   1  -7   1    0.42    0.39 
  -2   7  -1    3.34    0.80 
  -2   7  -1    2.91    0.70 
  -2   7  -1    4.42    0.83 
   2  -7   1    3.81    0.88 
   2  -7   1    2.70    0.72 
  -3   7  -1    0.96    0.54 
  -3   7  -1    0.35    0.43 
   3  -7   1    0.43    0.50 
   3  -7   1    0.12    0.41 
  -4   7  -1    0.74    0.76 
   4  -7   1    0.75    0.62 
   4  -7   1    0.97    0.60 
   7   6  -1    0.68    0.56 
   7   6  -1    1.57    0.48 
   7   6  -1    0.71    0.38 
   6   6  -1    1.03    0.39 
   6   6  -1    0.73    0.35 
   6   6  -1    0.60    0.48 
   5   6  -1    3.53    0.67 
   5   6  -1    3.26    0.62 
   4   6  -1    3.04    0.63 
   4   6  -1    4.19    0.73 
  -4  -6   1    3.74    0.68 
  -4  -6   1    3.97    0.57 
   3   6  -1   12.36    1.30 
   3   6  -1    9.87    1.18 
  -3  -6   1    9.79    1.21 
  -3  -6   1    9.14    0.84 
  -3  -6   1   10.72    1.01 
   2   6  -1    0.42    0.37 
   2   6  -1    0.48    0.32 
  -2  -6   1    0.68    0.19 
  -2  -6   1    0.60    0.29 
  -2  -6   1    0.18    0.30 
   1   6  -1   23.41    2.03 
   1   6  -1   27.21    2.11 
   1   6  -1   21.19    2.00 
  -1  -6   1   20.61    2.03 
  -1  -6   1   24.68    1.99 
   0   6  -1    5.28    0.85 
   0   6  -1    7.86    1.03 
   0   6  -1    6.37    0.87 
   0  -6   1    7.04    0.97 
   0  -6   1    6.15    0.90 
  -1   6  -1   13.51    1.42 
  -1   6  -1   13.29    1.36 
  -1   6  -1   13.39    1.35 
   1  -6   1   12.39    1.36 
   1  -6   1   15.12    1.40 
   1  -6   1   12.88    1.58 
  -2   6  -1    6.57    0.88 
  -2   6  -1    6.29    0.90 
  -2   6  -1    4.46    0.90 
   2  -6   1    8.00    0.99 
   2  -6   1    5.84    0.91 
   2  -6   1    3.72    0.86 
  -3   6  -1    1.24    0.44 
  -3   6  -1    0.83    0.43 
  -3   6  -1    1.04    0.53 
   3  -6   1    1.83    0.50 
   3  -6   1    1.57    0.57 
  -4   6  -1    2.96    0.74 
   4  -6   1    1.29    0.50 
   4  -6   1    2.57    0.77 
   5  -6   1    0.09    0.45 
   5  -6   1    0.28    0.44 
   8   5  -1    0.19    0.30 
   8   5  -1   -0.03    0.59 
   8   5  -1    0.23    0.35 
   7   5  -1    0.74    0.32 
   7   5  -1    0.39    0.43 
   7   5  -1    0.61    0.35 
   6   5  -1   -0.29    0.30 
   6   5  -1    0.12    0.28 
   6   5  -1    0.38    0.25 
   5   5  -1    2.40    0.47 
   5   5  -1    2.37    0.58 
   5   5  -1    2.06    0.48 
  -5  -5   1    3.00    0.35 
  -5  -5   1    3.52    0.45 
   4   5  -1    0.11    0.25 
   4   5  -1    0.46    0.30 
   4   5  -1    0.27    0.23 
  -4  -5   1    0.67    0.22 
  -4  -5   1    0.01    0.22 
   3   5  -1    8.09    0.95 
   3   5  -1    8.89    1.08 
   3   5  -1    8.28    0.99 
  -3  -5   1    9.04    0.82 
  -3  -5   1    7.79    0.70 
  -3  -5   1    7.68    0.97 
   2   5  -1    0.72    0.32 
   2   5  -1    0.63    0.31 
  -2  -5   1    0.96    0.18 
  -2  -5   1    1.22    0.31 
  -2  -5   1    0.39    0.27 
   1   5  -1   19.60    1.73 
   1   5  -1   18.67    1.72 
  -1  -5   1   21.37    1.55 
  -1  -5   1   21.33    1.80 
  -1  -5   1   21.05    1.71 
  -1  -5   1   19.32    1.73 
   0   5  -1    5.43    0.76 
   0   5  -1    5.44    0.72 
   0   5  -1    4.09    0.69 
   0  -5   1    3.52    0.58 
   0  -5   1    3.47    0.56 
   0  -5   1    4.02    0.69 
  -1   5  -1   19.21    1.62 
  -1   5  -1   15.61    1.63 
  -1   5  -1   18.67    1.62 
   1  -5   1   16.16    1.58 
   1  -5   1   20.66    1.64 
   1  -5   1   19.32    1.70 
  -2   5  -1    4.70    0.67 
  -2   5  -1    4.35    0.67 
  -2   5  -1    3.32    0.68 
   2  -5   1    3.61    0.68 
   2  -5   1    4.26    0.66 
  -3   5  -1    3.00    0.53 
  -3   5  -1    2.76    0.54 
  -3   5  -1    1.98    0.57 
   3  -5   1    2.27    0.49 
   3  -5   1    2.19    0.55 
  -4   5  -1    5.24    1.00 
  -4   5  -1    7.08    0.87 
   4  -5   1    6.47    0.90 
   5  -5   1   -0.12    0.29 
   6  -5   1    2.94    0.63 
   8   4  -1    0.51    0.30 
   8   4  -1    0.42    0.35 
   8   4  -1   -0.17    0.49 
   7   4  -1   -0.07    0.26 
   7   4  -1   -0.09    0.42 
   7   4  -1    0.05    0.20 
   6   4  -1    0.22    0.31 
   6   4  -1    0.33    0.19 
   6   4  -1    0.26    0.19 
   6   4  -1    0.06    0.22 
   5   4  -1   -0.01    0.16 
   5   4  -1   -0.09    0.20 
   5   4  -1    0.00    0.23 
   5   4  -1    0.16    0.12 
   4   4  -1    4.83    0.41 
   4   4  -1    5.44    0.70 
   4   4  -1    5.74    0.69 
   4   4  -1    4.50    0.68 
  -4  -4   1    5.75    0.52 
  -4  -4   1    5.93    0.64 
   3   4  -1    0.06    0.18 
   3   4  -1    0.00    0.16 
   3   4  -1    0.11    0.21 
   3   4  -1    0.31    0.08 
  -3  -4   1    0.07    0.21 
  -3  -4   1    0.31    0.20 
  -3  -4   1    0.22    0.14 
   2   4  -1   29.36    2.21 
   2   4  -1   27.49    2.24 
   2   4  -1   28.50    2.22 
  -2  -4   1   27.05    2.14 
  -2  -4   1   27.40    2.19 
  -2  -4   1   29.65    2.02 
  -2  -4   1   25.98    2.20 
   1   4  -1    0.67    0.24 
   1   4  -1    0.97    0.28 
  -1  -4   1    0.63    0.25 
  -1  -4   1    0.76    0.24 
  -1  -4   1    1.47    0.35 
  -1  -4   1    1.03    0.18 
  -1  -4   1    0.01    0.19 
   0   4  -1   39.81    2.82 
   0   4  -1   36.34    2.82 
   0   4  -1   38.56    2.86 
   0  -4   1   42.26    2.90 
   0  -4   1   33.90    2.82 
   0  -4   1   41.37    2.83 
   0  -4   1   33.08    2.67 
   0  -4   1   33.36    2.78 
  -1   4  -1   12.19    1.11 
  -1   4  -1   10.25    1.13 
  -1   4  -1   12.51    1.12 
   1  -4   1   13.08    1.18 
   1  -4   1   11.52    1.10 
   1  -4   1   13.06    1.13 
   1  -4   1   12.74    1.15 
  -2   4  -1    1.64    0.39 
  -2   4  -1    1.83    0.39 
  -2   4  -1    1.96    0.46 
   2  -4   1    2.05    0.41 
   2  -4   1    1.97    0.46 
   2  -4   1    1.63    0.39 
  -3   4  -1    7.15    1.05 
  -3   4  -1    8.93    0.88 
   3  -4   1    7.64    0.92 
   3  -4   1    9.35    0.96 
   3  -4   1    9.73    0.94 
  -4   4  -1    0.29    0.24 
  -4   4  -1    0.73    0.40 
  -4   4  -1    0.60    0.27 
   4  -4   1    0.61    0.27 
   4  -4   1    0.37    0.35 
   4  -4   1    0.50    0.31 
   5  -4   1    0.81    0.32 
   6  -4   1    2.17    0.49 
   7  -4   1    0.28    0.32 
   8   3  -1    0.35    0.25 
   8   3  -1    0.38    0.29 
   8   3  -1    0.26    0.54 
   7   3  -1    0.11    0.22 
   7   3  -1   -0.17    0.17 
   7   3  -1   -0.19    0.26 
   7   3  -1    0.14    0.43 
   6   3  -1    0.89    0.27 
   6   3  -1    0.79    0.27 
   6   3  -1    1.32    0.33 
   6   3  -1    0.81    0.25 
   6   3  -1    1.78    0.60 
   5   3  -1    2.60    0.65 
   5   3  -1    3.68    0.50 
   5   3  -1    3.55    0.45 
   5   3  -1    2.88    0.45 
   5   3  -1    3.11    0.49 
   4   3  -1    0.11    0.17 
   4   3  -1    0.03    0.11 
   4   3  -1    0.20    0.16 
   4   3  -1   -0.01    0.14 
  -4  -3   1    0.10    0.09 
  -4  -3   1    0.03    0.08 
   3   3  -1   44.73    3.25 
   3   3  -1   43.23    3.28 
   3   3  -1   44.14    3.10 
   3   3  -1   42.96    3.26 
  -3  -3   1   45.86    3.24 
  -3  -3   1   45.10    3.20 
  -3  -3   1   44.67    3.18 
  -3  -3   1   44.10    3.20 
   2   3  -1    6.84    0.72 
   2   3  -1    7.11    0.74 
   2   3  -1    7.60    0.73 
  -2  -3   1    7.45    0.71 
  -2  -3   1    8.15    0.71 
  -2  -3   1    8.23    0.69 
  -2  -3   1    7.51    0.59 
  -2  -3   1    7.21    0.73 
   1   3  -1  128.09    8.97 
   1   3  -1  123.95    8.96 
   1   3  -1  126.04    9.00 
  -1  -3   1  131.74    8.83 
  -1  -3   1  123.86    8.96 
  -1  -3   1  131.44    8.97 
  -1  -3   1  125.72    9.00 
   0   3  -1   15.94    1.25 
   0   3  -1   13.78    1.24 
   0  -3   1   16.58    1.26 
   0  -3   1   13.73    1.24 
   0  -3   1   15.71    1.29 
  -1   3  -1   35.31    2.68 
  -1   3  -1   34.59    2.76 
  -1   3  -1   35.71    2.69 
   1  -3   1   34.86    2.69 
   1  -3   1   40.09    2.74 
  -2   3  -1    6.13    0.69 
  -2   3  -1    4.97    0.73 
  -2   3  -1    5.59    0.59 
   2  -3   1    5.79    0.67 
   2  -3   1    5.32    0.67 
  -3   3  -1    0.57    0.21 
  -3   3  -1    0.32    0.19 
  -3   3  -1    0.59    0.28 
   3  -3   1    0.24    0.17 
   3  -3   1    0.81    0.24 
   3  -3   1    0.32    0.21 
  -4   3  -1    4.51    0.49 
  -4   3  -1    4.46    0.75 
   4  -3   1    4.47    0.58 
   4  -3   1    4.14    0.63 
   4  -3   1    4.33    0.63 
   5  -3   1    0.10    0.26 
   5  -3   1    0.16    0.20 
   6  -3   1    1.07    0.32 
   7  -3   1    0.12    0.24 
   8   2  -1   -0.24    0.24 
   8   2  -1    0.01    0.44 
   7   2  -1    1.20    0.30 
   7   2  -1    0.86    0.56 
   7   2  -1    0.73    0.26 
   6   2  -1    0.63    0.21 
   6   2  -1    0.33    0.18 
   6   2  -1    0.89    0.47 
   6   2  -1    1.02    0.27 
   5   2  -1    8.46    0.75 
   5   2  -1    7.97    0.75 
   5   2  -1   10.75    1.35 
   5   2  -1    8.82    0.79 
   4   2  -1    2.95    0.60 
   4   2  -1    2.50    0.33 
   4   2  -1    2.73    0.38 
   4   2  -1    1.84    0.30 
   3   2  -1   18.23    1.45 
   3   2  -1   19.55    1.46 
   3   2  -1   19.47    1.48 
  -3  -2   1   18.74    1.36 
  -3  -2   1   18.87    1.39 
  -3  -2   1   18.72    1.38 
  -3  -2   1   19.52    1.37 
   2   2  -1   -0.04    0.10 
   2   2  -1    0.08    0.12 
   2   2  -1    0.01    0.04 
   2   2  -1   -0.01    0.10 
  -2  -2   1    0.02    0.09 
  -2  -2   1    0.04    0.10 
  -2  -2   1    0.01    0.09 
   1   2  -1   -0.06    0.10 
   1   2  -1    0.12    0.13 
   1   2  -1   -0.03    0.11 
  -1  -2   1    0.00    0.10 
  -1  -2   1    0.08    0.12 
  -1  -2   1   -0.06    0.11 
  -1  -2   1    0.00    0.04 
   0   2  -1    4.96    0.54 
   0   2  -1    6.46    0.57 
   0  -2   1    6.50    0.59 
   0  -2   1    6.05    0.56 
   0  -2   1    5.56    0.54 
  -1   2  -1   23.19    1.90 
  -1   2  -1   26.65    1.86 
  -1   2  -1   24.57    1.84 
   1  -2   1   24.06    1.85 
   1  -2   1   25.07    1.85 
  -2   2  -1    0.57    0.16 
  -2   2  -1    0.61    0.22 
  -2   2  -1    0.58    0.17 
   2  -2   1    0.43    0.23 
   2  -2   1    0.67    0.19 
   2  -2   1    0.99    0.22 
  -3   2  -1    7.14    0.62 
  -3   2  -1    7.31    0.61 
  -3   2  -1    7.00    0.88 
   3  -2   1    7.95    0.96 
   3  -2   1    7.16    0.68 
   3  -2   1    7.30    0.69 
  -4   2  -1    0.32    0.09 
  -4   2  -1    0.28    0.09 
  -4   2  -1    0.20    0.22 
   4  -2   1    0.49    0.19 
   4  -2   1    0.43    0.19 
   4  -2   1    0.24    0.15 
   4  -2   1    0.23    0.15 
   5  -2   1    0.29    0.20 
   5  -2   1    0.97    0.26 
   5  -2   1    1.15    0.29 
   5  -2   1    0.76    0.23 
   6  -2   1   -0.04    0.16 
   6  -2   1   -0.05    0.21 
   6  -2   1    0.11    0.23 
   7  -2   1   -0.31    0.18 
   8  -2   1    0.54    0.30 
   8   1  -1    0.89    0.56 
   8   1  -1    0.18    0.25 
   7   1  -1    0.03    0.14 
   7   1  -1    0.19    0.41 
   7   1  -1   -0.07    0.18 
   6   1  -1    0.95    0.42 
   6   1  -1    0.35    0.18 
   6   1  -1    0.45    0.17 
   6   1  -1    0.48    0.20 
   5   1  -1    0.78    0.20 
   5   1  -1    0.64    0.19 
   5   1  -1    1.23    0.24 
   5   1  -1    0.11    0.24 
   5   1  -1    1.36    0.46 
   4   1  -1    3.26    0.39 
   4   1  -1    2.84    0.59 
   4   1  -1    3.12    0.36 
   4   1  -1    3.40    0.38 
   3   1  -1    7.28    0.83 
   3   1  -1    4.93    0.46 
   3   1  -1    5.34    0.48 
   3   1  -1    5.02    0.47 
   2   1  -1   43.81    3.14 
   2   1  -1   44.03    3.26 
   2   1  -1   44.35    3.12 
  -2  -1   1   43.99    3.09 
  -2  -1   1   44.18    3.09 
   1   1  -1   -0.04    0.07 
   1   1  -1   -0.07    0.07 
   1   1  -1   -0.07    0.07 
   1   1  -1   -0.11    0.09 
  -1  -1   1   -0.10    0.06 
  -1  -1   1   -0.02    0.08 
  -1  -1   1   -0.10    0.06 
   0   1  -1   97.02    6.53 
   0   1  -1   95.25    6.54 
   0   1  -1   89.82    6.53 
   0  -1   1   93.82    6.54 
   0  -1   1   88.04    6.52 
   0  -1   1   98.26    6.53 
  -1   1  -1    7.95    0.69 
  -1   1  -1    7.69    0.62 
   1  -1   1    7.52    0.63 
   1  -1   1    8.32    0.63 
  -2   1  -1    6.22    0.65 
  -2   1  -1    7.39    0.53 
   2  -1   1    7.17    0.57 
   2  -1   1    6.53    0.54 
   2  -1   1    6.57    0.57 
   2  -1   1    6.98    0.67 
  -3   1  -1    3.79    0.53 
   3  -1   1    3.89    0.39 
   3  -1   1    4.13    0.57 
   3  -1   1    4.04    0.39 
   3  -1   1    3.99    0.43 
   4  -1   1    2.99    0.37 
   4  -1   1    2.98    0.36 
   4  -1   1    2.92    0.44 
   4  -1   1    3.63    0.61 
   5  -1   1    0.76    0.20 
   5  -1   1    0.71    0.29 
   5  -1   1    0.59    0.17 
   5  -1   1    0.79    0.19 
   6  -1   1    0.57    0.20 
   6  -1   1    0.88    0.26 
   6  -1   1    0.31    0.17 
   6  -1   1    0.34    0.27 
   7  -1   1    0.37    0.20 
   7  -1   1    0.48    0.36 
   8  -1   1   -0.26    0.18 
   8   0  -1   -0.18    0.34 
   8   0  -1    0.11    0.27 
   7   0  -1    0.28    0.38 
   7   0  -1    0.20    0.21 
   6   0  -1    0.38    0.19 
   6   0  -1    1.05    0.47 
   6   0  -1    0.55    0.25 
   6   0  -1    0.70    0.23 
   5   0  -1    1.14    0.41 
   5   0  -1    0.58    0.20 
   5   0  -1    1.42    0.24 
   5   0  -1    0.93    0.21 
   4   0  -1    0.11    0.23 
   4   0  -1    0.11    0.11 
   4   0  -1    0.00    0.09 
   4   0  -1   -0.21    0.15 
   3   0  -1    0.02    0.18 
   3   0  -1    0.04    0.09 
   3   0  -1    0.10    0.09 
   3   0  -1    0.05    0.08 
   2   0  -1    2.79    0.29 
   2   0  -1    3.26    0.30 
   2   0  -1    3.25    0.30 
   2   0  -1    1.91    0.35 
  -2   0   1    2.84    0.26 
  -2   0   1    3.74    0.47 
  -2   0   1    3.02    0.25 
   1   0  -1   12.80    0.93 
   1   0  -1   12.97    0.94 
   1   0  -1   12.61    0.92 
   1   0  -1   12.28    0.98 
   1   0  -1   13.16    0.94 
  -1   0   1   13.05    0.99 
  -1   0   1   12.04    0.92 
  -1   0   1   12.21    0.92 
  -1   0   1   12.64    0.93 
   0   0  -1   90.10    5.80 
   0   0  -1   89.78    5.79 
   0   0   1   78.21    5.79 
   0   0   1   79.45    5.80 
   0   0   1   79.76    5.79 
  -1   0  -1   24.59    1.74 
   1   0   1   24.19    1.69 
   1   0   1   24.51    1.69 
   1   0   1   23.22    1.68 
   1   0   1   24.07    1.68 
  -2   0  -1  170.86   12.31 
   2   0   1  183.70   12.33 
   3   0   1   17.51    1.21 
   3   0   1   15.92    1.39 
   4   0   1   51.25    3.66 
   4   0   1   54.64    3.92 
   4   0   1   51.29    3.65 
   4   0   1   53.91    3.88 
   5   0   1    3.41    0.34 
   5   0   1    3.86    0.35 
   5   0   1    4.51    0.65 
   5   0   1    3.34    0.33 
   5   0   1    3.92    0.61 
   6   0   1    3.63    0.39 
   6   0   1    3.35    0.35 
   6   0   1    3.13    0.60 
   6   0   1    2.31    0.32 
   7   0   1    0.05    0.14 
   7   0   1    0.37    0.17 
   7   0   1    0.37    0.42 
   8   0   1    0.51    0.40 
   8   0   1    0.15    0.18 
   8  -1  -1    0.48    0.30 
   7  -1  -1   -0.14    0.27 
   7  -1  -1    0.28    0.22 
   6  -1  -1    0.09    0.19 
   6  -1  -1    0.41    0.33 
   6  -1  -1    0.23    0.19 
   5  -1  -1    0.17    0.15 
   5  -1  -1   -0.03    0.23 
   5  -1  -1    0.31    0.19 
   5  -1  -1    0.22    0.17 
   4  -1  -1    3.15    0.41 
   4  -1  -1    2.38    0.48 
   4  -1  -1    2.95    0.38 
   4  -1  -1    2.60    0.48 
   4  -1  -1    2.84    0.40 
   3  -1  -1    4.04    0.45 
   3  -1  -1    3.74    0.40 
   3  -1  -1    3.30    0.53 
   3  -1  -1    3.34    0.41 
   3  -1  -1    3.70    0.51 
  -3   1   1    3.69    0.34 
  -3   1   1    3.74    0.34 
   2  -1  -1    0.80    0.20 
   2  -1  -1    0.60    0.15 
   2  -1  -1    0.63    0.16 
   2  -1  -1    0.59    0.15 
   2  -1  -1    0.48    0.22 
  -2   1   1    0.50    0.21 
  -2   1   1    0.60    0.14 
   1  -1  -1    7.14    0.66 
   1  -1  -1    8.19    0.63 
   1  -1  -1    8.07    0.62 
   1  -1  -1    8.80    0.65 
   1  -1  -1    7.28    0.62 
  -1   1   1    6.58    0.62 
  -1   1   1    7.58    0.63 
  -1   1   1    7.66    0.61 
   0  -1  -1  361.39   26.24 
   0  -1  -1  363.00   26.26 
   0  -1  -1  431.62   26.27 
   0  -1  -1  423.09   26.26 
   0  -1  -1  361.82   26.27 
   0   1   1  420.68   26.26 
   0   1   1  367.67   26.27 
   0   1   1  353.41   26.24 
   0   1   1  344.74   26.25 
  -1  -1  -1    5.14    0.43 
  -1  -1  -1    4.66    0.38 
  -1  -1  -1    4.75    0.38 
  -1  -1  -1    4.72    0.38 
   1   1   1    4.73    0.39 
   1   1   1    5.10    0.39 
   1   1   1    5.01    0.42 
   1   1   1    4.33    0.38 
   2   1   1  858.47   59.87 
   2   1   1  880.59   59.83 
   3   1   1    4.44    0.46 
   4   1   1  302.59   21.04 
   5   1   1    1.11    0.40 
   5   1   1    0.69    0.11 
   5   1   1    0.43    0.09 
   5   1   1    0.56    0.26 
   6   1   1   38.20    2.79 
   6   1   1   41.73    3.15 
   6   1   1   38.34    3.18 
   6   1   1   40.65    2.81 
   7   1   1    0.27    0.39 
   7   1   1   -0.06    0.15 
   7   1   1    0.04    0.11 
   7   1   1   -0.08    0.11 
   8   1   1    3.03    0.75 
   7  -2  -1    2.47    0.53 
   7  -2  -1    3.05    0.53 
   6  -2  -1    0.17    0.20 
   6  -2  -1   -0.15    0.24 
   5  -2  -1   16.74    1.34 
   5  -2  -1   15.20    1.37 
   5  -2  -1   15.70    1.36 
   4  -2  -1    1.96    0.40 
   4  -2  -1    1.83    0.34 
   4  -2  -1    1.77    0.37 
   4  -2  -1    2.32    0.40 
  -4   2   1    2.67    0.33 
  -4   2   1    2.78    0.33 
  -4   2   1    4.00    0.64 
   3  -2  -1   23.80    1.97 
   3  -2  -1   26.37    2.00 
   3  -2  -1   27.19    1.98 
   3  -2  -1   25.90    2.15 
  -3   2   1   26.17    1.91 
  -3   2   1   25.80    1.93 
  -3   2   1   26.16    2.02 
   2  -2  -1   12.58    1.18 
   2  -2  -1   15.83    1.23 
   2  -2  -1   15.25    1.21 
   2  -2  -1   15.92    1.33 
  -2   2   1   16.17    1.21 
   1  -2  -1    4.13    0.40 
   1  -2  -1    3.17    0.45 
   1  -2  -1    3.11    0.38 
   1  -2  -1    3.11    0.40 
   1  -2  -1    2.65    0.36 
  -1   2   1    2.87    0.36 
  -1   2   1    2.69    0.36 
  -1   2   1    2.20    0.38 
  -1   2   1    2.82    0.35 
   0  -2  -1   49.29    3.67 
   0  -2  -1   46.82    3.66 
   0  -2  -1   57.86    3.68 
   0  -2  -1   59.67    3.68 
   0  -2  -1   47.74    3.62 
   0   2   1   56.71    3.66 
   0   2   1   47.04    3.67 
   0   2   1   45.66    3.61 
   0   2   1   56.78    3.68 
   0   2   1   48.15    3.65 
  -1  -2  -1    6.83    0.58 
  -1  -2  -1    6.63    0.57 
  -1  -2  -1    6.88    0.55 
  -1  -2  -1    6.92    0.59 
   1   2   1    6.45    0.59 
   1   2   1    7.38    0.55 
   1   2   1    6.01    0.53 
   1   2   1    6.38    0.58 
   1   2   1    6.84    0.58 
  -2  -2  -1    1.16    0.18 
  -2  -2  -1    1.46    0.24 
  -2  -2  -1    1.31    0.19 
  -2  -2  -1    1.42    0.21 
  -2  -2  -1    1.04    0.16 
   2   2   1    1.49    0.21 
   2   2   1    1.59    0.24 
   2   2   1    1.22    0.20 
   2   2   1    1.21    0.19 
   3   2   1    1.74    0.22 
   3   2   1    1.14    0.17 
   3   2   1    1.22    0.19 
   3   2   1    1.42    0.22 
   3   2   1    1.75    0.30 
   4   2   1    4.03    0.38 
   4   2   1    4.19    0.48 
   4   2   1    3.98    0.36 
   4   2   1    3.36    0.37 
   4   2   1    3.99    0.35 
   5   2   1    0.19    0.10 
   5   2   1    0.13    0.11 
   5   2   1    0.11    0.18 
   5   2   1    0.19    0.11 
   6   2   1    1.25    0.20 
   6   2   1    0.94    0.40 
   6   2   1    1.16    0.21 
   6   2   1    2.14    0.55 
   7   2   1    0.26    0.43 
   7   2   1    0.12    0.12 
   7   2   1   -0.18    0.13 
   7   2   1    0.05    0.16 
   8   2   1    0.28    0.16 
   8   2   1    0.69    0.51 
   7  -3  -1    0.27    0.30 
   6  -3  -1    0.14    0.26 
   5  -3  -1    5.14    0.73 
   5  -3  -1    5.08    0.70 
  -5   3   1    6.71    0.69 
   4  -3  -1    0.99    0.32 
   4  -3  -1    0.96    0.30 
   4  -3  -1    0.95    0.31 
  -4   3   1    0.31    0.21 
  -4   3   1    0.93    0.40 
   3  -3  -1   23.76    1.86 
   3  -3  -1   22.03    1.85 
   3  -3  -1   24.15    1.88 
  -3   3   1   21.67    1.80 
  -3   3   1   23.42    1.81 
  -3   3   1   23.76    1.80 
   2  -3  -1    0.56    0.23 
   2  -3  -1    0.69    0.25 
   2  -3  -1    0.94    0.34 
   2  -3  -1    1.09    0.29 
  -2   3   1    0.09    0.16 
  -2   3   1    0.66    0.20 
  -2   3   1    0.48    0.25 
  -2   3   1    0.78    0.26 
   1  -3  -1   22.23    1.61 
   1  -3  -1   21.89    1.66 
   1  -3  -1   19.83    1.64 
   1  -3  -1   22.14    1.69 
   1  -3  -1   18.34    1.69 
  -1   3   1   23.29    1.69 
  -1   3   1   19.25    1.62 
  -1   3   1   20.89    1.70 
   0  -3  -1    2.60    0.41 
   0  -3  -1    3.50    0.44 
   0  -3  -1    3.33    0.43 
   0  -3  -1    2.14    0.30 
   0  -3  -1    2.19    0.36 
   0   3   1    3.19    0.42 
   0   3   1    2.22    0.34 
   0   3   1    2.56    0.40 
   0   3   1    3.25    0.42 
  -1  -3  -1    7.86    0.72 
  -1  -3  -1    7.38    0.70 
  -1  -3  -1    7.71    0.64 
  -1  -3  -1    8.23    0.72 
   1   3   1    8.32    0.73 
   1   3   1    7.57    0.70 
   1   3   1    7.34    0.63 
   1   3   1    7.59    0.71 
   1   3   1    7.66    0.68 
  -2  -3  -1    6.85    0.57 
  -2  -3  -1    6.03    0.60 
  -2  -3  -1    5.98    0.57 
  -2  -3  -1    5.14    0.56 
   2   3   1    5.97    0.52 
   2   3   1    5.30    0.58 
   2   3   1    6.19    0.59 
   2   3   1    6.41    0.58 
  -3  -3  -1    2.43    0.27 
  -3  -3  -1    2.48    0.29 
  -3  -3  -1    2.60    0.31 
   3   3   1    2.10    0.32 
   3   3   1    2.22    0.31 
   3   3   1    2.45    0.35 
   3   3   1    1.89    0.32 
   4   3   1    2.51    0.36 
   4   3   1    1.94    0.35 
   4   3   1    1.68    0.29 
   4   3   1    1.58    0.28 
   5   3   1    0.11    0.16 
   5   3   1    0.46    0.19 
   5   3   1    0.36    0.18 
   5   3   1    1.09    0.31 
   5   3   1    0.61    0.16 
   6   3   1    0.25    0.18 
   6   3   1    0.51    0.20 
   6   3   1    0.19    0.22 
   6   3   1    0.55    0.31 
   6   3   1    0.47    0.15 
   7   3   1    0.17    0.33 
   7   3   1    0.29    0.35 
   7   3   1    0.08    0.14 
   7   3   1   -0.21    0.16 
   8   3   1   -0.34    0.18 
   8   3   1   -0.21    0.40 
   8   3   1    0.01    0.51 
   8   3   1    0.42    0.18 
   7  -4  -1    0.03    0.35 
   6  -4  -1   -0.09    0.27 
   5  -4  -1    0.78    0.34 
   4  -4  -1    2.83    0.55 
   4  -4  -1    2.24    0.50 
   4  -4  -1    2.05    0.45 
  -4   4   1    1.44    0.43 
  -4   4   1    1.92    0.42 
  -4   4   1    1.75    0.37 
   3  -4  -1    0.11    0.22 
   3  -4  -1    0.06    0.20 
   3  -4  -1    0.25    0.22 
  -3   4   1   -0.08    0.15 
  -3   4   1    0.06    0.25 
  -3   4   1    0.11    0.17 
   2  -4  -1    9.61    0.99 
   2  -4  -1    9.62    1.00 
   2  -4  -1   11.02    1.16 
  -2   4   1    9.17    1.12 
  -2   4   1    9.61    0.95 
  -2   4   1    9.99    0.96 
   1  -4  -1   -0.29    0.14 
   1  -4  -1   -0.17    0.16 
   1  -4  -1   -0.19    0.20 
   1  -4  -1   -0.21    0.16 
  -1   4   1   -0.08    0.16 
  -1   4   1   -0.08    0.16 
  -1   4   1   -0.14    0.15 
   0  -4  -1   23.05    1.87 
   0  -4  -1   22.67    1.95 
   0  -4  -1   23.46    1.98 
   0  -4  -1   27.15    1.99 
   0   4   1   22.71    1.98 
   0   4   1   28.21    2.03 
   0   4   1   28.37    2.00 
  -1  -4  -1    0.05    0.10 
  -1  -4  -1    0.23    0.17 
  -1  -4  -1   -0.05    0.16 
  -1  -4  -1    0.21    0.20 
   1   4   1    0.05    0.11 
   1   4   1    0.11    0.15 
   1   4   1   -0.06    0.17 
   1   4   1    0.20    0.18 
  -2  -4  -1    1.24    0.24 
  -2  -4  -1    1.12    0.30 
  -2  -4  -1    1.15    0.26 
  -2  -4  -1    1.52    0.32 
  -2  -4  -1    1.67    0.34 
   2   4   1    0.97    0.28 
   2   4   1    1.02    0.28 
   2   4   1    1.20    0.21 
  -3  -4  -1    2.06    0.37 
  -3  -4  -1    2.11    0.33 
  -3  -4  -1    2.08    0.35 
  -3  -4  -1    1.95    0.34 
  -3  -4  -1    1.96    0.37 
   3   4   1    2.09    0.39 
   3   4   1    1.78    0.37 
   3   4   1    2.18    0.29 
  -4  -4  -1    0.36    0.11 
  -4  -4  -1    0.07    0.13 
  -4  -4  -1    0.28    0.14 
  -4  -4  -1    0.17    0.11 
   4   4   1    0.01    0.15 
   4   4   1    0.19    0.14 
   4   4   1    0.17    0.20 
   5   4   1    4.77    0.61 
   5   4   1    4.67    0.58 
   5   4   1    5.82    0.70 
   5   4   1    5.42    0.63 
   6   4   1    0.04    0.17 
   6   4   1   -0.08    0.21 
   6   4   1   -0.09    0.19 
   6   4   1    0.27    0.19 
   6   4   1    0.05    0.18 
   7   4   1    2.46    0.38 
   7   4   1    1.02    0.32 
   7   4   1    1.59    0.60 
   7   4   1    1.91    0.48 
   8   4   1    0.01    0.18 
   8   4   1    0.47    0.51 
   8   4   1    0.10    0.22 
   6  -5  -1   -0.13    0.36 
   5  -5  -1    1.32    0.46 
   4  -5  -1    0.13    0.32 
  -4   5   1    0.15    0.30 
   3  -5  -1    1.24    0.40 
   3  -5  -1    1.63    0.46 
  -3   5   1    2.29    0.48 
  -3   5   1    1.64    0.53 
  -3   5   1    0.88    0.35 
  -3   5   1    0.79    0.37 
   2  -5  -1   -0.13    0.24 
   2  -5  -1   -0.04    0.25 
  -2   5   1   -0.18    0.23 
  -2   5   1   -0.01    0.23 
  -2   5   1   -0.20    0.18 
   1  -5  -1    1.36    0.40 
   1  -5  -1    0.59    0.30 
  -1   5   1    0.71    0.32 
  -1   5   1    1.16    0.35 
  -1   5   1    0.95    0.33 
   0  -5  -1    9.50    1.09 
   0  -5  -1   12.45    1.16 
   0   5   1   13.38    1.16 
   0   5   1   11.14    1.14 
   0   5   1   12.40    1.16 
  -1  -5  -1    5.34    0.66 
  -1  -5  -1    4.23    0.67 
  -1  -5  -1    4.95    0.59 
  -1  -5  -1    5.12    0.66 
   1   5   1    3.07    0.55 
   1   5   1    5.48    0.74 
   1   5   1    4.83    0.65 
  -2  -5  -1   12.32    1.19 
  -2  -5  -1   14.85    1.10 
  -2  -5  -1   11.87    1.26 
   2   5   1   13.49    1.18 
   2   5   1   14.20    1.27 
   2   5   1   12.89    1.07 
   2   5   1   14.16    1.27 
  -3  -5  -1    5.58    0.65 
  -3  -5  -1    6.37    0.84 
   3   5   1    5.85    0.54 
   3   5   1    6.14    0.78 
   3   5   1    5.18    0.72 
  -4  -5  -1    7.33    0.68 
  -4  -5  -1    7.98    0.87 
   4   5   1    5.79    0.80 
   4   5   1    6.36    0.80 
   4   5   1    7.35    0.63 
  -5  -5  -1   -0.05    0.11 
   5   5   1   -0.19    0.20 
   5   5   1    0.05    0.14 
   5   5   1    0.13    0.18 
   6   5   1    3.07    0.52 
   6   5   1    3.73    0.57 
   6   5   1    3.87    0.51 
   7   5   1    0.54    0.30 
   7   5   1    0.52    0.26 
   8   5   1    0.45    0.67 
   8   5   1    0.98    0.34 
   8   5   1    0.55    0.30 
   5  -6  -1   -0.18    0.37 
   4  -6  -1    3.12    0.71 
   3  -6  -1    0.44    0.33 
  -3   6   1    0.38    0.32 
  -3   6   1   -0.43    0.27 
  -3   6   1    0.58    0.46 
   2  -6  -1   33.15    2.44 
   2  -6  -1   25.11    2.36 
  -2   6   1   28.38    2.31 
  -2   6   1   23.66    2.37 
  -2   6   1   27.22    2.31 
   1  -6  -1    1.73    0.56 
   1  -6  -1    2.37    0.56 
  -1   6   1    2.23    0.49 
  -1   6   1    1.71    0.47 
  -1   6   1    1.31    0.46 
   0  -6  -1   87.18    7.26 
   0   6   1  110.87    7.38 
   0   6   1  111.86    7.32 
   0   6   1   92.58    7.31 
  -1  -6  -1    0.27    0.27 
  -1  -6  -1    1.08    0.41 
   1   6   1    0.59    0.35 
   1   6   1    0.90    0.38 
   1   6   1    1.05    0.38 
  -2  -6  -1   36.26    2.77 
  -2  -6  -1   35.87    2.88 
   2   6   1   37.10    2.84 
   2   6   1   32.42    2.79 
   2   6   1   34.49    2.74 
  -3  -6  -1    1.31    0.31 
  -3  -6  -1    0.99    0.34 
  -3  -6  -1    1.56    0.45 
   3   6   1    0.98    0.31 
   3   6   1    1.52    0.44 
   3   6   1    1.00    0.23 
   3   6   1    1.84    0.47 
  -4  -6  -1    5.75    0.81 
  -4  -6  -1    5.86    0.69 
  -4  -6  -1    5.36    0.70 
   4   6   1    4.55    0.74 
   4   6   1    4.03    0.70 
   4   6   1    5.62    0.53 
  -5  -6  -1    3.85    0.44 
   5   6   1    2.15    0.53 
   5   6   1    3.00    0.39 
   5   6   1    2.54    0.52 
   6   6   1    0.01    0.23 
   6   6   1   -0.23    0.25 
   7   6   1    0.47    0.34 
   7   6   1    0.94    0.36 
   8   6   1   -0.39    0.70 
   8   6   1    0.26    0.35 
   8   6   1    0.11    0.35 
   4  -7  -1    0.36    0.48 
   3  -7  -1    0.93    0.54 
  -3   7   1    0.84    0.50 
   2  -7  -1   -0.02    0.38 
  -2   7   1   -0.19    0.38 
  -2   7   1   -0.30    0.33 
  -2   7   1   -0.35    0.25 
   1  -7  -1    9.43    1.23 
  -1   7   1    8.22    1.20 
  -1   7   1    6.28    0.96 
  -1   7   1    7.93    1.07 
   0  -7  -1    3.90    0.78 
   0  -7  -1    5.03    0.95 
   0   7   1    4.26    0.85 
   0   7   1    4.71    0.84 
   0   7   1    6.50    0.89 
  -1  -7  -1   14.12    1.47 
  -1  -7  -1   10.79    1.45 
   1   7   1    9.63    1.29 
   1   7   1   14.10    1.54 
   1   7   1   10.70    1.34 
  -2  -7  -1    2.71    0.57 
  -2  -7  -1    2.38    0.67 
   2   7   1    2.66    0.63 
   2   7   1    2.72    0.57 
   2   7   1    2.16    0.59 
  -3  -7  -1    0.47    0.39 
  -3  -7  -1    0.59    0.35 
   3   7   1    1.71    0.51 
   3   7   1    0.62    0.30 
   3   7   1    1.62    0.51 
  -4  -7  -1   -0.13    0.36 
  -4  -7  -1    0.33    0.39 
   4   7   1   -0.49    0.34 
   4   7   1    0.16    0.26 
   4   7   1    0.18    0.26 
   5   7   1    1.77    0.37 
   5   7   1    1.49    0.48 
   5   7   1    1.39    0.51 
   6   7   1   -0.47    0.30 
   6   7   1   -0.25    0.24 
   7   7   1    2.77    0.61 
   7   7   1    1.04    0.52 
   3  -8  -1    0.87    0.67 
   3  -8  -1    2.49    0.74 
   2  -8  -1    2.89    0.86 
   2  -8  -1    1.98    0.76 
  -2   8   1    1.03    0.68 
  -2   8   1    1.56    0.60 
   1  -8  -1   -0.02    0.42 
   1  -8  -1    0.94    0.58 
  -1   8   1    1.28    0.61 
  -1   8   1    0.58    0.46 
  -1   8   1    0.22    0.44 
   0  -8  -1    1.59    0.60 
   0  -8  -1    2.18    0.65 
   0   8   1    2.32    0.60 
   0   8   1    3.23    0.74 
   0   8   1    2.60    0.67 
  -1  -8  -1   -0.18    0.34 
  -1  -8  -1   -0.25    0.36 
   1   8   1   -0.06    0.38 
   1   8   1   -0.25    0.31 
   1   8   1    0.27    0.33 
  -2  -8  -1    1.86    0.66 
  -2  -8  -1    3.03    0.65 
   2   8   1    1.51    0.54 
   2   8   1    1.13    0.51 
   2   8   1    2.08    0.62 
  -3  -8  -1   -0.40    0.33 
   3   8   1    0.26    0.33 
   3   8   1   -0.13    0.35 
   3   8   1   -0.15    0.27 
   4   8   1    1.58    0.48 
   4   8   1    1.67    0.51 
   4   8   1    1.68    0.61 
   5   8   1    0.12    0.40 
   5   8   1    0.10    0.34 
   6   8   1    0.56    0.41 
   6   8   1    1.72    0.60 
   1  -9  -1    1.78    0.70 
   1  -9  -1    0.77    0.65 
  -1   9   1    0.66    0.59 
  -1   9   1    1.22    0.66 
   0  -9  -1    3.52    0.89 
   0  -9  -1    3.95    0.92 
   0   9   1    3.94    0.90 
   0   9   1    1.72    0.68 
   0   9   1    3.96    0.90 
  -1  -9  -1    3.66    0.80 
  -1  -9  -1    2.59    0.79 
   1   9   1    3.31    0.85 
   1   9   1    1.57    0.66 
   1   9   1    1.36    0.65 
  -2  -9  -1    1.82    0.73 
   2   9   1    2.79    0.70 
   2   9   1    2.14    0.71 
   2   9   1    1.12    0.65 
  -3  -9  -1    0.92    0.64 
   3   9   1    0.99    0.55 
   3   9   1    0.78    0.52 
   3   9   1    1.08    0.54 
   4   9   1    1.71    0.69 
   4   9   1   -0.08    0.39 
   5   9   1    0.31    0.47 
   5   9   1    0.10    0.40 
   4   9  -2    0.38    0.43 
   4   9  -2    0.16    0.54 
   3   9  -2    0.91    0.53 
   3   9  -2    1.20    0.62 
   3   9  -2    0.90    0.58 
  -3  -9   2    2.17    0.79 
   2   9  -2    1.76    0.62 
   2   9  -2    1.71    0.70 
   2   9  -2    0.68    0.44 
  -2  -9   2    2.64    0.80 
   1   9  -2   -0.04    0.42 
   1   9  -2    1.41    0.64 
   1   9  -2    0.06    0.43 
  -1  -9   2    0.49    0.77 
  -1  -9   2    0.51    0.51 
   0   9  -2    0.75    0.62 
   0   9  -2    0.00    0.42 
   0   9  -2    0.96    0.61 
   0  -9   2    0.42    0.50 
   0  -9   2    0.99    0.60 
  -1   9  -2    0.39    0.40 
  -1   9  -2   -0.95    0.54 
   1  -9   2   -0.38    0.56 
   1  -9   2   -0.73    0.47 
   6   8  -2   -0.28    0.51 
   6   8  -2   -0.03    0.34 
   6   8  -2   -0.26    0.61 
   5   8  -2   -0.02    0.35 
   5   8  -2   -0.37    0.39 
   5   8  -2    0.76    0.66 
   4   8  -2    0.00    0.34 
   4   8  -2    0.13    0.37 
   3   8  -2    0.77    0.51 
   3   8  -2    1.00    0.49 
  -3  -8   2    1.45    0.57 
   2   8  -2    0.96    0.49 
   2   8  -2    1.05    0.51 
   2   8  -2    1.57    0.63 
  -2  -8   2    1.84    0.66 
  -2  -8   2    1.92    0.59 
   1   8  -2    4.25    0.84 
   1   8  -2    2.83    0.73 
   1   8  -2    5.41    1.02 
  -1  -8   2    6.47    0.97 
  -1  -8   2    4.49    0.92 
   0   8  -2    6.60    1.01 
   0   8  -2    5.40    1.01 
   0   8  -2    3.30    0.79 
   0  -8   2    5.31    0.97 
   0  -8   2    5.58    1.09 
  -1   8  -2    3.47    0.85 
  -1   8  -2    5.30    1.00 
  -1   8  -2    3.55    0.86 
   1  -8   2    5.37    0.97 
   1  -8   2    4.52    1.03 
  -2   8  -2    0.27    0.55 
  -2   8  -2    1.07    0.58 
   2  -8   2    1.96    0.67 
   2  -8   2    0.59    0.63 
  -3   8  -2    1.92    0.78 
   3  -8   2    2.14    0.70 
   3  -8   2    1.05    0.74 
   7   7  -2    0.08    0.37 
   7   7  -2    0.10    0.43 
   7   7  -2   -0.09    0.61 
   6   7  -2    1.54    0.47 
   6   7  -2    0.27    0.49 
   6   7  -2    0.89    0.66 
   5   7  -2    0.17    0.43 
   5   7  -2    1.38    0.48 
   5   7  -2    0.52    0.59 
   4   7  -2    1.97    0.54 
   4   7  -2    2.08    0.55 
  -4  -7   2    3.22    0.73 
   3   7  -2    2.27    0.57 
   3   7  -2    2.44    0.58 
  -3  -7   2    2.73    0.57 
  -3  -7   2    2.16    0.62 
   2   7  -2    0.25    0.39 
   2   7  -2    0.38    0.33 
  -2  -7   2    0.43    0.32 
  -2  -7   2    0.58    0.41 
   1   7  -2    1.96    0.58 
   1   7  -2    1.63    0.50 
   1   7  -2    1.10    0.47 
  -1  -7   2    1.30    0.52 
  -1  -7   2    1.02    0.41 
   0   7  -2    1.61    0.52 
   0   7  -2    2.30    0.65 
   0   7  -2    1.89    0.56 
   0  -7   2    1.50    0.54 
   0  -7   2    2.37    0.69 
  -1   7  -2   -0.18    0.36 
  -1   7  -2   -0.20    0.24 
  -1   7  -2    0.16    0.38 
   1  -7   2    0.08    0.36 
   1  -7   2    0.26    0.42 
  -2   7  -2    4.94    0.98 
  -2   7  -2    4.34    0.82 
  -2   7  -2    3.62    0.74 
   2  -7   2    4.58    0.98 
   2  -7   2    5.16    0.92 
  -3   7  -2   -0.09    0.48 
  -3   7  -2    0.18    0.40 
   3  -7   2    0.28    0.52 
   3  -7   2   -0.31    0.35 
  -4   7  -2    0.91    0.66 
   4  -7   2    1.33    0.74 
   4  -7   2    1.90    0.66 
   7   6  -2    0.26    0.43 
   7   6  -2    0.59    0.38 
   7   6  -2    0.63    0.65 
   6   6  -2    1.06    0.38 
   6   6  -2    0.61    0.40 
   6   6  -2    0.71    0.59 
   5   6  -2    2.24    0.56 
   5   6  -2    0.74    0.52 
   5   6  -2    1.76    0.46 
   4   6  -2    4.06    0.72 
   4   6  -2    3.14    0.66 
  -4  -6   2    3.92    0.58 
  -4  -6   2    3.56    0.69 
   3   6  -2   -0.12    0.29 
   3   6  -2    0.40    0.30 
  -3  -6   2    0.64    0.30 
  -3  -6   2    0.43    0.16 
  -3  -6   2    0.30    0.34 
   2   6  -2    9.01    1.16 
   2   6  -2   11.25    1.29 
  -2  -6   2    8.81    1.03 
  -2  -6   2    9.64    0.78 
  -2  -6   2    9.10    1.17 
   1   6  -2    0.18    0.30 
   1   6  -2   -0.23    0.24 
  -1  -6   2   -0.23    0.22 
  -1  -6   2   -0.26    0.22 
   0   6  -2    4.09    0.66 
   0   6  -2    4.27    0.76 
   0   6  -2    3.54    0.68 
   0  -6   2    2.30    0.55 
   0  -6   2    4.83    0.82 
  -1   6  -2    0.25    0.28 
  -1   6  -2    0.22    0.32 
  -1   6  -2    0.20    0.32 
   1  -6   2    0.35    0.39 
   1  -6   2   -0.42    0.27 
   1  -6   2    0.25    0.30 
  -2   6  -2    0.67    0.44 
  -2   6  -2    0.03    0.33 
  -2   6  -2    0.08    0.31 
   2  -6   2    0.92    0.49 
   2  -6   2    0.75    0.49 
   2  -6   2    0.89    0.44 
  -3   6  -2    0.13    0.29 
  -3   6  -2   -0.14    0.43 
  -3   6  -2    0.24    0.38 
   3  -6   2    0.38    0.34 
   3  -6   2   -0.20    0.34 
  -4   6  -2    1.42    0.68 
   4  -6   2    4.99    0.86 
   4  -6   2    2.22    0.73 
  -5   6  -2    0.83    0.65 
   5  -6   2    0.13    0.43 
   5  -6   2    0.29    0.39 
   8   5  -2    0.10    0.39 
   8   5  -2   -0.04    0.58 
   8   5  -2    0.35    0.32 
   7   5  -2   -0.16    0.31 
   7   5  -2    0.51    0.52 
   7   5  -2    0.27    0.31 
   6   5  -2    0.37    0.28 
   6   5  -2    0.40    0.33 
   6   5  -2    0.48    0.50 
   5   5  -2    2.32    0.54 
   5   5  -2    2.10    0.67 
   5   5  -2    2.27    0.47 
  -5  -5   2    3.18    0.40 
  -5  -5   2    1.83    0.38 
   4   5  -2    0.26    0.34 
   4   5  -2   -0.02    0.21 
   4   5  -2    0.00    0.21 
  -4  -5   2    0.03    0.15 
  -4  -5   2   -0.03    0.21 
   3   5  -2    4.43    0.76 
   3   5  -2    4.07    0.66 
   3   5  -2    3.23    0.59 
  -3  -5   2    4.14    0.69 
  -3  -5   2    5.36    0.63 
   2   5  -2    7.42    0.92 
   2   5  -2    6.52    0.85 
   2   5  -2    7.56    1.11 
  -2  -5   2    5.64    0.72 
  -2  -5   2    4.81    0.77 
  -2  -5   2    5.91    0.50 
   1   5  -2    6.55    0.86 
   1   5  -2    7.29    0.93 
  -1  -5   2    6.96    1.02 
  -1  -5   2    6.29    0.93 
  -1  -5   2    6.37    0.59 
   0   5  -2   22.43    1.84 
   0   5  -2   18.86    1.80 
   0  -5   2   22.35    1.90 
   0  -5   2   21.99    1.83 
  -1   5  -2   15.22    1.40 
  -1   5  -2   15.33    1.50 
  -1   5  -2   16.14    1.44 
   1  -5   2   14.85    1.48 
   1  -5   2   15.01    1.42 
  -2   5  -2    0.98    0.40 
  -2   5  -2    1.00    0.38 
  -2   5  -2    1.17    0.44 
   2  -5   2    1.31    0.46 
   2  -5   2    0.66    0.34 
   2  -5   2    0.48    0.37 
  -3   5  -2   14.12    1.30 
  -3   5  -2   13.51    1.29 
  -3   5  -2   12.56    1.57 
   3  -5   2   12.82    1.54 
   3  -5   2   13.03    1.39 
   3  -5   2   14.49    1.36 
  -4   5  -2    0.60    0.49 
  -4   5  -2    0.39    0.34 
   4  -5   2    0.75    0.36 
   4  -5   2    1.08    0.51 
  -5   5  -2    4.54    0.99 
   5  -5   2    2.50    0.74 
   5  -5   2    3.47    0.63 
   6  -5   2    1.26    0.57 
   6  -5   2    0.23    0.40 
   8   4  -2   -0.31    0.42 
   8   4  -2    0.13    0.36 
   8   4  -2    0.33    0.33 
   7   4  -2    0.11    0.26 
   7   4  -2   -0.02    0.23 
   7   4  -2    0.47    0.58 
   6   4  -2    0.91    0.59 
   6   4  -2    0.65    0.28 
   6   4  -2    0.70    0.33 
   5   4  -2    0.35    0.27 
   5   4  -2    1.34    0.43 
   5   4  -2    1.03    0.50 
   5   4  -2    0.31    0.25 
  -5  -4   2    0.70    0.19 
   4   4  -2    1.74    0.59 
   4   4  -2    1.91    0.42 
   4   4  -2    1.48    0.37 
   4   4  -2    1.53    0.41 
  -4  -4   2    2.46    0.41 
  -4  -4   2    2.27    0.33 
   3   4  -2    6.94    0.89 
   3   4  -2    9.84    1.09 
   3   4  -2    8.78    0.89 
  -3  -4   2    9.99    0.91 
   2   4  -2    1.69    0.43 
   2   4  -2    0.97    0.30 
   2   4  -2    1.20    0.33 
  -2  -4   2    2.40    0.46 
  -2  -4   2    1.85    0.38 
  -2  -4   2    1.35    0.16 
   1   4  -2   13.91    1.17 
   1   4  -2   12.39    1.18 
   1   4  -2   10.64    1.12 
  -1  -4   2   12.95    1.14 
  -1  -4   2   12.24    0.95 
  -1  -4   2   12.78    1.17 
   0   4  -2    0.39    0.23 
   0   4  -2    0.39    0.24 
   0  -4   2    0.33    0.21 
   0  -4   2    0.30    0.23 
   0  -4   2    0.83    0.31 
  -1   4  -2   11.49    1.03 
  -1   4  -2    9.16    0.98 
   1  -4   2   10.18    1.01 
   1  -4   2   12.08    1.10 
   1  -4   2   10.64    1.04 
  -2   4  -2    0.04    0.21 
  -2   4  -2    0.28    0.25 
  -2   4  -2    0.21    0.22 
   2  -4   2    0.32    0.28 
   2  -4   2    0.05    0.24 
   2  -4   2   -0.20    0.19 
  -3   4  -2   12.82    1.12 
  -3   4  -2   11.27    1.39 
   3  -4   2   12.25    1.20 
   3  -4   2   12.16    1.19 
   3  -4   2   10.82    1.31 
  -4   4  -2    0.96    0.46 
  -4   4  -2    0.81    0.29 
  -4   4  -2    0.64    0.27 
   4  -4   2    1.44    0.38 
   4  -4   2    0.87    0.33 
   4  -4   2    0.95    0.37 
  -5   4  -2    4.23    0.87 
   5  -4   2    3.68    0.62 
   6  -4   2    1.30    0.39 
   7  -4   2    0.69    0.48 
   7  -4   2    0.28    0.31 
   8   3  -2    0.44    0.31 
   8   3  -2    0.48    0.45 
   8   3  -2    0.26    0.31 
   7   3  -2   -0.06    0.21 
   7   3  -2   -0.04    0.43 
   7   3  -2   -0.01    0.24 
   6   3  -2    4.91    0.63 
   6   3  -2    4.79    0.97 
   6   3  -2    3.63    0.54 
   5   3  -2    0.28    0.21 
   5   3  -2    0.13    0.17 
   5   3  -2    0.32    0.24 
   5   3  -2   -0.02    0.40 
   5   3  -2    0.17    0.19 
   4   3  -2    8.01    0.84 
   4   3  -2    9.66    0.69 
   4   3  -2    8.13    1.16 
   4   3  -2    9.91    0.92 
   4   3  -2    8.95    0.71 
   4   3  -2    8.22    0.88 
  -4  -3   2    9.69    0.75 
  -4  -3   2    9.90    0.77 
  -4  -3   2    9.09    0.77 
   3   3  -2    0.12    0.17 
   3   3  -2    0.43    0.31 
   3   3  -2    0.51    0.21 
   3   3  -2    0.48    0.19 
  -3  -3   2   -0.03    0.14 
  -3  -3   2    0.07    0.15 
  -3  -3   2    0.24    0.19 
   2   3  -2   -0.01    0.16 
   2   3  -2    0.07    0.16 
   2   3  -2    0.13    0.17 
  -2  -3   2    0.09    0.15 
  -2  -3   2   -0.02    0.15 
  -2  -3   2    0.06    0.14 
   1   3  -2    2.46    0.42 
   1   3  -2    2.82    0.45 
   1   3  -2    3.70    0.52 
  -1  -3   2    3.39    0.30 
  -1  -3   2    4.08    0.55 
  -1  -3   2    3.52    0.47 
  -1  -3   2    3.62    0.50 
   0   3  -2   52.26    3.69 
   0   3  -2   46.01    3.64 
   0   3  -2   52.23    3.65 
   0  -3   2   53.45    3.66 
   0  -3   2   49.72    3.69 
   0  -3   2   45.02    3.62 
  -1   3  -2    8.55    0.79 
  -1   3  -2    7.73    0.78 
   1  -3   2    7.87    0.82 
   1  -3   2    7.23    0.76 
   1  -3   2    9.16    0.81 
  -2   3  -2   32.97    2.37 
  -2   3  -2   28.22    2.47 
  -2   3  -2   31.18    2.37 
   2  -3   2   30.86    2.39 
   2  -3   2   32.68    2.40 
   2  -3   2   30.29    2.44 
  -3   3  -2    0.10    0.22 
  -3   3  -2    0.20    0.15 
  -3   3  -2    0.37    0.19 
   3  -3   2    0.20    0.19 
   3  -3   2    0.53    0.25 
  -4   3  -2    7.03    0.65 
  -4   3  -2    7.03    0.99 
   4  -3   2    6.76    0.86 
   4  -3   2    7.70    0.87 
  -5   3  -2    1.15    0.49 
   5  -3   2    1.04    0.31 
   5  -3   2    0.77    0.33 
   6  -3   2    0.40    0.23 
   7  -3   2    0.08    0.26 
   8   2  -2    0.15    0.48 
   8   2  -2   -0.33    0.28 
   7   2  -2    0.18    0.23 
   7   2  -2    1.09    0.53 
   7   2  -2    0.22    0.26 
   6   2  -2    0.55    0.22 
   6   2  -2    0.31    0.19 
   6   2  -2    0.53    0.26 
   6   2  -2    0.23    0.45 
   5   2  -2   -0.15    0.16 
   5   2  -2    0.20    0.17 
   5   2  -2    0.10    0.16 
   5   2  -2    0.16    0.34 
   4   2  -2    7.42    0.75 
   4   2  -2    6.76    0.70 
   4   2  -2    6.45    1.03 
   4   2  -2    7.60    0.74 
  -4  -2   2    8.14    0.60 
  -4  -2   2    8.18    0.60 
   3   2  -2    0.23    0.08 
   3   2  -2    0.29    0.14 
   3   2  -2    0.23    0.18 
   3   2  -2    0.04    0.26 
   3   2  -2    0.13    0.17 
  -3  -2   2    0.25    0.13 
  -3  -2   2    0.24    0.12 
  -3  -2   2    0.23    0.12 
   2   2  -2   14.99    1.34 
   2   2  -2   15.32    1.22 
   2   2  -2   14.47    1.22 
   2   2  -2   15.52    1.26 
  -2  -2   2   15.63    1.20 
  -2  -2   2   15.16    1.23 
  -2  -2   2   15.75    1.21 
   1   2  -2   20.20    1.62 
   1   2  -2   21.31    1.68 
   1   2  -2   21.21    1.64 
   1   2  -2   21.50    1.63 
  -1  -2   2   20.82    1.65 
  -1  -2   2   22.47    1.62 
  -1  -2   2   21.05    1.62 
   0   2  -2    0.93    0.21 
   0   2  -2    0.67    0.20 
   0   2  -2    0.93    0.24 
   0   2  -2    0.65    0.20 
   0  -2   2    0.43    0.18 
   0  -2   2    1.24    0.26 
   0  -2   2    0.81    0.22 
  -1   2  -2   88.40    6.35 
  -1   2  -2   91.36    6.35 
  -1   2  -2   89.27    6.25 
   1  -2   2   87.82    6.38 
   1  -2   2   94.98    6.37 
   1  -2   2   88.18    6.35 
  -2   2  -2    2.58    0.35 
  -2   2  -2    2.49    0.34 
  -2   2  -2    2.22    0.43 
   2  -2   2    1.93    0.33 
   2  -2   2    3.52    0.43 
   2  -2   2    2.71    0.40 
  -3   2  -2   42.30    2.97 
  -3   2  -2   37.63    3.17 
  -3   2  -2   41.56    2.98 
   3  -2   2   40.96    3.05 
   3  -2   2   43.46    3.05 
  -4   2  -2    1.54    0.42 
  -4   2  -2    1.85    0.19 
   4  -2   2    1.56    0.32 
   4  -2   2    2.14    0.36 
  -5   2  -2    6.68    0.90 
   5  -2   2    5.24    0.60 
   5  -2   2    4.23    0.48 
   5  -2   2    4.60    0.60 
   6  -2   2    0.61    0.28 
   6  -2   2    0.50    0.21 
   6  -2   2    0.77    0.25 
   7  -2   2    0.21    0.21 
   8  -2   2    0.23    0.28 
   8   1  -2   -0.30    0.29 
   8   1  -2    0.17    0.48 
   7   1  -2   -0.02    0.42 
   7   1  -2    0.16    0.24 
   6   1  -2    0.12    0.19 
   6   1  -2    0.02    0.19 
   6   1  -2    0.68    0.23 
   6   1  -2    1.10    0.50 
   5   1  -2    0.11    0.33 
   5   1  -2    0.29    0.19 
   5   1  -2    0.54    0.18 
   5   1  -2    0.01    0.15 
   4   1  -2    0.04    0.10 
   4   1  -2   -0.27    0.26 
   4   1  -2    0.16    0.15 
   4   1  -2    0.08    0.14 
   3   1  -2   18.95    1.45 
   3   1  -2   18.98    1.47 
   3   1  -2   18.91    1.63 
   3   1  -2   18.92    1.45 
  -3  -1   2   19.15    1.39 
  -3  -1   2   18.50    1.37 
   2   1  -2    5.78    0.75 
   2   1  -2    7.28    0.63 
   2   1  -2    7.25    0.62 
   2   1  -2    6.49    0.60 
   2   1  -2    6.40    0.52 
  -2  -1   2    7.22    0.59 
  -2  -1   2    7.31    0.59 
  -2  -1   2    6.97    0.60 
   1   1  -2  151.18   10.10 
   1   1  -2  143.91   10.12 
   1   1  -2  142.63   10.10 
   1   1  -2  141.91   10.16 
   1   1  -2  148.74   10.02 
  -1  -1   2  143.97   10.09 
  -1  -1   2  147.83   10.01 
  -1  -1   2  146.12   10.12 
  -1  -1   2  143.17   10.16 
  -1  -1   2  140.99   10.09 
   0   1  -2    7.45    0.69 
   0   1  -2    8.06    0.69 
   0   1  -2    9.07    0.71 
   0   1  -2    8.54    0.70 
   0  -1   2    7.97    0.72 
   0  -1   2    8.36    0.71 
   0  -1   2    8.18    0.69 
   0  -1   2    8.61    0.70 
  -1   1  -2   82.16    5.94 
  -1   1  -2   86.53    5.92 
   1  -1   2   87.91    5.87 
   1  -1   2   82.53    5.93 
   1  -1   2   81.70    5.95 
   1  -1   2   85.90    5.92 
  -2   1  -2    0.46    0.19 
  -2   1  -2    0.39    0.11 
  -2   1  -2    0.42    0.11 
   2  -1   2    0.40    0.13 
   2  -1   2    0.23    0.14 
   2  -1   2    0.11    0.11 
  -3   1  -2    0.19    0.19 
   3  -1   2   -0.05    0.09 
   3  -1   2    0.06    0.09 
   3  -1   2   -0.04    0.13 
  -4   1  -2   -0.04    0.18 
   4  -1   2    0.07    0.12 
   4  -1   2   -0.08    0.16 
   4  -1   2   -0.16    0.20 
   4  -1   2    0.00    0.09 
   5  -1   2    1.98    0.31 
   5  -1   2    2.37    0.34 
   5  -1   2    2.00    0.36 
   6  -1   2    0.08    0.12 
   6  -1   2    0.17    0.24 
   6  -1   2    0.18    0.18 
   6  -1   2    0.00    0.14 
   7  -1   2    0.02    0.31 
   7  -1   2    0.77    0.22 
   8  -1   2    0.02    0.20 
   8   0  -2   -0.34    0.24 
   8   0  -2   -0.44    0.41 
   7   0  -2    0.60    0.26 
   7   0  -2    0.13    0.38 
   6   0  -2    1.63    0.31 
   6   0  -2    1.34    0.31 
   6   0  -2    1.04    0.49 
   5   0  -2    0.56    0.22 
   5   0  -2    1.45    0.43 
   5   0  -2    0.72    0.20 
   5   0  -2    1.02    0.26 
   4   0  -2   11.85    0.99 
   4   0  -2   11.95    1.01 
   4   0  -2   11.16    1.17 
   3   0  -2    1.19    0.24 
   3   0  -2    1.45    0.27 
   3   0  -2    0.90    0.22 
   3   0  -2    1.26    0.34 
  -3   0   2    1.43    0.18 
  -3   0   2    1.62    0.41 
  -3   0   2    1.80    0.22 
   2   0  -2    4.74    0.45 
   2   0  -2    4.30    0.43 
   2   0  -2    4.66    0.40 
   2   0  -2    4.29    0.44 
   2   0  -2    3.20    0.52 
  -2   0   2    4.20    0.39 
  -2   0   2    4.33    0.40 
  -2   0   2    4.15    0.41 
  -2   0   2    5.74    0.69 
   1   0  -2    0.01    0.09 
   1   0  -2    0.09    0.10 
   1   0  -2    0.10    0.07 
   1   0  -2    0.26    0.12 
   1   0  -2    0.16    0.16 
  -1   0   2    0.14    0.10 
  -1   0   2    0.16    0.10 
  -1   0   2    0.15    0.08 
  -1   0   2    0.04    0.15 
  -1   0   2    0.17    0.10 
   0   0  -2  108.19    7.29 
   0   0  -2  114.04    7.30 
   0   0  -2  104.51    7.29 
   0   0  -2  100.75    7.30 
   0   0  -2   98.59    7.28 
   0   0   2   97.93    7.28 
   0   0   2   97.76    7.28 
   0   0   2  113.61    7.29 
   0   0   2  100.18    7.30 
   0   0   2  111.66    7.30 
  -1   0  -2    0.25    0.09 
  -1   0  -2    0.21    0.07 
  -1   0  -2    0.34    0.09 
   1   0   2    0.12    0.09 
   1   0   2    0.29    0.09 
   1   0   2    0.16    0.08 
  -2   0  -2   88.32    6.43 
   2   0   2   93.46    6.36 
   2   0   2   91.77    6.34 
   2   0   2   92.19    6.35 
  -3   0  -2    0.60    0.18 
   3   0   2    0.16    0.15 
   3   0   2    0.25    0.07 
   3   0   2    0.35    0.08 
   4   0   2   14.31    1.24 
   4   0   2   13.31    0.99 
   5   0   2    0.14    0.09 
   5   0   2    0.21    0.24 
   5   0   2    0.04    0.08 
   6   0   2    1.42    0.22 
   6   0   2    1.24    0.20 
   6   0   2    1.44    0.20 
   6   0   2    1.10    0.40 
   7   0   2    0.10    0.11 
   7   0   2    0.12    0.35 
   7   0   2   -0.08    0.13 
   8   0   2   -0.07    0.16 
   8   0   2    0.27    0.49 
   8  -1  -2    0.40    0.33 
   8  -1  -2    0.03    0.45 
   7  -1  -2    0.10    0.25 
   7  -1  -2    0.24    0.32 
   6  -1  -2    0.34    0.30 
   6  -1  -2   -0.05    0.18 
   6  -1  -2    0.16    0.21 
   5  -1  -2    1.38    0.33 
   5  -1  -2    1.48    0.31 
   5  -1  -2    1.30    0.30 
   5  -1  -2    2.10    0.51 
   4  -1  -2    2.46    0.44 
   4  -1  -2    3.02    0.44 
   4  -1  -2    2.89    0.55 
   4  -1  -2    3.17    0.44 
  -4   1   2    4.00    0.71 
  -4   1   2    3.32    0.32 
  -4   1   2    3.32    0.32 
   3  -1  -2    6.39    0.62 
   3  -1  -2    5.77    0.61 
   3  -1  -2    5.50    0.60 
   3  -1  -2    5.89    0.75 
   3  -1  -2    8.17    0.89 
   3  -1  -2    6.42    0.63 
  -3   1   2    6.15    0.57 
  -3   1   2    6.66    0.57 
  -3   1   2    6.89    0.56 
  -3   1   2    8.53    0.92 
   2  -1  -2    6.99    0.59 
   2  -1  -2    6.10    0.64 
   2  -1  -2    6.52    0.60 
   2  -1  -2    6.51    0.62 
   2  -1  -2    7.25    0.62 
  -2   1   2    7.36    0.59 
  -2   1   2    6.54    0.70 
  -2   1   2    6.48    0.60 
  -2   1   2    6.39    0.58 
   1  -1  -2    2.40    0.30 
   1  -1  -2    2.39    0.32 
   1  -1  -2    2.48    0.34 
  -1   1   2    2.19    0.30 
  -1   1   2    3.93    0.45 
  -1   1   2    2.34    0.28 
  -1   1   2    3.44    0.34 
  -1   1   2    2.35    0.32 
   0  -1  -2    0.74    0.15 
   0  -1  -2    0.51    0.13 
   0  -1  -2    0.55    0.15 
   0  -1  -2    0.34    0.14 
   0   1   2    0.60    0.13 
   0   1   2    0.53    0.13 
   0   1   2    0.59    0.12 
   0   1   2    0.26    0.12 
  -1  -1  -2    6.12    0.54 
  -1  -1  -2    7.68    0.62 
  -1  -1  -2    7.07    0.56 
   1   1   2    6.16    0.54 
   1   1   2    6.94    0.57 
   1   1   2    7.52    0.61 
   1   1   2    6.82    0.56 
  -2  -1  -2    1.73    0.22 
   2   1   2    2.28    0.22 
   2   1   2    2.27    0.23 
   2   1   2    2.05    0.34 
   2   1   2    2.82    0.23 
   3   1   2   12.16    0.98 
   4   1   2   34.12    2.57 
   5   1   2    5.18    0.70 
   6   1   2   29.83    2.53 
   6   1   2   32.51    2.60 
   7   1   2    1.07    0.52 
   8   1   2    5.40    0.95 
   7  -2  -2    0.25    0.27 
   7  -2  -2    0.40    0.34 
   6  -2  -2   -0.24    0.19 
   6  -2  -2    0.07    0.24 
   5  -2  -2   -0.01    0.20 
   5  -2  -2   -0.23    0.17 
   5  -2  -2    0.09    0.25 
   5  -2  -2   -0.07    0.18 
   4  -2  -2    0.82    0.28 
   4  -2  -2    0.96    0.30 
   4  -2  -2    0.90    0.27 
   4  -2  -2    0.88    0.27 
  -4   2   2    1.23    0.45 
   3  -2  -2    0.45    0.20 
   3  -2  -2    0.31    0.18 
   3  -2  -2    0.21    0.19 
   3  -2  -2    0.24    0.25 
  -3   2   2    0.61    0.30 
  -3   2   2    0.50    0.18 
   2  -2  -2    5.63    0.55 
   2  -2  -2    3.57    0.53 
   2  -2  -2    4.31    0.55 
   2  -2  -2    4.56    0.62 
   2  -2  -2    5.31    0.51 
  -2   2   2    4.82    0.55 
  -2   2   2    5.03    0.49 
  -2   2   2    4.41    0.47 
   1  -2  -2    1.81    0.29 
   1  -2  -2    1.71    0.31 
   1  -2  -2    1.87    0.32 
   1  -2  -2    1.30    0.27 
   1  -2  -2    1.84    0.26 
  -1   2   2    1.51    0.26 
  -1   2   2    1.30    0.26 
  -1   2   2    1.53    0.27 
   0  -2  -2   61.93    3.90 
   0  -2  -2   50.71    3.85 
   0  -2  -2   63.37    3.89 
   0  -2  -2   53.42    3.91 
   0  -2  -2   48.17    3.87 
   0   2   2   59.51    3.88 
   0   2   2   50.97    3.87 
   0   2   2   51.22    3.89 
   0   2   2   50.88    3.84 
  -1  -2  -2   11.34    0.99 
  -1  -2  -2   13.94    1.02 
  -1  -2  -2   12.26    0.95 
  -1  -2  -2   12.53    1.00 
  -1  -2  -2   12.75    1.01 
   1   2   2   12.94    1.02 
   1   2   2   13.01    1.00 
   1   2   2   13.46    1.00 
  -2  -2  -2    6.72    0.55 
  -2  -2  -2    6.98    0.64 
  -2  -2  -2    6.38    0.55 
  -2  -2  -2    6.64    0.54 
  -2  -2  -2    7.08    0.57 
   2   2   2    5.62    0.60 
   2   2   2    5.47    0.55 
   2   2   2    7.21    0.57 
   2   2   2    7.41    0.59 
   3   2   2    7.03    0.62 
   3   2   2    8.44    0.75 
   3   2   2    7.86    0.60 
   3   2   2    7.58    0.61 
   3   2   2    7.61    0.63 
   4   2   2   23.86    1.70 
   4   2   2   23.10    1.77 
   4   2   2   25.31    1.92 
   4   2   2   23.70    1.69 
   4   2   2   22.95    1.71 
   4   2   2   23.27    1.70 
   5   2   2    2.74    0.28 
   5   2   2    2.80    0.43 
   5   2   2    2.21    0.24 
   5   2   2    2.37    0.23 
   6   2   2   35.38    2.52 
   6   2   2   31.95    2.25 
   6   2   2   29.74    2.23 
   7   2   2    0.67    0.51 
   8   2   2   11.44    1.57 
   9   2   2   -0.09    0.56 
   7  -3  -2   -0.29    0.29 
   6  -3  -2    0.22    0.27 
   5  -3  -2    6.34    0.76 
   5  -3  -2    4.09    0.73 
  -5   3   2    6.08    1.04 
   4  -3  -2    0.06    0.21 
   4  -3  -2    0.20    0.24 
   4  -3  -2   -0.03    0.21 
  -4   3   2   -0.11    0.14 
  -4   3   2    0.15    0.36 
   3  -3  -2   58.87    4.12 
   3  -3  -2   56.05    4.08 
   3  -3  -2   57.21    4.08 
  -3   3   2   51.41    4.00 
  -3   3   2   57.17    4.06 
  -3   3   2   52.57    4.06 
   2  -3  -2    0.16    0.19 
   2  -3  -2   -0.09    0.14 
   2  -3  -2   -0.05    0.17 
   2  -3  -2    0.16    0.21 
  -2   3   2    0.04    0.16 
  -2   3   2   -0.07    0.16 
  -2   3   2    0.24    0.19 
   1  -3  -2  188.26   12.65 
   1  -3  -2  185.58   12.67 
   1  -3  -2  181.94   12.71 
   1  -3  -2  187.18   12.58 
   1  -3  -2  169.79   12.62 
  -1   3   2  179.11   12.64 
  -1   3   2  177.34   12.60 
  -1   3   2  174.15   12.61 
   0  -3  -2    0.64    0.21 
   0  -3  -2    0.39    0.21 
   0  -3  -2    0.76    0.22 
   0  -3  -2    0.31    0.15 
   0  -3  -2    0.44    0.16 
   0   3   2    0.49    0.18 
   0   3   2    0.90    0.20 
   0   3   2    0.68    0.21 
   0   3   2    0.60    0.20 
   0   3   2    0.50    0.23 
  -1  -3  -2   93.86    6.78 
  -1  -3  -2   90.73    6.77 
  -1  -3  -2  105.56    6.86 
  -1  -3  -2   99.68    6.83 
  -1  -3  -2   89.57    6.81 
   1   3   2   99.74    6.86 
   1   3   2   95.92    6.78 
   1   3   2  105.24    6.79 
   1   3   2   98.48    6.82 
   1   3   2   88.92    6.81 
  -2  -3  -2    8.45    0.79 
  -2  -3  -2    8.89    0.78 
  -2  -3  -2   10.99    0.82 
  -2  -3  -2    8.58    0.78 
   2   3   2    9.51    0.79 
   2   3   2    9.51    0.81 
   2   3   2    8.42    0.68 
   2   3   2    9.11    0.76 
   2   3   2    7.63    0.77 
  -3  -3  -2    5.33    0.47 
  -3  -3  -2    5.20    0.48 
  -3  -3  -2    5.91    0.48 
  -3  -3  -2    5.57    0.64 
   3   3   2    4.33    0.53 
   3   3   2    5.46    0.52 
   3   3   2    5.51    0.56 
   3   3   2    5.11    0.53 
   4   3   2    6.34    0.72 
   4   3   2    6.27    0.56 
   4   3   2    5.72    0.58 
   4   3   2    6.12    0.50 
   4   3   2    5.22    0.52 
   5   3   2    0.06    0.10 
   5   3   2    0.00    0.20 
   5   3   2    0.05    0.10 
   5   3   2    0.11    0.14 
   5   3   2   -0.16    0.12 
   6   3   2    0.14    0.15 
   6   3   2    0.21    0.25 
   6   3   2    0.29    0.23 
   6   3   2    0.01    0.11 
   7   3   2    0.08    0.12 
   7   3   2   -0.24    0.30 
   7   3   2    0.06    0.14 
   8   3   2    0.17    0.14 
   8   3   2   -0.02    0.42 
   8   3   2   -0.02    0.15 
   8   3   2    0.03    0.46 
   9   3   2    0.05    0.59 
   6  -4  -2    0.99    0.40 
   5  -4  -2    0.26    0.30 
   4  -4  -2    0.50    0.34 
   4  -4  -2    1.31    0.47 
   4  -4  -2    0.72    0.34 
  -4   4   2    1.23    0.32 
  -4   4   2    1.43    0.35 
  -4   4   2    0.64    0.39 
   3  -4  -2    0.81    0.34 
   3  -4  -2    0.71    0.28 
   3  -4  -2    0.43    0.30 
  -3   4   2    0.29    0.24 
  -3   4   2    0.65    0.27 
  -3   4   2    0.09    0.30 
   2  -4  -2    1.38    0.37 
   2  -4  -2    1.69    0.44 
   2  -4  -2    1.78    0.42 
  -2   4   2    1.74    0.41 
  -2   4   2    1.18    0.34 
  -2   4   2    2.58    0.41 
   1  -4  -2   14.99    1.46 
   1  -4  -2   18.15    1.48 
   1  -4  -2   17.59    1.46 
   1  -4  -2   15.46    1.41 
  -1   4   2   16.39    1.39 
  -1   4   2   16.11    1.47 
  -1   4   2   17.40    1.46 
   0  -4  -2    5.05    0.62 
   0  -4  -2    3.31    0.51 
   0  -4  -2    2.74    0.52 
   0  -4  -2    3.37    0.51 
   0   4   2    2.54    0.43 
   0   4   2    2.50    0.47 
   0   4   2    4.27    0.56 
   0   4   2    3.55    0.51 
   0   4   2    3.66    0.51 
  -1  -4  -2   27.87    2.08 
  -1  -4  -2   25.00    2.13 
  -1  -4  -2   27.24    2.14 
  -1  -4  -2   28.80    2.18 
   1   4   2   29.05    2.16 
   1   4   2   29.01    2.19 
   1   4   2   26.00    2.11 
   1   4   2   29.07    2.07 
  -2  -4  -2    0.50    0.23 
  -2  -4  -2    0.57    0.18 
  -2  -4  -2    0.53    0.22 
  -2  -4  -2    0.17    0.17 
  -2  -4  -2    0.69    0.22 
   2   4   2    0.35    0.15 
   2   4   2    0.55    0.24 
   2   4   2    0.57    0.20 
   2   4   2    0.52    0.18 
   2   4   2    0.49    0.21 
  -3  -4  -2    8.22    0.75 
  -3  -4  -2    8.40    0.81 
  -3  -4  -2    8.17    0.74 
  -3  -4  -2    7.82    0.79 
  -3  -4  -2    7.58    0.77 
   3   4   2    8.14    0.78 
   3   4   2    8.36    0.82 
   3   4   2    8.03    0.66 
   3   4   2    9.05    0.75 
   3   4   2    7.94    0.79 
  -4  -4  -2    0.27    0.14 
  -4  -4  -2    0.22    0.12 
  -4  -4  -2    0.25    0.13 
  -4  -4  -2    0.03    0.12 
   4   4   2    0.10    0.14 
   4   4   2    0.06    0.18 
   4   4   2    0.30    0.16 
   4   4   2    0.27    0.17 
   5   4   2    2.01    0.39 
   5   4   2    1.85    0.34 
   5   4   2    1.01    0.27 
   5   4   2    1.25    0.21 
   6   4   2    0.71    0.20 
   6   4   2    0.41    0.23 
   6   4   2    0.56    0.21 
   6   4   2    0.76    0.32 
   7   4   2    0.09    0.18 
   7   4   2    0.15    0.22 
   7   4   2    0.77    0.35 
   8   4   2   -0.42    0.59 
   8   4   2    0.24    0.19 
   8   4   2    0.68    0.42 
   8   4   2    0.17    0.19 
   6  -5  -2   -0.12    0.35 
   5  -5  -2    0.71    0.40 
   4  -5  -2   -0.23    0.27 
  -4   5   2    0.08    0.29 
   3  -5  -2    3.17    0.60 
   3  -5  -2    2.76    0.58 
  -3   5   2    2.33    0.49 
  -3   5   2    2.63    0.54 
  -3   5   2    1.88    0.47 
   2  -5  -2    0.06    0.26 
   2  -5  -2    0.77    0.35 
  -2   5   2    0.08    0.28 
  -2   5   2    1.11    0.30 
  -2   5   2    0.22    0.26 
   1  -5  -2    1.42    0.42 
   1  -5  -2    0.98    0.34 
  -1   5   2    0.98    0.38 
  -1   5   2    0.97    0.35 
  -1   5   2    1.21    0.35 
   0  -5  -2   10.73    1.15 
   0  -5  -2   12.67    1.18 
   0   5   2   12.39    1.13 
   0   5   2   13.52    1.19 
   0   5   2   10.58    1.15 
  -1  -5  -2   -0.11    0.21 
  -1  -5  -2    0.03    0.17 
   1   5   2    0.02    0.17 
   1   5   2   -0.30    0.16 
   1   5   2    0.01    0.20 
   1   5   2    0.11    0.21 
   1   5   2    0.04    0.15 
  -2  -5  -2   17.21    1.56 
  -2  -5  -2   18.07    1.48 
  -2  -5  -2   15.83    1.40 
   2   5   2   19.22    1.52 
   2   5   2   17.10    1.43 
   2   5   2   16.33    1.51 
   2   5   2   17.88    1.56 
   2   5   2   18.42    1.38 
  -3  -5  -2    0.01    0.12 
  -3  -5  -2    0.01    0.17 
  -3  -5  -2    0.30    0.24 
   3   5   2    0.08    0.14 
   3   5   2    0.24    0.21 
   3   5   2    0.12    0.21 
   3   5   2    0.20    0.14 
   3   5   2   -0.05    0.17 
  -4  -5  -2    8.27    0.75 
  -4  -5  -2    8.60    0.92 
  -4  -5  -2    9.11    0.95 
   4   5   2    8.46    0.76 
   4   5   2    8.29    0.69 
   4   5   2    8.02    0.95 
   4   5   2    7.37    0.91 
   5   5   2   -0.04    0.22 
   5   5   2   -0.01    0.19 
   5   5   2    0.06    0.18 
   6   5   2    0.80    0.32 
   6   5   2    1.11    0.32 
   6   5   2    0.84    0.28 
   7   5   2    0.10    0.22 
   7   5   2    0.37    0.27 
   7   5   2   -0.10    0.24 
   8   5   2    0.02    0.23 
   8   5   2   -0.08    0.27 
   5  -6  -2   -0.30    0.43 
   4  -6  -2    1.04    0.45 
   3  -6  -2    1.52    0.51 
  -3   6   2    2.24    0.77 
  -3   6   2    2.20    0.54 
   2  -6  -2    2.69    0.66 
   2  -6  -2    3.77    0.72 
  -2   6   2    2.55    0.60 
  -2   6   2    2.54    0.61 
   1  -6  -2    6.87    0.95 
  -1   6   2    6.03    0.93 
  -1   6   2    5.24    0.78 
  -1   6   2    5.00    0.81 
   0  -6  -2    7.95    1.05 
   0   6   2    8.38    1.13 
   0   6   2   10.51    1.02 
   0   6   2    8.13    1.06 
  -1  -6  -2    4.50    0.67 
   1   6   2    4.47    0.74 
   1   6   2    3.67    0.66 
   1   6   2    3.62    0.64 
  -2  -6  -2    1.69    0.42 
  -2  -6  -2    1.92    0.53 
   2   6   2    1.87    0.36 
   2   6   2    2.08    0.44 
   2   6   2    1.68    0.47 
   2   6   2    1.81    0.44 
  -3  -6  -2    3.10    0.53 
  -3  -6  -2    2.71    0.59 
   3   6   2    3.68    0.63 
   3   6   2    2.90    0.47 
   3   6   2    2.84    0.60 
   3   6   2    3.17    0.43 
  -4  -6  -2   -0.06    0.21 
  -4  -6  -2   -0.14    0.21 
   4   6   2    0.12    0.15 
   4   6   2   -0.13    0.20 
   4   6   2    0.24    0.26 
   4   6   2   -0.05    0.12 
  -5  -6  -2    2.29    0.35 
   5   6   2    2.18    0.27 
   5   6   2    2.62    0.39 
   5   6   2    2.26    0.46 
   5   6   2    1.63    0.46 
   6   6   2    0.57    0.35 
   6   6   2    0.54    0.26 
   6   6   2    0.37    0.21 
   7   6   2    0.20    0.29 
   7   6   2    0.23    0.32 
   8   6   2    0.48    0.35 
   8   6   2    0.42    0.35 
   4  -7  -2    0.29    0.52 
   3  -7  -2    0.81    0.57 
  -3   7   2   -0.15    0.33 
   2  -7  -2    0.50    0.43 
  -2   7   2    0.46    0.32 
  -2   7   2   -0.22    0.38 
   1  -7  -2    0.90    0.47 
  -1   7   2    0.71    0.39 
  -1   7   2   -0.25    0.26 
  -1   7   2   -0.19    0.34 
   0  -7  -2   12.79    1.48 
   0   7   2   11.61    1.39 
   0   7   2    8.86    1.25 
   0   7   2   14.35    1.34 
  -1  -7  -2    0.53    0.41 
  -1  -7  -2    1.84    0.50 
   1   7   2    1.36    0.45 
   1   7   2    2.37    0.61 
   1   7   2    1.71    0.47 
  -2  -7  -2   28.91    2.69 
  -2  -7  -2   32.77    2.61 
   2   7   2   31.89    2.57 
   2   7   2   33.05    2.70 
   2   7   2   31.17    2.66 
  -3  -7  -2    2.76    0.69 
  -3  -7  -2    4.20    0.69 
   3   7   2    2.01    0.53 
   3   7   2    3.46    0.55 
   3   7   2    3.20    0.49 
   3   7   2    3.42    0.70 
  -4  -7  -2   24.72    2.33 
  -4  -7  -2   28.95    2.37 
   4   7   2   28.86    2.39 
   4   7   2   25.39    2.09 
   4   7   2   27.43    2.32 
   4   7   2   27.88    2.08 
   5   7   2    0.34    0.37 
   5   7   2    0.89    0.26 
   5   7   2    0.90    0.39 
   6   7   2    6.35    0.92 
   6   7   2    7.70    1.02 
   7   7   2    0.18    0.36 
   7   7   2   -0.16    0.29 
   3  -8  -2    0.41    0.65 
   2  -8  -2    1.94    0.76 
  -2   8   2    3.94    0.82 
   1  -8  -2   -0.13    0.43 
  -1   8   2    0.57    0.43 
  -1   8   2    0.06    0.46 
  -1   8   2   -0.31    0.38 
   0  -8  -2    4.03    0.92 
   0  -8  -2    3.78    0.87 
   0   8   2    7.54    1.10 
   0   8   2    4.30    0.88 
   0   8   2    7.07    1.00 
  -1  -8  -2    0.93    0.51 
  -1  -8  -2    1.44    0.63 
   1   8   2    0.27    0.39 
   1   8   2    1.32    0.52 
   1   8   2    1.76    0.51 
  -2  -8  -2    0.20    0.36 
  -2  -8  -2   -0.03    0.42 
   2   8   2    0.17    0.33 
   2   8   2    0.27    0.38 
   2   8   2    0.07    0.38 
  -3  -8  -2    5.38    1.03 
   3   8   2    5.90    1.00 
   3   8   2    4.88    0.77 
   3   8   2    5.04    0.93 
   4   8   2   -0.01    0.40 
   4   8   2   -0.35    0.27 
   5   8   2    1.35    0.46 
   5   8   2    2.55    0.64 
   6   8   2    0.77    0.48 
   6   8   2    0.58    0.36 
   1  -9  -2    3.25    0.99 
   1  -9  -2    1.92    0.75 
  -1   9   2    3.07    0.81 
   0  -9  -2    2.72    0.87 
   0  -9  -2    3.68    0.91 
   0   9   2    5.51    1.07 
   0   9   2    2.53    0.69 
   0   9   2    3.87    0.87 
  -1  -9  -2    2.14    0.78 
  -1  -9  -2    1.95    0.76 
   1   9   2    1.40    0.51 
   1   9   2    1.36    0.59 
   1   9   2    0.70    0.52 
  -2  -9  -2    1.99    0.79 
   2   9   2    1.69    0.64 
   2   9   2    2.67    0.71 
   2   9   2    2.65    0.77 
  -3  -9  -2   -0.09    0.52 
   3   9   2    0.50    0.51 
   3   9   2    0.23    0.35 
   4   9   2    0.79    0.55 
   4   9   2    1.54    0.54 
   5   9   2   -0.08    0.45 
   5   9   2   -0.01    0.34 
   4   9  -3   -0.11    0.62 
   4   9  -3    0.66    0.53 
   4   9  -3    0.35    0.53 
   3   9  -3    0.49    0.42 
   3   9  -3    0.75    0.68 
   3   9  -3    0.89    0.71 
   3   9  -3    0.27    0.44 
  -3  -9   3    2.36    1.31 
   2   9  -3    1.34    0.75 
   2   9  -3    2.52    0.78 
   2   9  -3    0.65    0.54 
   2   9  -3    1.03    0.58 
  -2  -9   3    0.68    0.61 
   1   9  -3    0.55    0.65 
   1   9  -3    0.77    0.53 
   1   9  -3    2.17    0.78 
   1   9  -3    0.37    0.54 
  -1  -9   3    0.69    0.57 
   0   9  -3    0.44    0.58 
   0   9  -3    1.60    0.61 
   0  -9   3    2.01    0.72 
   0  -9   3    0.88    0.60 
  -1   9  -3    0.40    0.53 
  -1   9  -3    0.11    0.62 
   1  -9   3   -0.30    0.48 
   1  -9   3    0.55    0.65 
   5   8  -3    0.36    0.62 
   5   8  -3    0.18    0.46 
   5   8  -3    0.06    0.35 
   4   8  -3    1.13    0.58 
   4   8  -3    1.48    0.54 
   4   8  -3    0.60    0.63 
   3   8  -3    0.46    0.45 
   3   8  -3    0.05    0.31 
   3   8  -3    0.15    0.59 
  -3  -8   3    0.37    0.49 
   2   8  -3    2.50    0.84 
   2   8  -3    1.82    0.64 
   2   8  -3    2.81    0.74 
  -2  -8   3    3.29    0.72 
  -2  -8   3    0.86    0.54 
   1   8  -3    1.31    0.55 
   1   8  -3    1.45    0.59 
   1   8  -3    0.98    0.63 
   1   8  -3    1.64    0.67 
  -1  -8   3    2.70    0.72 
  -1  -8   3    2.24    0.69 
   0   8  -3    3.93    0.84 
   0   8  -3    4.16    0.85 
   0   8  -3    2.95    0.84 
   0   8  -3    2.65    0.71 
   0  -8   3    2.80    0.80 
   0  -8   3    3.69    0.87 
  -1   8  -3    2.12    0.78 
  -1   8  -3    3.10    1.19 
  -1   8  -3    1.18    0.55 
   1  -8   3    2.97    0.82 
   1  -8   3    3.95    0.93 
  -2   8  -3    0.89    0.60 
  -2   8  -3    0.85    0.49 
   2  -8   3    0.84    0.53 
   2  -8   3    0.53    0.59 
  -3   8  -3    1.42    0.79 
   3  -8   3    0.66    0.65 
   3  -8   3    1.16    0.61 
   6   7  -3    0.20    0.67 
   6   7  -3    0.13    0.35 
   6   7  -3    0.39    0.42 
   5   7  -3    4.10    0.81 
   5   7  -3    3.87    0.71 
   5   7  -3    4.05    1.02 
   4   7  -3   -0.40    0.34 
   4   7  -3    0.43    0.53 
   4   7  -3    0.14    0.35 
  -4  -7   3    0.20    0.37 
   3   7  -3    6.25    0.98 
   3   7  -3    8.29    1.30 
   3   7  -3    4.16    0.84 
  -3  -7   3    7.25    1.11 
  -3  -7   3    7.71    1.01 
   2   7  -3   -0.01    0.30 
   2   7  -3    0.44    0.38 
  -2  -7   3   -0.02    0.32 
  -2  -7   3   -0.20    0.34 
   1   7  -3    1.56    0.51 
   1   7  -3    1.30    0.46 
  -1  -7   3    1.24    0.50 
  -1  -7   3    1.45    0.50 
   0   7  -3   -0.07    0.32 
   0   7  -3    0.35    0.41 
   0   7  -3   -0.20    0.36 
   0   7  -3    0.21    0.35 
   0  -7   3    0.16    0.36 
   0  -7   3   -0.36    0.32 
  -1   7  -3    0.55    0.43 
  -1   7  -3    1.46    0.46 
  -1   7  -3    1.32    0.53 
  -1   7  -3    0.48    0.37 
   1  -7   3    1.13    0.54 
   1  -7   3    0.49    0.46 
  -2   7  -3    1.50    0.58 
  -2   7  -3    0.72    0.75 
  -2   7  -3    0.51    0.44 
   2  -7   3    0.47    0.49 
   2  -7   3    0.76    0.55 
  -3   7  -3    1.65    0.61 
  -3   7  -3    1.73    0.80 
   3  -7   3    2.88    0.71 
   3  -7   3    3.88    0.99 
  -4   7  -3    0.68    0.59 
   4  -7   3    1.00    0.69 
   4  -7   3    1.45    0.63 
   7   6  -3   -0.20    0.57 
   7   6  -3    0.06    0.31 
   7   6  -3    0.48    0.44 
   6   6  -3    2.10    0.59 
   6   6  -3    1.16    0.46 
   6   6  -3    1.81    0.81 
   5   6  -3    0.25    0.55 
   5   6  -3    0.18    0.26 
   5   6  -3   -0.21    0.32 
   4   6  -3    3.02    0.63 
   4   6  -3    2.49    0.78 
   4   6  -3    2.87    0.67 
  -4  -6   3    4.17    0.77 
   3   6  -3    0.05    0.30 
   3   6  -3   -0.09    0.39 
   3   6  -3    0.79    0.37 
  -3  -6   3   -0.06    0.27 
  -3  -6   3   -0.30    0.20 
   2   6  -3    5.21    0.86 
   2   6  -3    6.13    0.94 
  -2  -6   3    4.69    0.86 
  -2  -6   3    6.90    0.89 
  -2  -6   3    5.71    0.50 
   1   6  -3    4.21    0.74 
   1   6  -3    2.36    0.57 
  -1  -6   3    2.58    0.61 
  -1  -6   3    3.78    0.45 
   0   6  -3    8.76    1.17 
   0   6  -3    8.80    1.11 
   0  -6   3    9.92    1.27 
  -1   6  -3    4.33    0.79 
  -1   6  -3    4.91    0.92 
  -1   6  -3    6.96    0.82 
  -1   6  -3    4.80    0.81 
   1  -6   3    4.76    0.87 
  -2   6  -3    0.53    0.37 
  -2   6  -3    0.88    0.42 
  -2   6  -3    0.82    0.24 
  -2   6  -3    1.17    0.51 
   2  -6   3    1.12    0.55 
   2  -6   3    0.40    0.45 
   2  -6   3    1.19    0.48 
  -3   6  -3    2.14    0.73 
  -3   6  -3    1.87    0.49 
   3  -6   3    1.02    0.55 
   3  -6   3    1.56    0.55 
  -4   6  -3    0.41    0.53 
   4  -6   3   -0.28    0.45 
   4  -6   3    0.13    0.37 
  -5   6  -3    0.89    0.64 
   5  -6   3    0.46    0.43 
   5  -6   3   -0.13    0.42 
   7   5  -3   -0.40    0.54 
   7   5  -3   -0.01    0.35 
   7   5  -3    0.16    0.30 
   6   5  -3   -0.09    0.26 
   6   5  -3    0.16    0.55 
   6   5  -3    0.26    0.34 
   5   5  -3    3.25    0.86 
   5   5  -3    1.38    0.49 
   5   5  -3    2.74    0.56 
  -5  -5   3    3.90    0.80 
  -5  -5   3    2.92    0.43 
   4   5  -3    0.01    0.32 
   4   5  -3    0.48    0.36 
   4   5  -3    0.07    0.24 
   4   5  -3   -0.10    0.19 
  -4  -5   3   -0.01    0.18 
  -4  -5   3    0.15    0.23 
   3   5  -3   14.89    1.35 
   3   5  -3   14.11    1.67 
   3   5  -3   11.71    1.32 
   3   5  -3   14.29    1.50 
  -3  -5   3   15.23    1.38 
   2   5  -3    0.76    0.32 
   2   5  -3    1.18    0.46 
   2   5  -3    0.30    0.29 
  -2  -5   3    0.84    0.13 
  -2  -5   3    0.42    0.33 
   1   5  -3   10.81    1.13 
   1   5  -3   11.82    1.29 
  -1  -5   3    9.06    1.23 
  -1  -5   3   11.15    0.89 
   0   5  -3   16.51    1.41 
   0   5  -3   13.42    1.35 
   0   5  -3   13.40    1.31 
   0  -5   3   13.96    1.37 
   0  -5   3   15.79    1.45 
  -1   5  -3    0.86    0.45 
  -1   5  -3    1.76    0.44 
  -1   5  -3    1.89    0.40 
  -1   5  -3    1.38    0.39 
   1  -5   3    1.27    0.40 
   1  -5   3    1.21    0.45 
  -2   5  -3    5.88    0.59 
  -2   5  -3    8.63    0.98 
  -2   5  -3    8.47    1.16 
  -2   5  -3    9.09    1.01 
   2  -5   3    7.76    1.10 
   2  -5   3   10.18    1.13 
  -3   5  -3    0.01    0.23 
  -3   5  -3    0.40    0.41 
  -3   5  -3    0.50    0.28 
   3  -5   3    0.21    0.35 
   3  -5   3    0.16    0.34 
  -4   5  -3    0.67    0.50 
  -4   5  -3    0.65    0.35 
   4  -5   3    0.21    0.40 
   4  -5   3    0.87    0.40 
  -5   5  -3    0.50    0.55 
   5  -5   3    0.44    0.48 
   5  -5   3    0.27    0.32 
  -6   5  -3    0.74    0.62 
   6  -5   3   -0.34    0.42 
   6  -5   3    0.27    0.35 
   8   4  -3    0.45    0.35 
   8   4  -3    0.17    0.52 
   8   4  -3    0.10    0.36 
   7   4  -3    0.33    0.34 
   7   4  -3    0.19    0.29 
   7   4  -3    0.03    0.49 
   6   4  -3    0.28    0.51 
   6   4  -3    0.88    0.36 
   6   4  -3    0.34    0.29 
   5   4  -3   -0.15    0.21 
   5   4  -3    0.01    0.29 
   5   4  -3    0.09    0.41 
   5   4  -3    0.24    0.23 
  -5  -4   3    0.17    0.14 
  -5  -4   3    0.22    0.18 
   4   4  -3    3.88    0.63 
   4   4  -3    2.85    0.52 
   4   4  -3    2.92    0.73 
   4   4  -3    2.76    0.52 
  -4  -4   3    3.41    0.54 
  -4  -4   3    3.65    0.47 
   3   4  -3    2.22    0.47 
   3   4  -3    2.19    0.51 
   3   4  -3    1.28    0.36 
   3   4  -3    2.07    0.58 
  -3  -4   3    2.89    0.51 
   2   4  -3    3.08    0.53 
   2   4  -3    2.08    0.44 
   2   4  -3    3.06    0.58 
   2   4  -3    3.60    0.66 
  -2  -4   3    4.26    0.68 
  -2  -4   3    4.00    0.63 
   1   4  -3    8.89    0.95 
   1   4  -3    8.86    0.91 
   1   4  -3    7.97    1.00 
   1   4  -3    8.91    0.91 
  -1  -4   3    8.13    0.89 
  -1  -4   3    9.89    0.96 
   0   4  -3    0.35    0.22 
   0   4  -3    0.47    0.26 
   0   4  -3    0.32    0.22 
   0  -4   3    0.58    0.26 
   0  -4   3    0.35    0.25 
  -1   4  -3    4.87    0.58 
  -1   4  -3    4.62    0.64 
  -1   4  -3    4.60    0.67 
   1  -4   3    4.52    0.67 
   1  -4   3    4.93    0.73 
   1  -4   3    5.21    0.72 
  -2   4  -3    6.91    0.97 
  -2   4  -3    6.56    0.78 
  -2   4  -3    6.86    0.80 
   2  -4   3    6.38    0.90 
   2  -4   3    8.55    0.93 
   2  -4   3    5.13    0.79 
  -3   4  -3    4.34    0.79 
  -3   4  -3    3.07    0.53 
   3  -4   3    4.37    0.67 
   3  -4   3    4.77    0.76 
   3  -4   3    4.29    0.68 
  -4   4  -3    3.42    0.53 
  -4   4  -3    2.41    0.44 
  -4   4  -3    3.00    0.73 
   4  -4   3    4.23    0.69 
   4  -4   3    4.48    0.68 
   4  -4   3    3.91    0.74 
  -5   4  -3    4.09    0.89 
   5  -4   3    3.63    0.60 
   5  -4   3    3.12    0.68 
  -6   4  -3   -0.14    0.42 
   6  -4   3   -0.05    0.25 
   6  -4   3    0.39    0.41 
   7  -4   3    2.09    0.52 
   7  -4   3    1.66    0.62 
   8   3  -3   -0.42    0.50 
   8   3  -3    0.63    0.36 
   8   3  -3    0.28    0.34 
   7   3  -3    1.46    0.38 
   7   3  -3    0.88    0.34 
   7   3  -3    0.72    0.59 
   6   3  -3    1.61    0.68 
   6   3  -3    0.83    0.30 
   6   3  -3    0.69    0.29 
   5   3  -3    2.49    0.47 
   5   3  -3    3.14    0.51 
   5   3  -3    3.93    0.89 
   5   3  -3    2.88    0.36 
   5   3  -3    2.76    0.29 
   5   3  -3    2.69    0.53 
  -5  -3   3    3.37    0.34 
  -5  -3   3    3.44    0.36 
   4   3  -3    5.15    0.96 
   4   3  -3    5.14    0.75 
   4   3  -3    6.05    0.73 
   4   3  -3    7.10    0.81 
  -4  -3   3    6.76    0.65 
   3   3  -3   -0.35    0.24 
   3   3  -3    0.00    0.17 
   3   3  -3   -0.04    0.15 
   3   3  -3    0.18    0.20 
  -3  -3   3    0.07    0.16 
  -3  -3   3    0.15    0.17 
   2   3  -3   19.49    1.78 
   2   3  -3   19.85    1.69 
   2   3  -3   20.50    1.67 
   2   3  -3   21.01    1.67 
  -2  -3   3   20.41    1.65 
  -2  -3   3   21.65    1.66 
  -2  -3   3   20.57    1.69 
   1   3  -3   18.17    1.62 
   1   3  -3   19.95    1.60 
   1   3  -3   20.54    1.66 
   1   3  -3   17.64    1.59 
  -1  -3   3   19.87    1.59 
  -1  -3   3   19.57    1.64 
  -1  -3   3   21.67    1.61 
   0   3  -3   24.90    2.00 
   0   3  -3   27.40    2.04 
   0   3  -3   24.95    2.02 
   0   3  -3   26.91    2.07 
   0  -3   3   27.53    2.08 
   0  -3   3   23.37    2.02 
   0  -3   3   27.74    2.06 
  -1   3  -3   26.71    2.15 
  -1   3  -3   26.82    2.04 
  -1   3  -3   27.98    2.14 
   1  -3   3   28.17    2.17 
   1  -3   3   30.67    2.19 
   1  -3   3   27.09    2.22 
  -2   3  -3    0.33    0.19 
  -2   3  -3    0.24    0.25 
  -2   3  -3    0.40    0.21 
   2  -3   3    0.75    0.28 
   2  -3   3    0.05    0.22 
   2  -3   3    0.23    0.19 
  -3   3  -3    8.05    0.75 
  -3   3  -3    6.12    0.92 
  -3   3  -3    8.11    0.75 
   3  -3   3    7.88    0.83 
   3  -3   3    8.11    0.89 
   3  -3   3    7.07    0.92 
  -4   3  -3    0.00    0.29 
  -4   3  -3    0.01    0.12 
  -4   3  -3   -0.28    0.14 
   4  -3   3    0.14    0.23 
   4  -3   3   -0.13    0.20 
   4  -3   3   -0.11    0.20 
  -5   3  -3    3.13    0.73 
   5  -3   3    4.93    0.75 
   5  -3   3    2.82    0.55 
  -6   3  -3   -0.32    0.32 
   6  -3   3   -0.35    0.17 
   6  -3   3    0.42    0.32 
   7  -3   3    1.06    0.35 
   7  -3   3    1.69    0.53 
   8   2  -3    0.52    0.51 
   8   2  -3    0.16    0.36 
   7   2  -3    3.17    0.53 
   7   2  -3    1.03    0.37 
   7   2  -3    2.94    0.84 
   6   2  -3    0.20    0.23 
   6   2  -3   -0.02    0.20 
   6   2  -3    0.07    0.37 
   5   2  -3    0.77    0.29 
   5   2  -3    0.53    0.23 
   5   2  -3    0.99    0.53 
   5   2  -3    0.71    0.25 
   5   2  -3    0.92    0.21 
   4   2  -3    5.23    0.85 
   4   2  -3    5.17    0.62 
   4   2  -3    4.92    0.44 
   4   2  -3    4.69    0.60 
   4   2  -3    5.36    0.68 
  -4  -2   3    4.92    0.47 
  -4  -2   3    5.05    0.49 
   3   2  -3    1.10    0.29 
   3   2  -3    1.11    0.14 
   3   2  -3    0.93    0.26 
   3   2  -3    1.29    0.43 
   3   2  -3    1.48    0.30 
  -3  -2   3    1.47    0.29 
  -3  -2   3    1.61    0.26 
  -3  -2   3    1.40    0.28 
   2   2  -3   38.76    2.99 
   2   2  -3   39.00    2.96 
   2   2  -3   39.40    2.96 
   2   2  -3   40.80    3.09 
  -2  -2   3   41.87    2.95 
  -2  -2   3   40.83    2.95 
  -2  -2   3   39.08    2.97 
   1   2  -3    6.40    0.71 
   1   2  -3    6.72    0.64 
   1   2  -3    6.44    0.62 
   1   2  -3    6.98    0.80 
  -1  -2   3    5.65    0.49 
  -1  -2   3    4.92    0.64 
  -1  -2   3    6.09    0.60 
  -1  -2   3    5.57    0.60 
   0   2  -3   83.33    5.79 
   0   2  -3   78.05    5.75 
   0   2  -3   78.95    5.73 
   0   2  -3   82.46    5.76 
   0  -2   3   81.51    5.80 
   0  -2   3   79.12    5.75 
   0  -2   3   82.62    5.76 
  -1   2  -3    8.90    0.77 
  -1   2  -3    7.75    0.64 
  -1   2  -3    7.46    0.72 
  -1   2  -3    7.59    0.73 
   1  -2   3    7.73    0.77 
   1  -2   3    8.70    0.75 
   1  -2   3    7.19    0.74 
  -2   2  -3    0.48    0.16 
  -2   2  -3    0.03    0.09 
  -2   2  -3    0.39    0.24 
   2  -2   3    0.08    0.15 
   2  -2   3    0.60    0.20 
   2  -2   3    0.36    0.18 
  -3   2  -3    9.40    1.01 
  -3   2  -3    9.94    0.83 
  -3   2  -3   10.78    0.85 
   3  -2   3   10.14    0.90 
   3  -2   3    9.39    0.94 
   3  -2   3   10.46    0.92 
  -4   2  -3    5.27    0.79 
  -4   2  -3    4.57    0.40 
   4  -2   3    5.43    0.68 
   4  -2   3    4.55    0.57 
   4  -2   3    4.56    0.58 
  -5   2  -3    3.88    0.69 
   5  -2   3    3.28    0.51 
   5  -2   3    3.39    0.50 
   5  -2   3    3.92    0.59 
   6  -2   3    3.46    0.52 
   6  -2   3    2.64    0.38 
   6  -2   3    2.00    0.47 
   7  -2   3    0.26    0.28 
   7  -2   3    0.13    0.18 
   8  -2   3    0.17    0.36 
   8  -2   3    0.90    0.31 
   8   1  -3    0.69    0.57 
   8   1  -3   -0.07    0.33 
   7   1  -3    1.28    0.38 
   7   1  -3    1.49    0.62 
   6   1  -3    0.75    0.29 
   6   1  -3    1.99    0.64 
   5   1  -3    4.12    0.57 
   5   1  -3    2.90    0.48 
   5   1  -3    3.93    0.62 
   5   1  -3    5.98    0.96 
   4   1  -3    0.83    0.28 
   4   1  -3    0.62    0.24 
   4   1  -3    0.56    0.35 
   4   1  -3    0.86    0.19 
   4   1  -3    0.53    0.22 
  -4  -1   3    0.83    0.15 
  -4  -1   3    0.74    0.17 
  -4  -1   3    0.64    0.16 
   3   1  -3    0.82    0.25 
   3   1  -3    0.86    0.24 
   3   1  -3    1.21    0.18 
   3   1  -3    0.73    0.31 
   3   1  -3    1.29    0.29 
  -3  -1   3    1.17    0.23 
  -3  -1   3    1.44    0.45 
  -3  -1   3    0.85    0.21 
  -3  -1   3    1.09    0.20 
   2   1  -3    6.33    0.63 
   2   1  -3    6.32    0.52 
   2   1  -3    6.54    0.74 
   2   1  -3    6.89    0.66 
   2   1  -3    7.22    0.65 
  -2  -1   3    5.84    0.59 
  -2  -1   3    6.85    0.63 
  -2  -1   3    6.29    0.60 
  -2  -1   3    8.65    0.98 
   1   1  -3    0.77    0.27 
   1   1  -3    0.66    0.14 
   1   1  -3    0.59    0.21 
   1   1  -3    0.54    0.18 
   1   1  -3    0.72    0.21 
  -1  -1   3    0.69    0.12 
  -1  -1   3    0.94    0.21 
  -1  -1   3    0.64    0.18 
  -1  -1   3    1.33    0.34 
  -1  -1   3    0.59    0.19 
   0   1  -3   79.09    5.69 
   0   1  -3   81.99    5.67 
   0   1  -3   81.44    5.66 
   0   1  -3   83.08    5.66 
   0  -1   3   79.56    5.69 
   0  -1   3   77.31    5.65 
   0  -1   3   82.19    5.67 
   0  -1   3   74.45    5.63 
   0  -1   3   82.07    5.67 
  -1   1  -3    2.85    0.39 
  -1   1  -3    2.77    0.35 
  -1   1  -3    2.26    0.33 
   1  -1   3    2.60    0.39 
   1  -1   3    2.93    0.34 
   1  -1   3    2.28    0.34 
   1  -1   3    2.93    0.37 
  -2   1  -3   19.69    1.45 
  -2   1  -3   18.68    1.44 
   2  -1   3   20.26    1.47 
   2  -1   3   19.40    1.50 
   2  -1   3   18.66    1.47 
  -3   1  -3    0.48    0.23 
   3  -1   3    0.38    0.16 
   3  -1   3    0.69    0.18 
   3  -1   3    0.78    0.18 
  -4   1  -3    0.24    0.22 
   4  -1   3    0.31    0.16 
   4  -1   3    0.87    0.23 
   4  -1   3    0.71    0.19 
   4  -1   3    0.70    0.22 
  -5   1  -3    3.03    0.61 
   5  -1   3    4.06    0.48 
   5  -1   3    4.45    0.48 
   6  -1   3    0.05    0.14 
   6  -1   3    0.36    0.25 
   6  -1   3    0.15    0.18 
   7  -1   3    1.34    0.48 
   7  -1   3    1.80    0.37 
   7  -1   3    1.63    0.30 
   8  -1   3    0.31    0.21 
   8  -1   3    0.04    0.25 
   8   0  -3   -0.27    0.39 
   8   0  -3   -0.44    0.31 
   7   0  -3   -0.18    0.34 
   7   0  -3    0.14    0.26 
   6   0  -3    0.35    0.37 
   6   0  -3    0.27    0.22 
   6   0  -3    0.09    0.21 
   5   0  -3    0.11    0.21 
   5   0  -3    0.29    0.33 
   5   0  -3    0.03    0.20 
   5   0  -3    0.22    0.17 
   4   0  -3    2.39    0.53 
   4   0  -3    2.70    0.41 
   4   0  -3    3.68    0.56 
   4   0  -3    2.55    0.44 
  -4   0   3    2.91    0.34 
  -4   0   3    2.77    0.31 
  -4   0   3    3.29    0.36 
   3   0  -3    1.16    0.26 
   3   0  -3    1.00    0.21 
   3   0  -3    1.23    0.27 
   3   0  -3    0.49    0.30 
   3   0  -3    0.91    0.26 
  -3   0   3    1.25    0.21 
  -3   0   3    0.74    0.20 
  -3   0   3    1.13    0.42 
  -3   0   3    1.26    0.23 
   2   0  -3    6.69    0.64 
   2   0  -3    7.55    0.67 
   2   0  -3    7.13    0.65 
   2   0  -3    6.04    0.71 
   2   0  -3    6.98    0.58 
  -2   0   3    6.08    0.60 
  -2   0   3    8.74    0.82 
  -2   0   3    6.68    0.62 
  -2   0   3    6.47    0.61 
   1   0  -3    0.11    0.13 
   1   0  -3    0.09    0.13 
   1   0  -3    0.12    0.08 
   1   0  -3   -0.03    0.11 
   1   0  -3    0.07    0.17 
  -1   0   3   -0.05    0.10 
  -1   0   3   -0.04    0.11 
  -1   0   3    0.07    0.10 
  -1   0   3    0.39    0.19 
  -1   0   3   -0.06    0.07 
   0   0  -3    0.64    0.17 
   0   0  -3    0.77    0.20 
   0   0  -3    1.25    0.24 
   0   0  -3    0.97    0.19 
   0   0  -3    0.81    0.19 
   0   0   3    0.64    0.16 
   0   0   3    1.33    0.26 
   0   0   3    0.66    0.17 
   0   0   3    0.45    0.16 
   0   0   3    0.79    0.18 
  -1   0  -3   34.36    2.54 
  -1   0  -3   34.63    2.53 
   1   0   3   35.79    2.56 
   1   0   3   35.55    2.59 
   1   0   3   35.69    2.54 
   1   0   3   35.20    2.54 
  -2   0  -3    2.81    0.27 
  -2   0  -3    3.48    0.30 
  -2   0  -3    3.29    0.30 
   2   0   3    3.11    0.32 
   2   0   3    3.17    0.36 
   2   0   3    3.18    0.33 
  -3   0  -3   32.84    2.60 
   3   0   3   35.35    2.52 
   3   0   3   34.79    2.49 
   3   0   3   36.35    2.50 
  -4   0  -3    2.08    0.38 
   4   0   3    2.14    0.26 
   4   0   3    2.21    0.28 
   4   0   3    1.99    0.25 
   5   0   3    3.65    0.40 
   5   0   3    3.22    0.33 
   5   0   3    3.77    0.36 
   6   0   3    0.92    0.20 
   6   0   3    0.73    0.16 
   6   0   3    0.57    0.35 
   7   0   3   -0.03    0.10 
   7   0   3    0.29    0.15 
   7   0   3   -0.34    0.32 
   7   0   3   -0.07    0.14 
   8   0   3    0.10    0.19 
   8   0   3    0.43    0.17 
   8  -1  -3   -0.23    0.34 
   7  -1  -3    0.39    0.30 
   7  -1  -3    0.41    0.39 
   6  -1  -3    0.21    0.26 
   6  -1  -3    1.54    0.49 
   5  -1  -3    0.36    0.22 
   5  -1  -3    0.20    0.25 
   5  -1  -3    0.34    0.27 
   5  -1  -3   -0.18    0.19 
   4  -1  -3    0.11    0.18 
   4  -1  -3    0.33    0.25 
   4  -1  -3    0.01    0.17 
   4  -1  -3    0.07    0.19 
  -4   1   3    0.07    0.47 
  -4   1   3    0.09    0.09 
   3  -1  -3    0.24    0.17 
   3  -1  -3    0.27    0.18 
   3  -1  -3    0.32    0.24 
   3  -1  -3    0.37    0.19 
   3  -1  -3    0.16    0.19 
  -3   1   3    0.23    0.15 
  -3   1   3    0.46    0.15 
  -3   1   3    0.36    0.31 
  -3   1   3    0.12    0.15 
   2  -1  -3   25.22    2.21 
   2  -1  -3   30.72    2.23 
   2  -1  -3   31.31    2.22 
   2  -1  -3   30.17    2.15 
  -2   1   3   30.43    2.17 
  -2   1   3   27.27    2.17 
  -2   1   3   29.98    2.20 
   1  -1  -3    2.49    0.37 
   1  -1  -3    2.82    0.31 
   1  -1  -3    1.77    0.29 
   1  -1  -3    1.91    0.30 
  -1   1   3    1.90    0.32 
  -1   1   3    2.08    0.27 
  -1   1   3    2.38    0.41 
  -1   1   3    1.50    0.25 
   0  -1  -3  188.82   11.58 
   0  -1  -3  163.12   11.60 
   0  -1  -3  156.74   11.57 
   0  -1  -3  167.96   11.59 
   0   1   3  156.41   11.60 
   0   1   3  180.36   11.57 
   0   1   3  155.07   11.56 
   0   1   3  163.32   11.58 
  -1  -1  -3    4.68    0.46 
  -1  -1  -3    4.72    0.47 
  -1  -1  -3    5.04    0.52 
  -1  -1  -3    5.41    0.48 
   1   1   3    5.17    0.48 
   1   1   3    6.21    0.55 
   1   1   3    4.97    0.49 
   1   1   3    5.29    0.47 
  -2  -1  -3    4.14    0.41 
  -2  -1  -3    4.75    0.40 
  -2  -1  -3    4.83    0.40 
   2   1   3    4.48    0.42 
   2   1   3    4.21    0.54 
   2   1   3    5.49    0.45 
   2   1   3    5.63    0.46 
  -3  -1  -3    0.02    0.08 
   3   1   3   -0.06    0.06 
   3   1   3    0.04    0.08 
   3   1   3   -0.02    0.07 
   4   1   3    8.92    0.68 
   4   1   3    9.08    0.67 
   7   1   3    0.14    0.38 
   8   1   3    0.08    0.45 
   7  -2  -3    0.13    0.32 
   6  -2  -3    0.35    0.28 
   6  -2  -3    0.69    0.31 
   5  -2  -3    0.20    0.26 
   5  -2  -3    0.22    0.24 
   5  -2  -3    0.19    0.23 
  -5   2   3    0.42    0.16 
   4  -2  -3    1.27    0.35 
   4  -2  -3    1.05    0.32 
   4  -2  -3    1.41    0.38 
   4  -2  -3    1.56    0.40 
  -4   2   3    2.32    0.62 
  -4   2   3    1.98    0.34 
   3  -2  -3    3.10    0.51 
   3  -2  -3    3.77    0.54 
   3  -2  -3    3.47    0.50 
  -3   2   3    4.03    0.65 
  -3   2   3    3.20    0.49 
   2  -2  -3   -0.05    0.18 
   2  -2  -3   -0.08    0.15 
   2  -2  -3   -0.16    0.16 
   2  -2  -3   -0.02    0.14 
  -2   2   3    0.02    0.13 
  -2   2   3   -0.22    0.12 
  -2   2   3    0.34    0.24 
  -2   2   3    0.07    0.12 
   1  -2  -3   15.83    1.33 
   1  -2  -3   15.31    1.30 
   1  -2  -3   17.30    1.34 
   1  -2  -3   17.11    1.28 
  -1   2   3   16.93    1.31 
  -1   2   3   15.78    1.33 
  -1   2   3   17.54    1.29 
  -1   2   3   16.41    1.29 
  -1   2   3   14.37    1.30 
   0  -2  -3   15.44    1.23 
   0  -2  -3   15.49    1.26 
   0  -2  -3   14.78    1.26 
   0  -2  -3   17.31    1.25 
   0   2   3   14.15    1.24 
   0   2   3   19.45    1.28 
   0   2   3   14.62    1.27 
   0   2   3   15.26    1.22 
  -1  -2  -3   21.16    1.65 
  -1  -2  -3   19.50    1.61 
  -1  -2  -3   22.22    1.67 
  -1  -2  -3   23.09    1.65 
   1   2   3   24.06    1.66 
   1   2   3   21.35    1.64 
   1   2   3   23.11    1.68 
   1   2   3   19.97    1.63 
  -2  -2  -3    6.52    0.62 
  -2  -2  -3    5.19    0.48 
  -2  -2  -3    5.11    0.48 
  -2  -2  -3    5.82    0.49 
   2   2   3    4.73    0.50 
   2   2   3    5.04    0.50 
   2   2   3    4.81    0.59 
   3   2   3    4.78    0.62 
   3   2   3    4.04    0.42 
   3   2   3    4.37    0.42 
   3   2   3    4.98    0.44 
   4   2   3    0.63    0.14 
   4   2   3    0.46    0.25 
   4   2   3    0.58    0.14 
   4   2   3    0.67    0.14 
   5   2   3    0.00    0.08 
   5   2   3    0.02    0.24 
   5   2   3    0.05    0.08 
   5   2   3    0.06    0.09 
   6   2   3    4.02    0.34 
   7   2   3    0.33    0.36 
   8   2   3    3.94    0.88 
   8   2   3    9.13    1.26 
   9   2   3    0.31    0.59 
   9   2   3   -0.11    0.52 
   7  -3  -3    0.32    0.37 
   6  -3  -3    0.48    0.32 
   5  -3  -3   -0.35    0.21 
   4  -3  -3   -0.12    0.23 
   4  -3  -3    0.15    0.25 
   4  -3  -3   -0.38    0.18 
  -4   3   3    0.07    0.19 
  -4   3   3   -0.20    0.57 
   3  -3  -3    0.98    0.33 
   3  -3  -3    1.21    0.33 
   3  -3  -3    0.47    0.28 
  -3   3   3    1.86    0.37 
  -3   3   3    1.51    0.43 
   2  -3  -3    0.69    0.31 
   2  -3  -3    2.11    0.44 
   2  -3  -3    0.84    0.27 
   2  -3  -3    1.81    0.39 
  -2   3   3    2.43    0.37 
  -2   3   3    0.95    0.31 
  -2   3   3    1.05    0.27 
  -2   3   3    0.96    0.27 
   1  -3  -3   11.21    0.99 
   1  -3  -3    9.77    0.98 
   1  -3  -3   11.10    0.96 
   1  -3  -3    8.73    0.91 
  -1   3   3   10.32    0.90 
  -1   3   3    9.33    0.89 
  -1   3   3   10.53    0.91 
  -1   3   3    9.81    0.94 
   0  -3  -3    3.74    0.46 
   0  -3  -3    4.84    0.56 
   0  -3  -3    3.79    0.53 
   0  -3  -3    2.93    0.43 
   0  -3  -3    3.16    0.46 
   0   3   3    3.37    0.47 
   0   3   3    3.05    0.49 
   0   3   3    3.42    0.42 
   0   3   3    3.40    0.45 
  -1  -3  -3   13.92    1.16 
  -1  -3  -3   13.57    1.14 
  -1  -3  -3   13.65    1.16 
  -1  -3  -3   14.46    1.18 
  -1  -3  -3   13.75    1.11 
   1   3   3   14.13    1.14 
   1   3   3   14.63    1.20 
   1   3   3   14.84    1.18 
  -2  -3  -3    8.68    0.78 
  -2  -3  -3    9.03    0.78 
  -2  -3  -3   10.78    0.87 
   2   3   3    8.37    0.79 
   2   3   3    8.37    0.78 
   2   3   3    7.95    0.77 
   2   3   3    9.77    0.83 
  -3  -3  -3    1.57    0.23 
  -3  -3  -3    1.47    0.34 
  -3  -3  -3    1.31    0.23 
  -3  -3  -3    1.26    0.24 
  -3  -3  -3    1.41    0.24 
   3   3   3    1.43    0.25 
   3   3   3    1.44    0.31 
   3   3   3    1.50    0.28 
   3   3   3    1.40    0.27 
   4   3   3    9.30    0.88 
   4   3   3    8.16    0.73 
   4   3   3    8.37    0.72 
   4   3   3    7.84    0.73 
   5   3   3   -0.01    0.23 
   5   3   3    0.23    0.12 
   5   3   3    0.30    0.13 
   5   3   3    0.18    0.15 
   6   3   3    0.47    0.17 
   6   3   3    0.36    0.14 
   6   3   3    0.40    0.31 
   6   3   3    0.16    0.12 
   7   3   3    0.58    0.14 
   7   3   3    0.13    0.34 
   7   3   3    0.21    0.15 
   8   3   3    0.84    0.53 
   8   3   3    1.56    0.62 
   9   3   3   -0.46    0.47 
   6  -4  -3    0.22    0.37 
   5  -4  -3   -0.07    0.30 
   4  -4  -3    1.42    0.50 
   4  -4  -3    1.90    0.49 
  -4   4   3    2.43    0.49 
   3  -4  -3    0.67    0.47 
   3  -4  -3    0.24    0.27 
   3  -4  -3    0.55    0.34 
  -3   4   3    0.31    0.26 
  -3   4   3    0.77    0.41 
  -3   4   3    0.51    0.26 
   2  -4  -3    1.41    0.41 
   2  -4  -3    0.89    0.38 
   2  -4  -3    1.71    0.42 
  -2   4   3    0.91    0.29 
  -2   4   3    1.64    0.38 
   1  -4  -3   32.64    2.55 
   1  -4  -3   31.59    2.53 
   1  -4  -3   32.73    2.59 
   1  -4  -3   35.95    2.61 
  -1   4   3   30.66    2.53 
  -1   4   3   31.30    2.50 
  -1   4   3   31.96    2.49 
   0  -4  -3    0.04    0.19 
   0  -4  -3    0.08    0.16 
   0  -4  -3    0.30    0.23 
   0  -4  -3    0.29    0.23 
   0   4   3    0.30    0.19 
   0   4   3    0.21    0.19 
   0   4   3    0.00    0.14 
   0   4   3   -0.17    0.17 
  -1  -4  -3  137.15    9.31 
  -1  -4  -3  129.67    9.30 
  -1  -4  -3  126.15    9.25 
  -1  -4  -3  142.72    9.58 
   1   4   3  134.11    9.35 
   1   4   3  136.05    9.24 
   1   4   3  136.43    9.30 
   1   4   3  114.06    9.26 
  -2  -4  -3    0.08    0.19 
  -2  -4  -3    0.29    0.17 
  -2  -4  -3    0.34    0.18 
   2   4   3    0.20    0.19 
   2   4   3    0.16    0.14 
   2   4   3    0.12    0.17 
   2   4   3    0.06    0.15 
  -3  -4  -3   86.79    6.00 
  -3  -4  -3   76.98    6.03 
  -3  -4  -3   83.80    5.96 
  -3  -4  -3   89.08    6.04 
   3   4   3   81.70    6.03 
   3   4   3   84.39    6.00 
   3   4   3   88.77    6.00 
   3   4   3   80.96    6.03 
  -4  -4  -3    0.16    0.13 
  -4  -4  -3    0.30    0.14 
  -4  -4  -3    0.31    0.12 
  -4  -4  -3    0.31    0.11 
   4   4   3    0.21    0.15 
   4   4   3    0.30    0.18 
   4   4   3    0.43    0.21 
   4   4   3   -0.19    0.13 
   5   4   3   14.10    1.20 
   5   4   3   13.31    1.17 
   5   4   3   13.99    1.28 
   5   4   3   14.66    1.16 
   6   4   3    1.28    0.29 
   6   4   3    0.67    0.33 
   6   4   3    0.81    0.24 
   6   4   3    0.63    0.22 
   7   4   3    0.46    0.23 
   7   4   3    0.77    0.22 
   7   4   3    0.89    0.41 
   8   4   3    0.53    0.40 
   8   4   3    0.27    0.18 
   8   4   3    0.31    0.20 
   6  -5  -3    0.06    0.41 
   5  -5  -3   -0.06    0.34 
   4  -5  -3    1.74    0.53 
  -4   5   3    2.92    0.59 
   3  -5  -3    3.23    0.64 
   3  -5  -3    2.23    0.55 
  -3   5   3   -0.21    0.58 
  -3   5   3    2.78    0.53 
  -3   5   3    1.58    0.44 
   2  -5  -3    2.68    0.58 
   2  -5  -3    4.29    0.69 
  -2   5   3    3.30    0.64 
  -2   5   3    5.68    0.69 
  -2   5   3    3.10    0.56 
   1  -5  -3    6.75    0.87 
   1  -5  -3    6.37    0.86 
  -1   5   3    6.64    0.85 
  -1   5   3    6.14    0.88 
   0  -5  -3    3.99    0.67 
   0  -5  -3    4.53    0.70 
   0  -5  -3    6.89    0.83 
   0   5   3    3.73    0.61 
   0   5   3    5.30    0.67 
   0   5   3    4.87    0.73 
   0   5   3    4.61    0.61 
  -1  -5  -3   -0.10    0.18 
  -1  -5  -3   -0.19    0.24 
   1   5   3   -0.15    0.15 
   1   5   3    0.00    0.15 
   1   5   3    0.37    0.24 
   1   5   3    0.17    0.18 
   1   5   3    0.09    0.20 
  -2  -5  -3    1.06    0.32 
   2   5   3    1.72    0.40 
   2   5   3    1.31    0.33 
   2   5   3    1.87    0.41 
   2   5   3    1.30    0.29 
   2   5   3    1.41    0.29 
  -3  -5  -3    4.68    0.71 
   3   5   3    4.93    0.73 
   3   5   3    5.98    0.77 
   3   5   3    5.85    0.60 
   3   5   3    6.40    0.75 
  -4  -5  -3    1.30    0.27 
  -4  -5  -3    1.53    0.37 
   4   5   3    0.96    0.29 
   4   5   3    0.65    0.26 
   4   5   3    0.67    0.29 
   4   5   3    1.03    0.27 
   5   5   3    4.73    0.65 
   5   5   3    5.56    0.69 
   5   5   3    3.77    0.62 
   5   5   3    5.48    0.65 
   6   5   3    0.05    0.20 
   6   5   3    0.10    0.24 
   6   5   3   -0.13    0.16 
   7   5   3    1.81    0.39 
   7   5   3    1.20    0.36 
   7   5   3    1.46    0.47 
   8   5   3   -0.03    0.23 
   8   5   3    0.00    0.25 
   5  -6  -3    0.15    0.44 
   4  -6  -3    0.12    0.39 
   3  -6  -3    0.18    0.39 
  -3   6   3    0.21    0.33 
   2  -6  -3   -0.28    0.31 
   2  -6  -3    0.15    0.46 
  -2   6   3    0.52    0.38 
  -2   6   3    0.55    0.34 
   1  -6  -3    2.30    0.57 
  -1   6   3    2.77    0.56 
  -1   6   3    2.75    0.63 
   0  -6  -3    0.45    0.32 
   0   6   3    0.12    0.25 
   0   6   3    0.19    0.29 
  -1  -6  -3    6.28    0.87 
   1   6   3    6.42    0.84 
   1   6   3    6.76    0.97 
   1   6   3    5.52    0.72 
   1   6   3    6.24    0.83 
   1   6   3    4.69    0.76 
  -2  -6  -3    0.29    0.32 
  -2  -6  -3    0.35    0.26 
   2   6   3    0.54    0.29 
   2   6   3    0.69    0.27 
   2   6   3    0.54    0.25 
   2   6   3    0.26    0.28 
   2   6   3    0.82    0.39 
  -3  -6  -3    2.69    0.59 
  -3  -6  -3    1.53    0.39 
   3   6   3    2.36    0.40 
   3   6   3    2.16    0.47 
   3   6   3    1.89    0.48 
   3   6   3    1.67    0.49 
   3   6   3    1.70    0.32 
  -4  -6  -3    4.03    0.71 
  -4  -6  -3    4.54    0.60 
   4   6   3    4.98    0.59 
   4   6   3    3.51    0.64 
   4   6   3    4.52    0.72 
  -5  -6  -3    0.34    0.20 
   5   6   3   -0.05    0.26 
   5   6   3    0.03    0.18 
   5   6   3    0.10    0.22 
   6   6   3    3.36    0.60 
   6   6   3    2.76    0.55 
   6   6   3    3.53    0.54 
   7   6   3    0.21    0.28 
   7   6   3   -0.12    0.28 
   7   6   3    0.36    0.26 
   8   6   3    0.90    0.39 
   8   6   3    0.32    0.35 
   4  -7  -3    0.46    0.50 
   3  -7  -3    2.38    0.71 
  -3   7   3    2.53    0.60 
   2  -7  -3   -0.08    0.39 
  -2   7   3   -0.11    0.31 
  -2   7   3   -0.11    0.39 
   1  -7  -3    0.01    0.38 
  -1   7   3    0.26    0.34 
  -1   7   3   -0.15    0.28 
   0  -7  -3    1.31    0.51 
   0   7   3    0.37    0.36 
   0   7   3    0.59    0.36 
  -1  -7  -3    3.86    0.75 
   1   7   3    4.48    0.83 
   1   7   3    2.72    0.63 
   1   7   3    2.74    0.62 
  -2  -7  -3    4.44    0.75 
  -2  -7  -3    4.52    0.89 
   2   7   3    4.31    0.79 
   2   7   3    3.93    0.62 
   2   7   3    4.16    0.68 
   2   7   3    3.32    0.66 
  -3  -7  -3    5.83    0.82 
  -3  -7  -3    8.26    1.13 
   3   7   3    4.70    0.64 
   3   7   3    4.71    0.65 
   3   7   3    5.19    0.90 
   3   7   3    4.52    0.78 
  -4  -7  -3    5.44    0.93 
   4   7   3    5.40    0.67 
   4   7   3    5.58    0.91 
   4   7   3    5.77    0.92 
   5   7   3    1.60    0.49 
   5   7   3    1.75    0.52 
   5   7   3    2.05    0.38 
   6   7   3    2.65    0.46 
   6   7   3    2.01    0.53 
   6   7   3    1.56    0.51 
   7   7   3    0.41    0.33 
   7   7   3    0.57    0.41 
   3  -8  -3    1.28    0.64 
   2  -8  -3    2.28    0.81 
  -2   8   3    1.04    0.46 
   1  -8  -3    0.37    0.57 
  -1   8   3    1.80    0.62 
  -1   8   3    1.62    0.54 
   0  -8  -3    4.93    0.96 
   0   8   3    2.73    0.70 
   0   8   3    5.23    0.87 
  -1  -8  -3    1.20    0.53 
  -1  -8  -3    0.39    0.42 
   1   8   3    2.20    0.69 
   1   8   3    0.53    0.44 
  -2  -8  -3    0.11    0.40 
  -2  -8  -3    0.14    0.42 
   2   8   3    0.35    0.33 
   2   8   3   -0.35    0.30 
   2   8   3    0.15    0.38 
  -3  -8  -3    0.74    0.48 
   3   8   3    1.50    0.57 
   3   8   3    0.67    0.45 
   3   8   3    0.73    0.35 
   4   8   3    2.93    0.69 
   4   8   3    2.38    0.46 
   4   8   3    1.33    0.53 
   5   8   3    2.37    0.63 
   5   8   3    1.22    0.47 
   5   8   3    1.34    0.36 
   6   8   3    5.91    0.97 
   6   8   3    5.01    0.85 
   1  -9  -3    2.13    0.76 
   1  -9  -3    4.31    1.06 
  -1   9   3    3.09    0.72 
   0  -9  -3    3.29    0.89 
   0  -9  -3    1.24    0.67 
   0   9   3    2.69    0.69 
   0   9   3    3.43    0.82 
  -1  -9  -3    2.66    1.26 
  -1  -9  -3    1.44    0.64 
   1   9   3    1.12    0.59 
   1   9   3    1.34    0.52 
  -2  -9  -3    3.70    0.95 
   2   9   3    2.70    0.80 
   2   9   3    2.49    0.80 
  -3  -9  -3    0.17    0.51 
   3   9   3   -0.03    0.36 
   3   9   3    0.64    0.48 
   4   9   3    2.26    0.69 
   4   9   3    1.57    0.59 
   5   9   3    0.43    0.37 
   5   9   3    0.23    0.51 
   3   9  -4    0.11    0.51 
   3   9  -4    0.15    0.70 
   3   9  -4    0.30    0.44 
   2   9  -4    4.38    1.13 
   2   9  -4    5.38    1.08 
   2   9  -4    4.17    1.04 
   2   9  -4    3.58    0.87 
  -2  -9   4    3.44    1.00 
   1   9  -4    0.06    0.64 
   1   9  -4    0.04    0.54 
   1   9  -4    0.51    0.57 
   1   9  -4   -0.23    0.40 
  -1  -9   4   -0.09    0.48 
   0   9  -4   12.40    1.74 
   0  -9   4    9.26    1.44 
   0  -9   4    7.33    1.36 
   5   8  -4    0.43    0.53 
   5   8  -4    0.18    0.39 
   5   8  -4    1.00    0.80 
   4   8  -4    0.49    0.40 
   4   8  -4    0.43    0.65 
   4   8  -4    0.96    0.57 
   3   8  -4    0.57    0.55 
   3   8  -4    0.38    0.42 
   3   8  -4    0.46    0.64 
  -3  -8   4    1.57    0.69 
   2   8  -4   -0.30    0.33 
   2   8  -4    0.33    0.56 
   2   8  -4    0.62    0.43 
  -2  -8   4    0.06    0.43 
   1   8  -4    1.60    0.68 
   1   8  -4    1.07    0.53 
   1   8  -4    0.74    0.44 
   1   8  -4    1.45    0.68 
  -1  -8   4    1.27    0.56 
  -1  -8   4    1.42    0.57 
   0   8  -4    0.15    0.46 
   0   8  -4    0.67    0.54 
   0   8  -4    0.50    0.45 
   0   8  -4    0.62    0.59 
   0  -8   4    0.53    0.52 
   0  -8   4    0.51    0.49 
  -1   8  -4    0.65    0.45 
  -1   8  -4    0.13    0.52 
   1  -8   4    1.27    0.63 
   1  -8   4    3.02    0.88 
  -2   8  -4    0.19    0.44 
  -2   8  -4    1.06    0.61 
   2  -8   4   -0.42    0.50 
   2  -8   4    0.00    0.54 
  -3   8  -4   -0.40    0.58 
   3  -8   4    0.09    0.55 
   6   7  -4    0.07    0.39 
   6   7  -4    0.38    0.69 
   6   7  -4   -0.31    0.41 
   5   7  -4   -0.34    0.58 
   5   7  -4    0.55    0.45 
   5   7  -4    0.90    0.42 
   4   7  -4   -0.03    0.53 
   4   7  -4    0.19    0.33 
   4   7  -4    0.30    0.39 
  -4  -7   4    0.49    0.49 
   3   7  -4    1.17    0.67 
   3   7  -4    0.41    0.46 
   3   7  -4    1.12    0.45 
  -3  -7   4    2.08    0.68 
  -3  -7   4    1.31    0.64 
   2   7  -4    2.88    0.80 
   2   7  -4    1.15    0.48 
   2   7  -4    2.74    0.68 
  -2  -7   4    2.64    0.58 
  -2  -7   4    2.14    0.67 
   1   7  -4    0.55    0.39 
   1   7  -4    0.76    0.45 
   1   7  -4    1.67    0.63 
  -1  -7   4    0.85    0.44 
  -1  -7   4    2.16    0.60 
   0   7  -4    5.30    0.97 
   0   7  -4    3.34    0.72 
   0   7  -4    3.46    0.72 
   0   7  -4    2.87    0.66 
   0  -7   4    4.25    0.85 
  -1   7  -4    0.10    0.37 
  -1   7  -4   -0.11    0.30 
  -1   7  -4   -0.14    0.38 
  -1   7  -4   -0.27    0.29 
   1  -7   4   -0.56    0.29 
   1  -7   4   -0.03    0.38 
  -2   7  -4    1.12    0.47 
  -2   7  -4    0.69    0.59 
   2  -7   4    1.01    0.61 
   2  -7   4    1.97    0.63 
  -3   7  -4    1.73    0.73 
   3  -7   4    0.80    0.60 
   3  -7   4    1.45    0.76 
  -4   7  -4    0.69    0.72 
   4  -7   4    0.19    0.60 
   4  -7   4    0.83    0.55 
   7   6  -4    0.34    0.68 
   7   6  -4    0.28    0.41 
   7   6  -4   -0.12    0.41 
   6   6  -4    1.51    0.50 
   6   6  -4    0.45    0.43 
   6   6  -4    2.69    0.85 
   5   6  -4    0.57    0.35 
   5   6  -4   -0.01    0.57 
   5   6  -4    0.00    0.35 
   4   6  -4    3.21    0.63 
   4   6  -4    2.91    0.90 
   4   6  -4    3.02    0.70 
  -4  -6   4    3.03    0.71 
   3   6  -4    4.36    0.95 
   3   6  -4    4.90    0.85 
   3   6  -4    3.52    0.67 
  -3  -6   4    5.61    0.92 
   2   6  -4    1.08    0.51 
   2   6  -4    1.83    0.52 
   2   6  -4    2.20    0.69 
  -2  -6   4    1.92    0.58 
  -2  -6   4    1.80    0.23 
   1   6  -4   12.21    1.37 
   1   6  -4   10.83    1.41 
   1   6  -4   15.01    1.42 
  -1  -6   4   14.94    1.48 
  -1  -6   4   14.07    1.10 
   0   6  -4    1.21    0.44 
   0   6  -4    0.58    0.34 
   0   6  -4    1.24    0.42 
   0  -6   4    0.51    0.39 
  -1   6  -4    8.87    1.31 
  -1   6  -4   11.29    1.28 
  -1   6  -4    9.33    0.98 
  -1   6  -4    9.79    1.22 
   1  -6   4   11.02    1.42 
  -2   6  -4    0.01    0.33 
  -2   6  -4    0.30    0.33 
  -2   6  -4   -0.27    0.34 
   2  -6   4    1.28    0.59 
   2  -6   4    0.19    0.47 
  -3   6  -4    1.11    0.44 
  -3   6  -4    1.35    0.62 
   3  -6   4    1.86    0.69 
  -4   6  -4   -0.25    0.51 
   4  -6   4    0.45    0.40 
   4  -6   4   -0.27    0.44 
  -5   6  -4    0.22    0.58 
   5  -6   4   -0.42    0.43 
   5  -6   4   -0.30    0.34 
   7   5  -4    0.40    0.65 
   7   5  -4    0.13    0.42 
   7   5  -4    0.94    0.46 
   6   5  -4   -0.13    0.28 
   6   5  -4    0.13    0.35 
   6   5  -4    0.15    0.54 
   5   5  -4    1.05    0.39 
   5   5  -4    1.16    0.59 
   5   5  -4    0.05    0.33 
   4   5  -4    1.51    0.65 
   4   5  -4    3.59    0.68 
   4   5  -4    3.06    0.62 
  -4  -5   4    2.85    0.63 
   3   5  -4    3.01    0.61 
   3   5  -4    3.45    0.81 
   3   5  -4    1.80    0.48 
  -3  -5   4    5.22    0.80 
   2   5  -4    7.55    0.98 
   2   5  -4    8.73    1.23 
   2   5  -4    7.89    1.04 
  -2  -5   4    8.80    1.14 
  -2  -5   4    8.22    0.61 
   1   5  -4    4.38    0.72 
   1   5  -4    5.56    0.81 
   1   5  -4    5.60    0.85 
  -1  -5   4    4.69    0.79 
  -1  -5   4    4.62    0.48 
   0   5  -4   11.94    1.20 
   0   5  -4   13.15    1.26 
   0   5  -4   11.94    1.22 
   0  -5   4   13.99    1.30 
   0  -5   4   11.08    1.38 
  -1   5  -4    0.02    0.18 
  -1   5  -4    0.46    0.25 
  -1   5  -4   -0.04    0.26 
   1  -5   4   -0.27    0.25 
   1  -5   4    0.15    0.29 
  -2   5  -4    5.36    0.91 
  -2   5  -4    4.04    0.67 
  -2   5  -4    4.12    0.66 
   2  -5   4    2.54    0.69 
   2  -5   4    3.92    0.72 
  -3   5  -4    0.55    0.31 
  -3   5  -4    0.90    0.37 
  -3   5  -4    0.53    0.42 
   3  -5   4    1.39    0.53 
   3  -5   4    0.76    0.43 
  -4   5  -4    1.87    0.69 
  -4   5  -4    1.32    0.60 
   4  -5   4    2.64    0.72 
  -5   5  -4    1.12    0.61 
   5  -5   4    0.40    0.47 
   5  -5   4    0.89    0.38 
  -6   5  -4    0.51    0.58 
   6  -5   4    0.44    0.38 
   6  -5   4    0.46    0.55 
   7   4  -4    0.76    0.42 
   7   4  -4    0.07    0.42 
   7   4  -4    0.51    0.39 
   6   4  -4    0.89    0.34 
   6   4  -4    3.04    0.81 
   5   4  -4    0.67    0.50 
   5   4  -4    0.33    0.30 
   5   4  -4    0.60    0.30 
  -5  -4   4    0.56    0.21 
  -5  -4   4    0.49    0.24 
   4   4  -4    2.16    0.69 
   4   4  -4    1.92    0.53 
   4   4  -4    1.61    0.43 
   4   4  -4    2.76    0.51 
  -4  -4   4    2.40    0.48 
   3   4  -4    0.28    0.30 
   3   4  -4   -0.03    0.21 
   3   4  -4    0.48    0.41 
   3   4  -4    0.33    0.24 
  -3  -4   4   -0.02    0.21 
   2   4  -4    2.03    0.47 
   2   4  -4    1.64    0.45 
   2   4  -4    1.56    0.51 
   2   4  -4    1.59    0.56 
  -2  -4   4    2.10    0.45 
   1   4  -4   11.25    1.09 
   1   4  -4   11.05    1.13 
   1   4  -4   11.26    1.11 
  -1  -4   4   10.14    1.06 
  -1  -4   4   11.00    1.25 
   0   4  -4    3.54    0.56 
   0   4  -4    4.34    0.62 
   0   4  -4    3.64    0.59 
   0  -4   4    3.03    0.54 
   0  -4   4    3.72    0.61 
  -1   4  -4   17.11    1.41 
  -1   4  -4   18.58    1.55 
  -1   4  -4   17.52    1.55 
   1  -4   4   18.87    1.63 
   1  -4   4   16.82    1.56 
  -2   4  -4    0.03    0.29 
  -2   4  -4    0.10    0.21 
  -2   4  -4    0.16    0.20 
   2  -4   4    0.07    0.25 
   2  -4   4    0.19    0.26 
   2  -4   4   -0.10    0.23 
  -3   4  -4    6.61    1.02 
  -3   4  -4    5.33    0.72 
   3  -4   4    4.43    0.74 
   3  -4   4    5.40    0.87 
   3  -4   4    7.10    0.90 
  -4   4  -4    2.26    0.67 
  -4   4  -4    3.83    0.54 
  -4   4  -4    1.90    0.41 
   4  -4   4    2.50    0.63 
   4  -4   4    2.81    0.62 
   4  -4   4    4.50    0.90 
  -5   4  -4    1.38    0.57 
   5  -4   4    0.57    0.41 
  -6   4  -4    1.21    0.65 
   6  -4   4    0.95    0.51 
   6  -4   4    1.28    0.44 
   7  -4   4    0.16    0.48 
   7  -4   4   -0.16    0.30 
   8   3  -4    0.22    0.61 
   8   3  -4    0.35    0.35 
   8   3  -4    1.23    0.43 
   7   3  -4    0.47    0.35 
   7   3  -4    0.49    0.61 
   7   3  -4    1.01    0.43 
   6   3  -4   -0.16    0.24 
   6   3  -4    0.26    0.27 
   6   3  -4    0.78    0.50 
   5   3  -4    5.22    1.01 
   5   3  -4    3.74    0.69 
   5   3  -4    3.65    0.60 
   5   3  -4    4.20    0.64 
  -5  -3   4    3.13    0.40 
  -5  -3   4    5.01    0.53 
   4   3  -4    0.51    0.44 
   4   3  -4    0.76    0.28 
   4   3  -4    1.19    0.34 
   4   3  -4    1.00    0.41 
  -4  -3   4    0.97    0.29 
   3   3  -4    9.16    0.96 
   3   3  -4    9.46    1.08 
   3   3  -4   10.71    1.13 
   3   3  -4    7.68    0.96 
  -3  -3   4    8.88    0.92 
   2   3  -4    4.02    0.59 
   2   3  -4    4.33    0.68 
   2   3  -4    4.02    0.72 
   2   3  -4    5.26    0.69 
  -2  -3   4    5.22    0.70 
  -2  -3   4    3.95    0.58 
   1   3  -4    0.86    0.33 
   1   3  -4    1.25    0.33 
   1   3  -4    2.52    0.46 
   1   3  -4    2.16    0.45 
  -1  -3   4    1.03    0.31 
  -1  -3   4    3.00    0.58 
  -1  -3   4    1.09    0.34 
  -1  -3   4    2.02    0.27 
   0   3  -4   10.25    0.88 
   0   3  -4    8.87    0.88 
   0   3  -4    8.50    0.98 
   0   3  -4    9.80    0.91 
   0  -3   4    8.29    0.87 
   0  -3   4    6.61    0.92 
   0  -3   4    9.30    0.91 
  -1   3  -4    4.97    0.50 
  -1   3  -4    3.36    0.54 
  -1   3  -4    3.51    0.55 
   1  -3   4    5.82    0.70 
   1  -3   4    4.91    0.66 
   1  -3   4    5.42    0.72 
  -2   3  -4    0.16    0.20 
  -2   3  -4    0.32    0.21 
   2  -3   4    0.63    0.31 
   2  -3   4    0.21    0.26 
   2  -3   4    0.59    0.28 
  -3   3  -4    5.92    0.70 
  -3   3  -4    6.62    0.97 
  -3   3  -4    6.63    0.73 
   3  -3   4    6.19    0.78 
   3  -3   4    5.98    0.84 
   3  -3   4    4.97    0.71 
  -4   3  -4    1.07    0.23 
  -4   3  -4    0.44    0.20 
  -4   3  -4    1.28    0.49 
   4  -3   4    1.43    0.44 
   4  -3   4    0.77    0.31 
   4  -3   4    1.21    0.35 
  -5   3  -4    2.51    0.70 
   5  -3   4    3.24    0.64 
   5  -3   4    2.38    0.53 
  -6   3  -4    1.15    0.54 
   6  -3   4    1.62    0.51 
   7  -3   4    0.71    0.46 
   7  -3   4    0.43    0.31 
   8   2  -4    0.98    0.68 
   8   2  -4    0.33    0.43 
   7   2  -4    0.13    0.27 
   7   2  -4    0.29    0.44 
   7   2  -4   -0.11    0.28 
   6   2  -4    0.98    0.51 
   6   2  -4    0.62    0.26 
   6   2  -4    0.48    0.28 
   5   2  -4    0.04    0.19 
   5   2  -4    0.00    0.25 
   5   2  -4    0.16    0.15 
   5   2  -4   -0.12    0.20 
   5   2  -4    0.03    0.37 
  -5  -2   4    0.17    0.14 
   4   2  -4    1.91    0.45 
   4   2  -4    1.02    0.31 
   4   2  -4    1.15    0.47 
   4   2  -4    0.94    0.29 
   4   2  -4    1.51    0.21 
  -4  -2   4    1.67    0.32 
   3   2  -4    8.13    0.63 
   3   2  -4    7.68    0.83 
   3   2  -4    9.60    1.16 
   3   2  -4    7.84    0.89 
   3   2  -4    8.26    0.96 
  -3  -2   4    8.30    0.84 
  -3  -2   4    6.86    0.76 
   2   2  -4   14.94    1.06 
   2   2  -4   10.76    0.97 
   2   2  -4   10.94    1.08 
   2   2  -4   10.31    1.00 
  -2  -2   4    9.65    0.96 
  -2  -2   4    9.96    0.76 
  -2  -2   4   10.45    0.95 
  -2  -2   4    9.77    0.94 
   1   2  -4   25.40    1.94 
   1   2  -4   24.41    1.97 
   1   2  -4   22.11    1.92 
   1   2  -4   24.33    1.98 
  -1  -2   4   26.47    1.81 
  -1  -2   4   23.91    1.96 
  -1  -2   4   25.82    1.93 
  -1  -2   4   24.41    1.99 
  -1  -2   4   24.27    1.92 
   0   2  -4   71.15    5.39 
   0   2  -4   80.55    5.40 
   0   2  -4   80.40    5.41 
   0   2  -4   76.00    5.42 
   0  -2   4   75.73    5.45 
   0  -2   4   72.21    5.39 
   0  -2   4   73.97    5.39 
   0  -2   4   71.17    5.38 
  -1   2  -4    0.72    0.25 
  -1   2  -4    0.58    0.21 
  -1   2  -4    0.10    0.18 
  -1   2  -4    0.59    0.18 
   1  -2   4    0.32    0.18 
   1  -2   4    0.20    0.19 
   1  -2   4    0.66    0.24 
   1  -2   4    0.53    0.22 
  -2   2  -4   24.25    1.91 
   2  -2   4   27.49    1.96 
   2  -2   4   24.33    1.80 
   2  -2   4   24.25    1.99 
   2  -2   4   25.09    1.96 
  -3   2  -4    5.32    0.53 
  -3   2  -4    4.49    0.72 
  -3   2  -4    5.16    0.53 
   3  -2   4    5.18    0.70 
   3  -2   4    4.67    0.63 
   3  -2   4    5.48    0.64 
  -4   2  -4    2.88    0.61 
  -4   2  -4    2.21    0.29 
  -4   2  -4    2.20    0.24 
   4  -2   4    1.95    0.43 
   4  -2   4    2.17    0.40 
   4  -2   4    1.66    0.37 
  -5   2  -4    1.85    0.54 
   5  -2   4    2.60    0.42 
   5  -2   4    2.59    0.46 
   5  -2   4    1.89    0.47 
  -6   2  -4    0.08    0.31 
   6  -2   4   -0.06    0.25 
   6  -2   4   -0.32    0.27 
   7  -2   4    0.60    0.26 
   7  -2   4    0.70    0.35 
   8  -2   4   -0.06    0.23 
   8  -2   4    0.15    0.36 
   8   1  -4    0.18    0.38 
   8   1  -4    0.66    0.58 
   7   1  -4    2.95    0.57 
   7   1  -4    2.41    0.79 
   6   1  -4    0.21    0.30 
   6   1  -4    0.96    0.52 
   5   1  -4   20.75    1.82 
   5   1  -4   22.05    2.04 
   5   1  -4   21.83    1.81 
   5   1  -4   20.53    1.78 
  -5  -1   4   22.28    1.58 
   4   1  -4    2.54    0.46 
   4   1  -4    1.68    0.42 
   4   1  -4    2.41    0.45 
   4   1  -4    2.97    0.36 
   4   1  -4    2.11    0.60 
  -4  -1   4    2.61    0.38 
   3   1  -4   47.48    3.35 
   3   1  -4   44.39    3.63 
   3   1  -4   43.73    3.48 
   3   1  -4   49.84    3.55 
   3   1  -4   47.07    3.49 
  -3  -1   4   46.72    3.46 
  -3  -1   4   51.20    3.54 
  -3  -1   4   46.96    3.42 
   2   1  -4    1.94    0.36 
   2   1  -4    1.40    0.32 
   2   1  -4    1.67    0.32 
   2   1  -4    1.51    0.23 
   2   1  -4    1.36    0.42 
  -2  -1   4    2.06    0.35 
  -2  -1   4    1.53    0.31 
  -2  -1   4    2.04    0.23 
  -2  -1   4    1.70    0.30 
  -2  -1   4    2.22    0.51 
   1   1  -4   12.87    1.05 
   1   1  -4   11.40    1.04 
   1   1  -4   12.81    1.03 
   1   1  -4   12.49    0.95 
   1   1  -4   12.31    1.09 
  -1  -1   4   11.78    1.01 
  -1  -1   4   11.28    1.09 
  -1  -1   4   11.03    0.90 
  -1  -1   4   12.60    1.06 
  -1  -1   4   11.22    1.00 
   0   1  -4   16.00    1.20 
   0   1  -4   15.28    1.20 
   0   1  -4   14.23    1.19 
   0   1  -4   15.15    1.22 
   0  -1   4   14.69    1.21 
   0  -1   4   13.79    1.21 
   0  -1   4   13.84    1.17 
   0  -1   4   13.51    1.17 
   0  -1   4   13.73    1.15 
  -1   1  -4    5.50    0.59 
  -1   1  -4    4.23    0.52 
  -1   1  -4    4.66    0.55 
   1  -1   4    4.95    0.56 
   1  -1   4    5.42    0.61 
   1  -1   4    4.84    0.55 
   1  -1   4    4.62    0.48 
  -2   1  -4   34.00    2.47 
  -2   1  -4   31.39    2.48 
  -2   1  -4   33.69    2.47 
   2  -1   4   33.41    2.50 
   2  -1   4   33.87    2.54 
   2  -1   4   35.34    2.49 
  -3   1  -4    6.39    0.81 
  -3   1  -4    6.82    0.56 
   3  -1   4    6.32    0.62 
   3  -1   4    7.34    0.66 
   3  -1   4    5.54    0.68 
  -4   1  -4    9.43    1.14 
   4  -1   4   10.49    0.90 
   4  -1   4   10.82    0.94 
   4  -1   4    9.35    0.85 
  -5   1  -4    3.21    0.61 
   5  -1   4    3.19    0.45 
   5  -1   4    3.59    0.45 
   5  -1   4    3.32    0.50 
   5  -1   4    2.98    0.44 
  -6   1  -4    0.44    0.31 
   6  -1   4    0.22    0.23 
   6  -1   4    0.47    0.20 
   6  -1   4    0.09    0.20 
   6  -1   4    0.31    0.20 
   7  -1   4    0.91    0.30 
   8  -1   4   -0.14    0.25 
   8  -1   4    0.07    0.18 
   8   0  -4    0.21    0.36 
   7   0  -4   -0.43    0.34 
   7   0  -4    0.07    0.29 
   6   0  -4    1.97    0.41 
   6   0  -4    1.51    0.55 
   5   0  -4    2.35    0.44 
   5   0  -4    3.36    0.60 
   5   0  -4    2.25    0.61 
   5   0  -4    2.07    0.45 
  -5   0   4    3.42    0.33 
   4   0  -4    7.31    0.83 
   4   0  -4    6.67    0.85 
   4   0  -4    6.20    0.92 
  -4   0   4    8.32    0.71 
   3   0  -4   14.69    1.29 
   3   0  -4   15.03    1.27 
   3   0  -4   15.05    1.37 
   3   0  -4   14.39    1.17 
  -3   0   4   14.65    1.30 
  -3   0   4   14.52    1.44 
  -3   0   4   14.88    1.23 
  -3   0   4   15.11    1.20 
   2   0  -4   11.73    1.02 
   2   0  -4   12.34    0.94 
   2   0  -4   10.50    1.02 
   2   0  -4   12.17    1.04 
   2   0  -4   10.48    1.07 
  -2   0   4   13.30    1.04 
  -2   0   4   11.97    0.99 
  -2   0   4   11.38    0.92 
  -2   0   4   11.32    0.98 
   1   0  -4    8.42    0.90 
   1   0  -4   10.89    0.84 
   1   0  -4   11.24    0.94 
   1   0  -4   10.98    0.92 
   1   0  -4    9.55    0.89 
  -1   0   4   10.43    0.91 
  -1   0   4   10.23    0.88 
  -1   0   4   10.06    0.81 
  -1   0   4    9.55    0.95 
  -1   0   4   11.15    0.90 
   0   0  -4    0.54    0.18 
   0   0  -4    1.07    0.23 
   0   0  -4    0.68    0.20 
   0   0  -4    0.85    0.23 
   0   0   4    0.53    0.18 
   0   0   4    1.17    0.24 
   0   0   4    1.01    0.22 
   0   0   4    1.14    0.26 
   0   0   4    0.90    0.23 
  -1   0  -4    0.56    0.19 
  -1   0  -4    0.83    0.19 
  -1   0  -4    0.45    0.18 
   1   0   4    0.74    0.20 
   1   0   4    0.27    0.16 
   1   0   4    0.82    0.23 
   1   0   4    0.73    0.20 
  -2   0  -4    7.21    0.64 
  -2   0  -4    7.13    0.60 
  -2   0  -4    7.74    0.65 
   2   0   4    8.08    0.68 
   2   0   4    7.38    0.66 
   2   0   4    7.38    0.69 
  -3   0  -4    1.92    0.36 
   3   0   4    1.90    0.28 
   3   0   4    1.75    0.30 
   3   0   4    1.50    0.26 
  -4   0  -4    6.17    0.79 
   4   0   4    8.20    0.67 
   4   0   4    6.80    0.61 
   4   0   4    7.34    0.64 
  -5   0  -4    1.46    0.36 
   5   0   4    1.32    0.26 
   5   0   4    1.50    0.24 
   5   0   4    1.18    0.23 
   6   0   4    0.53    0.20 
   6   0   4    0.77    0.23 
   6   0   4    0.97    0.20 
   6   0   4    0.88    0.38 
   7   0   4    0.23    0.16 
   7   0   4   -0.22    0.15 
   7   0   4    0.11    0.34 
   8   0   4    0.15    0.13 
   8   0   4    0.09    0.17 
   7  -1  -4   -0.07    0.30 
   7  -1  -4    0.09    0.40 
   6  -1  -4   -0.08    0.24 
   6  -1  -4    0.51    0.36 
   5  -1  -4   -0.03    0.21 
   5  -1  -4    0.31    0.29 
   5  -1  -4    0.19    0.30 
   5  -1  -4    0.16    0.24 
  -5   1   4    0.00    0.14 
   4  -1  -4    0.02    0.20 
   4  -1  -4   -0.17    0.18 
   4  -1  -4   -0.18    0.20 
   4  -1  -4    0.28    0.26 
  -4   1   4   -0.10    0.12 
   3  -1  -4    0.24    0.22 
   3  -1  -4   -0.11    0.18 
   3  -1  -4    0.05    0.19 
   3  -1  -4    0.03    0.17 
  -3   1   4    0.05    0.31 
  -3   1   4   -0.18    0.11 
  -3   1   4    0.06    0.17 
   2  -1  -4    2.15    0.36 
   2  -1  -4    1.71    0.37 
   2  -1  -4    2.26    0.42 
   2  -1  -4    1.79    0.30 
   2  -1  -4    1.81    0.36 
  -2   1   4    1.66    0.33 
  -2   1   4    1.95    0.32 
  -2   1   4    2.11    0.34 
  -2   1   4    2.40    0.50 
  -2   1   4    1.71    0.32 
   1  -1  -4    0.07    0.14 
   1  -1  -4    0.24    0.18 
   1  -1  -4   -0.10    0.09 
   1  -1  -4   -0.05    0.12 
  -1   1   4    0.14    0.17 
  -1   1   4   -0.05    0.11 
  -1   1   4    0.02    0.11 
  -1   1   4   -0.18    0.09 
  -1   1   4   -0.21    0.11 
   0  -1  -4   32.58    2.46 
   0  -1  -4   29.64    2.43 
   0  -1  -4   36.23    2.43 
   0  -1  -4   32.53    2.45 
   0   1   4   36.55    2.47 
   0   1   4   31.41    2.42 
   0   1   4   32.54    2.45 
   0   1   4   32.20    2.47 
  -1  -1  -4    2.35    0.35 
  -1  -1  -4    2.13    0.35 
  -1  -1  -4    2.57    0.34 
  -1  -1  -4    1.93    0.27 
   1   1   4    1.77    0.31 
   1   1   4    1.62    0.31 
   1   1   4    2.51    0.31 
   1   1   4    2.03    0.32 
  -2  -1  -4   17.27    1.31 
  -2  -1  -4   18.41    1.34 
  -2  -1  -4   16.72    1.29 
   2   1   4   18.23    1.44 
   2   1   4   16.78    1.35 
   2   1   4   18.00    1.34 
   2   1   4   16.56    1.31 
  -3  -1  -4    0.08    0.12 
   3   1   4   -0.27    0.13 
   3   1   4   -0.15    0.09 
   3   1   4    0.10    0.11 
   3   1   4   -0.07    0.08 
  -4  -1  -4    0.96    0.23 
   4   1   4    1.49    0.23 
   4   1   4    1.66    0.25 
   4   1   4    1.94    0.22 
   5   1   4    2.14    0.26 
   5   1   4    2.19    0.28 
   5   1   4    1.74    0.25 
   6   1   4    0.35    0.13 
   6   1   4    0.31    0.11 
   7   1   4    1.17    0.53 
   8   1   4    0.11    0.47 
   7  -2  -4    0.19    0.37 
   6  -2  -4    1.38    0.43 
   6  -2  -4    0.60    0.36 
   5  -2  -4    0.13    0.23 
   5  -2  -4   -0.24    0.35 
   5  -2  -4    0.07    0.25 
   4  -2  -4    5.15    0.74 
   4  -2  -4    5.01    0.68 
   4  -2  -4    4.21    0.63 
   4  -2  -4    4.12    0.66 
  -4   2   4    4.67    0.60 
   3  -2  -4    0.21    0.21 
   3  -2  -4   -0.04    0.17 
   3  -2  -4    0.00    0.19 
  -3   2   4    0.05    0.16 
  -3   2   4    0.23    0.33 
   2  -2  -4   15.90    1.30 
   2  -2  -4   14.04    1.28 
  -2   2   4   14.39    1.26 
  -2   2   4   14.69    1.23 
   1  -2  -4    0.29    0.14 
   1  -2  -4    0.34    0.18 
   1  -2  -4   -0.01    0.14 
   1  -2  -4    0.64    0.23 
  -1   2   4    0.20    0.14 
  -1   2   4    0.28    0.18 
  -1   2   4    0.80    0.30 
  -1   2   4    0.38    0.16 
  -1   2   4    0.13    0.14 
   0  -2  -4    0.76    0.24 
   0  -2  -4    0.61    0.21 
   0  -2  -4    0.25    0.16 
   0  -2  -4    1.03    0.27 
   0   2   4    0.28    0.16 
   0   2   4    0.53    0.19 
   0   2   4    0.32    0.17 
   0   2   4    0.01    0.15 
  -1  -2  -4    0.12    0.15 
  -1  -2  -4    0.33    0.19 
  -1  -2  -4    0.07    0.13 
  -1  -2  -4    0.16    0.16 
   1   2   4   -0.07    0.12 
   1   2   4    0.01    0.14 
   1   2   4    0.09    0.15 
   1   2   4    0.24    0.16 
  -2  -2  -4   32.26    2.34 
  -2  -2  -4   31.82    2.46 
  -2  -2  -4   31.65    2.34 
  -2  -2  -4   32.07    2.36 
   2   2   4   32.86    2.39 
   2   2   4   30.94    2.43 
   2   2   4   30.72    2.35 
   2   2   4   33.04    2.37 
  -3  -2  -4    2.52    0.25 
  -3  -2  -4    2.39    0.23 
  -3  -2  -4    2.34    0.24 
  -3  -2  -4    2.80    0.27 
   3   2   4    2.03    0.41 
   3   2   4    2.46    0.35 
   3   2   4    2.43    0.33 
   3   2   4    2.18    0.31 
   4   2   4   17.03    1.25 
   4   2   4   16.66    1.26 
   4   2   4   14.74    1.23 
   4   2   4   17.61    1.49 
   5   2   4    0.84    0.17 
   5   2   4    1.22    0.44 
   5   2   4    1.02    0.20 
   5   2   4    0.78    0.17 
   6   2   4    0.23    0.12 
   6   2   4    0.82    0.14 
   6   2   4    0.33    0.34 
   6   2   4    0.50    0.13 
   7   2   4   -0.25    0.31 
   8   2   4   -0.06    0.44 
   8   2   4    0.34    0.46 
   9   2   4   -0.25    0.62 
   7  -3  -4    0.56    0.43 
   6  -3  -4   -0.15    0.30 
   4  -3  -4    0.19    0.26 
   4  -3  -4    0.07    0.30 
   4  -3  -4   -0.24    0.23 
  -4   3   4   -0.30    0.19 
   3  -3  -4    0.47    0.32 
   3  -3  -4    0.54    0.28 
   3  -3  -4    0.35    0.25 
  -3   3   4    0.42    0.24 
   2  -3  -4    1.44    0.40 
   2  -3  -4    0.73    0.29 
   2  -3  -4    1.52    0.38 
  -2   3   4    1.27    0.33 
  -2   3   4    1.22    0.35 
  -2   3   4    1.16    0.27 
   1  -3  -4    2.86    0.48 
   1  -3  -4    3.48    0.56 
   1  -3  -4    2.38    0.46 
   1  -3  -4    3.25    0.49 
  -1   3   4    2.93    0.45 
  -1   3   4    3.38    0.50 
  -1   3   4    3.57    0.54 
  -1   3   4    3.22    0.46 
   0  -3  -4    4.14    0.55 
   0  -3  -4    4.93    0.58 
   0  -3  -4    4.25    0.56 
   0  -3  -4    4.72    0.63 
   0   3   4    3.81    0.51 
   0   3   4    3.25    0.55 
   0   3   4    5.18    0.56 
   0   3   4    3.31    0.48 
  -1  -3  -4   15.49    1.21 
  -1  -3  -4   14.17    1.19 
  -1  -3  -4   12.58    1.17 
  -1  -3  -4   12.95    1.12 
  -1  -3  -4   15.13    1.22 
   1   3   4   14.11    1.19 
   1   3   4   12.58    1.18 
   1   3   4   14.66    1.24 
   1   3   4   16.21    1.19 
  -2  -3  -4   -0.05    0.13 
  -2  -3  -4    0.03    0.16 
  -2  -3  -4    0.23    0.14 
  -2  -3  -4    0.01    0.07 
  -2  -3  -4   -0.04    0.12 
   2   3   4    0.06    0.14 
   2   3   4    0.06    0.15 
   2   3   4    0.01    0.13 
   2   3   4    0.06    0.15 
  -3  -3  -4   10.70    0.93 
  -3  -3  -4   11.22    0.95 
  -3  -3  -4   12.27    0.96 
  -3  -3  -4   13.68    1.51 
   3   3   4   10.75    0.98 
   3   3   4   12.10    1.02 
   3   3   4   13.14    1.09 
   4   3   4    0.45    0.18 
   4   3   4    0.17    0.15 
   4   3   4    0.55    0.29 
   4   3   4    0.36    0.16 
   5   3   4    4.35    0.43 
   5   3   4    3.39    0.43 
   5   3   4    3.28    0.60 
   5   3   4    3.78    0.46 
   6   3   4    0.15    0.32 
   6   3   4   -0.01    0.12 
   6   3   4    0.14    0.12 
   6   3   4    0.06    0.12 
   7   3   4    0.27    0.14 
   7   3   4    0.45    0.42 
   7   3   4    0.16    0.13 
   7   3   4    0.37    0.15 
   8   3   4    0.36    0.45 
   9   3   4   -0.51    0.53 
   6  -4  -4    0.65    0.38 
   5  -4  -4    0.09    0.35 
   4  -4  -4    1.15    0.45 
  -4   4   4    1.33    0.41 
   3  -4  -4    0.48    0.36 
   3  -4  -4    0.53    0.32 
  -3   4   4    0.94    0.30 
  -3   4   4    0.85    0.35 
   2  -4  -4    1.81    0.45 
   2  -4  -4    1.24    0.40 
  -2   4   4    1.63    0.39 
  -2   4   4    1.38    0.41 
  -2   4   4    3.50    0.57 
   1  -4  -4    0.77    0.31 
   1  -4  -4    0.35    0.28 
   1  -4  -4    1.09    0.35 
  -1   4   4    1.19    0.32 
  -1   4   4    0.59    0.25 
  -1   4   4    1.24    0.37 
  -1   4   4    1.17    0.35 
   0  -4  -4    0.44    0.25 
   0  -4  -4    0.34    0.20 
   0  -4  -4    0.33    0.23 
   0   4   4    0.16    0.20 
   0   4   4    0.56    0.28 
   0   4   4    0.41    0.25 
   0   4   4    0.37    0.23 
  -1  -4  -4    7.72    0.82 
  -1  -4  -4    7.18    0.74 
  -1  -4  -4    7.29    0.80 
   1   4   4    8.92    0.78 
   1   4   4    9.83    0.90 
   1   4   4    7.97    0.81 
   1   4   4    6.96    0.78 
  -2  -4  -4    2.13    0.40 
  -2  -4  -4    2.73    0.43 
   2   4   4    2.97    0.50 
   2   4   4    2.97    0.47 
   2   4   4    2.74    0.44 
  -3  -4  -4   14.62    1.24 
   3   4   4   16.33    1.34 
   3   4   4   16.56    1.31 
   3   4   4   13.38    1.26 
   3   4   4   15.90    1.31 
  -4  -4  -4    3.94    0.47 
  -4  -4  -4    4.00    0.40 
  -4  -4  -4    4.05    0.45 
  -4  -4  -4    3.91    0.43 
   4   4   4    2.07    0.43 
   4   4   4    4.05    0.60 
   4   4   4    3.33    0.48 
   4   4   4    2.82    0.48 
   5   4   4    6.83    0.65 
   5   4   4    5.93    0.71 
   5   4   4    5.69    0.69 
   5   4   4    6.20    0.82 
   6   4   4    1.96    0.33 
   6   4   4    2.17    0.39 
   6   4   4    1.69    0.45 
   6   4   4    1.77    0.34 
   7   4   4    0.69    0.24 
   7   4   4    0.02    0.33 
   7   4   4    0.63    0.21 
   7   4   4    0.45    0.21 
   8   4   4    0.52    0.42 
   8   4   4    0.67    0.19 
   8   4   4    0.11    0.19 
   5  -5  -4    0.76    0.43 
   4  -5  -4    0.29    0.37 
   3  -5  -4    0.49    0.37 
   3  -5  -4    1.15    0.47 
  -3   5   4    1.29    0.41 
  -3   5   4    1.01    0.40 
   2  -5  -4    5.17    0.82 
   2  -5  -4    7.51    0.97 
  -2   5   4    5.59    0.78 
  -2   5   4    6.93    0.95 
   1  -5  -4    1.69    0.48 
   1  -5  -4    2.01    0.51 
  -1   5   4    2.32    0.47 
  -1   5   4    2.51    0.53 
   0  -5  -4   15.08    1.51 
   0  -5  -4   17.27    1.52 
   0  -5  -4   20.37    1.58 
   0   5   4   16.70    1.55 
   0   5   4   15.78    1.43 
   0   5   4   18.91    1.54 
   0   5   4   15.00    1.47 
  -1  -5  -4   -0.06    0.18 
  -1  -5  -4   -0.01    0.18 
   1   5   4   -0.05    0.17 
   1   5   4    0.06    0.19 
   1   5   4    0.07    0.17 
   1   5   4   -0.09    0.19 
  -2  -5  -4    3.78    0.57 
   2   5   4    4.07    0.54 
   2   5   4    2.23    0.45 
   2   5   4    4.56    0.61 
   2   5   4    2.91    0.56 
  -3  -5  -4   13.10    1.22 
   3   5   4   12.42    1.12 
   3   5   4   14.19    1.24 
   3   5   4   11.13    1.15 
   3   5   4   13.35    1.18 
  -4  -5  -4    0.72    0.28 
  -4  -5  -4    0.74    0.25 
   4   5   4    0.33    0.22 
   4   5   4    0.43    0.24 
   4   5   4    0.68    0.26 
   4   5   4    0.57    0.26 
   5   5   4   17.85    1.51 
   5   5   4   16.99    1.46 
   5   5   4   18.05    1.53 
   5   5   4   17.12    1.52 
   6   5   4    0.20    0.18 
   6   5   4    0.11    0.23 
   6   5   4   -0.05    0.21 
   6   5   4   -0.13    0.21 
   7   5   4    5.95    0.74 
   7   5   4    5.83    0.75 
   7   5   4    5.94    0.87 
   8   5   4    0.57    0.42 
   8   5   4    0.03    0.24 
   8   5   4    0.50    0.24 
   5  -6  -4   -0.56    0.43 
   4  -6  -4    0.57    0.47 
   3  -6  -4    0.06    0.36 
  -3   6   4   -0.17    0.32 
   2  -6  -4    0.45    0.42 
  -2   6   4    0.46    0.32 
  -2   6   4   -0.23    0.32 
   1  -6  -4    1.14    0.44 
  -1   6   4    0.34    0.36 
  -1   6   4    0.25    0.31 
   0  -6  -4    4.76    0.78 
   0   6   4    3.62    0.68 
   0   6   4    5.75    0.79 
  -1  -6  -4    6.63    0.90 
   1   6   4    5.68    0.73 
   1   6   4    5.52    0.83 
   1   6   4    5.71    0.90 
   1   6   4    5.08    0.74 
  -2  -6  -4    3.94    0.64 
   2   6   4    2.68    0.54 
   2   6   4    2.76    0.57 
   2   6   4    3.19    0.50 
   2   6   4    2.93    0.57 
  -3  -6  -4    5.28    0.71 
  -3  -6  -4    5.95    0.82 
   3   6   4    4.31    0.57 
   3   6   4    5.07    0.72 
   3   6   4    2.70    0.55 
   3   6   4    3.89    0.69 
  -4  -6  -4    1.14    0.35 
  -4  -6  -4    1.56    0.44 
   4   6   4    1.49    0.33 
   4   6   4    1.56    0.42 
   4   6   4    1.02    0.38 
   4   6   4    0.69    0.32 
  -5  -6  -4    0.06    0.18 
   5   6   4    0.18    0.20 
   5   6   4    0.03    0.19 
   5   6   4   -0.32    0.25 
   6   6   4    0.54    0.29 
   6   6   4    0.74    0.33 
   6   6   4    0.85    0.35 
   7   6   4    0.11    0.31 
   7   6   4    0.27    0.30 
   7   6   4   -0.09    0.29 
   8   6   4   -0.05    0.30 
   8   6   4    0.82    0.32 
   4  -7  -4    0.25    0.53 
   3  -7  -4    0.25    0.50 
  -3   7   4    1.35    0.65 
   2  -7  -4    0.76    0.56 
  -2   7   4   -0.18    0.28 
   1  -7  -4    1.22    0.52 
  -1   7   4    0.62    0.36 
  -1   7   4    1.13    0.48 
   0  -7  -4    1.56    0.55 
   0   7   4    0.71    0.39 
   0   7   4    1.77    0.46 
  -1  -7  -4   -0.03    0.31 
   1   7   4   -0.24    0.23 
   1   7   4    0.00    0.24 
  -2  -7  -4    0.52    0.35 
   2   7   4    0.03    0.28 
   2   7   4    1.24    0.35 
   2   7   4   -0.42    0.27 
  -3  -7  -4    3.18    0.68 
  -3  -7  -4    2.50    0.57 
   3   7   4    2.67    0.47 
   3   7   4    2.42    0.55 
   3   7   4    1.25    0.46 
   3   7   4    1.48    0.51 
  -4  -7  -4   -0.24    0.34 
   4   7   4   -0.14    0.30 
   4   7   4    0.01    0.30 
   4   7   4    0.24    0.21 
   5   7   4    1.67    0.53 
   5   7   4    3.38    0.68 
   5   7   4    2.64    0.48 
   6   7   4    0.05    0.28 
   6   7   4   -0.08    0.36 
   6   7   4    0.78    0.29 
   7   7   4    1.54    0.50 
   7   7   4    0.30    0.37 
   2  -8  -4   -0.22    0.52 
  -2   8   4    0.38    0.43 
   1  -8  -4    7.04    1.16 
  -1   8   4    4.43    0.92 
  -1   8   4    3.99    0.78 
   0  -8  -4    0.32    0.48 
   0   8   4    0.23    0.38 
   0   8   4    0.27    0.41 
  -1  -8  -4    4.87    0.91 
   1   8   4    5.32    0.89 
   1   8   4    6.13    1.04 
  -2  -8  -4   -0.10    0.37 
  -2  -8  -4   -0.06    0.34 
   2   8   4   -0.07    0.35 
   2   8   4    0.15    0.40 
  -3  -8  -4    0.04    0.43 
   3   8   4   -0.15    0.37 
   3   8   4    0.30    0.37 
   3   8   4    0.64    0.30 
   4   8   4    0.17    0.39 
   4   8   4    0.01    0.26 
   4   8   4    0.39    0.35 
   5   8   4    0.19    0.25 
   5   8   4    0.27    0.37 
   5   8   4    0.08    0.37 
   6   8   4    1.53    0.54 
   6   8   4    1.40    0.52 
   1  -9  -4    0.23    0.70 
  -1   9   4    0.03    0.40 
   0  -9  -4    4.02    0.99 
   0   9   4    3.08    0.81 
   0   9   4    2.22    0.70 
  -1  -9  -4    0.27    0.48 
   1   9   4    0.15    0.46 
   1   9   4   -0.02    0.42 
  -2  -9  -4    2.95    0.86 
   2   9   4    2.87    0.83 
   2   9   4    1.60    0.68 
  -3  -9  -4    0.50    0.63 
   3   9   4    0.83    0.51 
   3   9   4    0.46    0.50 
   4   9   4    0.05    0.40 
   4   9   4    2.14    0.65 
   5   9   4    0.07    0.39 
   5   9   4    0.51    0.46 
   2   9  -5    1.78    0.65 
   2   9  -5    2.28    0.81 
   1   9  -5   -0.94    0.53 
   1   9  -5    0.72    0.57 
   1   9  -5   -0.68    0.39 
  -1  -9   5   -0.24    0.52 
   4   8  -5    0.47    0.39 
   4   8  -5    1.36    0.64 
   4   8  -5    0.77    0.74 
   3   8  -5    0.04    0.34 
   3   8  -5    0.99    0.69 
   3   8  -5    0.58    0.46 
  -3  -8   5    0.74    0.54 
   2   8  -5    0.10    0.41 
   2   8  -5   -0.14    0.45 
   2   8  -5    1.02    0.67 
  -2  -8   5    0.23    0.47 
   1   8  -5    0.53    0.39 
   1   8  -5   -0.36    0.44 
   1   8  -5    0.45    0.51 
  -1  -8   5    0.63    0.51 
  -1  -8   5    0.36    0.48 
   0   8  -5    1.06    0.55 
   0   8  -5    2.14    0.72 
   0   8  -5    1.96    0.73 
   0   8  -5    0.72    0.49 
   0  -8   5    2.01    0.65 
   0  -8   5    2.08    0.75 
  -1   8  -5    0.27    0.47 
  -1   8  -5   -0.11    0.45 
   1  -8   5    0.60    0.56 
   1  -8   5   -0.15    0.46 
  -2   8  -5    4.78    0.99 
  -2   8  -5    4.15    1.04 
   2  -8   5    4.11    1.00 
   2  -8   5    3.23    0.99 
   6   7  -5    0.50    0.50 
   5   7  -5    0.26    0.40 
   5   7  -5   -0.36    0.38 
   5   7  -5    0.37    0.64 
   4   7  -5   -0.25    0.28 
   4   7  -5   -0.12    0.38 
   4   7  -5    0.04    0.50 
   3   7  -5    1.37    0.59 
   3   7  -5    1.19    0.47 
   3   7  -5    2.53    0.82 
  -3  -7   5    1.50    0.59 
   2   7  -5    1.09    0.63 
   2   7  -5    0.52    0.41 
   2   7  -5    0.20    0.40 
  -2  -7   5    0.64    0.43 
   1   7  -5    2.04    0.58 
   1   7  -5    2.53    0.70 
   1   7  -5    2.24    0.62 
  -1  -7   5    1.88    0.66 
   0   7  -5    2.99    0.65 
   0   7  -5    2.76    0.72 
   0   7  -5    1.82    0.57 
   0  -7   5    2.74    0.77 
  -1   7  -5    0.72    0.38 
  -1   7  -5    1.48    0.52 
  -1   7  -5    1.49    0.59 
  -1   7  -5    0.84    0.63 
   1  -7   5    1.05    0.51 
  -2   7  -5    0.05    0.51 
  -2   7  -5    0.01    0.35 
   2  -7   5    0.10    0.43 
  -3   7  -5    0.63    0.62 
   3  -7   5    0.80    0.62 
   3  -7   5    1.43    0.65 
  -4   7  -5    0.57    0.70 
   4  -7   5    0.41    0.60 
   4  -7   5    0.19    0.50 
   6   6  -5    2.00    0.66 
   6   6  -5    2.03    0.86 
   6   6  -5    1.27    0.48 
   5   6  -5    0.28    0.45 
   5   6  -5    0.21    0.32 
   5   6  -5    1.24    0.70 
   4   6  -5    1.67    0.54 
   4   6  -5    2.76    0.66 
   4   6  -5    2.16    0.80 
  -4  -6   5    3.39    0.77 
   3   6  -5    1.26    0.64 
   3   6  -5    1.55    0.53 
   3   6  -5    0.94    0.48 
  -3  -6   5    1.54    0.54 
   2   6  -5    0.62    0.38 
   2   6  -5    0.73    0.40 
   2   6  -5    1.10    0.57 
  -2  -6   5    0.71    0.41 
  -2  -6   5    0.74    0.23 
   1   6  -5    3.54    0.76 
   1   6  -5    3.74    0.74 
   1   6  -5    3.38    0.72 
  -1  -6   5    4.51    0.91 
   0   6  -5    0.42    0.31 
   0   6  -5    0.04    0.32 
   0   6  -5    0.80    0.39 
   0  -6   5    0.28    0.35 
  -1   6  -5    3.48    0.54 
  -1   6  -5    4.29    0.70 
  -1   6  -5    3.39    0.67 
   1  -6   5    3.90    0.81 
  -2   6  -5    0.96    0.58 
  -2   6  -5    0.96    0.48 
  -2   6  -5    0.88    0.46 
   2  -6   5    1.43    0.57 
  -3   6  -5    2.10    0.74 
  -3   6  -5    2.54    0.61 
   3  -6   5    1.20    0.59 
  -4   6  -5    1.24    0.62 
   4  -6   5    0.98    0.61 
  -5   6  -5   -0.72    0.53 
   5  -6   5   -0.12    0.40 
   5  -6   5   -0.05    0.55 
   7   5  -5    0.56    0.40 
   7   5  -5    0.15    0.48 
   7   5  -5    0.74    0.68 
   6   5  -5    2.20    0.83 
   6   5  -5    0.84    0.48 
   6   5  -5    0.60    0.36 
   5   5  -5    2.08    0.56 
   5   5  -5    2.99    0.92 
   5   5  -5    2.05    0.53 
   4   5  -5    2.02    0.74 
   4   5  -5    2.17    0.55 
   4   5  -5    2.54    0.63 
  -4  -5   5    3.52    0.68 
   3   5  -5    1.09    0.41 
   3   5  -5    1.22    0.44 
   3   5  -5    1.61    0.63 
  -3  -5   5    1.55    0.48 
   2   5  -5   10.58    1.32 
   2   5  -5   13.81    1.58 
   2   5  -5   13.16    1.45 
  -2  -5   5   10.00    1.36 
   1   5  -5    0.41    0.29 
   1   5  -5    0.30    0.28 
   1   5  -5    0.09    0.32 
  -1  -5   5   -0.23    0.22 
   0   5  -5   18.52    1.52 
   0   5  -5   13.21    1.41 
   0   5  -5   16.33    1.41 
   0  -5   5   11.38    1.51 
  -1   5  -5    2.72    0.46 
  -1   5  -5    3.42    0.63 
  -1   5  -5    2.75    0.58 
   1  -5   5    3.56    0.69 
   1  -5   5    3.47    0.71 
  -2   5  -5    2.49    0.53 
  -2   5  -5    2.14    0.65 
  -2   5  -5    2.50    0.57 
   2  -5   5    1.97    0.55 
   2  -5   5    2.85    0.67 
  -3   5  -5    7.74    0.98 
  -3   5  -5    6.10    0.87 
  -3   5  -5    7.32    1.18 
   3  -5   5    6.72    1.10 
   3  -5   5    6.59    1.27 
  -4   5  -5    0.64    0.47 
   4  -5   5    0.94    0.50 
  -5   5  -5    3.23    0.88 
   5  -5   5    4.06    0.96 
  -6   5  -5    0.11    0.57 
   6  -5   5    0.28    0.56 
   6  -5   5   -0.18    0.34 
   7   4  -5   -0.35    0.32 
   7   4  -5    0.28    0.54 
   7   4  -5    0.53    0.41 
   6   4  -5    5.89    0.91 
   6   4  -5    6.33    0.92 
   6   4  -5    4.92    1.14 
   5   4  -5    0.28    0.28 
   5   4  -5    0.32    0.48 
   5   4  -5    0.24    0.30 
   4   4  -5    5.87    0.86 
   4   4  -5    5.93    0.96 
   4   4  -5    7.10    0.93 
   4   4  -5    5.84    1.09 
  -4  -4   5    8.61    1.00 
   3   4  -5    0.26    0.29 
   3   4  -5    0.33    0.40 
   3   4  -5    0.37    0.26 
  -3  -4   5    0.40    0.26 
   2   4  -5   -0.19    0.20 
   2   4  -5   -0.03    0.31 
   2   4  -5    0.05    0.23 
  -2  -4   5   -0.25    0.19 
   1   4  -5    3.20    0.59 
   1   4  -5    2.34    0.48 
   1   4  -5    3.08    0.58 
  -1  -4   5    1.18    0.42 
   0   4  -5   16.62    1.61 
   0   4  -5   18.27    1.58 
   0   4  -5   18.89    1.65 
   0  -4   5   20.70    1.76 
   0  -4   5   19.41    1.66 
  -1   4  -5    8.76    0.98 
  -1   4  -5    6.69    0.86 
  -1   4  -5    5.76    0.69 
   1  -4   5    7.58    0.94 
   1  -4   5    7.36    0.98 
  -2   4  -5    7.03    0.87 
  -2   4  -5    6.22    0.82 
   2  -4   5    6.53    0.93 
   2  -4   5    8.57    1.07 
  -3   4  -5    4.40    0.89 
  -3   4  -5    3.94    0.61 
   3  -4   5    3.15    0.71 
   3  -4   5    3.46    0.68 
   3  -4   5    5.69    0.83 
  -4   4  -5    1.61    0.62 
  -4   4  -5    1.46    0.37 
  -4   4  -5    2.46    0.46 
   4  -4   5    2.60    0.97 
   4  -4   5    2.69    0.65 
  -5   4  -5   -0.47    0.42 
   5  -4   5    0.61    0.46 
  -6   4  -5    0.61    0.57 
   6  -4   5    1.06    0.55 
   7   3  -5    0.36    0.34 
   7   3  -5    0.50    0.57 
   7   3  -5    0.38    0.37 
   6   3  -5    0.13    0.49 
   6   3  -5    0.66    0.36 
   6   3  -5    0.46    0.31 
   5   3  -5    0.40    0.28 
   5   3  -5    0.19    0.27 
   5   3  -5    0.61    0.52 
  -5  -3   5    0.92    0.29 
   4   3  -5    1.81    0.55 
   4   3  -5    1.99    0.45 
   4   3  -5    3.01    0.69 
   4   3  -5    3.12    0.56 
  -4  -3   5    3.36    0.54 
   3   3  -5    2.35    0.62 
   3   3  -5    1.52    0.39 
   3   3  -5    3.28    0.59 
   3   3  -5    1.40    0.42 
  -3  -3   5    2.97    0.55 
   2   3  -5    8.47    1.09 
   2   3  -5    9.84    0.93 
   2   3  -5    7.30    0.92 
   2   3  -5    7.47    0.97 
  -2  -3   5    7.20    0.92 
  -2  -3   5    7.61    0.57 
   1   3  -5    4.73    0.72 
   1   3  -5    4.32    0.64 
   1   3  -5    3.28    0.57 
   1   3  -5    4.79    0.73 
  -1  -3   5    4.79    0.51 
  -1  -3   5    4.00    0.67 
  -1  -3   5    3.51    0.60 
   0   3  -5   14.05    1.31 
   0   3  -5   15.62    1.31 
   0   3  -5   15.11    1.34 
   0  -3   5   14.42    1.33 
   0  -3   5   15.07    1.40 
  -1   3  -5    0.09    0.18 
  -1   3  -5    0.20    0.20 
  -1   3  -5    0.08    0.16 
   1  -3   5   -0.01    0.19 
   1  -3   5    0.07    0.22 
   1  -3   5    0.03    0.19 
  -2   3  -5    4.40    0.63 
  -2   3  -5    6.01    0.74 
   2  -3   5    5.60    0.75 
   2  -3   5    5.15    0.79 
   2  -3   5    7.71    0.87 
  -3   3  -5    4.81    0.83 
  -3   3  -5    4.05    0.59 
  -3   3  -5    4.34    0.60 
   3  -3   5    4.36    0.69 
   3  -3   5    4.05    0.69 
   3  -3   5    4.56    0.68 
  -4   3  -5    0.41    0.37 
  -4   3  -5    1.22    0.29 
  -4   3  -5    1.06    0.26 
   4  -3   5    1.50    0.40 
   4  -3   5    1.72    0.50 
   4  -3   5    1.23    0.42 
  -5   3  -5    2.35    0.71 
   5  -3   5    2.66    0.65 
  -6   3  -5    0.33    0.44 
   6  -3   5   -0.12    0.32 
  -7   3  -5    0.15    0.47 
   7  -3   5    0.18    0.36 
   7   2  -5    0.49    0.37 
   7   2  -5    0.64    0.39 
   7   2  -5   -0.38    0.49 
   6   2  -5    0.80    0.40 
   6   2  -5    1.84    0.46 
   6   2  -5    1.62    0.63 
   5   2  -5    1.01    0.39 
   5   2  -5    1.48    0.43 
   5   2  -5    2.57    0.72 
  -5  -2   5    2.39    0.39 
   4   2  -5    1.03    0.49 
   4   2  -5    0.80    0.28 
   4   2  -5    0.25    0.25 
   4   2  -5    0.99    0.20 
   4   2  -5    1.00    0.38 
  -4  -2   5    0.30    0.23 
   3   2  -5    8.89    0.84 
   3   2  -5    7.36    0.62 
   3   2  -5    5.00    0.78 
   3   2  -5    8.23    0.98 
   3   2  -5    7.88    1.09 
  -3  -2   5    7.75    0.88 
   2   2  -5   -0.20    0.14 
   2   2  -5    0.15    0.27 
   2   2  -5   -0.09    0.19 
   2   2  -5    0.20    0.11 
   2   2  -5    0.16    0.20 
  -2  -2   5    0.12    0.07 
  -2  -2   5    0.16    0.19 
  -2  -2   5    0.42    0.22 
  -2  -2   5    0.26    0.28 
   1   2  -5   27.29    2.20 
   1   2  -5   28.90    2.17 
   1   2  -5   26.36    2.20 
   1   2  -5   24.93    2.14 
  -1  -2   5   28.22    2.14 
  -1  -2   5   26.64    2.22 
  -1  -2   5   28.47    2.02 
  -1  -2   5   28.33    2.21 
  -1  -2   5   26.75    2.14 
   0   2  -5    2.50    0.44 
   0   2  -5    2.44    0.42 
   0   2  -5    2.89    0.47 
   0   2  -5    2.19    0.46 
   0  -2   5    1.75    0.35 
   0  -2   5    2.35    0.48 
   0  -2   5    2.95    0.50 
   0  -2   5    2.57    0.42 
   0  -2   5    2.68    0.44 
  -1   2  -5   26.39    2.04 
  -1   2  -5   26.95    2.08 
  -1   2  -5   24.02    1.93 
  -1   2  -5   26.92    2.04 
   1  -2   5   25.78    1.99 
   1  -2   5   25.97    2.10 
   1  -2   5   25.58    2.02 
   1  -2   5   26.26    2.05 
  -2   2  -5    0.99    0.26 
  -2   2  -5    1.24    0.29 
   2  -2   5    1.30    0.31 
   2  -2   5    1.36    0.27 
   2  -2   5    1.55    0.40 
   2  -2   5    1.68    0.39 
  -3   2  -5    1.83    0.48 
  -3   2  -5    1.50    0.31 
  -3   2  -5    1.76    0.34 
   3  -2   5    1.78    0.42 
   3  -2   5    1.86    0.38 
   3  -2   5    1.76    0.36 
  -4   2  -5    0.28    0.13 
  -4   2  -5    0.50    0.16 
  -4   2  -5   -0.21    0.26 
   4  -2   5    0.23    0.22 
   4  -2   5    0.69    0.23 
   4  -2   5    0.20    0.22 
  -5   2  -5    0.62    0.39 
   5  -2   5    0.60    0.28 
   5  -2   5    0.52    0.30 
   5  -2   5    0.59    0.32 
  -6   2  -5   -0.45    0.26 
   6  -2   5    0.03    0.24 
  -7   2  -5    0.30    0.45 
   7  -2   5    0.53    0.36 
   8  -2   5   -0.19    0.26 
   7   1  -5   -0.13    0.33 
   7   1  -5   -0.26    0.45 
   6   1  -5    0.05    0.31 
   6   1  -5   -0.10    0.39 
   5   1  -5    0.68    0.34 
   5   1  -5    0.60    0.29 
   5   1  -5    0.56    0.49 
   5   1  -5    0.67    0.47 
  -5  -1   5    0.95    0.26 
   4   1  -5    0.64    0.29 
   4   1  -5    1.39    0.51 
   4   1  -5    1.96    0.47 
   4   1  -5    1.88    0.30 
   4   1  -5    0.62    0.32 
  -4  -1   5    1.51    0.33 
   3   1  -5    4.77    0.66 
   3   1  -5    4.60    0.46 
   3   1  -5    5.02    0.74 
   3   1  -5    4.79    0.78 
   3   1  -5    4.61    0.62 
  -3  -1   5    4.33    0.61 
   2   1  -5    1.39    0.42 
   2   1  -5    1.62    0.26 
   2   1  -5    2.06    0.43 
   2   1  -5    1.89    0.37 
   2   1  -5    1.10    0.32 
  -2  -1   5    1.98    0.24 
  -2  -1   5    1.71    0.35 
  -2  -1   5    2.00    0.39 
  -2  -1   5    2.17    0.55 
   1   1  -5    2.33    0.35 
   1   1  -5    1.85    0.42 
   1   1  -5    2.88    0.48 
   1   1  -5    2.20    0.42 
   1   1  -5    3.42    0.49 
  -1  -1   5    2.47    0.40 
  -1  -1   5    2.29    0.45 
  -1  -1   5    2.51    0.41 
  -1  -1   5    2.70    0.33 
  -1  -1   5    2.81    0.55 
   0   1  -5    5.55    0.65 
   0   1  -5    5.03    0.66 
   0   1  -5    5.09    0.63 
   0   1  -5    5.16    0.58 
   0  -1   5    6.87    0.79 
   0  -1   5    4.77    0.59 
   0  -1   5    5.98    0.68 
   0  -1   5    4.97    0.67 
   0  -1   5    4.51    0.61 
  -1   1  -5    6.76    0.72 
  -1   1  -5    7.01    0.71 
  -1   1  -5    6.67    0.72 
   1  -1   5    7.22    0.74 
   1  -1   5    7.03    0.70 
   1  -1   5    9.18    0.81 
   1  -1   5    7.73    0.72 
   1  -1   5    8.09    0.78 
  -2   1  -5   10.55    0.98 
  -2   1  -5   10.40    0.94 
   2  -1   5   12.54    0.99 
   2  -1   5   11.68    1.04 
   2  -1   5   10.47    0.98 
  -3   1  -5    6.68    0.64 
  -3   1  -5    7.61    0.66 
  -3   1  -5    6.89    0.62 
   3  -1   5    8.41    0.73 
   3  -1   5    8.02    0.79 
   3  -1   5    7.00    0.74 
  -4   1  -5    7.72    1.01 
   4  -1   5    9.10    0.88 
   4  -1   5    9.03    0.82 
   4  -1   5    9.58    0.86 
  -5   1  -5    0.24    0.29 
   5  -1   5    0.43    0.22 
   5  -1   5    0.15    0.16 
   5  -1   5    0.62    0.24 
  -6   1  -5    1.45    0.47 
   6  -1   5    1.91    0.39 
   6  -1   5    1.74    0.35 
   6  -1   5    0.63    0.25 
   7  -1   5    0.13    0.22 
   8  -1   5    0.05    0.23 
   7   0  -5    0.16    0.44 
   7   0  -5    0.13    0.32 
   6   0  -5    0.12    0.33 
   6   0  -5    0.82    0.45 
   5   0  -5    2.18    0.49 
   5   0  -5    3.40    0.53 
   5   0  -5    2.84    0.69 
  -5   0   5    3.23    0.44 
   4   0  -5    2.21    0.47 
   4   0  -5    3.22    0.54 
   4   0  -5    2.57    0.51 
   4   0  -5    2.38    0.57 
  -4   0   5    3.72    0.51 
   3   0  -5   46.70    3.35 
   3   0  -5   44.86    3.57 
   3   0  -5   46.36    3.49 
   3   0  -5   44.05    3.47 
   3   0  -5   47.78    3.51 
  -3   0   5   47.88    3.45 
   2   0  -5   12.85    1.19 
   2   0  -5   13.87    1.09 
   2   0  -5   12.64    1.25 
   2   0  -5   13.72    1.19 
   2   0  -5   14.30    1.25 
  -2   0   5   13.32    1.06 
  -2   0   5   13.65    1.16 
  -2   0   5   14.77    1.22 
   1   0  -5  191.83   13.56 
   1   0  -5  190.93   13.60 
   1   0  -5  198.08   13.58 
   1   0  -5  203.23   13.51 
   1   0  -5  181.18   13.59 
  -1   0   5  192.93   13.55 
  -1   0   5  196.78   13.64 
  -1   0   5  193.86   13.59 
  -1   0   5  194.15   13.45 
  -1   0   5  194.41   13.55 
   0   0  -5   49.00    3.39 
   0   0  -5   45.71    3.41 
   0   0  -5   47.77    3.39 
   0   0  -5   43.53    3.36 
   0   0   5   42.86    3.36 
   0   0   5   47.91    3.38 
   0   0   5   44.84    3.40 
   0   0   5   41.40    3.33 
   0   0   5   51.34    3.42 
  -1   0  -5  134.36    9.44 
  -1   0  -5  132.56    9.35 
  -1   0  -5  131.41    9.41 
  -1   0  -5  136.89    9.39 
   1   0   5  137.40    9.40 
   1   0   5  143.07    9.45 
   1   0   5  118.50    9.35 
   1   0   5  132.51    9.39 
   1   0   5  138.28    9.43 
  -2   0  -5    4.42    0.52 
  -2   0  -5    4.70    0.46 
  -2   0  -5    5.56    0.54 
   2   0   5    5.10    0.54 
   2   0   5    5.87    0.71 
   2   0   5    5.32    0.62 
   2   0   5    4.62    0.55 
  -3   0  -5    6.24    0.54 
  -3   0  -5    5.86    0.51 
  -3   0  -5    6.22    0.56 
   3   0   5    6.44    0.60 
   3   0   5    6.49    0.71 
   3   0   5    6.00    0.61 
  -4   0  -5    2.10    0.44 
   4   0   5    2.05    0.36 
   4   0   5    1.99    0.32 
   4   0   5    1.58    0.29 
  -5   0  -5    0.19    0.21 
   5   0   5    0.15    0.16 
   5   0   5    0.42    0.19 
   5   0   5    0.53    0.17 
  -6   0  -5    2.19    0.52 
   6   0   5    2.95    0.39 
   6   0   5    2.70    0.43 
   6   0   5    2.75    0.39 
   7   0   5    0.36    0.22 
   7   0   5    0.54    0.40 
   7   0   5    0.26    0.21 
   8   0   5    0.09    0.21 
   7  -1  -5    0.26    0.37 
   7  -1  -5    0.02    0.43 
   6  -1  -5    0.69    0.35 
   6  -1  -5    1.80    0.55 
   5  -1  -5    0.05    0.25 
   5  -1  -5   -0.06    0.29 
   5  -1  -5    0.13    0.32 
  -5   1   5   -0.10    0.19 
   4  -1  -5    1.34    0.42 
   4  -1  -5    1.77    0.44 
   4  -1  -5    1.03    0.43 
   4  -1  -5    1.61    0.47 
  -4   1   5    1.80    0.36 
   3  -1  -5   -0.15    0.20 
   3  -1  -5   -0.12    0.19 
   3  -1  -5    0.03    0.22 
   3  -1  -5    0.09    0.24 
  -3   1   5   -0.03    0.16 
   2  -1  -5   11.20    1.02 
   2  -1  -5   10.50    1.02 
   2  -1  -5   12.58    1.06 
   2  -1  -5    9.66    0.90 
  -2   1   5    9.43    0.96 
  -2   1   5   10.78    0.90 
  -2   1   5    9.84    0.94 
   1  -1  -5    6.84    0.73 
   1  -1  -5    7.40    0.77 
   1  -1  -5    7.62    0.71 
   1  -1  -5    7.75    0.85 
  -1   1   5    6.58    0.72 
  -1   1   5    7.67    0.81 
  -1   1   5    7.68    0.78 
  -1   1   5    8.38    0.69 
  -1   1   5    8.33    0.76 
   0  -1  -5   31.39    2.40 
   0  -1  -5   31.95    2.39 
   0  -1  -5   32.97    2.35 
   0  -1  -5   28.65    2.36 
   0   1   5   33.88    2.39 
   0   1   5   28.22    2.33 
   0   1   5   36.04    2.44 
   0   1   5   30.17    2.38 
   0   1   5   30.20    2.41 
  -1  -1  -5   17.21    1.41 
  -1  -1  -5   17.79    1.46 
  -1  -1  -5   18.62    1.48 
  -1  -1  -5   19.83    1.54 
   1   1   5   17.91    1.49 
   1   1   5   18.41    1.46 
   1   1   5   20.70    1.52 
   1   1   5   17.15    1.45 
  -2  -1  -5    8.09    0.66 
  -2  -1  -5    6.55    0.67 
  -2  -1  -5    6.59    0.69 
  -2  -1  -5    8.83    0.82 
   2   1   5    7.04    0.71 
   2   1   5    6.85    0.83 
   2   1   5    6.99    0.68 
   2   1   5    9.79    0.74 
  -3  -1  -5    4.98    0.45 
  -3  -1  -5    4.74    0.44 
  -3  -1  -5    4.74    0.42 
   3   1   5    5.13    0.59 
   3   1   5    4.21    0.51 
   3   1   5    4.47    0.48 
   3   1   5    5.09    0.73 
  -4  -1  -5    0.27    0.18 
   4   1   5   -0.06    0.22 
   4   1   5    0.40    0.17 
   4   1   5    0.03    0.14 
   4   1   5    0.20    0.13 
  -5  -1  -5    1.13    0.28 
   5   1   5    1.18    0.43 
   5   1   5    1.03    0.24 
   5   1   5    1.13    0.22 
   5   1   5    0.92    0.20 
   6   1   5    0.31    0.14 
   6   1   5    0.42    0.16 
   6   1   5    0.13    0.15 
   7   1   5    0.63    0.17 
   7   1   5    0.54    0.19 
   8   1   5    0.14    0.15 
   8   1   5    0.18    0.47 
   7  -2  -5    0.27    0.39 
   5  -2  -5    0.15    0.28 
   4  -2  -5    2.00    0.46 
   4  -2  -5    1.35    0.44 
   4  -2  -5    0.78    0.41 
  -4   2   5    0.93    0.32 
   3  -2  -5    0.34    0.31 
   3  -2  -5    0.86    0.32 
   3  -2  -5    0.25    0.26 
  -3   2   5    0.62    0.27 
   2  -2  -5    0.42    0.26 
   2  -2  -5    0.50    0.30 
  -2   2   5    0.44    0.23 
  -2   2   5    0.40    0.23 
   1  -2  -5    0.68    0.31 
   1  -2  -5    0.65    0.24 
   1  -2  -5    1.58    0.34 
  -1   2   5    0.66    0.26 
  -1   2   5    1.13    0.28 
  -1   2   5    0.86    0.26 
  -1   2   5    1.81    0.32 
  -1   2   5    0.98    0.32 
   0  -2  -5    2.19    0.39 
   0  -2  -5    1.33    0.32 
   0  -2  -5    1.71    0.32 
   0  -2  -5    0.78    0.23 
   0   2   5    1.26    0.27 
   0   2   5    1.56    0.32 
   0   2   5    1.00    0.29 
   0   2   5    1.20    0.26 
  -1  -2  -5    0.45    0.18 
  -1  -2  -5    0.00    0.15 
  -1  -2  -5    0.06    0.17 
  -1  -2  -5    0.43    0.19 
   1   2   5    0.05    0.14 
   1   2   5    0.26    0.16 
   1   2   5    0.29    0.18 
   1   2   5    0.41    0.21 
  -2  -2  -5    1.00    0.32 
  -2  -2  -5    1.28    0.28 
  -2  -2  -5    1.07    0.24 
   2   2   5    0.73    0.20 
   2   2   5    1.15    0.25 
   2   2   5    1.04    0.31 
   2   2   5    0.84    0.26 
  -3  -2  -5   -0.15    0.10 
  -3  -2  -5   -0.01    0.11 
  -3  -2  -5   -0.19    0.09 
   3   2   5   -0.10    0.10 
   3   2   5    0.08    0.14 
   3   2   5   -0.01    0.12 
   3   2   5   -0.08    0.15 
  -4  -2  -5    4.94    0.45 
   4   2   5    4.72    0.51 
   4   2   5    5.32    0.75 
   4   2   5    4.78    0.55 
   4   2   5    4.54    0.49 
   5   2   5   -0.11    0.26 
   5   2   5    0.00    0.11 
   5   2   5    0.08    0.13 
   5   2   5    0.04    0.12 
   6   2   5    2.31    0.32 
   6   2   5    1.59    0.53 
   6   2   5    1.72    0.28 
   6   2   5    2.48    0.30 
   7   2   5   -0.06    0.42 
   7   2   5    0.01    0.12 
   7   2   5    0.12    0.11 
   8   2   5   -0.06    0.49 
   6  -3  -5    0.45    0.42 
   5  -3  -5    1.42    0.50 
   4  -3  -5   -0.04    0.33 
   4  -3  -5    0.33    0.31 
  -4   3   5   -0.15    0.21 
   3  -3  -5    0.94    0.57 
   3  -3  -5    0.66    0.33 
   3  -3  -5    0.94    0.37 
  -3   3   5    1.33    0.37 
   2  -3  -5    2.09    0.47 
   2  -3  -5    2.12    0.45 
   2  -3  -5    2.20    0.50 
  -2   3   5    2.15    0.41 
  -2   3   5    2.28    0.47 
   1  -3  -5   -0.15    0.19 
   1  -3  -5   -0.02    0.19 
   1  -3  -5    0.17    0.24 
  -1   3   5   -0.01    0.14 
  -1   3   5   -0.11    0.17 
  -1   3   5    0.10    0.17 
  -1   3   5    0.02    0.16 
  -1   3   5    0.50    0.27 
   0  -3  -5   29.01    2.31 
   0  -3  -5   28.45    2.23 
   0  -3  -5   28.18    2.27 
   0   3   5   26.88    2.24 
   0   3   5   35.96    2.30 
   0   3   5   27.52    2.21 
   0   3   5   27.43    2.30 
  -1  -3  -5    0.03    0.17 
  -1  -3  -5   -0.02    0.16 
  -1  -3  -5    0.01    0.17 
   1   3   5   -0.04    0.14 
   1   3   5    0.27    0.22 
   1   3   5    0.23    0.16 
   1   3   5   -0.02    0.13 
  -2  -3  -5   15.72    1.36 
  -2  -3  -5   15.16    1.36 
  -2  -3  -5   16.20    1.44 
   2   3   5   16.03    1.38 
   2   3   5   17.97    1.43 
   2   3   5   17.00    1.43 
   2   3   5   20.52    1.43 
  -3  -3  -5    0.07    0.14 
  -3  -3  -5    0.01    0.14 
  -3  -3  -5    0.09    0.13 
   3   3   5   -0.01    0.14 
   3   3   5   -0.07    0.16 
   3   3   5    0.02    0.13 
   3   3   5    0.08    0.18 
  -4  -3  -5    0.00    0.08 
  -4  -3  -5    0.00    0.09 
   4   3   5    0.01    0.19 
   4   3   5    0.04    0.14 
   4   3   5    0.07    0.13 
   4   3   5    0.24    0.16 
   5   3   5    0.81    0.23 
   5   3   5    0.83    0.23 
   5   3   5    1.49    0.45 
   5   3   5    0.92    0.23 
   6   3   5    2.17    0.33 
   6   3   5    2.29    0.36 
   6   3   5    2.31    0.36 
   6   3   5    2.58    0.64 
   7   3   5    0.34    0.45 
   7   3   5    0.89    0.20 
   7   3   5    0.75    0.20 
   7   3   5    0.83    0.20 
   8   3   5    0.59    0.16 
   8   3   5    0.43    0.15 
   8   3   5    0.40    0.48 
   6  -4  -5   -0.56    0.33 
   5  -4  -5    1.14    0.47 
   4  -4  -5    0.00    0.32 
  -4   4   5    0.46    0.33 
   3  -4  -5   11.02    1.23 
   3  -4  -5    8.08    1.12 
  -3   4   5    9.62    1.07 
  -3   4   5    8.62    1.08 
   2  -4  -5    2.47    0.55 
   2  -4  -5    2.01    0.49 
  -2   4   5    2.46    0.49 
  -2   4   5    1.80    0.46 
   1  -4  -5   11.37    1.16 
   1  -4  -5   11.08    1.14 
  -1   4   5   13.27    1.11 
  -1   4   5   10.95    1.10 
  -1   4   5   10.70    1.14 
   0  -4  -5    2.01    0.44 
   0  -4  -5    1.29    0.35 
   0  -4  -5    1.64    0.38 
   0   4   5    1.78    0.37 
   0   4   5    3.27    0.59 
   0   4   5    1.83    0.39 
   0   4   5    2.44    0.46 
  -1  -4  -5    1.05    0.30 
  -1  -4  -5    1.07    0.34 
  -1  -4  -5    1.24    0.30 
   1   4   5    0.77    0.30 
   1   4   5    0.99    0.28 
   1   4   5    1.08    0.31 
   1   4   5    0.96    0.31 
  -2  -4  -5    0.65    0.17 
  -2  -4  -5    0.55    0.25 
   2   4   5    0.45    0.22 
   2   4   5    0.02    0.17 
   2   4   5    0.40    0.24 
   2   4   5    0.12    0.20 
  -3  -4  -5    1.75    0.33 
   3   4   5    1.86    0.37 
   3   4   5    2.17    0.44 
   3   4   5    1.19    0.31 
   3   4   5    1.27    0.33 
  -4  -4  -5    0.98    0.26 
  -4  -4  -5    2.69    0.33 
   4   4   5    1.86    0.37 
   4   4   5    1.03    0.27 
   4   4   5    1.48    0.38 
   4   4   5    1.55    0.34 
   5   4   5    3.25    0.59 
   5   4   5    2.01    0.38 
   5   4   5    1.95    0.35 
   5   4   5    1.04    0.28 
   6   4   5    0.43    0.20 
   6   4   5    0.15    0.29 
   6   4   5    0.16    0.18 
   6   4   5    0.24    0.19 
   7   4   5    1.31    0.53 
   7   4   5    0.92    0.26 
   7   4   5    0.90    0.25 
   8   4   5    0.00    0.43 
   8   4   5   -0.03    0.18 
   8   4   5   -0.16    0.17 
   5  -5  -5    1.11    0.49 
   4  -5  -5    0.33    0.37 
   3  -5  -5    0.87    0.46 
  -3   5   5    0.11    0.36 
  -3   5   5    0.19    0.30 
   2  -5  -5   -0.19    0.38 
   2  -5  -5    0.14    0.36 
  -2   5   5   -0.01    0.25 
  -2   5   5   -0.18    0.24 
   1  -5  -5   -0.23    0.26 
   1  -5  -5   -0.19    0.27 
  -1   5   5   -0.29    0.21 
  -1   5   5   -0.20    0.22 
   0  -5  -5    7.34    0.96 
   0  -5  -5    8.72    0.99 
   0   5   5    4.38    0.82 
   0   5   5    9.66    1.01 
   0   5   5    7.93    0.89 
  -1  -5  -5    0.17    0.21 
  -1  -5  -5    0.05    0.25 
   1   5   5    0.56    0.26 
   1   5   5    0.55    0.31 
   1   5   5    0.02    0.25 
   1   5   5    0.52    0.30 
  -2  -5  -5    2.17    0.39 
  -2  -5  -5    2.07    0.44 
   2   5   5    2.71    0.47 
   2   5   5    1.29    0.39 
   2   5   5    3.38    0.62 
   2   5   5    2.55    0.50 
  -3  -5  -5    0.72    0.27 
   3   5   5    1.15    0.39 
   3   5   5    1.78    0.37 
   3   5   5    1.57    0.36 
   3   5   5    0.86    0.30 
  -4  -5  -5    0.00    0.20 
  -4  -5  -5   -0.29    0.16 
   4   5   5   -0.10    0.19 
   4   5   5    0.06    0.20 
   4   5   5    0.06    0.21 
   4   5   5    0.34    0.23 
  -5  -5  -5    3.47    0.36 
   5   5   5    3.89    0.58 
   5   5   5    3.63    0.55 
   5   5   5    4.88    0.71 
   5   5   5    2.68    0.53 
   6   5   5   -0.11    0.22 
   6   5   5    0.31    0.25 
   6   5   5    0.43    0.33 
   7   5   5    1.18    0.46 
   7   5   5    2.24    0.44 
   7   5   5    2.55    0.44 
   8   5   5   -0.05    0.22 
   8   5   5    0.68    0.41 
   8   5   5    0.39    0.25 
   4  -6  -5    2.55    0.81 
   3  -6  -5    0.45    0.49 
  -3   6   5    0.90    0.50 
   2  -6  -5    1.62    0.54 
  -2   6   5    0.17    0.35 
  -2   6   5    0.76    0.48 
   1  -6  -5    0.56    0.42 
  -1   6   5    1.00    0.39 
  -1   6   5    0.56    0.33 
   0  -6  -5    2.21    0.58 
   0   6   5    2.82    0.54 
   0   6   5    2.65    0.57 
   0   6   5    2.63    0.54 
  -1  -6  -5    1.72    0.48 
  -1  -6  -5    2.13    0.50 
   1   6   5    2.41    0.47 
   1   6   5    0.98    0.41 
   1   6   5    1.65    0.48 
  -2  -6  -5   10.80    1.17 
   2   6   5    8.91    0.91 
   2   6   5    8.74    1.06 
   2   6   5    8.50    1.04 
   2   6   5    7.98    1.11 
  -3  -6  -5    1.84    0.44 
   3   6   5    1.74    0.45 
   3   6   5    1.84    0.52 
   3   6   5    1.68    0.39 
   3   6   5    0.92    0.35 
  -4  -6  -5    7.15    0.94 
  -4  -6  -5    5.38    0.75 
   4   6   5    5.54    0.85 
   4   6   5    4.41    0.74 
   4   6   5    6.85    0.82 
   4   6   5    6.08    0.80 
   5   6   5   -0.08    0.24 
   5   6   5    0.32    0.29 
   5   6   5    0.25    0.24 
   6   6   5    0.58    0.32 
   6   6   5    1.04    0.37 
   6   6   5    1.02    0.35 
   7   6   5    0.54    0.34 
   7   6   5    0.64    0.36 
   7   6   5    0.10    0.34 
   8   6   5   -0.24    0.28 
   8   6   5    0.30    0.53 
   8   6   5   -0.46    0.26 
   3  -7  -5    0.13    0.53 
   2  -7  -5    0.73    0.57 
  -2   7   5    0.46    0.41 
   1  -7  -5   -0.34    0.39 
  -1   7   5   -0.03    0.35 
  -1   7   5    0.02    0.37 
   0  -7  -5    0.20    0.43 
   0   7   5    1.41    0.48 
   0   7   5    0.21    0.34 
  -1  -7  -5   -0.01    0.34 
   1   7   5    0.47    0.35 
   1   7   5   -0.02    0.22 
   1   7   5    0.38    0.35 
  -2  -7  -5    0.34    0.34 
   2   7   5    0.13    0.31 
   2   7   5    0.15    0.26 
   2   7   5    0.56    0.33 
  -3  -7  -5    1.00    0.38 
  -3  -7  -5   -0.23    0.29 
   3   7   5    0.24    0.33 
   3   7   5    0.73    0.31 
   3   7   5    0.08    0.29 
  -4  -7  -5    1.04    0.49 
   4   7   5    0.88    0.38 
   4   7   5    0.97    0.34 
   4   7   5    0.76    0.39 
   5   7   5    1.11    0.43 
   5   7   5    1.08    0.36 
   5   7   5    0.07    0.34 
   6   7   5    0.49    0.35 
   6   7   5    0.75    0.36 
   6   7   5    0.75    0.40 
   7   7   5    0.04    0.38 
   7   7   5    0.57    0.38 
   7   7   5    0.92    0.34 
   2  -8  -5   -0.36    0.51 
  -2   8   5    0.52    0.53 
   1  -8  -5   -0.11    0.55 
  -1   8   5    0.50    0.43 
   0  -8  -5   -0.44    0.42 
   0   8   5   -0.14    0.35 
   0   8   5    0.55    0.45 
  -1  -8  -5    3.01    0.76 
   1   8   5    1.65    0.58 
   1   8   5    2.22    0.69 
  -2  -8  -5    0.65    0.52 
   2   8   5    0.32    0.43 
   2   8   5    0.46    0.39 
   2   8   5    1.23    0.51 
  -3  -8  -5    2.81    0.73 
   3   8   5    1.08    0.40 
   3   8   5    0.96    0.52 
   3   8   5    0.67    0.45 
   4   8   5    0.60    0.45 
   4   8   5    0.94    0.34 
   4   8   5    0.13    0.41 
   5   8   5    0.11    0.25 
   5   8   5   -0.19    0.37 
   5   8   5    0.27    0.36 
   6   8   5   -0.41    0.39 
   6   8   5    0.13    0.36 
   6   8   5    0.09    0.27 
   0  -9  -5    2.72    0.93 
   0   9   5    1.42    0.65 
   0   9   5    1.04    0.70 
   1   9   5    1.94    0.69 
   1   9   5    0.78    0.54 
  -2  -9  -5    1.52    0.62 
   2   9   5    0.87    0.58 
   2   9   5    1.38    0.60 
   3   9   5    4.36    0.88 
   3   9   5    5.46    1.06 
   4   9   5    0.36    0.49 
   4   9   5    0.35    0.45 
   4   9   5    0.56    0.35 
   5   9   5    2.15    0.56 
   5   9   5    1.75    0.69 
   5   9   5    1.99    0.69 
   4   8  -6    0.03    0.51 
   4   8  -6   -0.14    0.65 
   4   8  -6    0.37    0.50 
   3   8  -6    0.63    0.53 
   3   8  -6    0.88    0.72 
   3   8  -6    2.44    0.75 
  -3  -8   6    1.13    0.69 
   2   8  -6    0.02    0.57 
   2   8  -6    0.28    0.45 
   2   8  -6   -0.22    0.48 
  -2  -8   6   -0.44    0.46 
   1   8  -6    0.82    0.51 
   1   8  -6    0.96    0.59 
   1   8  -6    0.67    0.56 
  -1  -8   6    1.66    0.68 
   0   8  -6    0.23    0.46 
   0   8  -6    1.19    0.76 
   0   8  -6    0.18    0.53 
   0  -8   6    1.37    0.63 
  -1   8  -6    0.01    0.44 
  -1   8  -6    0.37    0.68 
   1  -8   6    0.18    0.49 
  -2   8  -6    0.74    0.83 
   2  -8   6    3.09    0.94 
   2  -8   6    2.12    0.79 
   5   7  -6    0.28    0.64 
   5   7  -6    0.70    0.53 
   5   7  -6   -0.02    0.39 
   4   7  -6    0.33    0.38 
   4   7  -6    0.61    0.68 
   4   7  -6    0.18    0.50 
   3   7  -6   -0.01    0.52 
   3   7  -6   -0.06    0.33 
   3   7  -6    0.48    0.42 
  -3  -7   6    0.12    0.47 
   2   7  -6    0.43    0.43 
   2   7  -6    0.79    0.48 
   2   7  -6    1.48    0.66 
  -2  -7   6    1.51    0.61 
   1   7  -6    1.66    0.60 
   1   7  -6    1.20    0.58 
   1   7  -6    1.62    0.57 
  -1  -7   6    1.77    0.67 
   0   7  -6    3.42    0.75 
   0   7  -6    2.03    0.61 
   0   7  -6    2.17    0.58 
   0  -7   6    2.57    0.78 
  -1   7  -6    1.57    0.59 
  -1   7  -6    0.08    0.52 
  -1   7  -6    1.40    0.53 
   1  -7   6    0.76    0.50 
  -2   7  -6    0.06    0.38 
  -2   7  -6    0.25    0.54 
   2  -7   6    0.28    0.50 
  -3   7  -6    0.27    0.68 
   3  -7   6    0.58    0.55 
   6   6  -6    0.63    0.40 
   6   6  -6    0.86    0.72 
   6   6  -6   -0.43    0.49 
   5   6  -6    0.54    0.64 
   5   6  -6    0.44    0.40 
   5   6  -6    0.85    0.51 
   4   6  -6    0.52    0.59 
   4   6  -6    0.49    0.38 
   4   6  -6    0.70    0.47 
  -4  -6   6    1.91    0.60 
   3   6  -6    1.40    0.66 
   3   6  -6   -0.01    0.29 
   3   6  -6    0.01    0.37 
  -3  -6   6    0.59    0.44 
   2   6  -6    0.22    0.33 
   2   6  -6    0.73    0.46 
   2   6  -6    1.23    0.48 
  -2  -6   6    0.42    0.44 
   1   6  -6    0.23    0.34 
   1   6  -6    0.47    0.41 
   1   6  -6    0.27    0.34 
  -1  -6   6    0.67    0.43 
   0   6  -6    0.22    0.33 
   0   6  -6   -0.14    0.29 
   0   6  -6   -0.03    0.32 
   0  -6   6    0.38    0.45 
  -1   6  -6    1.78    0.51 
  -1   6  -6    1.28    0.50 
  -1   6  -6    1.40    0.38 
   1  -6   6    0.99    0.50 
  -2   6  -6    0.95    0.40 
  -2   6  -6    1.01    0.48 
  -2   6  -6    0.55    0.56 
   2  -6   6    0.34    0.41 
  -3   6  -6    1.96    0.83 
  -3   6  -6    0.85    0.44 
   3  -6   6    1.24    0.56 
  -4   6  -6    0.92    0.67 
   4  -6   6    0.01    0.49 
  -5   6  -6   -0.52    0.58 
   5  -6   6   -0.11    0.56 
   6   5  -6    6.60    1.24 
   6   5  -6    4.97    0.92 
   5   5  -6    0.05    0.31 
   5   5  -6    0.33    0.42 
   5   5  -6    0.29    0.53 
   4   5  -6    6.00    0.93 
   4   5  -6    5.81    1.15 
   4   5  -6    6.94    1.07 
  -4  -5   6    9.45    1.20 
   3   5  -6    0.46    0.35 
   3   5  -6    0.53    0.36 
   3   5  -6    0.16    0.44 
  -3  -5   6    0.46    0.36 
   2   5  -6   10.53    1.29 
   2   5  -6   10.29    1.41 
   2   5  -6   10.12    1.27 
  -2  -5   6    9.46    1.28 
   1   5  -6    1.20    0.43 
   1   5  -6    1.01    0.42 
   1   5  -6    1.27    0.49 
  -1  -5   6    1.78    0.39 
  -1  -5   6    1.45    0.56 
   0   5  -6   12.90    1.23 
   0   5  -6   10.84    1.35 
   0   5  -6   11.36    1.35 
   0  -5   6   13.81    1.58 
  -1   5  -6    3.53    0.63 
  -1   5  -6    2.13    0.44 
  -1   5  -6    2.14    0.55 
   1  -5   6    2.37    0.63 
  -2   5  -6    1.47    0.47 
   2  -5   6    0.60    0.45 
   2  -5   6    1.05    0.54 
  -3   5  -6    3.91    0.70 
  -3   5  -6    5.78    0.93 
  -3   5  -6    4.57    0.94 
   3  -5   6    4.00    0.86 
  -4   5  -6   -0.17    0.41 
   4  -5   6   -0.11    0.36 
  -5   5  -6    1.88    0.75 
   5  -5   6    1.50    0.63 
  -6   5  -6    0.40    0.65 
   6  -5   6   -0.16    0.46 
   7   4  -6   -0.31    0.35 
   7   4  -6    0.37    0.61 
   7   4  -6    0.53    0.48 
   6   4  -6    0.70    0.39 
   6   4  -6    0.56    0.48 
   6   4  -6    0.86    0.67 
   5   4  -6    0.89    0.44 
   5   4  -6    0.86    0.41 
   5   4  -6    1.37    0.69 
   4   4  -6   -0.07    0.30 
   4   4  -6    0.15    0.48 
   4   4  -6    0.09    0.24 
  -4  -4   6    0.70    0.30 
   3   4  -6    9.59    1.22 
   3   4  -6    9.91    1.38 
   3   4  -6   10.21    1.24 
  -3  -4   6    9.90    1.25 
   2   4  -6   -0.08    0.27 
   2   4  -6    0.40    0.37 
   2   4  -6    0.03    0.24 
  -2  -4   6   -0.17    0.21 
   1   4  -6   13.07    1.21 
   1   4  -6   10.44    1.18 
   1   4  -6   11.60    1.21 
  -1  -4   6    9.13    1.26 
  -1  -4   6   11.87    1.01 
   0   4  -6    9.40    1.05 
   0   4  -6    4.56    0.79 
   0   4  -6    8.80    0.90 
   0  -4   6    7.27    1.02 
   0  -4   6    8.63    1.01 
  -1   4  -6    4.09    0.57 
  -1   4  -6    4.07    0.65 
  -1   4  -6    4.46    0.70 
   1  -4   6    3.19    0.60 
   1  -4   6    4.74    0.83 
  -2   4  -6   10.43    1.15 
  -2   4  -6    8.80    1.07 
   2  -4   6    9.95    1.21 
   2  -4   6   10.66    1.31 
  -3   4  -6   -0.03    0.35 
  -3   4  -6    0.13    0.26 
  -3   4  -6    0.08    0.21 
   3  -4   6    0.00    0.31 
   3  -4   6   -0.09    0.27 
  -4   4  -6    3.92    0.91 
  -4   4  -6    5.32    0.72 
   4  -4   6    3.84    0.81 
  -5   4  -6    0.51    0.49 
   5  -4   6    1.07    0.50 
  -6   4  -6    1.05    0.61 
   6  -4   6    0.45    0.44 
   7   3  -6    1.41    0.51 
   7   3  -6    0.14    0.63 
   7   3  -6    0.61    0.45 
   6   3  -6    0.88    0.60 
   6   3  -6    1.08    0.46 
   6   3  -6    0.79    0.46 
   5   3  -6    0.47    0.34 
   5   3  -6    0.11    0.25 
   5   3  -6    0.09    0.48 
   4   3  -6   12.29    1.36 
   4   3  -6   14.15    1.61 
   4   3  -6   15.29    1.78 
   4   3  -6   14.99    1.44 
  -4  -3   6   16.01    1.40 
   3   3  -6    0.07    0.25 
   3   3  -6   -0.08    0.26 
   3   3  -6   -0.03    0.31 
  -3  -3   6    0.05    0.21 
   2   3  -6   38.13    3.16 
   2   3  -6   37.32    3.06 
  -2  -3   6   40.67    2.75 
  -2  -3   6   37.89    3.09 
   1   3  -6   -0.36    0.22 
   1   3  -6    0.09    0.20 
   1   3  -6    0.07    0.25 
  -1  -3   6   -0.09    0.21 
  -1  -3   6    0.25    0.15 
  -1  -3   6   -0.13    0.19 
   0   3  -6   37.71    2.83 
   0   3  -6   33.84    2.84 
   0   3  -6   37.12    2.89 
   0  -3   6   36.13    2.78 
   0  -3   6   37.84    2.95 
   0  -3   6   36.99    2.88 
  -1   3  -6   -0.13    0.18 
  -1   3  -6    0.10    0.22 
  -1   3  -6   -0.03    0.16 
   1  -3   6    0.37    0.24 
   1  -3   6    0.13    0.25 
  -2   3  -6    0.09    0.21 
  -2   3  -6   -0.13    0.20 
   2  -3   6   -0.13    0.25 
   2  -3   6   -0.10    0.23 
   2  -3   6    0.37    0.28 
  -3   3  -6    0.99    0.31 
  -3   3  -6    0.81    0.31 
   3  -3   6    1.06    0.38 
   3  -3   6    1.20    0.38 
   3  -3   6    1.81    0.50 
  -4   3  -6    1.18    0.34 
  -4   3  -6    1.10    0.53 
  -4   3  -6    1.59    0.34 
   4  -3   6    1.77    0.48 
   4  -3   6    1.52    0.45 
   4  -3   6    1.33    0.49 
  -5   3  -6    1.69    0.64 
   5  -3   6    1.40    0.49 
  -6   3  -6    1.31    0.60 
   6  -3   6    0.64    0.39 
  -7   3  -6    0.18    0.44 
   7  -3   6    0.51    0.41 
   7   2  -6   -0.09    0.51 
   7   2  -6   -0.64    0.38 
   6   2  -6    1.23    0.46 
   6   2  -6    1.51    0.47 
   6   2  -6    1.05    0.62 
   5   2  -6    0.48    0.31 
   5   2  -6    0.18    0.32 
   5   2  -6    1.19    0.57 
   4   2  -6    1.20    0.39 
   4   2  -6    1.34    0.42 
   4   2  -6    1.58    0.57 
   4   2  -6    1.75    0.29 
   4   2  -6    2.79    0.63 
  -4  -2   6    2.38    0.50 
   3   2  -6    0.98    0.40 
   3   2  -6    1.26    0.37 
   3   2  -6    0.95    0.22 
   3   2  -6    0.89    0.37 
   3   2  -6    0.70    0.41 
  -3  -2   6    1.71    0.41 
   2   2  -6    0.18    0.28 
   2   2  -6    0.08    0.20 
   2   2  -6   -0.14    0.20 
   2   2  -6    0.06    0.26 
  -2  -2   6    0.05    0.08 
  -2  -2   6    0.23    0.23 
   1   2  -6    1.10    0.32 
   1   2  -6    1.44    0.41 
   1   2  -6    1.18    0.37 
   1   2  -6    1.27    0.43 
  -1  -2   6    0.82    0.32 
  -1  -2   6    1.15    0.23 
  -1  -2   6    1.07    0.47 
  -1  -2   6    1.10    0.36 
   0   2  -6   12.82    1.07 
   0   2  -6   11.22    1.00 
   0   2  -6    9.56    1.01 
   0  -2   6    8.52    1.09 
   0  -2   6   11.44    1.03 
   0  -2   6   10.13    1.05 
   0  -2   6   10.09    1.00 
   0  -2   6    9.46    0.94 
  -1   2  -6    3.93    0.59 
  -1   2  -6    2.55    0.49 
  -1   2  -6    3.42    0.49 
   1  -2   6    4.77    0.64 
   1  -2   6    3.02    0.58 
   1  -2   6    3.36    0.57 
   1  -2   6    3.45    0.56 
   1  -2   6    4.09    0.60 
  -2   2  -6    8.96    0.87 
  -2   2  -6    7.75    0.85 
   2  -2   6    8.54    1.04 
   2  -2   6    8.49    0.86 
   2  -2   6    9.33    0.91 
  -3   2  -6    2.64    0.43 
  -3   2  -6    2.10    0.38 
   3  -2   6    2.00    0.31 
   3  -2   6    2.07    0.41 
   3  -2   6    1.65    0.41 
   3  -2   6    2.89    0.56 
  -4   2  -6    5.87    0.93 
  -4   2  -6    5.02    0.54 
   4  -2   6    5.39    0.81 
   4  -2   6    5.40    0.73 
   4  -2   6    5.54    0.72 
  -5   2  -6    0.13    0.27 
   5  -2   6    0.05    0.24 
   5  -2   6   -0.14    0.24 
  -6   2  -6    2.64    0.72 
   6  -2   6    1.17    0.42 
  -7   2  -6    0.41    0.42 
   7  -2   6    0.37    0.31 
   7   1  -6   -0.27    0.47 
   7   1  -6   -0.06    0.36 
   6   1  -6    0.34    0.49 
   6   1  -6    0.88    0.41 
   5   1  -6    0.11    0.28 
   5   1  -6   -0.18    0.35 
   5   1  -6    0.70    0.32 
  -5  -1   6    0.49    0.44 
   4   1  -6    3.59    0.76 
   4   1  -6    3.95    0.70 
   4   1  -6    3.56    0.61 
   4   1  -6    2.80    0.56 
   4   1  -6    4.29    0.51 
  -4  -1   6    4.77    0.67 
   3   1  -6    4.94    0.71 
   3   1  -6    5.30    0.55 
   3   1  -6    4.35    0.67 
   3   1  -6    6.70    0.97 
   3   1  -6    4.65    0.76 
  -3  -1   6    6.63    0.82 
   2   1  -6    8.98    1.04 
   2   1  -6    7.49    0.78 
   2   1  -6    7.45    1.06 
   2   1  -6   11.20    0.99 
   2   1  -6    7.99    1.03 
  -2  -1   6    6.94    0.93 
  -2  -1   6   10.98    0.75 
   1   1  -6   12.07    1.19 
   1   1  -6   12.57    1.20 
   1   1  -6   12.56    1.10 
   1   1  -6   13.53    1.23 
   1   1  -6   14.92    1.24 
  -1  -1   6   12.50    1.16 
  -1  -1   6   12.91    1.20 
  -1  -1   6   12.87    1.03 
  -1  -1   6   13.14    1.28 
   0   1  -6    4.05    0.59 
   0   1  -6    4.00    0.63 
   0   1  -6    3.97    0.59 
   0   1  -6    4.68    0.62 
   0  -1   6    5.51    0.76 
   0  -1   6    4.60    0.65 
   0  -1   6    3.09    0.50 
   0  -1   6    3.40    0.55 
   0  -1   6    3.47    0.54 
  -1   1  -6   18.76    1.69 
  -1   1  -6   21.98    1.69 
  -1   1  -6   19.64    1.67 
   1  -1   6   21.10    1.73 
   1  -1   6   21.92    1.71 
   1  -1   6   19.36    1.65 
   1  -1   6   20.07    1.64 
   1  -1   6   21.12    1.68 
  -2   1  -6    0.11    0.15 
  -2   1  -6   -0.09    0.15 
   2  -1   6    0.05    0.14 
   2  -1   6    0.07    0.17 
   2  -1   6   -0.03    0.19 
   2  -1   6   -0.04    0.16 
   2  -1   6   -0.09    0.17 
  -3   1  -6   18.03    1.46 
   3  -1   6   15.78    1.40 
   3  -1   6   19.56    1.51 
   3  -1   6   19.76    1.60 
   3  -1   6   21.25    1.56 
  -4   1  -6    0.07    0.12 
  -4   1  -6    0.01    0.10 
  -4   1  -6   -0.19    0.20 
   4  -1   6    0.03    0.15 
   4  -1   6    0.13    0.22 
   4  -1   6    0.16    0.19 
  -5   1  -6    5.47    0.89 
   5  -1   6    5.17    0.75 
   5  -1   6    5.25    0.69 
   5  -1   6    5.22    0.67 
  -6   1  -6    0.11    0.33 
   6  -1   6    0.35    0.27 
   6  -1   6    0.22    0.24 
   6  -1   6    0.27    0.23 
  -7   1  -6    0.14    0.33 
   7  -1   6    0.42    0.31 
   8  -1   6   -0.13    0.26 
   7   0  -6    0.09    0.41 
   7   0  -6    0.44    0.53 
   6   0  -6    0.31    0.42 
   6   0  -6    0.50    0.38 
   5   0  -6    0.39    0.32 
   5   0  -6    0.42    0.45 
   4   0  -6   -0.11    0.28 
   4   0  -6    0.01    0.24 
   4   0  -6   -0.01    0.25 
   4   0  -6    0.05    0.28 
  -4   0   6   -0.30    0.18 
   3   0  -6    1.19    0.43 
   3   0  -6    1.65    0.44 
   3   0  -6    1.04    0.40 
  -3   0   6    2.03    0.44 
   2   0  -6    2.61    0.49 
   2   0  -6    3.34    0.45 
   2   0  -6    2.75    0.51 
   2   0  -6    1.84    0.47 
   2   0  -6    2.96    0.59 
  -2   0   6    2.60    0.51 
  -2   0   6    2.53    0.50 
  -2   0   6    3.37    0.40 
   1   0  -6   17.36    1.41 
   1   0  -6   15.62    1.28 
   1   0  -6   13.71    1.34 
   1   0  -6   15.87    1.36 
   1   0  -6   14.67    1.32 
  -1   0   6   14.08    1.30 
  -1   0   6   16.92    1.37 
  -1   0   6   15.02    1.20 
  -1   0   6   14.95    1.40 
   0   0  -6    9.06    0.98 
   0   0  -6    8.07    0.82 
   0   0  -6    9.44    0.85 
   0   0  -6    8.95    0.85 
   0   0   6    8.01    0.81 
   0   0   6    8.12    0.86 
   0   0   6    8.37    0.82 
   0   0   6    8.01    0.84 
   0   0   6    7.47    0.78 
  -1   0  -6   43.27    3.14 
  -1   0  -6   44.08    3.24 
  -1   0  -6   40.69    3.20 
  -1   0  -6   42.32    3.19 
   1   0   6   46.64    3.24 
   1   0   6   42.31    3.18 
   1   0   6   43.87    3.24 
   1   0   6   37.96    3.15 
   1   0   6   45.09    3.20 
  -2   0  -6    0.75    0.24 
  -2   0  -6    0.67    0.18 
  -2   0  -6    0.86    0.26 
   2   0   6    1.04    0.34 
   2   0   6    1.23    0.29 
   2   0   6    0.79    0.28 
   2   0   6    1.14    0.27 
  -3   0  -6    9.74    0.82 
  -3   0  -6   10.44    0.87 
  -3   0  -6    8.76    0.77 
   3   0   6    9.31    0.87 
   3   0   6   10.88    1.21 
   3   0   6    8.66    0.86 
   3   0   6    9.37    0.91 
  -4   0  -6    0.49    0.30 
   4   0   6    0.55    0.22 
   4   0   6    1.31    0.33 
   4   0   6    1.03    0.26 
  -5   0  -6    0.16    0.23 
   5   0   6   -0.03    0.13 
   5   0   6    0.10    0.19 
   5   0   6   -0.04    0.16 
  -6   0  -6    1.62    0.46 
   7   0   6    0.00    0.38 
   7   0   6    0.44    0.24 
   8   0   6    0.29    0.27 
   7  -1  -6    0.01    0.41 
   7  -1  -6   -0.21    0.37 
   6  -1  -6    0.25    0.36 
   6  -1  -6    0.97    0.52 
   5  -1  -6    0.44    0.34 
   5  -1  -6    0.10    0.36 
   4  -1  -6    0.30    0.35 
   4  -1  -6    1.13    0.40 
   4  -1  -6    1.06    0.40 
   4  -1  -6    0.97    0.45 
  -4   1   6    0.86    0.32 
   3  -1  -6    0.26    0.27 
   3  -1  -6   -0.08    0.23 
   3  -1  -6    0.05    0.25 
   3  -1  -6    0.35    0.30 
  -3   1   6    0.12    0.25 
   2  -1  -6    8.88    0.77 
   2  -1  -6    5.20    0.77 
   2  -1  -6    7.40    0.86 
   2  -1  -6    6.04    0.86 
  -2   1   6    4.41    0.70 
  -2   1   6    5.24    0.58 
   1  -1  -6    7.18    0.71 
   1  -1  -6    5.00    0.68 
   1  -1  -6    8.00    0.86 
   1  -1  -6    5.99    0.79 
  -1   1   6    6.49    0.88 
  -1   1   6    5.40    0.68 
  -1   1   6    6.76    0.62 
  -1   1   6    5.48    0.74 
   0  -1  -6   24.10    1.85 
   0  -1  -6   22.22    1.82 
   0  -1  -6   22.75    1.86 
   0  -1  -6   24.37    1.79 
   0   1   6   23.68    1.82 
   0   1   6   20.89    1.84 
   0   1   6   18.62    1.74 
   0   1   6   21.58    1.81 
   0   1   6   26.97    1.90 
  -1  -1  -6   87.36    5.99 
  -1  -1  -6   72.16    5.80 
  -1  -1  -6   81.69    5.87 
  -1  -1  -6   82.73    5.90 
   1   1   6   90.46    5.92 
   1   1   6   82.99    5.92 
   1   1   6   80.48    5.87 
   1   1   6   79.63    5.87 
  -2  -1  -6   17.93    1.48 
  -2  -1  -6   17.14    1.42 
  -2  -1  -6   17.19    1.49 
   2   1   6   19.35    1.54 
   2   1   6   19.82    1.60 
   2   1   6   17.43    1.48 
   2   1   6   20.74    1.52 
  -3  -1  -6   82.97    5.73 
  -3  -1  -6   80.26    5.75 
  -3  -1  -6   73.70    5.69 
   3   1   6   81.44    5.83 
   3   1   6   83.57    5.80 
   3   1   6   82.20    5.80 
   3   1   6   86.08    5.98 
  -4  -1  -6    6.41    0.75 
   4   1   6    6.33    0.65 
   4   1   6    7.47    0.68 
   4   1   6    6.65    0.75 
   4   1   6    4.46    0.81 
  -5  -1  -6   16.30    1.39 
   5   1   6   15.70    1.31 
   5   1   6   14.70    1.60 
   5   1   6   14.99    1.28 
   5   1   6   17.03    1.31 
  -6  -1  -6    0.07    0.20 
   6   1   6   -0.06    0.17 
   6   1   6    0.18    0.16 
   6   1   6   -0.20    0.29 
   6   1   6    0.08    0.17 
   7   1   6    0.61    0.23 
   7   1   6    0.28    0.45 
   7   1   6    0.62    0.23 
   8   1   6    0.01    0.47 
   8   1   6    0.30    0.18 
   6  -2  -6    8.22    1.09 
   5  -2  -6    0.14    0.35 
   4  -2  -6   11.61    1.37 
   4  -2  -6   12.96    1.30 
  -4   2   6   12.96    1.22 
   3  -2  -6    0.18    0.32 
   3  -2  -6   -0.08    0.29 
   3  -2  -6    0.34    0.30 
  -3   2   6    0.07    0.21 
   2  -2  -6    2.14    0.52 
   2  -2  -6    2.49    0.52 
  -2   2   6    2.55    0.52 
  -2   2   6    2.81    0.44 
   1  -2  -6    3.46    0.58 
   1  -2  -6    3.63    0.57 
   1  -2  -6    1.84    0.47 
  -1   2   6    2.27    0.46 
  -1   2   6    2.02    0.41 
  -1   2   6    3.25    0.44 
   0  -2  -6    4.58    0.59 
   0  -2  -6    5.33    0.67 
   0  -2  -6    4.10    0.62 
   0   2   6    4.40    0.59 
   0   2   6    5.60    0.72 
   0   2   6    4.20    0.57 
   0   2   6    3.77    0.57 
   0   2   6    3.91    0.60 
  -1  -2  -6    0.25    0.18 
  -1  -2  -6    1.47    0.38 
  -1  -2  -6    0.73    0.26 
   1   2   6    0.67    0.22 
   1   2   6    0.79    0.27 
   1   2   6    1.03    0.28 
   1   2   6    0.65    0.24 
  -2  -2  -6    8.55    0.76 
  -2  -2  -6    8.73    0.88 
  -2  -2  -6    7.94    0.81 
   2   2   6    9.27    0.84 
   2   2   6    7.91    0.92 
   2   2   6    8.27    0.86 
   2   2   6    7.73    0.78 
  -3  -2  -6    1.89    0.32 
  -3  -2  -6    1.53    0.30 
  -3  -2  -6    2.30    0.37 
   3   2   6    1.70    0.34 
   3   2   6    1.42    0.41 
   3   2   6    1.33    0.33 
   3   2   6    1.45    0.30 
  -4  -2  -6    4.31    0.47 
   4   2   6    4.28    0.55 
   4   2   6    3.43    0.45 
   4   2   6    2.99    0.46 
   4   2   6    4.21    0.73 
  -5  -2  -6    0.82    0.21 
   5   2   6    1.89    0.51 
   5   2   6    0.93    0.24 
   5   2   6    1.69    0.28 
   5   2   6    0.74    0.25 
   6   2   6    0.57    0.22 
   6   2   6    0.22    0.35 
   6   2   6    0.68    0.21 
   6   2   6    0.73    0.21 
   7   2   6    0.30    0.18 
   7   2   6    0.21    0.42 
   7   2   6    0.53    0.19 
   8   2   6    0.16    0.51 
   8   2   6    0.00    0.14 
   6  -3  -6    1.85    0.62 
   5  -3  -6    0.42    0.42 
   4  -3  -6   11.26    1.35 
  -4   3   6   11.20    1.26 
   3  -3  -6    0.59    0.44 
   3  -3  -6    1.37    0.43 
  -3   3   6    1.14    0.41 
   2  -3  -6    8.86    1.06 
  -2   3   6    8.85    0.90 
  -2   3   6    8.62    1.04 
   1  -3  -6    0.06    0.25 
   1  -3  -6    0.10    0.26 
  -1   3   6    0.27    0.21 
  -1   3   6    0.26    0.22 
  -1   3   6    0.69    0.27 
   0  -3  -6    7.31    0.83 
   0  -3  -6    6.96    0.82 
   0   3   6    6.03    0.75 
   0   3   6    6.44    0.82 
   0   3   6    7.16    0.78 
   0   3   6    5.27    0.82 
  -1  -3  -6    3.04    0.50 
  -1  -3  -6    3.75    0.55 
   1   3   6    4.03    0.55 
   1   3   6    3.96    0.54 
   1   3   6    3.04    0.48 
   1   3   6    4.70    0.67 
  -2  -3  -6    2.76    0.42 
  -2  -3  -6    3.60    0.47 
   2   3   6    2.91    0.50 
   2   3   6    2.52    0.43 
   2   3   6    2.14    0.39 
   2   3   6    2.41    0.45 
  -3  -3  -6    1.10    0.28 
   3   3   6    1.42    0.38 
   3   3   6    1.02    0.31 
   3   3   6    0.93    0.27 
   3   3   6    1.06    0.30 
  -4  -3  -6    1.35    0.19 
  -4  -3  -6    0.96    0.19 
  -4  -3  -6    0.97    0.22 
   4   3   6    0.68    0.24 
   4   3   6    0.84    0.27 
   4   3   6    0.95    0.35 
   4   3   6    0.67    0.24 
   5   3   6    0.02    0.13 
   5   3   6    0.11    0.17 
   5   3   6   -0.07    0.14 
   5   3   6    0.00    0.24 
   6   3   6    0.00    0.18 
   6   3   6   -0.12    0.15 
   6   3   6    0.50    0.38 
   6   3   6   -0.04    0.14 
   7   3   6    0.13    0.40 
   7   3   6   -0.02    0.16 
   7   3   6   -0.21    0.15 
   7   3   6    0.13    0.16 
   8   3   6   -0.34    0.45 
   8   3   6    0.32    0.17 
   5  -4  -6    1.12    0.51 
   4  -4  -6   -0.29    0.33 
  -4   4   6    0.51    0.32 
   3  -4  -6    2.92    0.65 
   3  -4  -6    5.31    0.84 
  -3   4   6    2.84    0.63 
   2  -4  -6   -0.19    0.33 
   2  -4  -6   -0.06    0.30 
  -2   4   6    0.27    0.28 
  -2   4   6    0.68    0.28 
   1  -4  -6    9.18    1.07 
   1  -4  -6   10.04    1.16 
  -1   4   6   11.34    1.25 
  -1   4   6    9.34    0.96 
  -1   4   6   10.03    1.02 
   0  -4  -6   -0.11    0.23 
   0  -4  -6   -0.12    0.18 
   0  -4  -6   -0.01    0.25 
   0   4   6    0.02    0.21 
   0   4   6    0.00    0.22 
   0   4   6    0.24    0.21 
   0   4   6   -0.09    0.20 
  -1  -4  -6    5.02    0.67 
  -1  -4  -6    7.04    0.82 
   1   4   6    6.46    0.79 
   1   4   6    4.39    0.65 
   1   4   6    6.99    0.79 
   1   4   6    4.92    0.76 
  -2  -4  -6    0.95    0.31 
  -2  -4  -6    1.14    0.25 
   2   4   6    1.23    0.33 
   2   4   6    1.11    0.31 
   2   4   6    1.18    0.36 
   2   4   6    0.95    0.31 
  -3  -4  -6    0.04    0.16 
  -3  -4  -6    0.37    0.11 
   3   4   6    0.93    0.30 
   3   4   6    0.44    0.25 
   3   4   6    0.57    0.26 
   3   4   6    0.51    0.24 
  -4  -4  -6    4.64    0.56 
   4   4   6    4.88    0.70 
   4   4   6    5.19    0.66 
   4   4   6    5.32    0.72 
   4   4   6    5.33    0.77 
   5   4   6   -0.07    0.19 
   5   4   6    0.18    0.20 
   5   4   6    0.13    0.24 
   5   4   6   -0.20    0.18 
   6   4   6    0.63    0.29 
   6   4   6    1.07    0.43 
   6   4   6    0.63    0.25 
   6   4   6    0.77    0.28 
   7   4   6    0.65    0.41 
   7   4   6    0.17    0.18 
   7   4   6    0.09    0.21 
   8   4   6    0.18    0.20 
   8   4   6   -0.09    0.18 
   8   4   6   -0.18    0.42 
   5  -5  -6    0.09    0.44 
   4  -5  -6    0.35    0.44 
   3  -5  -6    0.37    0.39 
  -3   5   6    0.02    0.26 
   2  -5  -6    0.21    0.35 
  -2   5   6    0.05    0.27 
  -2   5   6    0.00    0.27 
   1  -5  -6    5.62    0.82 
  -1   5   6    2.61    0.54 
  -1   5   6    3.33    0.66 
  -1   5   6    2.66    0.56 
   0  -5  -6    1.80    0.47 
   0   5   6    1.56    0.50 
   0   5   6    1.75    0.47 
   0   5   6    1.76    0.44 
  -1  -5  -6   15.17    1.45 
  -1  -5  -6   14.80    1.35 
   1   5   6   16.61    1.51 
   1   5   6   14.41    1.42 
   1   5   6   13.71    1.39 
   1   5   6   16.37    1.36 
  -2  -5  -6    3.03    0.55 
  -2  -5  -6    2.79    0.43 
   2   5   6    2.10    0.45 
   2   5   6    3.25    0.61 
   2   5   6    2.84    0.52 
   2   5   6    3.34    0.56 
  -3  -5  -6    8.26    0.93 
   3   5   6    7.58    1.00 
   3   5   6    7.28    0.91 
   3   5   6    8.68    0.87 
   3   5   6    7.36    0.94 
  -4  -5  -6    0.64    0.26 
  -4  -5  -6    0.88    0.33 
   4   5   6    0.42    0.28 
   4   5   6    0.05    0.23 
   4   5   6    0.60    0.29 
   4   5   6    1.14    0.34 
   5   5   6    1.71    0.42 
   5   5   6    0.67    0.32 
   5   5   6    0.83    0.37 
   5   5   6    0.90    0.32 
   6   5   6   -0.13    0.26 
   6   5   6    0.07    0.23 
   6   5   6   -0.23    0.23 
   7   5   6   -0.09    0.32 
   7   5   6   -0.03    0.21 
   7   5   6   -0.13    0.25 
   8   5   6    0.33    0.42 
   8   5   6    0.42    0.27 
   8   5   6    0.42    0.28 
   4  -6  -6    1.57    0.61 
   3  -6  -6    3.90    0.84 
  -3   6   6    3.26    0.76 
   2  -6  -6    2.90    0.73 
  -2   6   6    2.75    0.63 
  -2   6   6    3.20    0.65 
   1  -6  -6    8.24    1.17 
  -1   6   6    6.13    0.91 
  -1   6   6    7.41    1.07 
   0  -6  -6    2.32    0.60 
   0   6   6    2.31    0.50 
   0   6   6    1.39    0.51 
   0   6   6    2.01    0.50 
  -1  -6  -6    2.25    0.53 
  -1  -6  -6    2.39    0.51 
   1   6   6    2.96    0.58 
   1   6   6    2.21    0.59 
   1   6   6    1.80    0.44 
  -2  -6  -6    0.49    0.32 
   2   6   6    0.14    0.23 
   2   6   6    0.36    0.32 
   2   6   6    0.53    0.33 
   2   6   6   -0.29    0.28 
  -3  -6  -6   -0.42    0.26 
   3   6   6    0.10    0.24 
   3   6   6    0.00    0.26 
   3   6   6    0.19    0.28 
   3   6   6   -0.89    0.25 
  -4  -6  -6    1.13    0.36 
  -4  -6  -6    2.00    0.50 
   4   6   6    1.49    0.44 
   4   6   6    0.92    0.39 
   4   6   6    1.52    0.40 
   5   6   6    0.16    0.25 
   5   6   6   -0.21    0.24 
   5   6   6   -0.01    0.23 
   6   6   6    0.56    0.35 
   6   6   6    0.97    0.38 
   6   6   6    0.99    0.38 
   7   6   6    0.42    0.33 
   7   6   6    0.05    0.35 
   7   6   6    0.54    0.32 
   3  -7  -6    0.40    0.58 
   2  -7  -6    4.81    1.02 
  -2   7   6    4.77    0.93 
   1  -7  -6    0.57    0.52 
  -1   7   6    0.29    0.40 
  -1   7   6    0.27    0.37 
   0  -7  -6   14.32    1.69 
   0   7   6   11.64    1.59 
   0   7   6   13.89    1.44 
  -1  -7  -6    0.23    0.38 
   1   7   6    0.61    0.34 
   1   7   6    0.91    0.44 
   1   7   6    0.89    0.43 
  -2  -7  -6    2.09    0.55 
   2   7   6    1.26    0.52 
   2   7   6    1.65    0.56 
   2   7   6    1.88    0.44 
  -3  -7  -6    0.71    0.39 
   3   7   6    0.30    0.35 
   3   7   6    0.19    0.32 
   3   7   6    0.89    0.33 
  -4  -7  -6    0.06    0.41 
   4   7   6    0.58    0.30 
   4   7   6    0.48    0.37 
   4   7   6    0.41    0.42 
   5   7   6    0.67    0.38 
   5   7   6    0.37    0.37 
   5   7   6    0.57    0.31 
   6   7   6    2.03    0.48 
   6   7   6    1.23    0.45 
   6   7   6    1.86    0.49 
   7   7   6   -0.42    0.30 
   7   7   6   -0.13    0.32 
   7   7   6    0.52    0.38 
   2  -8  -6    0.09    0.66 
  -2   8   6   -0.26    0.42 
   1  -8  -6    0.69    0.66 
  -1   8   6    0.55    0.47 
   0  -8  -6    0.29    0.54 
   0   8   6    0.14    0.42 
   0   8   6    0.19    0.40 
  -1  -8  -6    0.33    0.48 
   1   8   6   -0.31    0.34 
   1   8   6    0.43    0.40 
   2   8   6    1.20    0.59 
   2   8   6    0.99    0.44 
   2   8   6    1.33    0.42 
  -3  -8  -6    0.04    0.40 
   3   8   6    0.23    0.35 
   3   8   6    0.23    0.30 
   3   8   6    0.34    0.44 
   4   8   6    0.25    0.36 
   4   8   6    0.05    0.27 
   4   8   6    0.00    0.38 
   5   8   6   -0.03    0.40 
   5   8   6   -0.03    0.37 
   5   8   6    0.09    0.29 
   6   8   6   -0.07    0.34 
   6   8   6   -0.04    0.33 
   6   8   6   -0.28    0.37 
   0   9   6    0.86    0.59 
   1   9   6    0.63    0.49 
   1   9   6    0.72    0.51 
  -2  -9  -6    0.24    0.50 
   2   9   6    0.28    0.61 
   2   9   6    0.76    0.56 
   3   9   6    0.89    0.58 
   3   9   6    1.43    0.58 
   3   9   6    1.07    0.48 
   4   9   6   -0.36    0.31 
   4   9   6    0.07    0.51 
   4   9   6    0.17    0.44 
   3   8  -7    0.33    0.59 
   3   8  -7    0.68    0.49 
   2   8  -7    0.57    0.56 
   2   8  -7    1.16    0.59 
   2   8  -7    0.24    0.61 
  -2  -8   7    1.27    0.64 
   1   8  -7    1.08    0.60 
   1   8  -7    0.70    0.57 
   1   8  -7    0.71    0.52 
  -1  -8   7   -0.08    0.47 
   0   8  -7    2.01    0.67 
   0  -8   7    1.08    0.64 
  -1   8  -7    0.28    0.61 
  -1   8  -7    0.38    0.48 
   1  -8   7   -0.24    0.53 
   4   7  -7    3.61    1.05 
   4   7  -7    1.47    0.60 
   4   7  -7    1.87    0.70 
   3   7  -7    0.43    0.58 
   3   7  -7    0.10    0.34 
   3   7  -7    0.14    0.42 
  -3  -7   7   -0.10    0.43 
   2   7  -7    2.48    0.65 
   2   7  -7    1.83    0.70 
   2   7  -7    3.19    0.76 
  -2  -7   7    3.59    0.90 
   1   7  -7   -0.12    0.38 
   1   7  -7    1.58    0.58 
   1   7  -7    0.09    0.35 
  -1  -7   7    0.61    0.54 
   0   7  -7    1.52    0.64 
   0   7  -7    1.72    0.55 
   0   7  -7    1.01    0.46 
   0  -7   7    0.69    0.54 
  -1   7  -7    2.39    0.69 
   1  -7   7    1.18    0.64 
  -2   7  -7   -0.42    0.53 
  -2   7  -7    0.22    0.44 
   2  -7   7    0.18    0.47 
  -3   7  -7    0.61    0.73 
   3  -7   7    0.81    0.65 
   5   6  -7   -0.12    0.44 
   5   6  -7    0.78    0.44 
   5   6  -7    0.26    0.62 
   4   6  -7   -0.11    0.32 
   4   6  -7   -0.19    0.50 
   4   6  -7    0.30    0.42 
   3   6  -7    1.55    0.55 
   3   6  -7    1.52    0.70 
   3   6  -7    1.35    0.49 
  -3  -6   7    1.12    0.54 
   2   6  -7    0.29    0.47 
   2   6  -7    0.12    0.34 
   2   6  -7    0.18    0.42 
  -2  -6   7    0.47    0.40 
   1   6  -7    0.59    0.45 
   1   6  -7    0.02    0.30 
   1   6  -7    0.06    0.36 
  -1  -6   7    1.95    0.67 
  -1  -6   7    0.32    0.28 
   0   6  -7    0.69    0.43 
   0   6  -7    0.29    0.45 
   0   6  -7    1.30    0.48 
   0  -6   7    1.32    0.62 
  -1   6  -7    0.40    0.27 
  -1   6  -7    0.34    0.45 
  -1   6  -7    0.69    0.38 
   1  -6   7   -0.06    0.43 
  -2   6  -7    0.47    0.38 
  -2   6  -7    0.72    0.52 
   2  -6   7    2.42    0.81 
  -3   6  -7    2.18    0.79 
   3  -6   7    2.02    0.75 
  -4   6  -7    0.54    0.64 
   4  -6   7    1.05    0.62 
   6   5  -7    1.36    0.61 
   6   5  -7    0.74    0.74 
   6   5  -7    0.24    0.42 
   5   5  -7    0.68    0.63 
   5   5  -7    0.03    0.40 
   5   5  -7   -0.04    0.34 
   4   5  -7    2.31    0.79 
   4   5  -7    1.95    0.60 
   4   5  -7    1.30    0.48 
  -4  -5   7    2.65    0.66 
   3   5  -7    2.28    0.67 
   3   5  -7    2.49    0.63 
   3   5  -7    1.17    0.59 
  -3  -5   7    2.38    0.65 
   2   5  -7    2.23    0.65 
   2   5  -7    1.04    0.47 
   2   5  -7    1.21    0.53 
  -2  -5   7    1.70    0.61 
   1   5  -7    5.83    0.96 
   1   5  -7    7.60    1.07 
   1   5  -7    6.11    0.98 
  -1  -5   7    6.30    1.05 
  -1  -5   7    7.70    0.85 
   0   5  -7    3.33    0.69 
   0   5  -7    3.34    0.65 
   0   5  -7    3.22    0.64 
   0  -5   7    3.48    0.82 
  -1   5  -7    1.62    0.48 
  -1   5  -7    2.41    0.61 
  -1   5  -7    2.19    0.45 
   1  -5   7    3.19    0.75 
  -2   5  -7    1.13    0.42 
  -2   5  -7    0.48    0.32 
   2  -5   7    0.26    0.53 
   2  -5   7    0.93    0.47 
  -3   5  -7    0.28    0.45 
  -3   5  -7    0.10    0.32 
   3  -5   7    0.45    0.42 
  -4   5  -7    0.10    0.46 
   4  -5   7   -0.24    0.31 
  -5   5  -7    0.21    0.56 
   5  -5   7   -0.15    0.40 
   6   4  -7    3.38    0.75 
   6   4  -7    2.67    0.74 
   6   4  -7    2.07    0.80 
   5   4  -7    0.48    0.55 
   5   4  -7    0.84    0.45 
   5   4  -7    0.58    0.46 
   4   4  -7   19.14    2.02 
   4   4  -7   17.35    1.77 
   4   4  -7   18.80    1.84 
  -4  -4   7   19.08    1.78 
   3   4  -7    0.35    0.35 
   3   4  -7    0.31    0.48 
   3   4  -7    0.92    0.44 
  -3  -4   7    0.40    0.34 
   2   4  -7   25.44    2.21 
   2   4  -7   26.02    2.23 
   2   4  -7   25.17    2.28 
  -2  -4   7   21.99    2.20 
  -2  -4   7   25.46    1.78 
   1   4  -7   -0.04    0.30 
   1   4  -7   -0.18    0.26 
   1   4  -7    0.19    0.27 
  -1  -4   7    0.08    0.28 
  -1  -4   7    0.00    0.18 
   0   4  -7   33.55    2.57 
   0   4  -7   32.14    2.64 
   0   4  -7   34.80    2.66 
   0  -4   7   32.13    2.72 
   0  -4   7   27.59    2.49 
  -1   4  -7   -0.12    0.20 
  -1   4  -7    0.05    0.22 
  -1   4  -7    0.10    0.28 
   1  -4   7   -0.08    0.28 
   1  -4   7   -0.44    0.25 
  -2   4  -7    8.46    1.05 
  -2   4  -7    9.14    1.12 
   2  -4   7    9.72    1.17 
   2  -4   7    8.63    1.25 
  -3   4  -7    0.19    0.28 
  -3   4  -7    0.14    0.29 
   3  -4   7   -0.32    0.36 
   3  -4   7    0.46    0.42 
  -4   4  -7    3.28    0.87 
   4  -4   7    4.48    0.86 
  -5   4  -7   -0.09    0.41 
   5  -4   7    0.60    0.48 
  -6   4  -7    0.59    0.56 
   6  -4   7    0.74    0.51 
   7   3  -7    0.65    0.69 
   7   3  -7    1.93    0.59 
   6   3  -7   -0.22    0.53 
   6   3  -7    0.12    0.33 
   6   3  -7    0.12    0.43 
   5   3  -7    3.38    0.70 
   5   3  -7    2.21    0.63 
   5   3  -7    2.51    0.81 
   4   3  -7   -0.15    0.25 
   4   3  -7    0.07    0.40 
   4   3  -7    0.60    0.39 
  -4  -3   7    0.16    0.28 
   3   3  -7    0.09    0.30 
   3   3  -7   -0.01    0.35 
   3   3  -7    0.15    0.28 
  -3  -3   7   -0.04    0.23 
   2   3  -7    1.32    0.54 
   2   3  -7    1.86    0.51 
  -2  -3   7    1.05    0.37 
   1   3  -7    4.97    0.80 
   1   3  -7    4.93    0.83 
   1   3  -7    7.46    0.97 
  -1  -3   7    7.08    1.00 
  -1  -3   7    7.30    0.67 
   0   3  -7   18.54    1.55 
   0   3  -7   16.16    1.50 
   0   3  -7   17.49    1.47 
   0  -3   7   13.57    1.46 
   0  -3   7   15.85    1.41 
   0  -3   7   14.95    1.55 
   0  -3   7   16.66    1.54 
  -1   3  -7   14.00    1.26 
  -1   3  -7   10.14    1.06 
  -1   3  -7   13.25    1.23 
   1  -3   7   14.14    1.35 
   1  -3   7   11.20    1.18 
   1  -3   7   12.77    1.26 
   1  -3   7   13.13    1.23 
  -2   3  -7    2.09    0.47 
  -2   3  -7    2.14    0.47 
   2  -3   7    1.60    0.44 
   2  -3   7    0.78    0.41 
  -3   3  -7    5.58    0.80 
   3  -3   7    7.27    0.92 
   3  -3   7    6.23    0.97 
   3  -3   7    5.52    0.84 
  -4   3  -7    0.19    0.39 
  -4   3  -7    0.67    0.28 
  -4   3  -7    0.74    0.31 
   4  -3   7    0.92    0.46 
   4  -3   7    0.35    0.35 
  -5   3  -7    1.38    0.58 
   5  -3   7    1.23    0.46 
  -6   3  -7    1.21    0.63 
   6  -3   7    1.54    0.54 
  -7   3  -7   -0.13    0.46 
   7  -3   7   -0.12    0.39 
   7   2  -7    0.47    0.50 
   7   2  -7    0.28    0.65 
   6   2  -7    0.43    0.36 
   6   2  -7    0.21    0.44 
   6   2  -7    0.21    0.47 
   5   2  -7    4.16    0.93 
   5   2  -7    2.01    0.58 
   5   2  -7    3.65    0.72 
   4   2  -7    0.16    0.27 
   4   2  -7    0.00    0.38 
   4   2  -7    0.04    0.31 
  -4  -2   7    0.34    0.31 
   3   2  -7    5.99    0.92 
   3   2  -7    7.61    1.02 
   3   2  -7    8.11    0.73 
   3   2  -7    6.43    1.05 
  -3  -2   7    9.87    1.10 
   2   2  -7    2.62    0.54 
   2   2  -7    2.58    0.60 
   2   2  -7    2.97    0.61 
  -2  -2   7    2.98    0.34 
  -2  -2   7    2.18    0.53 
   1   2  -7    2.85    0.59 
   1   2  -7    4.44    0.70 
   1   2  -7    3.98    0.69 
  -1  -2   7    4.10    0.50 
  -1  -2   7    4.59    0.78 
  -1  -2   7    5.19    0.80 
   0   2  -7   50.03    3.63 
   0   2  -7   53.19    3.62 
   0   2  -7   47.89    3.63 
   0  -2   7   47.80    3.65 
   0  -2   7   42.99    3.52 
   0  -2   7   45.44    3.60 
   0  -2   7   44.33    3.66 
  -1   2  -7    0.18    0.24 
  -1   2  -7    0.42    0.26 
   1  -2   7    0.67    0.31 
   1  -2   7    0.27    0.31 
   1  -2   7    0.44    0.33 
   1  -2   7    0.08    0.22 
  -2   2  -7   29.16    2.55 
  -2   2  -7   38.86    2.62 
   2  -2   7   33.09    2.69 
   2  -2   7   31.92    2.58 
   2  -2   7   31.13    2.61 
  -3   2  -7   -0.06    0.19 
  -3   2  -7    0.32    0.23 
   3  -2   7   -0.14    0.23 
   3  -2   7    0.08    0.20 
   3  -2   7    0.03    0.17 
   3  -2   7    0.12    0.23 
  -4   2  -7    6.23    0.69 
  -4   2  -7    7.99    1.11 
   4  -2   7    7.02    0.98 
   4  -2   7    7.58    0.92 
   4  -2   7    7.00    0.88 
  -5   2  -7    0.12    0.33 
   5  -2   7    0.12    0.32 
  -6   2  -7   -0.59    0.27 
   6  -2   7    0.09    0.34 
  -7   2  -7   -0.02    0.37 
   7  -2   7    0.11    0.36 
   7   1  -7    0.00    0.39 
   7   1  -7   -0.27    0.49 
   6   1  -7    0.29    0.39 
   6   1  -7    0.74    0.52 
   5   1  -7   -0.05    0.37 
   5   1  -7   -0.18    0.31 
   4   1  -7    4.40    0.73 
   4   1  -7    3.92    0.80 
   4   1  -7    3.32    0.64 
  -4  -1   7    4.59    0.72 
   3   1  -7    1.53    0.46 
   3   1  -7    1.26    0.30 
   3   1  -7    1.44    0.45 
   3   1  -7    1.05    0.44 
  -3  -1   7    1.89    0.46 
   2   1  -7   12.28    1.16 
   2   1  -7   14.46    1.34 
   2   1  -7   12.00    1.28 
   2   1  -7   12.66    1.33 
  -2  -1   7   13.57    1.30 
  -2  -1   7   15.34    1.08 
   1   1  -7    4.03    0.63 
   1   1  -7    3.48    0.64 
   1   1  -7    4.23    0.67 
   1   1  -7    4.24    0.58 
  -1  -1   7    4.25    0.60 
  -1  -1   7    4.71    0.54 
  -1  -1   7    4.96    0.70 
   0   1  -7   19.26    1.52 
   0   1  -7   17.34    1.51 
   0   1  -7   17.83    1.48 
   0  -1   7   14.96    1.50 
   0  -1   7   16.61    1.49 
   0  -1   7   16.77    1.54 
   0  -1   7   16.72    1.44 
  -1   1  -7    2.27    0.43 
  -1   1  -7    2.05    0.46 
   1  -1   7    2.83    0.54 
   1  -1   7    3.18    0.54 
   1  -1   7    2.11    0.42 
   1  -1   7    1.70    0.43 
   1  -1   7    2.41    0.51 
  -2   1  -7    0.05    0.19 
  -2   1  -7   -0.12    0.14 
   2  -1   7    0.04    0.22 
   2  -1   7   -0.13    0.15 
   2  -1   7    0.14    0.20 
   2  -1   7    0.06    0.20 
   2  -1   7    0.33    0.26 
  -3   1  -7    1.60    0.33 
   3  -1   7    1.00    0.29 
   3  -1   7    1.15    0.34 
   3  -1   7    0.80    0.37 
   3  -1   7    1.19    0.33 
   3  -1   7    1.38    0.41 
  -4   1  -7    1.99    0.32 
   4  -1   7    3.34    0.54 
   4  -1   7    1.89    0.45 
   4  -1   7    2.18    0.38 
   4  -1   7    2.86    0.54 
  -5   1  -7    0.47    0.36 
   5  -1   7    0.68    0.35 
   5  -1   7    1.95    0.50 
   5  -1   7    1.57    0.36 
  -6   1  -7    1.49    0.54 
   6  -1   7    1.69    0.45 
  -7   1  -7    0.07    0.40 
   7  -1   7    0.08    0.32 
   8  -1   7    0.40    0.33 
   7   0  -7   -0.19    0.45 
   7   0  -7    0.27    0.57 
   6   0  -7    0.14    0.49 
   6   0  -7    0.18    0.40 
   5   0  -7    1.50    0.57 
   5   0  -7    1.77    0.55 
   4   0  -7    0.42    0.29 
   4   0  -7   -0.09    0.28 
   4   0  -7    0.08    0.30 
  -4   0   7   -0.02    0.25 
   3   0  -7    0.50    0.36 
   3   0  -7    0.60    0.34 
   3   0  -7    0.91    0.41 
  -3   0   7    0.29    0.24 
   2   0  -7    2.17    0.55 
   2   0  -7    2.42    0.52 
  -2   0   7    2.86    0.57 
  -2   0   7    2.55    0.36 
   1   0  -7    3.95    0.63 
   1   0  -7    4.31    0.66 
   1   0  -7    3.34    0.60 
   1   0  -7    5.10    0.64 
  -1   0   7    3.87    0.62 
  -1   0   7    4.00    0.50 
  -1   0   7    4.92    0.71 
   0   0  -7   20.57    1.90 
   0   0  -7   25.23    1.93 
   0   0   7   26.01    1.97 
   0   0   7   23.11    1.89 
   0   0   7   21.44    1.83 
   0   0   7   22.99    1.93 
  -1   0  -7   13.25    1.21 
  -1   0  -7   15.70    1.31 
   1   0   7   15.64    1.33 
   1   0   7   15.42    1.29 
   1   0   7   13.62    1.26 
   1   0   7   14.43    1.27 
   1   0   7   13.33    1.30 
  -2   0  -7   13.24    1.11 
  -2   0  -7   10.50    1.00 
   2   0   7   11.13    1.17 
   2   0   7   12.79    1.15 
   2   0   7   12.38    1.12 
   2   0   7   11.78    1.06 
   2   0   7   12.32    1.09 
  -3   0  -7    8.68    0.84 
   3   0   7    8.15    0.86 
   3   0   7   10.61    1.20 
   3   0   7    8.61    1.01 
   3   0   7    8.82    0.89 
  -4   0  -7    2.70    0.33 
   4   0   7    3.27    0.55 
   4   0   7    2.79    0.48 
   4   0   7    4.04    0.79 
   4   0   7    3.75    0.54 
  -5   0  -7    3.63    0.69 
   5   0   7    5.41    0.71 
   5   0   7    4.12    0.61 
   5   0   7    4.70    0.89 
   5   0   7    5.16    0.64 
  -6   0  -7   -0.03    0.23 
   6   0   7    0.80    0.30 
   6   0   7   -0.07    0.21 
   6   0   7    0.19    0.34 
  -7   0  -7    1.64    0.51 
   7   0   7    1.67    0.39 
   8   0   7   -0.31    0.51 
   8   0   7    0.53    0.28 
   6  -1  -7    1.85    0.57 
   6  -1  -7    2.20    0.70 
   5  -1  -7    0.34    0.34 
   5  -1  -7    0.24    0.41 
   4  -1  -7    5.49    0.94 
   4  -1  -7    5.56    0.89 
   4  -1  -7    5.98    0.88 
  -4   1   7    6.75    0.86 
   3  -1  -7    0.98    0.40 
   3  -1  -7    1.02    0.40 
   3  -1  -7    0.95    0.41 
  -3   1   7    1.09    0.40 
   2  -1  -7    5.66    0.82 
  -2   1   7    6.56    0.63 
  -2   1   7    5.24    0.81 
   1  -1  -7    1.11    0.35 
   1  -1  -7    1.12    0.36 
  -1   1   7    0.85    0.25 
  -1   1   7    0.70    0.29 
  -1   1   7    0.98    0.33 
   0  -1  -7    0.29    0.21 
   0  -1  -7    0.16    0.20 
   0   1   7    0.29    0.21 
   0   1   7    0.47    0.21 
   0   1   7    0.01    0.18 
  -1  -1  -7    5.88    0.71 
  -1  -1  -7    3.98    0.56 
   1   1   7    5.07    0.69 
   1   1   7    4.72    0.65 
   1   1   7    6.50    0.77 
   1   1   7    4.68    0.68 
   1   1   7    4.43    0.67 
  -2  -1  -7    1.25    0.32 
  -2  -1  -7    0.75    0.22 
   2   1   7    1.13    0.33 
   2   1   7    1.11    0.30 
   2   1   7    0.90    0.31 
   2   1   7    0.87    0.28 
  -3  -1  -7   18.81    1.52 
   3   1   7   20.60    1.73 
   3   1   7   18.33    1.56 
   3   1   7   19.84    1.58 
   3   1   7   17.72    1.59 
  -4  -1  -7    0.33    0.13 
  -4  -1  -7    0.53    0.14 
  -4  -1  -7    0.88    0.22 
   4   1   7    0.66    0.35 
   4   1   7    0.65    0.24 
   4   1   7    0.35    0.23 
   4   1   7    0.38    0.22 
  -5  -1  -7   12.59    1.14 
   5   1   7   12.11    1.05 
   5   1   7   11.08    1.07 
   5   1   7   10.69    1.04 
   5   1   7   12.27    1.52 
  -6  -1  -7    0.24    0.23 
   6   1   7   -0.31    0.37 
   6   1   7   -0.18    0.19 
   6   1   7    0.06    0.19 
   7   1   7    1.54    0.35 
   7   1   7    0.50    0.56 
   8   1   7    0.26    0.22 
   8   1   7   -0.80    0.50 
   6  -2  -7   -0.10    0.42 
   5  -2  -7    0.27    0.41 
   4  -2  -7    0.48    0.41 
  -4   2   7    0.32    0.30 
   3  -2  -7    0.62    0.36 
   3  -2  -7   -0.09    0.36 
  -3   2   7    0.53    0.32 
   2  -2  -7   -0.16    0.24 
  -2   2   7    0.09    0.23 
  -2   2   7    0.04    0.17 
   1  -2  -7    2.60    0.55 
   1  -2  -7    2.02    0.50 
  -1   2   7    4.07    0.55 
  -1   2   7    2.62    0.54 
   0  -2  -7    3.32    0.51 
   0  -2  -7    1.97    0.44 
   0   2   7    1.87    0.43 
   0   2   7    2.36    0.46 
   0   2   7    2.18    0.41 
  -1  -2  -7    3.05    0.50 
  -1  -2  -7    3.44    0.52 
   1   2   7    3.14    0.49 
   1   2   7    1.79    0.40 
   1   2   7    2.94    0.49 
   1   2   7    2.50    0.49 
  -2  -2  -7    5.22    0.66 
   2   2   7    4.97    0.65 
   2   2   7    5.60    0.68 
   2   2   7    5.59    0.75 
   2   2   7    4.29    0.67 
  -3  -2  -7    2.07    0.38 
   3   2   7    1.00    0.31 
   3   2   7    1.15    0.36 
   3   2   7    1.51    0.32 
   3   2   7    1.79    0.37 
  -4  -2  -7    6.48    0.65 
  -4  -2  -7    5.65    0.53 
   4   2   7    5.79    0.91 
   4   2   7    5.55    0.69 
   4   2   7    6.40    0.71 
   4   2   7    5.82    0.76 
  -5  -2  -7   11.44    0.94 
   5   2   7    9.37    1.26 
   5   2   7   10.44    0.97 
   5   2   7   10.39    0.97 
   5   2   7    9.36    0.96 
   6   2   7    2.70    0.44 
   6   2   7    2.14    0.61 
   6   2   7    1.93    0.37 
   7   2   7    4.51    0.60 
   7   2   7    5.81    1.07 
   8   2   7    0.46    0.20 
   8   2   7   -0.16    0.48 
   6  -3  -7    0.79    0.51 
   5  -3  -7    1.42    0.54 
   4  -3  -7   21.23    2.08 
  -4   3   7   23.65    2.00 
   3  -3  -7    2.97    0.73 
   3  -3  -7    1.85    0.58 
  -3   3   7    2.44    0.54 
   2  -3  -7   62.58    5.12 
  -2   3   7   75.25    5.01 
  -2   3   7   65.34    5.10 
   1  -3  -7    2.05    0.54 
   1  -3  -7    2.51    0.55 
  -1   3   7    3.54    0.53 
  -1   3   7    2.96    0.62 
   0  -3  -7   63.44    4.84 
   0  -3  -7   74.87    4.84 
   0   3   7   60.69    4.80 
   0   3   7   62.12    4.88 
   0   3   7   58.86    4.74 
   0   3   7   71.14    4.80 
  -1  -3  -7   -0.26    0.17 
   1   3   7    0.23    0.20 
   1   3   7    0.04    0.20 
   1   3   7    0.28    0.22 
   1   3   7   -0.07    0.16 
  -2  -3  -7    3.95    0.57 
   2   3   7    3.18    0.56 
   2   3   7    3.50    0.60 
   2   3   7    4.10    0.60 
   2   3   7    4.19    0.58 
  -3  -3  -7    1.52    0.35 
   3   3   7    1.27    0.33 
   3   3   7    2.28    0.42 
   3   3   7    2.20    0.50 
   3   3   7    1.26    0.38 
  -4  -3  -7    0.65    0.16 
  -4  -3  -7    0.77    0.20 
   4   3   7    0.53    0.24 
   4   3   7    0.41    0.22 
   4   3   7    0.14    0.23 
   4   3   7    0.59    0.25 
   5   3   7    0.04    0.19 
   5   3   7    0.55    0.37 
   5   3   7    0.07    0.19 
   5   3   7    0.41    0.24 
   6   3   7    0.67    0.25 
   6   3   7    0.70    0.24 
   6   3   7    0.62    0.40 
   6   3   7    0.58    0.24 
   7   3   7    0.00    0.38 
   7   3   7    0.10    0.18 
   7   3   7    0.11    0.19 
   8   3   7   -0.61    0.43 
   8   3   7    0.38    0.22 
   5  -4  -7    0.59    0.46 
   4  -4  -7    1.91    0.65 
   3  -4  -7    2.15    0.62 
  -3   4   7    2.00    0.54 
   2  -4  -7   14.68    1.60 
   2  -4  -7   18.20    1.60 
  -2   4   7   15.34    1.55 
   1  -4  -7    4.60    0.79 
  -1   4   7    5.04    0.71 
  -1   4   7    3.46    0.64 
  -1   4   7    4.66    0.81 
   0  -4  -7   33.05    2.65 
   0   4   7   29.34    2.52 
   0   4   7   35.65    2.61 
   0   4   7   31.91    2.67 
  -1  -4  -7    1.26    0.41 
   1   4   7    0.57    0.29 
   1   4   7    0.46    0.31 
   1   4   7    1.82    0.42 
   1   4   7    1.03    0.35 
  -2  -4  -7    8.21    0.85 
  -2  -4  -7   10.89    1.02 
   2   4   7   11.61    1.06 
   2   4   7   11.26    1.02 
   2   4   7    7.42    1.06 
   2   4   7    8.87    0.97 
  -3  -4  -7    0.05    0.17 
  -3  -4  -7   -0.01    0.10 
   3   4   7    0.01    0.20 
   3   4   7    0.03    0.21 
   3   4   7   -0.02    0.24 
   3   4   7   -0.01    0.22 
  -4  -4  -7    2.68    0.43 
   4   4   7    3.28    0.54 
   4   4   7    2.66    0.48 
   4   4   7    1.72    0.46 
   4   4   7    3.25    0.57 
   5   4   7   -0.20    0.26 
   5   4   7    0.41    0.25 
   5   4   7    0.32    0.24 
   5   4   7   -0.13    0.20 
   6   4   7    0.55    0.27 
   6   4   7    0.76    0.38 
   6   4   7    0.97    0.32 
   7   4   7   -0.09    0.22 
   7   4   7   -0.13    0.19 
   7   4   7   -0.07    0.38 
   8   4   7    0.50    0.47 
   8   4   7    0.04    0.21 
   8   4   7    0.07    0.21 
   4  -5  -7    0.63    0.53 
   3  -5  -7    0.02    0.45 
  -3   5   7    0.08    0.33 
   2  -5  -7   -0.11    0.36 
  -2   5   7    0.06    0.29 
  -2   5   7   -0.07    0.26 
   1  -5  -7    2.88    0.67 
  -1   5   7    2.50    0.56 
  -1   5   7    3.33    0.63 
  -1   5   7    4.18    0.73 
   0  -5  -7    1.08    0.41 
   0   5   7    0.80    0.37 
   0   5   7    1.15    0.39 
   0   5   7    0.73    0.38 
  -1  -5  -7   10.02    1.04 
  -1  -5  -7   10.63    1.24 
   1   5   7   13.24    1.13 
   1   5   7   10.60    1.26 
   1   5   7    8.39    1.09 
   1   5   7   11.76    1.37 
  -2  -5  -7    0.08    0.18 
  -2  -5  -7   -0.06    0.27 
   2   5   7   -0.02    0.23 
   2   5   7    0.02    0.26 
   2   5   7   -0.05    0.20 
   2   5   7    0.25    0.31 
  -3  -5  -7    9.75    0.83 
  -3  -5  -7   10.04    1.02 
   3   5   7    8.74    1.13 
   3   5   7    8.52    1.06 
   3   5   7   10.66    1.09 
   3   5   7    9.69    1.13 
  -4  -5  -7    0.38    0.24 
   4   5   7    0.01    0.22 
   4   5   7   -0.01    0.23 
   4   5   7   -0.30    0.23 
   4   5   7   -0.16    0.21 
  -5  -5  -7    3.02    0.37 
   5   5   7    2.37    0.52 
   5   5   7    3.90    0.67 
   5   5   7    3.50    0.65 
   6   5   7    0.15    0.26 
   6   5   7    0.17    0.26 
   6   5   7    0.35    0.32 
   7   5   7    0.35    0.39 
   7   5   7    0.24    0.27 
   7   5   7    0.09    0.25 
   8   5   7   -0.45    0.23 
   8   5   7    0.05    0.28 
   8   5   7   -0.25    0.44 
   4  -6  -7   -0.08    0.49 
   3  -6  -7    1.07    0.58 
  -3   6   7    1.39    0.61 
   2  -6  -7    0.01    0.45 
  -2   6   7    0.58    0.42 
  -2   6   7    0.38    0.54 
   1  -6  -7    3.96    0.84 
  -1   6   7    2.44    0.59 
  -1   6   7    2.61    0.72 
   0  -6  -7    0.49    0.44 
   0   6   7    0.58    0.35 
   0   6   7    0.42    0.34 
   0   6   7   -0.11    0.25 
  -1  -6  -7    0.46    0.34 
   1   6   7    0.11    0.30 
   1   6   7    0.04    0.29 
   1   6   7    0.56    0.31 
  -2  -6  -7    0.27    0.21 
  -2  -6  -7    0.08    0.32 
   2   6   7    0.21    0.30 
   2   6   7   -0.10    0.32 
   2   6   7    0.06    0.23 
   2   6   7   -0.05    0.30 
  -3  -6  -7    0.98    0.41 
   3   6   7    1.71    0.51 
   3   6   7    0.90    0.41 
   3   6   7    1.17    0.42 
   3   6   7    1.72    0.48 
   4   6   7    0.10    0.37 
   4   6   7    0.13    0.24 
   4   6   7   -0.33    0.24 
   5   6   7    0.81    0.45 
   5   6   7    2.63    0.64 
   5   6   7    2.27    0.52 
   6   6   7   -0.24    0.35 
   6   6   7    0.49    0.32 
   6   6   7    0.41    0.37 
   7   6   7    0.71    0.41 
   7   6   7    0.33    0.33 
   7   6   7   -0.11    0.35 
   3  -7  -7    0.32    0.60 
   2  -7  -7    1.41    0.70 
  -2   7   7    0.66    0.48 
   1  -7  -7    1.16    0.63 
  -1   7   7    1.29    0.53 
  -1   7   7    0.96    0.47 
   0  -7  -7    5.56    1.01 
   0   7   7    3.28    0.81 
   0   7   7    6.45    0.99 
   0   7   7    5.99    0.92 
  -1  -7  -7    8.64    1.17 
   1   7   7    5.35    0.96 
   1   7   7    3.04    0.67 
   1   7   7    5.57    0.80 
  -2  -7  -7    6.34    0.96 
   2   7   7    5.15    0.81 
   2   7   7    4.94    0.92 
   2   7   7    4.93    0.89 
   3   7   7    5.60    0.80 
   3   7   7    7.65    1.13 
   3   7   7    3.81    0.81 
   4   7   7    0.71    0.47 
   4   7   7    0.95    0.44 
   4   7   7    0.50    0.36 
   5   7   7    1.23    0.50 
   5   7   7    1.34    0.53 
   5   7   7    1.12    0.40 
   6   7   7    0.55    0.40 
   6   7   7   -0.24    0.29 
   6   7   7    0.28    0.34 
   7   7   7    0.02    0.35 
   7   7   7    0.54    0.34 
   7   7   7   -0.68    0.37 
   1  -8  -7    1.48    0.67 
  -1   8   7    0.20    0.45 
   0  -8  -7    1.13    0.66 
   0   8   7    1.07    0.51 
   0   8   7    0.81    0.50 
  -1  -8  -7    0.54    0.57 
   1   8   7    0.51    0.44 
   1   8   7   -0.28    0.33 
   1   8   7    0.46    0.37 
   2   8   7    5.25    1.00 
   2   8   7    5.14    0.96 
   2   8   7    4.12    0.79 
   3   8   7    0.39    0.33 
   3   8   7   -0.59    0.44 
   3   8   7    0.18    0.38 
   4   8   7    2.48    0.55 
   4   8   7    2.94    0.81 
   4   8   7    3.39    0.80 
   5   8   7   -0.27    0.44 
   5   8   7    0.01    0.32 
   5   8   7   -0.03    0.32 
   6   8   7    0.31    0.39 
   6   8   7    0.14    0.38 
   6   8   7    0.64    0.50 
   1   9   7    1.07    0.67 
   1   9   7    1.39    0.63 
   2   9   7    0.34    0.48 
   2   9   7   -0.45    0.36 
   2   9   7    0.32    0.62 
   3   9   7    0.86    0.67 
   3   9   7    0.38    0.38 
   3   9   7    0.86    0.68 
   4   9   7   -0.16    0.60 
   4   9   7    0.35    0.35 
   4   9   7   -0.20    0.45 
   4   7  -8   -0.12    0.48 
   3   7  -8    0.25    0.45 
   3   7  -8   -0.08    0.58 
   3   7  -8    0.31    0.49 
  -3  -7   8    0.95    0.64 
   2   7  -8    0.24    0.45 
   2   7  -8    0.23    0.47 
   2   7  -8    0.38    0.45 
  -2  -7   8    0.19    0.46 
   1   7  -8    0.88    0.59 
   1   7  -8    0.63    0.53 
   1   7  -8    0.34    0.53 
  -1  -7   8    1.71    0.70 
   0   7  -8    0.02    0.37 
   0   7  -8   -0.18    0.40 
   0   7  -8    0.61    0.53 
   0  -7   8    0.54    0.61 
  -1   7  -8    1.06    0.56 
   1  -7   8    2.33    0.82 
  -2   7  -8    0.28    0.73 
  -2   7  -8    0.29    0.51 
   2  -7   8    0.55    0.69 
   5   6  -8    1.36    0.76 
   5   6  -8   -0.03    0.52 
   5   6  -8   -0.03    0.43 
   4   6  -8    0.24    0.52 
   4   6  -8   -0.18    0.58 
   4   6  -8    0.12    0.39 
   3   6  -8    0.68    0.54 
   3   6  -8    0.80    0.53 
   3   6  -8    0.55    0.57 
  -3  -6   8    1.20    0.58 
   2   6  -8    1.15    0.54 
   2   6  -8    1.11    0.55 
   2   6  -8    1.17    0.62 
  -2  -6   8    0.88    0.54 
   1   6  -8    0.49    0.38 
   1   6  -8    0.89    0.57 
   1   6  -8    1.13    0.56 
  -1  -6   8    0.65    0.53 
  -1  -6   8    0.92    0.54 
   0   6  -8    6.57    1.03 
   0   6  -8    5.80    0.89 
   0   6  -8    6.64    1.10 
   0  -6   8    6.28    1.15 
   0  -6   8    6.84    0.97 
  -1   6  -8    0.06    0.31 
  -1   6  -8    0.49    0.45 
  -1   6  -8    0.19    0.36 
   1  -6   8    1.04    0.56 
  -2   6  -8    4.40    0.86 
   2  -6   8    2.49    0.85 
  -3   6  -8   -0.33    0.57 
   3  -6   8    0.12    0.56 
  -4   6  -8   -0.31    0.66 
   4  -6   8    0.56    0.59 
   5   5  -8    0.37    0.49 
   5   5  -8    0.72    0.50 
   5   5  -8    0.35    0.65 
   4   5  -8    1.37    0.58 
   4   5  -8    2.26    0.80 
   4   5  -8    1.66    0.65 
   3   5  -8   -0.31    0.42 
   3   5  -8    0.18    0.41 
   3   5  -8    0.00    0.32 
  -3  -5   8   -0.01    0.35 
   2   5  -8    1.96    0.56 
   2   5  -8    1.55    0.57 
   2   5  -8    1.95    0.65 
  -2  -5   8    0.68    0.46 
   1   5  -8    1.10    0.49 
   1   5  -8    1.33    0.51 
   1   5  -8    0.18    0.35 
  -1  -5   8    0.41    0.41 
  -1  -5   8    0.88    0.36 
   0   5  -8    0.59    0.44 
   0   5  -8    0.16    0.31 
   0   5  -8    0.58    0.38 
   0  -5   8    0.25    0.42 
   0  -5   8    0.17    0.30 
  -1   5  -8    1.61    0.49 
  -1   5  -8    1.29    0.54 
  -1   5  -8    2.14    0.49 
   1  -5   8    1.58    0.61 
  -2   5  -8   -0.19    0.39 
  -2   5  -8    0.03    0.30 
   2  -5   8    0.04    0.39 
  -3   5  -8   -0.06    0.44 
  -3   5  -8    0.10    0.37 
   3  -5   8    0.78    0.55 
  -4   5  -8    0.22    0.55 
   4  -5   8   -0.01    0.49 
  -5   5  -8   -0.21    0.51 
   5  -5   8    0.96    0.59 
   6   4  -8    0.10    0.40 
   6   4  -8   -0.08    0.46 
   6   4  -8   -0.94    0.55 
   5   4  -8    0.66    0.44 
   5   4  -8    0.17    0.60 
   5   4  -8    0.79    0.53 
   4   4  -8    0.26    0.36 
   4   4  -8    0.98    0.50 
   4   4  -8   -0.20    0.44 
  -4  -4   8    1.33    0.46 
   3   4  -8    0.25    0.41 
   3   4  -8    0.31    0.34 
   3   4  -8    0.40    0.47 
  -3  -4   8    0.47    0.38 
   2   4  -8    4.54    0.91 
   2   4  -8    6.41    1.09 
  -2  -4   8    4.92    0.95 
  -2  -4   8    7.85    0.57 
   1   4  -8    0.53    0.41 
   1   4  -8    0.50    0.39 
   1   4  -8    0.33    0.36 
  -1  -4   8    0.68    0.38 
  -1  -4   8    0.56    0.26 
   0   4  -8   13.13    1.45 
   0   4  -8   12.66    1.22 
   0   4  -8   12.38    1.42 
   0  -4   8   10.19    1.13 
   0  -4   8   11.60    1.50 
  -1   4  -8    5.27    0.74 
  -1   4  -8    4.26    0.76 
  -1   4  -8    4.75    0.80 
   1  -4   8    5.23    0.85 
   1  -4   8    6.51    1.06 
  -2   4  -8    3.05    0.65 
  -2   4  -8    3.71    0.69 
   2  -4   8    4.26    0.82 
   2  -4   8    3.52    0.81 
  -3   4  -8    4.74    0.86 
  -3   4  -8    6.79    0.94 
   3  -4   8    5.78    1.02 
  -4   4  -8    0.77    0.58 
   4  -4   8    1.12    0.58 
  -5   4  -8   -0.13    0.45 
   5  -4   8    0.71    0.55 
  -6   4  -8   -0.03    0.52 
   6  -4   8    0.16    0.53 
   6   3  -8    0.10    0.41 
   6   3  -8    0.31    0.40 
   6   3  -8    0.21    0.58 
   5   3  -8    1.32    0.68 
   5   3  -8    1.73    0.52 
   5   3  -8    1.84    0.58 
   4   3  -8    3.13    0.73 
   4   3  -8    2.38    0.73 
   4   3  -8    2.89    0.66 
  -4  -3   8    2.96    0.71 
   3   3  -8    4.80    0.83 
   3   3  -8    2.36    0.64 
   3   3  -8    3.38    0.78 
  -3  -3   8    3.22    0.70 
   2   3  -8   24.85    2.24 
  -2  -3   8   25.60    2.24 
  -2  -3   8   24.73    1.81 
   1   3  -8    1.82    0.52 
   1   3  -8    2.15    0.55 
   1   3  -8    0.97    0.47 
  -1  -3   8    2.08    0.38 
  -1  -3   8    1.34    0.47 
   0   3  -8   86.94    5.97 
   0   3  -8   83.99    6.04 
   0   3  -8   82.65    6.04 
   0  -3   8   79.43    6.10 
   0  -3   8   72.85    5.88 
  -1   3  -8   -0.03    0.24 
  -1   3  -8    0.22    0.32 
   1  -3   8   -0.06    0.29 
   1  -3   8    0.38    0.32 
   1  -3   8   -0.03    0.24 
   1  -3   8    0.38    0.38 
  -2   3  -8   22.88    2.06 
  -2   3  -8   25.22    2.09 
   2  -3   8   24.61    2.22 
   2  -3   8   22.98    2.15 
   2  -3   8   26.00    2.18 
  -3   3  -8    1.10    0.42 
  -3   3  -8    0.51    0.29 
   3  -3   8    0.70    0.39 
   3  -3   8    1.05    0.49 
  -4   3  -8    7.15    0.91 
  -4   3  -8    6.87    1.17 
   4  -3   8    7.71    1.11 
  -5   3  -8    0.24    0.41 
   5  -3   8    0.50    0.39 
  -6   3  -8    1.97    0.73 
   6  -3   8    1.36    0.62 
   6   2  -8   -0.29    0.45 
   6   2  -8    0.49    0.40 
   6   2  -8   -0.24    0.47 
   5   2  -8    3.26    0.83 
   5   2  -8    3.07    0.72 
   5   2  -8    3.11    0.76 
   4   2  -8   -0.35    0.26 
   4   2  -8    0.31    0.41 
   4   2  -8   -0.03    0.35 
  -4  -2   8   -0.44    0.26 
   3   2  -8   10.05    1.35 
   3   2  -8    9.28    1.23 
   3   2  -8   11.16    1.35 
  -3  -2   8   13.30    1.43 
   2   2  -8    0.06    0.29 
   2   2  -8   -0.09    0.29 
   2   2  -8   -0.18    0.25 
  -2  -2   8    0.03    0.22 
  -2  -2   8    0.08    0.10 
   1   2  -8   10.49    1.27 
   1   2  -8   12.81    1.21 
   1   2  -8    9.26    1.10 
  -1  -2   8    9.98    0.93 
  -1  -2   8   13.63    1.42 
   0   2  -8    1.97    0.50 
   0   2  -8    3.26    0.58 
   0   2  -8    1.28    0.40 
   0  -2   8    1.84    0.42 
   0  -2   8    2.02    0.55 
   0  -2   8    1.28    0.46 
  -1   2  -8    0.81    0.33 
  -1   2  -8    0.80    0.39 
   1  -2   8    0.75    0.40 
   1  -2   8    0.47    0.41 
   1  -2   8    1.06    0.37 
   1  -2   8    0.40    0.29 
  -2   2  -8    8.70    1.04 
  -2   2  -8    8.77    1.02 
   2  -2   8    7.16    1.03 
   2  -2   8    8.83    0.94 
   2  -2   8    8.93    1.11 
   2  -2   8    8.15    1.09 
  -3   2  -8    1.63    0.40 
  -3   2  -8    0.48    0.24 
   3  -2   8    1.87    0.47 
   3  -2   8    0.84    0.33 
   3  -2   8    0.67    0.33 
   3  -2   8    0.59    0.39 
   3  -2   8    1.36    0.47 
   4  -2   8    5.38    0.91 
   4  -2   8    7.60    1.26 
   4  -2   8    5.71    0.84 
  -5   2  -8    1.96    0.67 
   5  -2   8    1.98    0.58 
  -6   2  -8    0.80    0.50 
   6  -2   8    1.42    0.47 
  -7   2  -8    0.91    0.54 
   7  -2   8   -0.11    0.39 
   6   1  -8    0.23    0.43 
   6   1  -8    0.40    0.49 
   5   1  -8    0.65    0.43 
   5   1  -8   -0.43    0.37 
   4   1  -8    1.15    0.45 
   4   1  -8    0.90    0.43 
   4   1  -8    0.99    0.50 
  -4  -1   8    1.10    0.40 
   3   1  -8    2.76    0.59 
   3   1  -8    3.87    0.76 
   3   1  -8    2.72    0.62 
  -3  -1   8    3.57    0.46 
  -3  -1   8    3.32    0.64 
   2   1  -8    4.13    0.73 
   2   1  -8    3.59    0.58 
   2   1  -8    4.11    0.69 
   2   1  -8    3.65    0.68 
  -2  -1   8    3.23    0.68 
  -2  -1   8    5.18    0.47 
   1   1  -8   12.54    1.31 
   1   1  -8   14.35    1.33 
   1   1  -8   11.51    1.63 
   1   1  -8   12.31    1.31 
  -1  -1   8   12.46    1.29 
  -1  -1   8   14.09    1.12 
   0   1  -8    7.25    0.92 
   0   1  -8    6.54    0.87 
   0  -1   8    5.72    0.90 
   0  -1   8    6.51    0.84 
   0  -1   8    7.26    0.85 
  -1   1  -8   13.72    1.30 
  -1   1  -8   14.12    1.28 
   1  -1   8   14.81    1.36 
   1  -1   8   12.43    1.29 
   1  -1   8   13.05    1.28 
   1  -1   8   12.47    1.27 
  -2   1  -8    0.53    0.25 
  -2   1  -8    0.12    0.21 
   2  -1   8   -0.12    0.21 
   2  -1   8    0.40    0.30 
   2  -1   8    1.67    0.39 
   2  -1   8    0.01    0.24 
   2  -1   8    0.02    0.22 
  -3   1  -8    2.36    0.44 
   3  -1   8    2.73    0.58 
   3  -1   8    3.27    0.58 
   3  -1   8    1.16    0.37 
   3  -1   8    2.23    0.44 
   3  -1   8    2.46    0.59 
  -4   1  -8    5.31    0.63 
   4  -1   8    5.58    0.71 
   4  -1   8    6.27    0.89 
   4  -1   8    6.08    0.81 
   4  -1   8    6.33    1.00 
   4  -1   8    6.12    0.81 
  -5   1  -8    0.23    0.29 
   5  -1   8   -0.16    0.32 
   5  -1   8    0.08    0.29 
   5  -1   8    0.16    0.35 
  -6   1  -8    3.23    0.73 
   6  -1   8    3.88    0.70 
  -7   1  -8   -0.04    0.35 
   7  -1   8    0.22    0.32 
   6   0  -8   -0.43    0.43 
   6   0  -8   -0.17    0.50 
   5   0  -8    0.41    0.49 
   5   0  -8    1.07    0.62 
   4   0  -8    0.11    0.39 
   4   0  -8   -0.44    0.34 
  -4   0   8    0.13    0.29 
   3   0  -8    3.27    0.68 
   3   0  -8    2.51    0.59 
   3   0  -8    2.38    0.66 
  -3   0   8    3.76    0.67 
  -3   0   8    3.23    0.48 
   2   0  -8    0.71    0.42 
   2   0  -8    1.46    0.46 
   2   0  -8    1.06    0.47 
  -2   0   8    1.07    0.40 
  -2   0   8    1.29    0.28 
   1   0  -8    0.54    0.36 
   1   0  -8    0.48    0.31 
  -1   0   8    0.50    0.21 
  -1   0   8    0.49    0.32 
   0   0  -8   13.66    1.30 
   0   0  -8   14.50    1.26 
   0   0   8   13.93    1.32 
   0   0   8   12.54    1.19 
   0   0   8   12.96    1.26 
  -1   0  -8    2.32    0.50 
   1   0   8    2.75    0.49 
   1   0   8    2.82    0.57 
   1   0   8    2.76    0.56 
  -2   0  -8   17.30    1.32 
   2   0   8   13.40    1.31 
   2   0   8   11.65    1.23 
   2   0   8   12.35    1.26 
   2   0   8   14.82    1.27 
   2   0   8   12.63    1.31 
  -3   0  -8    4.95    0.64 
   3   0   8    4.55    0.66 
   3   0   8    4.70    0.68 
   3   0   8    3.41    0.73 
   3   0   8    4.14    0.64 
   3   0   8    4.74    0.74 
  -4   0  -8    4.30    0.48 
   4   0   8    3.39    0.62 
   4   0   8    3.16    0.56 
   4   0   8    4.06    0.80 
   4   0   8    3.20    0.56 
  -5   0  -8    2.38    0.54 
   5   0   8    1.84    0.42 
   5   0   8    2.02    0.47 
   5   0   8    1.59    0.60 
  -6   0  -8    0.20    0.32 
   6   0   8    0.20    0.25 
   6   0   8   -0.09    0.41 
  -7   0  -8    0.56    0.40 
   7   0   8    0.41    0.31 
   7   0   8    0.18    0.55 
   8   0   8   -0.55    0.54 
   8   0   8    0.06    0.28 
   6  -1  -8    0.01    0.44 
   6  -1  -8   -0.10    0.46 
   5  -1  -8    0.23    0.43 
   5  -1  -8    0.00    0.38 
   4  -1  -8    0.60    0.43 
   4  -1  -8    0.28    0.40 
  -4   1   8    1.09    0.44 
   3  -1  -8    2.94    0.66 
   3  -1  -8    3.60    0.70 
  -3   1   8    2.73    0.59 
   2  -1  -8    1.63    0.50 
  -2   1   8    1.51    0.30 
  -2   1   8    0.90    0.34 
   1  -1  -8    9.66    1.09 
   1  -1  -8   11.02    1.23 
  -1   1   8    8.82    0.89 
  -1   1   8    9.60    1.12 
   0  -1  -8    0.40    0.25 
   0  -1  -8   -0.39    0.22 
   0   1   8    0.28    0.24 
   0   1   8   -0.07    0.19 
   0   1   8    0.12    0.19 
  -1  -1  -8    1.81    0.41 
   1   1   8    0.37    0.28 
   1   1   8    1.89    0.44 
   1   1   8    1.53    0.38 
  -2  -1  -8    2.77    0.51 
   2   1   8    3.09    0.56 
   2   1   8    2.92    0.55 
   2   1   8    2.90    0.50 
   2   1   8    2.58    0.51 
  -3  -1  -8    0.92    0.31 
   3   1   8    0.88    0.32 
   3   1   8    0.63    0.28 
   3   1   8    0.93    0.38 
   3   1   8    1.21    0.35 
  -4  -1  -8    5.69    0.58 
   4   1   8    5.15    0.93 
   4   1   8    6.20    0.81 
   4   1   8    6.49    0.80 
   4   1   8    5.26    0.71 
  -5  -1  -8    1.39    0.41 
   5   1   8    0.92    0.49 
   5   1   8    1.77    0.42 
   5   1   8    1.07    0.32 
   5   1   8    1.12    0.32 
  -6  -1  -8    2.30    0.50 
   6   1   8    2.30    0.47 
   6   1   8    1.88    0.69 
  -7  -1  -8    0.54    0.34 
   7   1   8    0.54    0.27 
   7   1   8    0.42    0.54 
   8   1   8    0.83    0.30 
   8   1   8   -0.10    0.54 
   6  -2  -8    0.41    0.53 
   5  -2  -8    0.56    0.43 
   4  -2  -8    9.07    1.20 
  -4   2   8    8.90    1.17 
   3  -2  -8    0.51    0.43 
   3  -2  -8   -0.30    0.43 
  -3   2   8    0.28    0.33 
   2  -2  -8   20.66    2.01 
  -2   2   8   21.50    2.01 
  -2   2   8   25.39    1.86 
   1  -2  -8   -0.27    0.31 
   1  -2  -8    1.12    0.44 
  -1   2   8   -0.16    0.21 
  -1   2   8    1.00    0.31 
   0  -2  -8   34.26    2.58 
   0  -2  -8   32.26    2.56 
   0   2   8   30.01    2.52 
   0   2   8   29.73    2.46 
   0   2   8   32.81    2.60 
  -1  -2  -8    1.89    0.46 
   1   2   8    0.73    0.28 
   1   2   8    0.69    0.30 
   1   2   8    1.09    0.36 
  -2  -2  -8    9.33    0.93 
   2   2   8    7.50    0.99 
   2   2   8   10.03    0.97 
   2   2   8    8.45    1.04 
   2   2   8    7.69    1.00 
  -3  -2  -8    0.60    0.26 
   3   2   8    1.22    0.39 
   3   2   8    0.70    0.29 
   3   2   8    1.20    0.35 
   3   2   8    0.96    0.32 
  -4  -2  -8    0.42    0.20 
   4   2   8    0.92    0.30 
   4   2   8    0.29    0.26 
   4   2   8    0.48    0.27 
   4   2   8    1.04    0.44 
  -5  -2  -8    2.37    0.42 
   5   2   8    1.75    0.39 
   5   2   8    2.32    0.47 
   5   2   8    1.75    0.55 
   5   2   8    3.01    0.52 
  -6  -2  -8    0.01    0.18 
   6   2   8    0.19    0.43 
   6   2   8    0.04    0.20 
   7   2   8    2.04    0.79 
   7   2   8    3.05    0.50 
   8   2   8   -0.28    0.21 
   8   2   8   -0.40    0.52 
   5  -3  -8   -0.07    0.48 
   4  -3  -8    0.44    0.43 
   3  -3  -8   -0.06    0.35 
  -3   3   8    0.50    0.40 
   2  -3  -8    1.45    0.51 
  -2   3   8    0.96    0.39 
   1  -3  -8    0.66    0.38 
  -1   3   8    0.55    0.36 
  -1   3   8    0.66    0.34 
   0  -3  -8    9.65    1.14 
   0   3   8   10.85    1.27 
   0   3   8   10.76    1.05 
  -1  -3  -8    0.73    0.36 
   1   3   8    1.02    0.34 
   1   3   8    0.90    0.34 
   1   3   8    0.52    0.30 
   1   3   8    0.49    0.28 
  -2  -3  -8    3.33    0.57 
   2   3   8    3.66    0.64 
   2   3   8    2.99    0.51 
   2   3   8    3.41    0.58 
   2   3   8    2.98    0.54 
  -3  -3  -8    0.91    0.30 
   3   3   8    1.55    0.38 
   3   3   8    2.20    0.41 
   3   3   8    1.89    0.42 
   3   3   8    1.73    0.46 
  -4  -3  -8   -0.06    0.17 
   4   3   8    0.08    0.19 
   4   3   8    0.30    0.23 
   4   3   8   -0.04    0.19 
   4   3   8    0.14    0.26 
  -5  -3  -8    0.39    0.13 
   5   3   8    0.22    0.25 
   5   3   8    0.14    0.23 
   5   3   8    0.55    0.37 
   5   3   8   -0.06    0.18 
   6   3   8    1.21    0.32 
   6   3   8    0.51    0.26 
   6   3   8    0.91    0.51 
   7   3   8    0.17    0.23 
   7   3   8    0.12    0.41 
   8   3   8    0.71    0.58 
   8   3   8    0.31    0.24 
   5  -4  -8   -0.04    0.52 
   4  -4  -8    0.55    0.54 
   3  -4  -8    0.02    0.49 
  -3   4   8    0.88    0.41 
   2  -4  -8   12.39    1.61 
  -2   4   8   14.35    1.37 
  -2   4   8   15.03    1.49 
   1  -4  -8    4.38    0.80 
  -1   4   8    4.15    0.69 
  -1   4   8    3.40    0.64 
  -1   4   8    3.72    0.71 
   0  -4  -8   93.55    6.59 
   0   4   8   82.65    6.45 
   0   4   8   96.15    6.51 
   0   4   8   83.15    6.60 
  -1  -4  -8    6.72    0.94 
   1   4   8    6.12    0.85 
   1   4   8    7.79    0.94 
   1   4   8    5.98    0.91 
   1   4   8    5.15    0.89 
  -2  -4  -8   69.76    5.29 
   2   4   8   66.46    5.29 
   2   4   8   80.20    5.38 
   2   4   8   68.66    5.40 
   2   4   8   74.70    5.34 
  -3  -4  -8    3.09    0.54 
   3   4   8    2.74    0.55 
   3   4   8    1.64    0.43 
   3   4   8    1.66    0.45 
   3   4   8    1.18    0.37 
  -4  -4  -8   18.76    1.56 
   4   4   8   21.39    1.80 
   4   4   8   18.57    1.70 
   4   4   8   19.00    1.68 
   4   4   8   18.02    1.65 
   5   4   8    0.09    0.25 
   5   4   8   -0.11    0.20 
   5   4   8   -0.19    0.26 
   6   4   8    2.47    0.47 
   6   4   8    1.79    0.44 
   6   4   8    1.68    0.60 
   7   4   8    0.13    0.44 
   7   4   8    0.10    0.24 
   7   4   8    0.17    0.21 
   8   4   8    0.05    0.23 
   8   4   8    0.13    0.51 
   8   4   8    0.34    0.28 
   4  -5  -8    1.15    0.61 
   3  -5  -8   -0.02    0.53 
  -3   5   8   -0.04    0.39 
   2  -5  -8   -0.11    0.44 
  -2   5   8    0.43    0.38 
   1  -5  -8    1.84    0.66 
  -1   5   8    1.36    0.43 
  -1   5   8    2.26    0.58 
  -1   5   8    0.90    0.39 
   0  -5  -8    2.20    0.62 
   0   5   8    4.05    0.69 
   0   5   8    2.07    0.58 
   0   5   8    2.77    0.55 
  -1  -5  -8    2.85    0.63 
   1   5   8    2.92    0.61 
   1   5   8    3.57    0.65 
   1   5   8    4.02    0.76 
  -2  -5  -8   14.60    1.30 
  -2  -5  -8    9.92    1.07 
   2   5   8   12.12    1.21 
   2   5   8   12.21    1.35 
   2   5   8   12.70    1.28 
   2   5   8   11.33    1.43 
  -3  -5  -8    2.25    0.51 
  -3  -5  -8    3.05    0.42 
   3   5   8    1.78    0.52 
   3   5   8    3.66    0.73 
   3   5   8    3.02    0.60 
   3   5   8    2.99    0.60 
  -4  -5  -8    9.83    1.06 
   4   5   8    6.68    1.06 
   4   5   8   10.51    1.21 
   4   5   8    8.95    1.08 
   5   5   8    0.95    0.40 
   5   5   8    0.59    0.36 
   5   5   8    0.74    0.37 
   6   5   8    2.06    0.50 
   6   5   8    1.44    0.53 
   6   5   8    2.51    0.55 
   7   5   8   -0.04    0.26 
   7   5   8   -0.16    0.38 
   7   5   8    0.40    0.30 
   3  -6  -8    0.73    0.69 
   2  -6  -8    1.11    0.61 
  -2   6   8    1.09    0.52 
   1  -6  -8   -0.20    0.46 
  -1   6   8    0.57    0.36 
  -1   6   8    0.17    0.36 
  -1   6   8    0.04    0.35 
   0  -6  -8    2.50    0.71 
   0   6   8    1.09    0.42 
   0   6   8    3.07    0.75 
   0   6   8    1.90    0.50 
  -1  -6  -8    0.28    0.39 
   1   6   8   -0.20    0.24 
   1   6   8   -0.18    0.31 
   1   6   8    0.07    0.31 
  -2  -6  -8   -0.09    0.22 
  -2  -6  -8    0.27    0.38 
   2   6   8    0.44    0.36 
   2   6   8   -0.23    0.28 
   2   6   8   -0.02    0.26 
  -3  -6  -8    2.90    0.60 
   3   6   8    2.64    0.55 
   3   6   8    3.10    0.70 
   3   6   8    1.32    0.44 
   4   6   8    0.24    0.29 
   4   6   8    0.24    0.32 
   4   6   8   -0.16    0.31 
   5   6   8    3.65    0.70 
   5   6   8    4.37    0.79 
   5   6   8    4.15    0.80 
   6   6   8   -0.33    0.27 
   6   6   8    0.52    0.35 
   6   6   8   -0.47    0.28 
   7   6   8    2.08    0.51 
   7   6   8    1.90    0.63 
   7   6   8    1.01    0.46 
   2  -7  -8    1.15    0.64 
  -2   7   8    1.05    0.43 
   1  -7  -8    1.37    0.70 
  -1   7   8    0.77    0.53 
  -1   7   8    0.36    0.69 
   0  -7  -8    0.37    0.50 
   0   7   8   -0.17    0.37 
   0   7   8    0.36    0.37 
   0   7   8   -0.26    0.33 
  -1  -7  -8    2.93    0.81 
   1   7   8    2.75    0.63 
   1   7   8    3.94    0.85 
   1   7   8    2.06    0.56 
  -2  -7  -8    0.53    0.54 
   2   7   8    0.32    0.35 
   2   7   8    0.34    0.40 
   2   7   8    0.14    0.33 
   3   7   8    4.03    0.69 
   3   7   8    3.82    0.77 
   3   7   8    3.01    0.73 
   4   7   8    0.19    0.33 
   4   7   8   -0.12    0.31 
   4   7   8    0.42    0.37 
   5   7   8    0.24    0.41 
   5   7   8    0.75    0.44 
   5   7   8    0.80    0.40 
   6   7   8   -0.13    0.35 
   6   7   8    0.01    0.29 
   6   7   8    0.06    0.31 
   1  -8  -8    0.42    0.67 
   0  -8  -8    2.14    0.82 
   0   8   8    1.16    0.58 
   0   8   8    0.88    0.52 
   1   8   8    0.21    0.39 
   1   8   8   -0.30    0.35 
   1   8   8   -0.05    0.41 
   2   8   8    1.04    0.50 
   2   8   8    0.91    0.57 
   2   8   8    1.38    0.52 
   3   8   8    0.28    0.37 
   3   8   8    0.41    0.44 
   3   8   8    1.01    0.53 
   4   8   8    1.98    0.67 
   4   8   8    1.70    0.63 
   4   8   8    2.25    0.55 
   5   8   8    0.61    0.50 
   5   8   8    1.22    0.49 
   5   8   8    0.95    0.56 
   2   7  -9    0.53    0.52 
   2   7  -9   -0.88    0.49 
   2   7  -9   -0.10    0.49 
  -2  -7   9    0.31    0.42 
   1   7  -9   -0.26    0.48 
   1   7  -9    0.53    0.53 
   1   7  -9    0.25    0.53 
  -1  -7   9   -0.06    0.47 
   0   7  -9    0.55    0.54 
   0  -7   9    0.30    0.51 
  -1   7  -9    0.68    0.49 
   1  -7   9   -0.16    0.60 
   4   6  -9   -0.01    0.44 
   4   6  -9   -0.51    0.50 
   4   6  -9   -0.35    0.63 
   3   6  -9    0.49    0.52 
   3   6  -9    0.02    0.54 
   3   6  -9   -0.08    0.44 
  -3  -6   9    0.42    0.45 
   2   6  -9    0.34    0.47 
   2   6  -9    0.31    0.49 
   2   6  -9   -0.19    0.39 
  -2  -6   9   -0.11    0.44 
   1   6  -9    0.70    0.53 
   1   6  -9    0.04    0.45 
   1   6  -9    0.53    0.49 
  -1  -6   9    0.28    0.48 
   0   6  -9    1.56    0.52 
   0   6  -9    0.05    0.37 
   0   6  -9    1.73    0.60 
   0  -6   9    1.54    0.50 
   0  -6   9    1.06    0.62 
  -1   6  -9    1.00    0.51 
   1  -6   9    0.19    0.46 
   1  -6   9    0.47    0.43 
  -2   6  -9    0.32    0.50 
   2  -6   9    0.26    0.51 
  -3   6  -9   -0.24    0.61 
   3  -6   9    0.22    0.55 
   5   5  -9    0.26    0.57 
   5   5  -9    0.66    0.48 
   5   5  -9    0.21    0.70 
   4   5  -9    0.24    0.56 
   4   5  -9    0.28    0.47 
   4   5  -9    1.03    0.60 
   3   5  -9    1.94    0.75 
   3   5  -9    1.86    0.66 
   3   5  -9    2.07    0.63 
  -3  -5   9    3.35    0.82 
   2   5  -9    1.32    0.57 
   2   5  -9    1.57    0.61 
   2   5  -9    0.59    0.47 
  -2  -5   9    1.29    0.61 
   1   5  -9    1.09    0.55 
   1   5  -9    1.54    0.58 
   1   5  -9    2.04    0.61 
  -1  -5   9    3.23    0.53 
  -1  -5   9    2.42    0.70 
   0   5  -9    0.01    0.37 
   0   5  -9    0.44    0.37 
   0   5  -9    0.36    0.44 
   0  -5   9   -0.36    0.35 
   0  -5   9    0.18    0.37 
  -1   5  -9    2.06    0.63 
  -1   5  -9    1.89    0.60 
  -1   5  -9    1.97    0.46 
   1  -5   9    0.96    0.58 
   1  -5   9    2.03    0.61 
  -2   5  -9    0.45    0.40 
   2  -5   9   -0.05    0.50 
   3  -5   9    0.86    0.59 
  -4   5  -9    0.21    0.61 
   4  -5   9    0.68    0.60 
   5   4  -9    1.96    0.83 
   5   4  -9    1.60    0.65 
   5   4  -9    0.18    0.48 
   4   4  -9   -0.06    0.48 
   4   4  -9    0.39    0.39 
   4   4  -9    0.33    0.46 
   3   4  -9    2.98    0.72 
   3   4  -9    2.56    0.79 
   3   4  -9    1.64    0.65 
  -3  -4   9    3.41    0.72 
   2   4  -9    0.38    0.47 
   2   4  -9    1.15    0.50 
   2   4  -9    0.51    0.37 
  -2  -4   9    0.58    0.43 
  -2  -4   9    1.04    0.18 
   1   4  -9    6.24    1.01 
   1   4  -9    4.77    0.84 
   1   4  -9    3.21    0.71 
  -1  -4   9    4.58    0.65 
  -1  -4   9    5.91    1.05 
   0   4  -9    3.54    0.76 
   0   4  -9    2.98    0.64 
   0   4  -9    3.63    0.71 
   0  -4   9    3.05    0.78 
   0  -4   9    4.35    0.72 
  -1   4  -9   -0.15    0.33 
  -1   4  -9    1.22    0.49 
   1  -4   9    1.24    0.44 
   1  -4   9   -0.01    0.41 
  -2   4  -9    1.59    0.48 
  -2   4  -9    0.53    0.37 
   2  -4   9    1.52    0.59 
   2  -4   9    0.50    0.46 
  -3   4  -9    0.50    0.36 
   3  -4   9    0.91    0.52 
  -4   4  -9   -0.03    0.47 
   4  -4   9   -0.17    0.33 
  -5   4  -9    0.30    0.52 
   5  -4   9    0.15    0.47 
   6   3  -9    0.77    0.52 
   5   3  -9   -0.42    0.35 
   5   3  -9   -0.27    0.43 
   5   3  -9    0.73    0.61 
   4   3  -9    1.71    0.57 
   4   3  -9    1.66    0.57 
   4   3  -9    1.77    0.69 
  -4  -3   9    1.15    0.50 
   3   3  -9    1.44    0.58 
   3   3  -9    0.20    0.35 
   3   3  -9    1.28    0.58 
  -3  -3   9    1.74    0.52 
   2   3  -9    0.02    0.39 
   2   3  -9    0.10    0.33 
   2   3  -9    0.56    0.41 
  -2  -3   9    0.12    0.14 
  -2  -3   9   -0.05    0.31 
   1   3  -9    1.54    0.50 
   1   3  -9    0.71    0.45 
   1   3  -9    0.90    0.42 
  -1  -3   9    0.97    0.28 
  -1  -3   9    0.94    0.44 
   0   3  -9    9.73    1.24 
   0   3  -9   10.87    1.09 
   0   3  -9    9.20    1.21 
   0  -3   9    8.60    1.07 
   0  -3   9    6.98    1.12 
  -1   3  -9    0.06    0.25 
  -1   3  -9   -0.02    0.33 
   1  -3   9   -0.21    0.27 
   1  -3   9   -0.10    0.29 
  -2   3  -9   13.03    1.49 
  -2   3  -9   15.07    1.42 
   2  -3   9   14.12    1.65 
   2  -3   9   10.89    1.41 
   2  -3   9   14.58    1.39 
   2  -3   9   11.41    1.49 
  -3   3  -9    0.94    0.43 
  -3   3  -9    0.85    0.36 
   3  -3   9    1.21    0.52 
   3  -3   9    1.20    0.55 
   4  -3   9    8.16    1.26 
  -5   3  -9    1.95    0.69 
   5  -3   9    0.21    0.48 
  -6   3  -9    1.80    0.63 
   6  -3   9    3.12    0.80 
   6   2  -9   -0.40    0.49 
   6   2  -9   -0.16    0.58 
   5   2  -9    0.70    0.44 
   5   2  -9    0.16    0.51 
   5   2  -9   -0.05    0.46 
   4   2  -9    2.64    0.74 
   4   2  -9    0.99    0.46 
   4   2  -9    3.68    0.81 
  -4  -2   9    2.17    0.64 
   3   2  -9    2.46    0.66 
   3   2  -9    1.49    0.51 
   3   2  -9    3.16    0.75 
  -3  -2   9    1.97    0.56 
  -3  -2   9    3.03    0.39 
   2   2  -9    1.96    0.58 
   2   2  -9    0.90    0.39 
   2   2  -9    1.42    0.51 
  -2  -2   9    1.68    0.28 
  -2  -2   9    1.28    0.45 
   1   2  -9    5.49    0.92 
   1   2  -9    8.63    1.09 
   1   2  -9    7.39    1.07 
  -1  -2   9    5.54    0.94 
  -1  -2   9    6.82    0.77 
   0   2  -9    6.86    1.03 
   0   2  -9    9.11    1.04 
   0  -2   9    7.79    1.10 
   0  -2   9    5.32    0.82 
  -1   2  -9    4.38    0.77 
  -1   2  -9    5.03    0.83 
   1  -2   9    4.46    0.76 
   1  -2   9    5.15    0.90 
   1  -2   9    4.82    0.81 
  -2   2  -9   20.16    1.83 
   2  -2   9   20.32    1.92 
   2  -2   9   21.17    1.91 
   2  -2   9   22.76    2.01 
  -3   2  -9    0.45    0.31 
  -3   2  -9    1.03    0.37 
   3  -2   9    0.60    0.45 
   3  -2   9    0.77    0.39 
   3  -2   9    0.66    0.39 
   3  -2   9    0.85    0.40 
   4  -2   9   12.78    1.65 
   4  -2   9   14.21    1.64 
  -5   2  -9    0.34    0.37 
   5  -2   9    0.20    0.38 
  -6   2  -9    2.53    0.71 
   6  -2   9    3.93    0.78 
  -7   2  -9    0.07    0.41 
   7  -2   9   -0.15    0.41 
   6   1  -9   -0.12    0.58 
   6   1  -9    0.35    0.49 
   5   1  -9    1.06    0.56 
   5   1  -9    1.77    0.69 
   4   1  -9    0.43    0.39 
   4   1  -9   -0.21    0.42 
  -4  -1   9    0.24    0.31 
   3   1  -9    5.75    0.93 
   3   1  -9    5.36    0.95 
   3   1  -9    6.14    0.99 
  -3  -1   9    5.57    0.93 
  -3  -1   9    4.76    0.59 
   2   1  -9   -0.22    0.30 
   2   1  -9    0.46    0.35 
   2   1  -9   -0.08    0.33 
  -2  -1   9    0.17    0.15 
  -2  -1   9    0.39    0.35 
   1   1  -9   12.56    1.34 
   1   1  -9   14.62    1.44 
   1   1  -9   13.99    1.38 
  -1  -1   9   13.53    1.17 
  -1  -1   9   13.56    1.38 
   0   1  -9    0.51    0.34 
   0   1  -9    0.91    0.35 
   0  -1   9    0.69    0.33 
   0  -1   9    0.82    0.29 
  -1   1  -9   18.06    1.77 
  -1   1  -9   20.38    1.84 
   1  -1   9   23.18    1.86 
   1  -1   9   19.80    1.82 
   1  -1   9   22.42    1.93 
  -2   1  -9    0.39    0.30 
   2  -1   9    1.39    0.46 
   2  -1   9    1.06    0.41 
   2  -1   9    0.12    0.31 
   3  -1   9   11.66    1.27 
   3  -1   9   11.11    1.33 
   3  -1   9   12.93    1.47 
   3  -1   9   11.13    1.24 
   3  -1   9    8.71    1.06 
  -4   1  -9    1.36    0.35 
   4  -1   9    1.93    0.53 
   4  -1   9    1.80    0.51 
   4  -1   9    1.18    0.55 
   4  -1   9    1.79    0.51 
  -5   1  -9    1.00    0.45 
   5  -1   9    1.09    0.64 
   5  -1   9    0.36    0.38 
   6  -1   9    2.43    0.87 
  -7   1  -9   -0.06    0.38 
   7  -1   9   -0.09    0.60 
   7  -1   9    0.36    0.40 
   6   0  -9   -0.15    0.51 
   6   0  -9    0.14    0.61 
   5   0  -9   -0.17    0.44 
   5   0  -9   -0.28    0.49 
   4   0  -9    0.09    0.44 
   4   0  -9   -0.20    0.38 
  -4   0   9    0.09    0.33 
   3   0  -9    0.23    0.38 
   3   0  -9    0.44    0.40 
   3   0  -9    0.31    0.37 
  -3   0   9    0.11    0.18 
  -3   0   9    0.23    0.32 
   2   0  -9    0.66    0.39 
   2   0  -9    1.35    0.48 
   2   0  -9    1.05    0.45 
  -2   0   9    1.13    0.28 
  -2   0   9    0.94    0.43 
   1   0  -9    0.26    0.58 
   1   0  -9   -0.13    0.26 
  -1   0   9   -0.17    0.15 
  -1   0   9   -0.04    0.25 
   0   0  -9    6.39    0.91 
   0   0   9    6.65    0.97 
   0   0   9    6.81    1.01 
   0   0   9    4.88    0.73 
  -1   0  -9    3.85    0.67 
   1   0   9    2.99    0.59 
   1   0   9    3.40    0.59 
   1   0   9    3.32    0.65 
  -2   0  -9    5.45    0.76 
   2   0   9    4.89    0.78 
   2   0   9    5.62    0.78 
   2   0   9    6.26    0.90 
   3   0   9    5.35    0.88 
   3   0   9    7.40    0.92 
   3   0   9    6.43    1.02 
   3   0   9    8.41    1.02 
  -4   0  -9    2.77    0.43 
   4   0   9    1.37    0.48 
   4   0   9    1.85    0.46 
   4   0   9    1.40    0.46 
   4   0   9    1.43    0.54 
  -5   0  -9    1.48    0.46 
   5   0   9    1.99    0.69 
   5   0   9    2.42    0.55 
  -6   0  -9    0.44    0.34 
   6   0   9   -0.12    0.45 
   6   0   9    0.17    0.28 
  -7   0  -9   -0.19    0.33 
   7   0   9   -0.22    0.53 
   7   0   9    0.29    0.28 
   5  -1  -9    0.04    0.46 
   4  -1  -9    0.21    0.40 
  -4   1   9    0.58    0.41 
   3  -1  -9    0.16    0.40 
   3  -1  -9    0.99    0.51 
  -3   1   9    0.32    0.33 
  -3   1   9    0.16    0.23 
   2  -1  -9    0.04    0.31 
   2  -1  -9    0.41    0.36 
  -2   1   9   -0.16    0.13 
  -2   1   9   -0.13    0.22 
   1  -1  -9    7.55    1.08 
  -1   1   9    6.59    0.96 
  -1   1   9    7.58    0.88 
   0  -1  -9    0.39    0.33 
   0   1   9    0.12    0.38 
   0   1   9    0.10    0.21 
   0   1   9   -0.32    0.19 
  -1  -1  -9    8.21    1.01 
   1   1   9    9.10    1.12 
   1   1   9    9.39    1.06 
   1   1   9    6.63    0.91 
  -2  -1  -9    0.66    0.30 
   2   1   9    0.83    0.34 
   2   1   9    0.96    0.36 
   2   1   9    0.68    0.31 
  -3  -1  -9    0.04    0.21 
   3   1   9    0.09    0.26 
   3   1   9    0.23    0.27 
   3   1   9    0.75    0.34 
   3   1   9    0.23    0.25 
  -4  -1  -9    2.92    0.46 
   4   1   9    2.26    0.51 
   4   1   9    3.96    0.64 
   4   1   9    1.92    0.59 
   4   1   9    3.22    0.56 
  -5  -1  -9    1.00    0.36 
   5   1   9    0.68    0.39 
   5   1   9    1.59    0.62 
   5   1   9    0.52    0.30 
  -6  -1  -9    2.48    0.54 
   6   1   9    1.17    0.62 
   6   1   9    2.59    0.51 
   7   1   9    0.78    0.33 
   7   1   9    0.47    0.59 
   8   1   9    1.00    0.75 
   8   1   9    0.50    0.30 
   5  -2  -9    0.20    0.50 
   4  -2  -9    0.38    0.46 
   3  -2  -9    1.69    0.61 
  -3   2   9    4.73    0.82 
   2  -2  -9    1.78    0.92 
   2  -2  -9    0.65    0.42 
  -2   2   9    0.91    0.42 
  -2   2   9    1.33    0.35 
   1  -2  -9   -0.12    0.29 
  -1   2   9   -0.38    0.15 
  -1   2   9    0.12    0.33 
   0  -2  -9    5.18    0.80 
   0   2   9    2.97    0.62 
   0   2   9    3.54    0.61 
  -1  -2  -9    7.13    0.96 
   1   2   9    4.78    0.84 
   1   2   9    7.18    0.93 
   1   2   9    8.08    0.96 
  -2  -2  -9    2.08    0.47 
   2   2   9    3.12    0.59 
   2   2   9    2.28    0.55 
   2   2   9    2.93    0.60 
   3   2   9    8.59    1.11 
   3   2   9    7.12    0.91 
   3   2   9    6.33    0.93 
   3   2   9    9.37    1.06 
  -4  -2  -9    0.40    0.21 
   4   2   9    0.35    0.29 
   4   2   9    0.31    0.26 
   4   2   9    0.51    0.32 
   4   2   9    0.25    0.27 
  -5  -2  -9    1.61    0.38 
   5   2   9    0.17    0.36 
   5   2   9    0.60    0.30 
   5   2   9    1.57    0.50 
  -6  -2  -9    0.49    0.25 
   6   2   9    0.74    0.52 
   6   2   9    0.07    0.26 
   7   2   9   -0.05    0.21 
   7   2   9    0.05    0.50 
   8   2   9   -0.02    0.58 
   8   2   9   -0.13    0.23 
   5  -3  -9   -0.11    0.47 
   4  -3  -9    0.46    0.48 
   3  -3  -9    1.07    0.60 
  -3   3   9    1.97    0.59 
   2  -3  -9    8.35    1.25 
  -2   3   9    8.08    1.19 
  -2   3   9    9.29    1.06 
   1  -3  -9    5.88    0.92 
  -1   3   9    3.46    0.62 
  -1   3   9    4.77    0.82 
   0  -3  -9   40.96    3.08 
   0   3   9   37.23    3.08 
   0   3   9   35.23    2.93 
  -1  -3  -9    1.39    0.45 
   1   3   9    1.16    0.38 
   1   3   9    2.35    0.56 
   1   3   9    1.69    0.52 
  -2  -3  -9   23.96    2.08 
   2   3   9   23.45    2.08 
   2   3   9   27.15    2.13 
   2   3   9   25.22    2.15 
   2   3   9   24.03    2.08 
  -3  -3  -9    0.04    0.21 
   3   3   9    0.39    0.28 
   3   3   9    0.13    0.22 
   3   3   9    0.12    0.26 
   3   3   9    0.09    0.26 
  -4  -3  -9    9.88    0.95 
   4   3   9    9.11    1.21 
   4   3   9    9.49    1.08 
   4   3   9   10.20    1.14 
   4   3   9    8.99    1.14 
  -5  -3  -9   -0.14    0.13 
   5   3   9    0.11    0.33 
   5   3   9   -0.19    0.23 
   5   3   9    0.10    0.23 
   6   3   9    1.66    0.42 
   6   3   9    1.90    0.61 
   7   3   9    0.32    0.26 
   7   3   9   -0.72    0.43 
   8   3   9   -0.04    0.24 
   8   3   9   -0.16    0.54 
   4  -4  -9   -0.59    0.42 
   3  -4  -9    0.07    0.46 
  -3   4   9   -0.10    0.35 
   2  -4  -9   -0.10    0.45 
  -2   4   9    0.11    0.29 
  -2   4   9    0.29    0.32 
   1  -4  -9    0.27    0.44 
  -1   4   9    0.35    0.32 
  -1   4   9    0.54    0.36 
   0  -4  -9    1.57    0.51 
   0   4   9    0.84    0.40 
   0   4   9    1.27    0.43 
   0   4   9    1.41    0.49 
  -1  -4  -9    0.35    0.36 
   1   4   9    0.93    0.40 
   1   4   9    0.76    0.35 
   1   4   9    1.12    0.41 
  -2  -4  -9    7.97    1.04 
   2   4   9    6.85    1.06 
   2   4   9    8.49    1.01 
   2   4   9    7.99    1.02 
   2   4   9    9.20    1.14 
  -3  -4  -9    0.48    0.33 
   3   4   9    0.00    0.23 
   3   4   9    0.32    0.30 
   3   4   9    1.03    0.36 
   3   4   9    0.34    0.33 
  -4  -4  -9   10.56    0.97 
   4   4   9    7.33    1.08 
   4   4   9    8.10    1.07 
   4   4   9    8.52    1.02 
   5   4   9    0.10    0.36 
   5   4   9    0.38    0.30 
   5   4   9    0.04    0.27 
   6   4   9    2.26    0.51 
   6   4   9    2.29    0.49 
   6   4   9    2.23    0.70 
   7   4   9    0.04    0.41 
   7   4   9    0.23    0.31 
   7   4   9    0.11    0.26 
   3  -5  -9    0.67    0.65 
  -3   5   9    1.44    0.64 
   2  -5  -9    0.68    0.58 
  -2   5   9    0.29    0.41 
   1  -5  -9    1.29    0.62 
  -1   5   9    1.41    0.45 
  -1   5   9    0.68    0.44 
  -1   5   9    1.08    0.48 
   0  -5  -9    0.30    0.46 
   0   5   9    0.24    0.32 
   0   5   9    0.09    0.31 
   0   5   9    0.01    0.27 
  -1  -5  -9    2.40    0.61 
   1   5   9    2.04    0.54 
   1   5   9    1.40    0.45 
   1   5   9    1.91    0.53 
  -2  -5  -9   10.94    1.24 
  -2  -5  -9    7.90    0.96 
   2   5   9    8.85    1.14 
   2   5   9    9.90    1.18 
   2   5   9    9.37    1.10 
   2   5   9    8.30    1.21 
  -3  -5  -9    3.01    0.60 
  -3  -5  -9    2.02    0.38 
   3   5   9    2.67    0.60 
   3   5   9    2.59    0.65 
   3   5   9    3.47    0.63 
   4   5   9   23.67    2.09 
   4   5   9   23.13    2.12 
   4   5   9   23.58    2.09 
   5   5   9    1.84    0.52 
   5   5   9    0.99    0.48 
   5   5   9    1.22    0.46 
   6   5   9   14.84    1.46 
   6   5   9   14.46    1.48 
   7   5   9    0.23    0.33 
   7   5   9    0.61    0.34 
   7   5   9    0.81    0.51 
   3  -6  -9    1.17    0.75 
   2  -6  -9   -0.29    0.57 
  -2   6   9   -0.40    0.42 
   1  -6  -9    1.04    0.66 
  -1   6   9    0.63    0.45 
  -1   6   9    0.24    0.41 
  -1   6   9    0.93    0.41 
   0  -6  -9    1.58    0.65 
   0   6   9    2.14    0.57 
   0   6   9    3.57    0.73 
   0   6   9    1.70    0.58 
  -1  -6  -9    0.22    0.39 
   1   6   9    0.23    0.35 
   1   6   9    0.24    0.33 
   1   6   9    0.02    0.30 
  -2  -6  -9    0.23    0.39 
   2   6   9   -0.06    0.34 
   2   6   9    0.30    0.34 
   2   6   9    0.32    0.39 
   3   6   9    1.29    0.45 
   3   6   9    1.10    0.47 
   3   6   9    0.07    0.31 
   4   6   9    0.37    0.37 
   4   6   9    0.46    0.34 
   4   6   9    0.68    0.42 
   5   6   9    1.19    0.44 
   5   6   9    0.35    0.38 
   5   6   9    0.83    0.41 
   6   6   9    2.14    0.59 
   6   6   9    1.05    0.49 
   6   6   9    1.49    0.53 
   7   6   9    0.24    0.40 
   7   6   9    0.15    0.41 
   7   6   9    0.50    0.49 
   1  -7  -9    3.07    0.95 
  -1   7   9    1.37    0.58 
   0  -7  -9    1.18    0.65 
   0   7   9    0.01    0.39 
   0   7   9    0.08    0.35 
   0   7   9    0.11    0.38 
  -1  -7  -9    1.10    0.67 
   1   7   9    2.33    0.68 
   1   7   9    2.22    0.66 
   1   7   9    3.40    0.69 
   2   7   9    0.67    0.40 
   2   7   9    1.97    0.63 
   2   7   9    1.42    0.52 
   3   7   9    0.18    0.45 
   3   7   9    1.04    0.45 
   3   7   9    1.68    0.59 
   4   7   9    0.51    0.40 
   4   7   9    1.24    0.59 
   4   7   9   -0.03    0.47 
   5   7   9    0.12    0.37 
   5   7   9   -0.52    0.32 
   5   7   9    0.34    0.45 
   6   7   9    0.06    0.41 
   6   7   9   -0.36    0.41 
   6   7   9   -0.01    0.35 
   1   8   9    0.49    0.47 
   1   8   9   -0.42    0.49 
   1   8   9   -0.17    0.39 
   2   8   9    0.91    0.50 
   2   8   9    1.43    0.71 
   2   8   9    1.33    0.59 
   3   8   9    0.23    0.48 
   3   8   9    0.78    0.45 
   3   8   9    0.18    0.57 
   4   8   9   -0.35    0.41 
   4   8   9    0.29    0.48 
   4   8   9    0.04    0.35 
   3   6 -10    0.37    0.61 
   3   6 -10    0.29    0.46 
   3   6 -10   -0.27    0.51 
   2   6 -10    0.50    0.52 
   2   6 -10    0.61    0.58 
   2   6 -10    1.06    0.62 
  -2  -6  10    1.37    0.64 
   1   6 -10    0.48    0.55 
   1   6 -10    0.34    0.43 
   1   6 -10    0.04    0.47 
  -1  -6  10    0.39    0.52 
   0   6 -10    0.21    0.54 
   0   6 -10    0.42    0.49 
   0   6 -10   -0.03    0.45 
   0  -6  10    0.48    0.47 
  -1   6 -10    0.43    0.49 
   1  -6  10    0.39    0.59 
   1  -6  10    0.94    0.52 
  -2   6 -10   -0.27    0.68 
   2  -6  10   -0.33    0.47 
   2  -6  10    0.50    0.50 
   4   5 -10   -0.18    0.53 
   4   5 -10   -0.18    0.53 
   4   5 -10    0.02    0.42 
   3   5 -10    0.95    0.64 
   3   5 -10    0.10    0.51 
   3   5 -10    0.94    0.55 
  -3  -5  10    0.86    0.52 
   2   5 -10   -0.33    0.37 
   2   5 -10    0.08    0.49 
   2   5 -10   -0.02    0.46 
  -2  -5  10    0.57    0.43 
   1   5 -10    0.54    0.47 
   1   5 -10    0.23    0.43 
   1   5 -10    0.59    0.50 
  -1  -5  10    0.71    0.50 
   0   5 -10   -0.25    0.43 
   0   5 -10   -0.01    0.38 
   0   5 -10   -0.58    0.29 
   0  -5  10    0.55    0.51 
   0  -5  10    0.22    0.36 
  -1   5 -10    0.00    0.52 
  -1   5 -10   -0.38    0.34 
   1  -5  10    0.06    0.33 
   1  -5  10    0.86    0.58 
  -2   5 -10    0.09    0.38 
   2  -5  10    0.45    0.50 
   2  -5  10    1.13    0.57 
   3  -5  10   -0.28    0.41 
   3  -5  10    0.47    0.59 
  -4   5 -10   -0.45    0.54 
   4  -5  10    0.11    0.58 
   4   4 -10    0.41    0.56 
   4   4 -10   -0.02    0.43 
   4   4 -10    0.20    0.54 
   3   4 -10    0.52    0.45 
   3   4 -10   -0.31    0.39 
   3   4 -10    1.06    0.57 
  -3  -4  10    0.88    0.50 
   2   4 -10    0.58    0.46 
   2   4 -10    0.96    0.48 
   2   4 -10    0.83    0.52 
  -2  -4  10    0.56    0.47 
   1   4 -10    2.96    0.76 
   1   4 -10    2.54    0.71 
   1   4 -10    3.66    0.78 
  -1  -4  10    2.48    0.74 
  -1  -4  10    3.49    0.56 
   0   4 -10    5.02    0.93 
   0   4 -10    7.18    0.99 
   0   4 -10    6.14    1.07 
   0  -4  10    5.06    1.00 
   0  -4  10    5.30    0.86 
  -1   4 -10    2.34    0.58 
  -1   4 -10    1.65    0.63 
   1  -4  10    1.02    0.50 
   1  -4  10    2.38    0.72 
  -2   4 -10    3.65    0.75 
   2  -4  10    1.75    0.62 
   2  -4  10    3.00    0.80 
  -3   4 -10    1.45    0.54 
   3  -4  10    0.53    0.51 
   3  -4  10    1.55    0.64 
  -4   4 -10    0.55    0.52 
   4  -4  10   -0.14    0.42 
  -5   4 -10   -0.31    0.50 
   5  -4  10    0.00    0.44 
   5   3 -10    1.34    0.61 
   5   3 -10    0.25    0.61 
   5   3 -10   -0.44    0.35 
   4   3 -10    0.25    0.47 
   4   3 -10    0.20    0.50 
   4   3 -10    0.21    0.51 
   3   3 -10    2.02    0.58 
   3   3 -10    1.99    0.69 
   3   3 -10    1.29    0.66 
  -3  -3  10    1.44    0.54 
   2   3 -10    1.32    0.54 
   2   3 -10    1.08    0.55 
   2   3 -10    1.53    0.55 
  -2  -3  10    1.13    0.25 
  -2  -3  10    0.80    0.48 
   1   3 -10    3.90    0.86 
   1   3 -10    4.50    0.93 
   1   3 -10    5.14    0.92 
  -1  -3  10    5.26    0.95 
  -1  -3  10    6.17    0.73 
   0   3 -10   -0.02    0.36 
   0   3 -10    2.36    0.64 
   0   3 -10    2.02    0.50 
   0  -3  10    0.96    0.35 
   0  -3  10    0.42    0.42 
  -1   3 -10    5.84    1.00 
  -1   3 -10    7.38    1.18 
   1  -3  10    8.19    1.23 
   1  -3  10    9.58    1.21 
  -2   3 -10    0.00    0.29 
  -2   3 -10    0.07    0.35 
   2  -3  10   -0.26    0.32 
   2  -3  10   -0.26    0.31 
   2  -3  10    0.30    0.55 
  -3   3 -10    4.21    0.75 
   3  -3  10    2.62    0.79 
   3  -3  10    2.37    0.71 
   4  -3  10    0.74    0.54 
   4  -3  10    0.64    0.54 
  -5   3 -10    0.18    0.42 
   5  -3  10    0.18    0.48 
   5  -3  10    0.15    0.43 
  -6   3 -10    0.40    0.47 
   6  -3  10    0.20    0.51 
   6  -3  10    0.40    0.60 
   5   2 -10   -0.06    0.38 
   5   2 -10   -0.24    0.52 
   5   2 -10    0.21    0.58 
   4   2 -10   -0.62    0.46 
   4   2 -10    0.59    0.38 
   4   2 -10    0.59    0.51 
   3   2 -10   -0.07    0.45 
   3   2 -10   -0.07    0.33 
   3   2 -10    0.28    0.46 
  -3  -2  10    0.00    0.33 
  -3  -2  10    0.35    0.16 
   2   2 -10    4.52    0.84 
   2   2 -10    2.99    0.81 
   2   2 -10    3.25    0.75 
  -2  -2  10    3.06    0.72 
  -2  -2  10    4.77    0.54 
   1   2 -10   -0.02    0.34 
   1   2 -10    0.67    0.39 
   1   2 -10   -0.21    0.24 
  -1  -2  10    0.09    0.31 
  -1  -2  10   -0.08    0.16 
   0   2 -10    9.93    1.24 
   0   2 -10   10.08    1.26 
   0  -2  10   10.28    1.39 
   0  -2  10    9.21    1.14 
  -1   2 -10    0.47    0.41 
  -1   2 -10    0.08    0.30 
   1  -2  10   -0.03    0.25 
   1  -2  10    0.04    0.25 
  -2   2 -10   -0.04    0.26 
  -2   2 -10   -0.44    0.32 
   2  -2  10   -0.59    0.33 
   2  -2  10    0.08    0.32 
   2  -2  10    0.28    0.34 
  -3   2 -10    0.09    0.35 
  -3   2 -10    0.06    0.28 
   3  -2  10    0.19    0.35 
   3  -2  10   -0.06    0.30 
   4  -2  10    4.87    1.03 
   4  -2  10    4.90    0.93 
  -5   2 -10    0.14    0.39 
   5  -2  10    0.28    0.40 
   5  -2  10    0.27    0.51 
  -6   2 -10    5.08    0.99 
   6  -2  10    4.40    1.09 
   6  -2  10    6.30    1.05 
   5   1 -10    0.68    0.57 
   5   1 -10    0.17    0.57 
   4   1 -10    0.24    0.48 
   4   1 -10    0.02    0.50 
   3   1 -10    1.27    0.58 
   3   1 -10    2.09    0.70 
  -3  -1  10    1.72    0.34 
  -3  -1  10    0.75    0.51 
   2   1 -10    0.73    0.40 
   2   1 -10    1.66    0.63 
   2   1 -10    0.98    0.46 
  -2  -1  10    0.69    0.39 
  -2  -1  10    1.77    0.33 
   1   1 -10    4.35    0.83 
   1   1 -10    4.37    0.79 
  -1  -1  10    3.09    0.51 
  -1  -1  10    3.61    0.72 
   0   1 -10   14.43    1.39 
   0   1 -10   14.87    1.44 
   0  -1  10   11.22    1.21 
   0  -1  10   12.70    1.56 
  -1   1 -10    4.62    0.80 
  -1   1 -10    5.71    0.85 
   1  -1  10    6.82    0.99 
   1  -1  10    4.91    0.83 
   1  -1  10    4.17    0.77 
  -2   1 -10    2.72    0.61 
   2  -1  10    2.91    0.63 
   2  -1  10    2.38    0.64 
   2  -1  10    3.74    0.76 
  -3   1 -10    4.43    0.75 
   3  -1  10    3.83    0.81 
   3  -1  10    6.68    1.05 
   3  -1  10    4.97    0.87 
   4  -1  10    1.38    0.59 
   4  -1  10   -0.08    0.32 
  -5   1 -10    0.95    0.48 
   5  -1  10    1.25    0.54 
   5  -1  10    1.31    0.64 
  -6   1 -10    1.40    0.57 
   6  -1  10    1.75    0.74 
   6  -1  10    1.54    0.54 
  -7   1 -10    0.11    0.45 
   7  -1  10    0.02    0.38 
   7  -1  10   -1.16    0.54 
   5   0 -10    0.32    0.55 
   5   0 -10   -0.32    0.47 
   4   0 -10    0.43    0.45 
   4   0 -10   -0.06    0.44 
   3   0 -10    1.56    0.59 
   3   0 -10    1.28    0.53 
  -3   0  10    2.69    0.68 
  -3   0  10    1.93    0.39 
   2   0 -10    0.72    0.42 
  -2   0  10    0.49    0.22 
  -2   0  10   -0.15    0.28 
   1   0 -10    4.18    0.81 
  -1   0  10    6.42    0.99 
  -1   0  10    4.58    0.67 
   0   0 -10   -0.14    0.33 
   0   0  10    0.43    0.27 
   0   0  10    0.02    0.27 
  -1   0 -10    8.00    1.05 
   1   0  10    6.24    0.94 
   1   0  10    8.75    1.16 
   1   0  10    8.00    1.04 
  -2   0 -10   -0.16    0.24 
   2   0  10   -0.01    0.29 
   2   0  10   -0.01    0.26 
   2   0  10   -0.07    0.25 
  -3   0 -10    7.66    1.04 
   3   0  10   11.06    1.37 
   3   0  10   10.56    1.27 
   3   0  10    9.75    1.18 
  -4   0 -10   -0.04    0.25 
   4   0  10   -0.39    0.32 
   4   0  10   -0.11    0.24 
   5   0  10    5.81    1.07 
   5   0  10    6.96    1.03 
  -6   0 -10   -0.05    0.30 
   6   0  10   -0.03    0.31 
   6   0  10    0.93    0.61 
  -7   0 -10    1.74    0.62 
   7   0  10    1.01    0.48 
   7   0  10    2.07    0.85 
   5  -1 -10   -0.62    0.52 
   4  -1 -10   -0.07    0.51 
   3  -1 -10   -0.47    0.42 
  -3   1  10    0.47    0.30 
  -3   1  10    0.09    0.30 
   2  -1 -10    1.26    0.55 
  -2   1  10    0.51    0.38 
  -2   1  10    1.07    0.32 
   1  -1 -10    1.18    0.52 
  -1   1  10    1.54    0.47 
  -1   1  10    0.90    0.34 
   0  -1 -10    0.30    0.33 
   0   1  10    0.05    0.20 
   0   1  10   -0.04    0.25 
  -1  -1 -10    1.66    0.49 
   1   1  10    1.15    0.38 
   1   1  10    1.22    0.45 
   1   1  10    1.18    0.43 
  -2  -1 -10    1.15    0.42 
   2   1  10    0.86    0.41 
   2   1  10    0.33    0.30 
   2   1  10    0.86    0.35 
  -3  -1 -10   -0.15    0.26 
   3   1  10   -0.11    0.22 
   3   1  10    0.10    0.31 
   3   1  10   -0.01    0.25 
  -4  -1 -10    1.73    0.42 
   4   1  10    1.58    0.50 
   4   1  10    1.95    0.61 
   4   1  10    1.67    0.55 
   5   1  10    0.05    0.27 
   5   1  10    0.60    0.47 
  -6  -1 -10    0.81    0.34 
   6   1  10    1.17    0.42 
   6   1  10    0.86    0.62 
   7   1  10    0.90    0.68 
   7   1  10    0.39    0.35 
   5  -2 -10    0.00    0.51 
   4  -2 -10    0.67    0.54 
   3  -2 -10    0.70    0.50 
  -3   2  10    0.63    0.43 
   2  -2 -10    1.44    0.55 
  -2   2  10    0.94    0.34 
  -2   2  10   -0.05    0.27 
   1  -2 -10    0.79    0.47 
  -1   2  10    0.41    0.38 
  -1   2  10    1.35    0.38 
   0  -2 -10    0.39    0.40 
   0   2  10    0.60    0.30 
   0   2  10   -0.09    0.23 
  -1  -2 -10   -0.19    0.27 
   1   2  10    0.28    0.31 
   1   2  10    0.29    0.27 
   1   2  10   -0.16    0.24 
  -2  -2 -10    0.01    0.26 
   2   2  10   -0.36    0.27 
   2   2  10   -0.11    0.22 
   2   2  10   -0.04    0.23 
  -3  -2 -10    2.98    0.59 
   3   2  10    3.83    0.67 
   3   2  10    2.89    0.64 
   3   2  10    3.95    0.77 
  -4  -2 -10   -0.39    0.22 
   4   2  10    0.19    0.28 
   4   2  10    0.16    0.52 
   4   2  10   -0.07    0.22 
   5   2  10    1.87    0.65 
   5   2  10    1.47    0.48 
   6   2  10    0.07    0.45 
   6   2  10    0.39    0.33 
   7   2  10    0.08    0.27 
   7   2  10    0.82    0.56 
   4  -3 -10    0.16    0.54 
   3  -3 -10   -0.07    0.55 
  -3   3  10    1.71    0.53 
   2  -3 -10   -0.35    0.41 
  -2   3  10    0.54    0.34 
  -2   3  10    0.46    0.42 
   1  -3 -10    3.96    0.82 
  -1   3  10    3.60    0.76 
  -1   3  10    4.75    0.74 
   0  -3 -10    0.88    0.44 
   0   3  10    0.01    0.26 
   0   3  10    0.78    0.37 
  -1  -3 -10    3.51    0.72 
   1   3  10    4.53    0.86 
   1   3  10    4.22    0.72 
  -2  -3 -10    3.48    0.70 
   2   3  10    2.99    0.59 
   2   3  10    3.39    0.66 
   2   3  10    2.49    0.60 
  -3  -3 -10    0.27    0.26 
   3   3  10    0.02    0.29 
   3   3  10   -0.23    0.24 
   3   3  10    0.22    0.30 
  -4  -3 -10    4.88    0.76 
   4   3  10    4.72    0.81 
   4   3  10    4.42    0.88 
  -5  -3 -10    0.89    0.29 
   5   3  10    1.71    0.48 
   5   3  10    1.57    0.55 
   6   3  10    1.17    0.61 
   6   3  10    1.85    0.48 
   7   3  10    0.56    0.49 
   7   3  10    1.29    0.41 
   4  -4 -10    2.11    0.78 
   3  -4 -10   -0.37    0.53 
  -3   4  10    0.16    0.50 
   2  -4 -10    1.06    0.66 
  -2   4  10    1.90    0.62 
  -2   4  10    2.02    0.52 
   1  -4 -10    0.07    0.44 
  -1   4  10   -0.06    0.28 
  -1   4  10    0.17    0.39 
   0  -4 -10    0.12    0.35 
   0   4  10    0.83    0.36 
   0   4  10    0.55    0.39 
  -1  -4 -10    3.27    0.72 
   1   4  10    3.46    0.63 
   1   4  10    2.76    0.68 
  -2  -4 -10   11.45    1.31 
   2   4  10    9.43    1.14 
   2   4  10    9.61    1.26 
   2   4  10    6.79    1.04 
   2   4  10    8.63    1.08 
  -3  -4 -10    5.04    0.81 
   3   4  10    3.55    0.68 
   3   4  10    4.98    0.88 
   3   4  10    4.99    0.82 
   4   4  10   10.29    1.32 
   4   4  10   11.41    1.36 
   4   4  10   10.49    1.23 
   5   4  10    1.51    0.50 
   5   4  10    0.82    0.37 
   5   4  10    0.75    0.37 
   6   4  10    3.98    0.73 
   6   4  10    5.84    1.05 
   6   4  10    3.64    0.68 
   7   4  10    0.40    0.49 
   7   4  10   -0.07    0.28 
   3  -5 -10    1.07    0.71 
   2  -5 -10    0.77    0.64 
  -2   5  10    0.53    0.52 
   1  -5 -10    3.19    0.85 
  -1   5  10    2.98    0.81 
  -1   5  10    3.79    0.74 
   0  -5 -10    1.18    0.58 
   0   5  10   -0.03    0.31 
   0   5  10    0.37    0.45 
   0   5  10    0.63    0.42 
  -1  -5 -10    0.66    0.45 
   1   5  10    0.17    0.30 
   1   5  10    1.15    0.44 
   1   5  10    0.52    0.44 
  -2  -5 -10    0.60    0.40 
   2   5  10    0.21    0.31 
   2   5  10    0.25    0.34 
   2   5  10    0.04    0.34 
   3   5  10    0.06    0.26 
   3   5  10    0.03    0.33 
   3   5  10    0.45    0.38 
   4   5  10    1.58    0.51 
   4   5  10    1.08    0.53 
   4   5  10    1.92    0.56 
   5   5  10   -0.21    0.32 
   5   5  10    0.02    0.32 
   5   5  10   -0.14    0.33 
   6   5  10    2.56    0.76 
   6   5  10    4.23    0.79 
   6   5  10    3.62    0.66 
   7   5  10   -0.31    0.29 
   7   5  10   -0.20    0.42 
   7   5  10    0.07    0.35 
   2  -6 -10    0.45    0.64 
  -2   6  10   -0.18    0.37 
   1  -6 -10   -0.38    0.60 
  -1   6  10    0.55    0.42 
  -1   6  10   -0.13    0.45 
   0  -6 -10    0.37    0.55 
   0   6  10    0.67    0.39 
   0   6  10    0.16    0.40 
   0   6  10    0.51    0.41 
  -1  -6 -10    1.60    0.67 
   1   6  10    0.85    0.44 
   1   6  10    0.77    0.54 
   1   6  10    0.96    0.47 
   2   6  10    0.91    0.47 
   2   6  10    1.14    0.52 
   2   6  10    1.07    0.52 
   3   6  10    0.48    0.37 
   3   6  10    1.38    0.52 
   3   6  10    0.64    0.44 
   4   6  10    0.44    0.33 
   4   6  10   -0.09    0.28 
   4   6  10   -0.25    0.34 
   5   6  10    0.37    0.34 
   5   6  10    0.46    0.42 
   5   6  10   -0.17    0.41 
   6   6  10    2.27    0.62 
   6   6  10    1.97    0.59 
   6   6  10    1.69    0.53 
   1  -7 -10    3.45    1.06 
   0  -7 -10    0.52    0.70 
   0   7  10    0.73    0.46 
   0   7  10    0.56    0.45 
   0   7  10   -0.05    0.40 
   1   7  10    1.59    0.59 
   1   7  10    1.01    0.58 
   1   7  10    3.75    0.76 
   2   7  10    0.12    0.41 
   2   7  10    0.10    0.38 
   2   7  10    0.20    0.44 
   3   7  10    0.56    0.49 
   3   7  10    0.77    0.51 
   3   7  10    0.75    0.44 
   4   7  10    0.50    0.52 
   4   7  10    0.34    0.47 
   4   7  10    0.70    0.51 
   5   7  10    0.00    0.44 
   5   7  10   -0.11    0.37 
   5   7  10    0.12    0.38 
   2   8  10    0.93    0.53 
   2   8  10    0.27    0.46 
   2   8  10    0.29    0.54 
   3   8  10    3.01    0.88 
   3   8  10    2.77    0.71 
   3   8  10    1.95    0.70 
   1   6 -11    0.29    0.53 
   1   6 -11   -0.26    0.53 
   1   6 -11   -0.08    0.51 
  -1  -6  11    0.21    0.55 
   0   6 -11    4.95    1.04 
   0   6 -11    6.93    1.14 
   0  -6  11    7.10    1.35 
  -1   6 -11    0.91    0.59 
   1  -6  11    0.76    0.61 
   3   5 -11   -0.67    0.46 
   3   5 -11    0.65    0.54 
   3   5 -11   -0.33    0.53 
   2   5 -11    0.82    0.57 
   2   5 -11    1.15    0.60 
   2   5 -11    0.79    0.65 
  -2  -5  11    0.91    0.57 
   1   5 -11    0.35    0.50 
   1   5 -11    0.11    0.45 
   1   5 -11    0.41    0.52 
  -1  -5  11    0.23    0.46 
   0   5 -11    0.48    0.60 
   0   5 -11    2.94    0.67 
   0   5 -11    3.03    0.78 
   0  -5  11    1.90    0.59 
   0  -5  11    3.75    0.96 
  -1   5 -11   -0.39    0.38 
   1  -5  11   -0.14    0.41 
   1  -5  11    0.55    0.50 
  -2   5 -11    0.45    0.48 
   2  -5  11    0.09    0.49 
   2  -5  11    1.25    0.69 
   3  -5  11   -0.30    0.53 
   3  -5  11    0.08    0.58 
   4   4 -11    0.57    0.53 
   4   4 -11    0.42    0.62 
   4   4 -11    0.51    0.62 
   3   4 -11   -0.36    0.44 
   3   4 -11    0.77    0.53 
   3   4 -11   -0.10    0.47 
  -3  -4  11    0.29    0.44 
   2   4 -11    0.15    0.47 
   2   4 -11    1.09    0.62 
   2   4 -11    0.71    0.54 
  -2  -4  11    0.31    0.43 
   1   4 -11    1.58    0.61 
   1   4 -11    0.20    0.44 
   1   4 -11   -0.01    0.41 
  -1  -4  11    0.79    0.56 
  -1  -4  11    0.33    0.28 
   0   4 -11    0.37    0.42 
   0   4 -11    0.71    0.58 
   0   4 -11    0.53    0.40 
   0  -4  11    0.27    0.48 
   0  -4  11    0.97    0.37 
  -1   4 -11    1.23    0.62 
  -1   4 -11    2.32    0.74 
   1  -4  11    2.51    0.80 
   1  -4  11    2.63    0.68 
  -2   4 -11    0.10    0.38 
   2  -4  11    0.63    0.51 
   2  -4  11   -0.18    0.39 
   3  -4  11    1.63    0.72 
   3  -4  11   -0.38    0.46 
   4  -4  11   -0.60    0.50 
   4  -4  11   -0.22    0.52 
   4   3 -11   -0.23    0.41 
   4   3 -11    0.48    0.58 
   4   3 -11    0.43    0.60 
   3   3 -11    1.48    0.61 
   3   3 -11    2.74    0.82 
   3   3 -11    1.88    0.78 
  -3  -3  11    2.09    0.74 
   2   3 -11    0.11    0.46 
   2   3 -11   -0.16    0.47 
   2   3 -11   -0.28    0.27 
  -2  -3  11    0.04    0.19 
  -2  -3  11   -0.10    0.43 
   1   3 -11    0.25    0.50 
   1   3 -11    0.59    0.43 
   1   3 -11    1.01    0.48 
  -1  -3  11    0.32    0.25 
  -1  -3  11    0.05    0.37 
   0   3 -11   -0.29    0.36 
   0   3 -11    0.39    0.42 
   0  -3  11   -0.04    0.26 
   0  -3  11   -0.41    0.32 
  -1   3 -11   -0.67    0.43 
  -1   3 -11   -0.03    0.35 
   1  -3  11   -0.48    0.34 
   1  -3  11   -0.29    0.28 
  -2   3 -11    0.91    0.52 
   2  -3  11    0.97    0.50 
   2  -3  11    0.77    0.49 
  -3   3 -11    0.47    0.38 
   3  -3  11    0.24    0.48 
   3  -3  11    0.37    0.41 
   4  -3  11    1.66    0.64 
   4  -3  11    1.06    0.64 
  -5   3 -11   -0.23    0.42 
   5  -3  11    0.18    0.44 
   5  -3  11   -0.46    0.59 
   4   2 -11    0.71    0.58 
   4   2 -11    0.15    0.59 
   4   2 -11    1.02    0.56 
   3   2 -11    0.05    0.55 
   3   2 -11    0.44    0.45 
   3   2 -11    0.04    0.45 
  -3  -2  11   -0.01    0.30 
  -3  -2  11   -0.23    0.39 
   2   2 -11    1.23    0.57 
   2   2 -11    0.73    0.44 
   2   2 -11    0.47    0.43 
  -2  -2  11    0.70    0.25 
  -2  -2  11   -0.11    0.36 
   1   2 -11    0.64    0.43 
   1   2 -11    0.40    0.40 
   1   2 -11   -0.18    0.43 
  -1  -2  11    0.04    0.22 
  -1  -2  11   -0.03    0.37 
   0   2 -11    2.99    0.70 
   0   2 -11    2.45    0.62 
   0  -2  11    2.51    0.70 
   0  -2  11    2.87    0.61 
  -1   2 -11    1.60    0.64 
  -1   2 -11    3.80    0.77 
   1  -2  11    3.03    0.67 
   1  -2  11    3.62    0.86 
  -2   2 -11    1.56    0.52 
  -2   2 -11    3.06    0.71 
   2  -2  11    1.76    0.58 
   2  -2  11    1.48    0.52 
   3  -2  11    4.56    0.98 
   3  -2  11    5.08    0.99 
   4  -2  11    1.02    0.56 
   4  -2  11    0.21    0.40 
  -5   2 -11    0.83    0.53 
   5  -2  11    1.62    0.66 
   5  -2  11    2.39    0.82 
  -6   2 -11    0.53    0.44 
   6  -2  11    0.53    0.71 
   6  -2  11    0.11    0.46 
   4   1 -11   -0.17    0.62 
   4   1 -11    1.03    0.55 
   3   1 -11    0.27    0.61 
   3   1 -11    1.01    0.52 
  -3  -1  11    1.18    0.29 
  -3  -1  11    0.90    0.48 
   2   1 -11    0.27    0.51 
  -2  -1  11    0.40    0.42 
  -2  -1  11    0.44    0.23 
   1   1 -11    0.34    0.51 
  -1  -1  11    1.19    0.34 
  -1  -1  11    2.21    0.65 
   0   1 -11    1.24    0.50 
   0  -1  11    0.28    0.36 
   0  -1  11    0.58    0.33 
  -1   1 -11    0.45    0.45 
   1  -1  11   -0.09    0.28 
   1  -1  11    0.62    0.35 
  -2   1 -11    5.65    0.91 
   2  -1  11    5.33    0.92 
   2  -1  11    5.58    0.98 
   2  -1  11    4.85    0.88 
   3  -1  11   -0.09    0.32 
   3  -1  11    0.36    0.35 
   4  -1  11    1.06    0.58 
   4  -1  11    1.46    0.55 
   5  -1  11    0.51    0.39 
   5  -1  11    0.16    0.51 
  -6   1 -11    0.35    0.41 
   6  -1  11    0.31    0.41 
   6  -1  11    0.51    0.62 
   4   0 -11    1.68    0.70 
   3   0 -11    0.00    0.53 
  -3   0  11    0.23    0.21 
  -3   0  11    0.71    0.44 
   2   0 -11    2.02    0.67 
  -2   0  11    2.56    0.46 
  -2   0  11    3.03    0.72 
   1   0 -11    2.19    0.66 
  -1   0  11    2.31    0.47 
  -1   0  11    1.64    0.61 
   0   0 -11    0.23    0.40 
   0   0  11    0.24    0.33 
   0   0  11    0.64    0.32 
  -1   0 -11    3.77    0.79 
   1   0  11    5.21    0.84 
   1   0  11    5.00    0.92 
  -2   0 -11    1.21    0.47 
   2   0  11    1.35    0.48 
   2   0  11    1.12    0.50 
   2   0  11    1.38    0.48 
  -3   0 -11    3.30    0.67 
   3   0  11    3.56    0.77 
   3   0  11    3.64    0.76 
   4   0  11    3.93    0.79 
   4   0  11    2.83    0.77 
   5   0  11    2.27    0.61 
   5   0  11    1.87    0.71 
  -6   0 -11    0.47    0.38 
   6   0  11   -0.44    0.52 
   6   0  11    0.26    0.34 
   7   0  11    2.17    0.87 
   7   0  11    1.48    0.55 
   4  -1 -11   -0.38    0.58 
   3  -1 -11   -0.45    0.49 
  -3   1  11   -0.37    0.21 
  -3   1  11   -0.14    0.41 
   2  -1 -11    0.25    0.50 
  -2   1  11    0.07    0.21 
  -2   1  11    0.60    0.39 
   1  -1 -11    0.65    0.52 
  -1   1  11    1.16    0.49 
  -1   1  11    0.28    0.27 
   0  -1 -11    0.19    0.35 
   0   1  11   -0.14    0.18 
   0   1  11   -0.07    0.32 
  -1  -1 -11    4.08    0.77 
   1   1  11    2.55    0.60 
   1   1  11    1.11    0.46 
  -2  -1 -11   -0.11    0.33 
   2   1  11   -0.07    0.30 
   2   1  11    0.92    0.46 
   2   1  11    0.84    0.38 
  -3  -1 -11    4.04    0.73 
   3   1  11    2.76    0.66 
   3   1  11    4.03    0.81 
   4   1  11    0.05    0.30 
   4   1  11    0.11    0.28 
   5   1  11    2.93    0.63 
   5   1  11    1.94    0.73 
  -6  -1 -11   -0.18    0.27 
   6   1  11    0.13    0.48 
   6   1  11   -0.19    0.28 
   7   1  11    1.79    0.89 
   7   1  11    1.66    0.49 
   4  -2 -11    0.13    0.65 
   3  -2 -11    0.11    0.56 
  -3   2  11   -0.07    0.39 
   2  -2 -11    2.52    0.76 
  -2   2  11    2.40    0.69 
  -2   2  11    2.70    0.53 
   1  -2 -11    0.99    0.65 
  -1   2  11    0.08    0.40 
  -1   2  11    1.41    0.40 
   0  -2 -11    7.13    1.09 
   0   2  11    6.54    1.08 
   0   2  11    6.89    0.95 
  -1  -2 -11    0.74    0.40 
   1   2  11    1.07    0.44 
   1   2  11    1.40    0.47 
  -2  -2 -11    2.59    0.61 
   2   2  11    0.95    0.49 
   2   2  11    1.55    0.48 
   2   2  11    2.60    0.66 
  -3  -2 -11    0.65    0.39 
   3   2  11    0.80    0.44 
   3   2  11    0.88    0.43 
   4   2  11    0.15    0.31 
   4   2  11    0.10    0.27 
   5   2  11    0.43    0.30 
   5   2  11    0.24    0.43 
   6   2  11   -0.45    0.38 
   6   2  11    0.07    0.29 
   7   2  11   -0.19    0.29 
   7   2  11   -0.27    0.56 
   4  -3 -11    0.22    0.62 
   3  -3 -11    0.57    0.61 
  -3   3  11    0.22    0.45 
   2  -3 -11    1.07    0.59 
  -2   3  11    0.31    0.33 
  -2   3  11   -0.24    0.31 
   1  -3 -11    1.49    0.60 
  -1   3  11    0.67    0.37 
  -1   3  11    1.07    0.52 
   0  -3 -11    1.79    0.60 
   0   3  11    2.11    0.63 
   0   3  11    1.60    0.49 
  -1  -3 -11    1.49    0.60 
   1   3  11    2.88    0.63 
   1   3  11    2.72    0.67 
  -2  -3 -11    0.45    0.41 
   2   3  11    0.59    0.42 
   2   3  11    0.70    0.35 
   2   3  11    0.31    0.33 
  -3  -3 -11    1.21    0.51 
   3   3  11    1.46    0.54 
   3   3  11    1.01    0.45 
   4   3  11    0.39    0.32 
   4   3  11    0.14    0.33 
   5   3  11    0.87    0.49 
   5   3  11   -0.11    0.27 
   6   3  11    0.15    0.28 
   6   3  11    0.61    0.54 
   7   3  11   -0.12    0.29 
   7   3  11    0.91    0.69 
   3  -4 -11   -0.73    0.54 
   2  -4 -11    1.07    0.69 
  -2   4  11    2.56    0.73 
  -2   4  11    2.84    0.64 
   1  -4 -11   -0.48    0.45 
  -1   4  11   -0.09    0.31 
  -1   4  11   -0.21    0.37 
   0  -4 -11    2.90    0.78 
   0   4  11    1.37    0.48 
   0   4  11    2.10    0.72 
  -1  -4 -11    0.63    0.48 
   1   4  11    0.39    0.33 
   1   4  11    0.26    0.37 
  -2  -4 -11   -0.29    0.36 
   2   4  11    0.00    0.32 
   2   4  11   -0.06    0.30 
   3   4  11    1.95    0.57 
   3   4  11    1.46    0.54 
   4   4  11    0.58    0.42 
   4   4  11    1.84    0.52 
   5   4  11    1.12    0.52 
   5   4  11    0.21    0.35 
   6   4  11    3.38    0.67 
   6   4  11    1.90    0.66 
   7   4  11    0.35    0.36 
   7   4  11    0.16    0.52 
   2  -5 -11    1.41    0.86 
  -2   5  11    1.38    0.59 
   1  -5 -11    0.88    0.64 
  -1   5  11    1.39    0.53 
  -1   5  11    1.26    0.49 
   0  -5 -11    8.42    1.26 
   0   5  11    5.55    1.03 
   0   5  11    7.39    1.10 
  -1  -5 -11    1.55    0.61 
   1   5  11    0.54    0.43 
   1   5  11    0.18    0.43 
   2   5  11    3.34    0.70 
   2   5  11    2.71    0.60 
   2   5  11    1.82    0.61 
   3   5  11    0.31    0.36 
   3   5  11   -0.24    0.29 
   3   5  11   -0.03    0.33 
   4   5  11    0.49    0.36 
   4   5  11    0.53    0.39 
   4   5  11   -0.27    0.32 
   5   5  11    0.93    0.50 
   5   5  11    1.17    0.46 
   5   5  11    1.01    0.51 
   6   5  11    1.14    0.51 
   6   5  11    1.44    0.54 
   6   5  11    1.57    0.60 
   1  -6 -11    0.82    0.73 
  -1   6  11    2.18    0.73 
  -1   6  11    2.77    0.75 
   0  -6 -11    0.18    0.67 
   0   6  11    0.04    0.44 
   0   6  11   -0.41    0.37 
   0   6  11   -0.19    0.48 
   1   6  11    4.09    0.98 
   1   6  11    4.54    0.85 
   1   6  11    3.31    0.80 
   2   6  11    0.29    0.40 
   2   6  11    0.64    0.44 
   2   6  11    0.26    0.39 
   3   6  11    3.16    0.71 
   3   6  11    2.96    0.72 
   3   6  11    2.99    0.79 
   4   6  11   -0.26    0.32 
   4   6  11    0.23    0.41 
   4   6  11   -0.35    0.34 
   5   6  11    0.27    0.39 
   5   6  11    0.69    0.47 
   5   6  11    0.57    0.44 
   6   6  11    0.38    0.39 
   6   6  11    0.54    0.49 
   1   7  11    0.08    0.53 
   1   7  11   -0.47    0.42 
   1   7  11   -0.01    0.42 
   2   7  11    0.18    0.43 
   2   7  11   -0.03    0.39 
   2   7  11    0.17    0.44 
   3   7  11    0.17    0.38 
   3   7  11   -0.22    0.38 
   3   7  11    0.50    0.54 
   4   7  11    0.58    0.52 
   4   7  11   -0.19    0.41 
   4   7  11    0.02    0.41 
   1   5 -12   -0.24    0.46 
   1   5 -12   -0.16    0.54 
   1   5 -12    0.17    0.63 
  -1  -5  12   -0.85    0.44 
   0   5 -12   11.26    1.69 
   0  -5  12   13.14    1.91 
  -1   5 -12   -0.29    0.55 
   1  -5  12   -0.02    0.55 
   1  -5  12   -0.29    0.44 
   3   4 -12    1.20    0.78 
   3   4 -12    0.37    0.69 
   2   4 -12   -0.17    0.45 
   2   4 -12    0.66    0.66 
   2   4 -12   -0.05    0.55 
  -2  -4  12    0.65    0.49 
   1   4 -12    1.25    0.55 
   1   4 -12    1.93    0.77 
   1   4 -12    0.46    0.49 
  -1  -4  12    0.37    0.54 
   0   4 -12   -0.18    0.38 
   0   4 -12    0.02    0.56 
   0  -4  12    0.17    0.34 
   0  -4  12   -0.40    0.41 
  -1   4 -12    0.04    0.42 
   1  -4  12    1.06    0.64 
   1  -4  12    0.79    0.45 
  -2   4 -12    0.89    0.53 
   2  -4  12    0.09    0.46 
   2  -4  12    0.01    0.51 
   3  -4  12    0.19    0.56 
   3  -4  12    0.11    0.49 
   3   3 -12    0.63    0.62 
   3   3 -12   -0.05    0.70 
   3   3 -12    0.46    0.49 
  -3  -3  12    1.03    0.64 
   2   3 -12    1.02    0.63 
   2   3 -12    1.44    0.62 
   2   3 -12    0.41    0.50 
  -2  -3  12    0.71    0.50 
   1   3 -12    1.03    0.57 
   1   3 -12    0.29    0.58 
  -1  -3  12    0.54    0.28 
  -1  -3  12    1.55    0.61 
   0   3 -12    2.36    0.74 
   0   3 -12    1.72    0.71 
   0  -3  12    2.01    0.72 
   0  -3  12    1.07    0.44 
  -1   3 -12    0.31    0.68 
  -1   3 -12   -0.08    0.39 
   1  -3  12    0.28    0.35 
   1  -3  12   -0.08    0.39 
  -2   3 -12    0.68    0.51 
   2  -3  12    0.21    0.44 
   2  -3  12    0.99    0.58 
   3  -3  12    0.85    0.53 
   3  -3  12    0.54    0.52 
   4  -3  12   -0.11    0.53 
   4  -3  12    0.16    0.50 
   4   2 -12    0.71    0.70 
   4   2 -12    0.64    0.64 
   3   2 -12   -0.05    0.43 
   3   2 -12    0.34    0.51 
   3   2 -12    1.33    0.68 
  -3  -2  12   -0.17    0.43 
   2   2 -12    0.72    0.52 
   2   2 -12    1.18    0.53 
   2   2 -12    1.13    0.62 
  -2  -2  12    0.20    0.41 
  -2  -2  12    0.84    0.28 
   1   2 -12    3.19    0.74 
   1   2 -12    2.88    0.72 
  -1  -2  12    1.99    0.45 
  -1  -2  12    2.15    0.65 
   0   2 -12    1.02    0.57 
   0   2 -12    0.37    0.39 
   0  -2  12    0.17    0.38 
   0  -2  12    0.46    0.34 
  -1   2 -12    3.05    0.81 
  -1   2 -12    3.31    0.76 
   1  -2  12    1.95    0.72 
   1  -2  12    3.60    0.74 
   2  -2  12   -0.08    0.37 
   2  -2  12    0.07    0.34 
   3  -2  12    1.12    0.56 
   3  -2  12    0.61    0.49 
   4  -2  12   -0.30    0.48 
   4  -2  12   -0.14    0.40 
   5  -2  12    0.05    0.61 
   5  -2  12   -0.25    0.40 
   4   1 -12    0.37    0.70 
   4   1 -12    0.23    0.54 
   3   1 -12    1.34    0.76 
  -3  -1  12    1.78    0.38 
  -3  -1  12    0.85    0.56 
   2   1 -12    1.25    0.68 
  -2  -1  12    1.71    0.37 
  -2  -1  12    1.06    0.57 
   1   1 -12    1.31    0.66 
  -1  -1  12    1.40    0.40 
  -1  -1  12    0.95    0.52 
   0   1 -12    1.19    0.52 
   0  -1  12    0.49    0.42 
   0  -1  12    0.22    0.30 
  -1   1 -12    0.25    0.53 
   1  -1  12   -0.02    0.31 
   1  -1  12    0.27    0.31 
  -2   1 -12   -0.03    0.41 
   2  -1  12    0.36    0.36 
   2  -1  12    0.23    0.38 
   3  -1  12   -0.26    0.33 
   3  -1  12    0.16    0.38 
   4  -1  12    0.28    0.43 
   4  -1  12    2.04    0.67 
   5  -1  12   -0.13    0.37 
   5  -1  12    0.97    0.65 
  -6   1 -12    0.22    0.36 
   6  -1  12    0.08    0.65 
   6  -1  12    0.35    0.46 
   4   0 -12    0.92    0.74 
   3   0 -12   -0.24    0.55 
  -3   0  12   -0.14    0.20 
  -3   0  12   -0.36    0.43 
   2   0 -12    1.24    0.67 
  -2   0  12    1.81    0.61 
  -2   0  12    0.64    0.32 
   1   0 -12    0.23    0.55 
  -1   0  12    0.75    0.49 
  -1   0  12    1.20    0.44 
   0   0 -12    4.90    0.92 
   0   0  12    1.85    0.60 
   0   0  12    2.36    0.55 
  -1   0 -12    1.63    0.56 
   1   0  12    1.73    0.52 
   1   0  12    1.01    0.48 
  -2   0 -12    0.21    0.42 
   2   0  12    1.90    0.61 
   2   0  12    0.54    0.36 
   3   0  12   -0.06    0.31 
   3   0  12    0.77    0.39 
   4   0  12    0.08    0.45 
   4   0  12   -0.06    0.36 
   5   0  12    0.49    0.59 
   5   0  12    0.16    0.37 
  -6   0 -12    1.54    0.51 
   6   0  12    1.17    0.52 
   6   0  12    0.30    0.63 
   4  -1 -12    0.24    0.69 
   3  -1 -12    1.20    0.70 
  -3   1  12    0.66    0.36 
  -3   1  12    0.88    0.55 
   2  -1 -12    0.94    0.59 
  -2   1  12    0.71    0.31 
  -2   1  12    0.42    0.42 
   1  -1 -12    0.99    0.59 
  -1   1  12    1.07    0.53 
  -1   1  12    0.51    0.36 
   0  -1 -12    3.78    0.87 
   0   1  12    1.73    0.51 
   0   1  12    2.80    0.73 
  -1  -1 -12    0.41    0.46 
   1   1  12    0.10    0.35 
   1   1  12    0.85    0.38 
  -2  -1 -12    2.74    0.65 
   2   1  12    1.08    0.47 
   2   1  12    0.89    0.45 
   3   1  12    2.39    0.64 
   3   1  12    2.59    0.68 
   4   1  12    0.12    0.33 
   4   1  12    0.33    0.38 
   5   1  12    3.17    0.82 
   5   1  12    2.13    0.64 
   6   1  12    0.21    0.36 
   6   1  12   -0.36    0.49 
   3  -2 -12   -0.46    0.63 
  -3   2  12    0.55    0.57 
   2  -2 -12   -0.89    0.53 
  -2   2  12   -0.01    0.27 
  -2   2  12   -0.07    0.44 
   1  -2 -12    0.59    0.60 
  -1   2  12    0.92    0.58 
  -1   2  12    1.24    0.46 
   0  -2 -12    1.44    0.61 
   0   2  12    1.12    0.50 
   0   2  12    0.87    0.42 
  -1  -2 -12    0.32    0.42 
   1   2  12    0.36    0.39 
   1   2  12    0.82    0.41 
  -2  -2 -12    0.20    0.45 
   2   2  12    0.68    0.42 
   2   2  12   -0.08    0.30 
   3   2  12    0.17    0.31 
   3   2  12    0.21    0.35 
   4   2  12    0.45    0.41 
   4   2  12    0.26    0.32 
   5   2  12    0.21    0.37 
   5   2  12    0.51    0.46 
   6   2  12   -0.38    0.47 
   6   2  12    0.11    0.34 
   3  -3 -12    1.40    0.83 
   2  -3 -12    0.41    0.55 
  -2   3  12    0.42    0.37 
  -2   3  12    0.04    0.39 
   1  -3 -12    0.36    0.54 
  -1   3  12    0.95    0.46 
  -1   3  12    0.67    0.51 
   0  -3 -12   -0.61    0.46 
   0   3  12    1.14    0.44 
   0   3  12    1.95    0.64 
  -1  -3 -12   -0.10    0.42 
   1   3  12    0.08    0.36 
   1   3  12    0.31    0.36 
  -2  -3 -12    3.13    0.74 
   2   3  12    4.06    0.85 
   2   3  12    2.67    0.62 
   3   3  12    0.32    0.41 
   3   3  12    0.16    0.33 
   4   3  12    2.09    0.63 
   4   3  12    2.12    0.61 
   5   3  12    0.23    0.36 
   5   3  12    0.73    0.48 
   6   3  12    0.56    0.54 
   6   3  12    0.90    0.46 
   2  -4 -12    0.32    0.68 
  -2   4  12    1.16    0.51 
  -2   4  12    0.87    0.56 
   1  -4 -12    0.79    0.62 
  -1   4  12    1.08    0.45 
  -1   4  12    1.03    0.58 
   0  -4 -12   -0.34    0.49 
   0   4  12   -0.49    0.37 
   0   4  12    0.65    0.37 
  -1  -4 -12    0.96    0.56 
   1   4  12    1.29    0.50 
   1   4  12    0.44    0.47 
   2   4  12    0.07    0.26 
   2   4  12    0.08    0.33 
   3   4  12    0.71    0.43 
   3   4  12    1.06    0.48 
   4   4  12   -0.17    0.37 
   4   4  12    0.11    0.41 
   5   4  12    0.48    0.44 
   5   4  12    0.50    0.50 
   6   4  12    0.14    0.40 
   6   4  12   -0.09    0.34 
   1  -5 -12    0.45    0.64 
  -1   5  12   -0.21    0.42 
  -1   5  12   -0.10    0.41 
   0  -5 -12    1.83    0.87 
   0   5  12    2.33    0.63 
   0   5  12    2.66    0.84 
   1   5  12    0.04    0.37 
   1   5  12   -0.31    0.35 
   2   5  12    2.20    0.64 
   2   5  12    3.99    0.95 
   3   5  12   -0.30    0.35 
   3   5  12   -0.15    0.33 
   4   5  12    0.56    0.46 
   4   5  12    0.92    0.42 
   5   5  12   -0.23    0.33 
   5   5  12   -0.11    0.39 
   0   6  12    0.14    0.49 
   0   6  12   -0.14    0.42 
   1   6  12    0.28    0.46 
   1   6  12   -0.13    0.43 
   2   6  12    1.11    0.57 
   2   6  12    0.80    0.49 
   2   6  12    0.99    0.62 
   3   6  12    1.24    0.59 
   3   6  12    1.81    0.66 
   3   6  12    0.96    0.60 
   4   6  12    2.71    0.72 
   4   6  12    1.53    0.65 
   4   6  12    1.72    0.61 
   5   6  12    0.17    0.47 
   5   6  12   -0.08    0.43 
   1   4 -13   -0.17    0.50 
   1   4 -13    0.36    0.65 
  -1  -4  13    0.25    0.54 
   0   4 -13    0.29    0.45 
   0  -4  13    0.64    0.61 
  -1   4 -13   -0.32    0.48 
   1  -4  13    1.16    0.55 
   1  -4  13    1.11    0.65 
   2  -4  13    2.23    0.76 
   2  -4  13    3.21    1.02 
   2   3 -13    1.06    0.69 
   2   3 -13    0.39    0.56 
  -2  -3  13    1.67    0.76 
   1   3 -13    2.25    0.66 
   1   3 -13    2.18    0.84 
  -1  -3  13    0.16    0.57 
   0   3 -13    2.56    0.75 
   0   3 -13    3.10    1.07 
   0  -3  13    3.37    0.88 
   0  -3  13    1.51    0.53 
  -1   3 -13    1.01    0.59 
   1  -3  13    1.25    0.53 
   1  -3  13    1.00    0.64 
  -2   3 -13    0.74    0.46 
   2  -3  13    0.10    0.49 
   2  -3  13    0.67    0.42 
   3  -3  13    0.98    0.57 
   3  -3  13   -0.02    0.47 
   2   2 -13    0.49    0.69 
  -2  -2  13   -0.35    0.40 
   1   2 -13    0.09    0.69 
  -1  -2  13    0.51    0.48 
  -1  -2  13    0.10    0.29 
   0   2 -13   -0.28    0.48 
   0  -2  13   -0.08    0.49 
   0  -2  13    0.23    0.34 
   1  -2  13    1.35    0.52 
   1  -2  13    1.20    0.57 
   2  -2  13    0.50    0.39 
   2  -2  13    0.88    0.60 
   3  -2  13    1.40    0.64 
   3  -2  13    0.64    0.59 
   4  -2  13    0.47    0.56 
   4  -2  13   -0.03    0.48 
   3   1 -13    0.59    0.81 
   2   1 -13    2.74    0.78 
  -2  -1  13    2.28    0.49 
  -2  -1  13    2.44    0.81 
   1   1 -13    0.47    0.55 
  -1  -1  13   -0.07    0.38 
  -1  -1  13    0.20    0.24 
   0   1 -13    5.90    1.06 
   0  -1  13    5.78    0.89 
   0  -1  13    4.08    0.97 
  -1   1 -13   -0.72    0.47 
   1  -1  13    0.70    0.47 
   1  -1  13   -0.11    0.31 
   2  -1  13    2.11    0.64 
   2  -1  13    0.94    0.52 
   3  -1  13    0.30    0.46 
   3  -1  13    1.59    0.63 
   4  -1  13   -0.32    0.40 
   4  -1  13    0.42    0.46 
   5  -1  13    0.63    0.64 
   5  -1  13   -0.18    0.44 
   3   0 -13    0.84    0.76 
  -3   0  13   -0.20    0.26 
   2   0 -13   -0.20    0.64 
  -2   0  13   -0.10    0.25 
  -2   0  13   -0.56    0.40 
   1   0 -13    2.13    0.86 
  -1   0  13    0.30    0.46 
  -1   0  13    1.56    0.47 
   0   0 -13    3.26    0.93 
   0   0  13    1.96    0.63 
   0   0  13    1.26    0.44 
  -1   0 -13    3.08    0.80 
   1   0  13    2.67    0.67 
   1   0  13    3.76    0.89 
   2   0  13    1.72    0.57 
   2   0  13    0.46    0.43 
   3   0  13    0.95    0.48 
   3   0  13    1.44    0.61 
   4   0  13   -0.39    0.39 
   4   0  13    0.09    0.43 
   5   0  13   -0.02    0.56 
   5   0  13    0.29    0.42 
   3  -1 -13    0.11    0.67 
  -3   1  13   -0.53    0.28 
   2  -1 -13    0.12    0.57 
  -2   1  13    0.88    0.37 
  -2   1  13    0.50    0.51 
   1  -1 -13   -0.29    0.54 
  -1   1  13    0.13    0.32 
  -1   1  13   -0.18    0.36 
   0  -1 -13    4.96    1.08 
   0   1  13    2.51    0.74 
   0   1  13    2.50    0.64 
  -1  -1 -13   -0.34    0.45 
   1   1  13   -0.13    0.34 
   1   1  13    0.49    0.35 
   2   1  13    1.75    0.60 
   2   1  13    3.30    0.76 
   3   1  13    0.60    0.46 
   3   1  13    0.22    0.39 
   4   1  13    1.38    0.57 
   4   1  13    1.52    0.65 
   5   1  13   -0.29    0.37 
   5   1  13    0.02    0.49 
   2  -2 -13    0.03    0.67 
  -2   2  13    0.23    0.36 
  -2   2  13   -0.08    0.44 
   1  -2 -13    2.30    0.83 
  -1   2  13    3.62    0.72 
  -1   2  13    3.41    0.88 
   0  -2 -13   -0.02    0.48 
   0   2  13    0.45    0.45 
   0   2  13   -0.38    0.31 
  -1  -2 -13    2.89    0.78 
   1   2  13    2.89    0.77 
   1   2  13    3.84    0.77 
   2   2  13    0.09    0.39 
   2   2  13    0.08    0.31 
   3   2  13   -0.01    0.37 
   3   2  13    0.58    0.44 
   4   2  13    0.75    0.51 
   4   2  13    0.93    0.50 
   5   2  13    0.19    0.43 
   5   2  13    0.15    0.43 
   6   2  13    0.80    0.57 
   6   2  13   -0.05    0.45 
   2  -3 -13    0.00    0.72 
  -2   3  13    0.16    0.46 
  -2   3  13    0.64    0.41 
   1  -3 -13   -0.23    0.64 
  -1   3  13   -0.28    0.36 
  -1   3  13    0.51    0.41 
   0  -3 -13    0.22    0.57 
   0   3  13   -0.05    0.38 
   0   3  13   -0.22    0.34 
  -1  -3 -13   -0.57    0.63 
   1   3  13    0.06    0.45 
   1   3  13   -0.28    0.29 
   2   3  13    0.83    0.48 
   2   3  13    0.14    0.39 
   3   3  13    1.26    0.51 
   3   3  13    0.84    0.46 
   4   3  13    0.55    0.41 
   4   3  13    0.50    0.41 
   5   3  13    0.28    0.45 
   5   3  13    0.14    0.37 
   1  -4 -13    3.62    1.08 
  -1   4  13    2.66    0.79 
  -1   4  13    3.41    0.79 
   0  -4 -13    0.56    0.63 
   0   4  13    1.46    0.54 
   0   4  13    0.00    0.49 
   1   4  13    7.15    1.06 
   1   4  13    2.43    0.80 
   2   4  13   -0.12    0.36 
   2   4  13   -0.22    0.30 
   3   4  13    1.03    0.50 
   3   4  13    1.41    0.56 
   4   4  13    0.28    0.43 
   4   4  13   -0.11    0.46 
   5   4  13   -0.09    0.41 
   5   4  13   -0.02    0.40 
   0   5  13    1.64    0.64 
   0   5  13    2.15    0.83 
   1   5  13    0.66    0.50 
   1   5  13    1.31    0.63 
   2   5  13    0.02    0.38 
   2   5  13    0.61    0.44 
   3   5  13    1.08    0.53 
   3   5  13    0.80    0.57 
   4   5  13   -0.24    0.38 
   4   5  13   -0.11    0.49 
  -1   3 -14    0.70    0.59 
   1  -3  14    1.63    0.74 
   1  -3  14    2.20    0.68 
   1   2 -14   -0.40    0.65 
  -1  -2  14    0.56    0.66 
  -1  -2  14   -0.07    0.51 
   0  -2  14    0.14    0.34 
   0  -2  14    0.18    0.49 
   1  -2  14    0.58    0.48 
   1  -2  14    0.40    0.54 
   2  -2  14    0.76    0.58 
   2  -2  14    0.52    0.48 
   3  -2  14    0.71    0.64 
   3  -2  14    1.83    0.80 
   1   1 -14    0.14    0.59 
  -1  -1  14    0.18    0.35 
  -1  -1  14    0.15    0.50 
   0  -1  14    2.82    0.81 
   0  -1  14    1.63    0.57 
   1  -1  14    0.43    0.49 
   1  -1  14    0.12    0.38 
   2  -1  14    0.69    0.46 
   2  -1  14    0.59    0.56 
   3  -1  14    1.46    0.62 
   3  -1  14    0.52    0.55 
   4  -1  14    0.23    0.48 
   4  -1  14    0.20    0.55 
   2   0 -14    0.47    0.75 
   1   0 -14    1.23    0.79 
  -1   0  14    0.69    0.43 
  -1   0  14    0.49    0.64 
   0   0 -14    0.61    0.69 
   0   0  14    1.45    0.64 
   0   0  14    0.42    0.35 
   1   0  14    1.03    0.48 
   1   0  14    0.02    0.43 
   2   0  14    3.77    0.86 
   2   0  14    1.85    0.73 
   3   0  14    0.07    0.47 
   3   0  14    0.52    0.48 
   4   0  14    1.92    0.70 
   4   0  14    1.35    0.64 
   1  -1 -14    0.72    0.69 
  -1   1  14    0.99    0.61 
  -1   1  14   -0.07    0.32 
   0  -1 -14    1.32    0.78 
   0   1  14    0.35    0.43 
   0   1  14    1.10    0.45 
   1   1  14    0.83    0.55 
   1   1  14   -0.02    0.37 
   2   1  14    0.20    0.41 
   2   1  14   -0.33    0.31 
   3   1  14    0.54    0.50 
   3   1  14    0.36    0.45 
   4   1  14    0.18    0.39 
   4   1  14    0.33    0.45 
   1  -2 -14   -0.07    0.67 
  -1   2  14    0.36    0.51 
  -1   2  14    0.36    0.34 
   0  -2 -14    1.07    1.03 
   0   2  14   -0.20    0.45 
   0   2  14    0.00    0.41 
   1   2  14    1.19    0.53 
   1   2  14   -0.12    0.38 
   2   2  14    1.71    0.61 
   2   2  14    2.45    0.73 
   3   2  14    0.45    0.48 
   3   2  14   -0.29    0.39 
   4   2  14    1.38    0.66 
   4   2  14    1.52    0.63 
   5   2  14   -0.25    0.41 
   5   2  14    0.64    0.54 
   1  -3 -14    0.05    0.72 
   0   3  14    1.21    0.68 
   0   3  14    2.09    0.64 
   1   3  14    2.44    0.63 
   1   3  14    1.63    0.70 
   2   3  14    0.16    0.45 
   2   3  14    0.95    0.46 
   3   3  14    2.51    0.74 
   3   3  14    2.63    0.79 
   4   3  14   -0.32    0.36 
   4   3  14   -0.02    0.36 
   1   4  14    1.06    0.63 
   1   4  14    0.19    0.45 
   2   4  14   -0.21    0.40 
   2   4  14    0.14    0.45 
   3   4  14    0.93    0.51 
   3   4  14    1.14    0.62 
   4   4  14   -0.11    0.44 
   4   4  14    0.21    0.41 
   1   0  15   -0.06    0.35 
   1   0  15    0.12    0.48 
   2   0  15    1.37    0.62 
   2   0  15    1.44    0.64 
   1   1  15    0.49    0.43 
   1   1  15    0.52    0.60 
   2   1  15   -0.16    0.37 
   2   1  15    0.28    0.46 
   3   1  15    0.48    0.54 
   3   1  15    0.91    0.53 
   1   2  15    0.40    0.49 
   1   2  15   -0.12    0.43 
   2   2  15    0.80    0.53 
   2   2  15    0.69    0.49 
   3   2  15   -0.55    0.38 
   3   2  15    0.16    0.50 
   0   0   0    0.00    0.00 
;
_shelx_hkl_checksum              58527
loop_
_space_group_symop_operation_xyz
'x, y, z'
'-x, -y, -z'
loop_
_atom_site_label
_atom_site_type_symbol
_atom_site_fract_x
_atom_site_fract_y
_atom_site_fract_z
_atom_site_U_iso_or_equiv
_atom_site_adp_type
_atom_site_occupancy
_atom_site_site_symmetry_order
_atom_site_calc_flag
_atom_site_refinement_flags_posn
_atom_site_refinement_flags_adp
_atom_site_refinement_flags_occupancy
_atom_site_disorder_assembly
_atom_site_disorder_group
C1 C 0.2417(5) 0.2922(5) 0.2913(3) 0.0424(9) Uani 1 1 d . . . . .
C2 C 0.2277(6) 0.4584(5) 0.2340(4) 0.0585(12) Uani 1 1 d . . . . .
H2 H 0.1965 0.5615 0.2741 0.070 Uiso 1 1 calc R U . . .
C3 C 0.2615(7) 0.4653(6) 0.1163(4) 0.0675(13) Uani 1 1 d . . . . .
H3 H 0.2540 0.5755 0.0768 0.081 Uiso 1 1 calc R U . . .
C4 C 0.3061(7) 0.3149(7) 0.0545(4) 0.0648(12) Uani 1 1 d . . . . .
H4 H 0.3267 0.3242 -0.0252 0.078 Uiso 1 1 calc R U . . .
C5 C 0.3200(6) 0.1507(6) 0.1120(4) 0.0524(11) Uani 1 1 d . . . . .
H5 H 0.3508 0.0480 0.0716 0.063 Uiso 1 1 calc R U . . .
C6 C 0.2878(5) 0.1405(5) 0.2298(3) 0.0403(9) Uani 1 1 d . . . . .
C7 C 0.3023(5) -0.0230(5) 0.3044(3) 0.0397(9) Uani 1 1 d . . . . .
C8 C 0.2613(5) 0.0208(5) 0.4274(3) 0.0381(9) Uani 1 1 d . . . . .
C9 C 0.2695(5) -0.1095(5) 0.5114(3) 0.0411(9) Uani 1 1 d . . . . .
H9 H 0.3026 -0.2234 0.4845 0.049 Uiso 1 1 calc R U . . .
C10 C 0.2368(5) -0.1063(5) 0.6351(3) 0.0392(9) Uani 1 1 d . . . . .
C11 C 0.2549(5) -0.2683(5) 0.7028(3) 0.0417(9) Uani 1 1 d . . . . .
C12 C 0.2231(6) -0.2614(6) 0.8200(4) 0.0535(11) Uani 1 1 d . . . . .
H12 H 0.2336 -0.3672 0.8648 0.064 Uiso 1 1 calc R U . . .
C13 C 0.1764(6) -0.1040(6) 0.8733(4) 0.0569(12) Uani 1 1 d . . . . .
H13 H 0.1560 -0.1040 0.9529 0.068 Uiso 1 1 calc R U . . .
C14 C 0.1596(6) 0.0550(6) 0.8081(4) 0.0575(12) Uani 1 1 d . . . . .
H14 H 0.1286 0.1624 0.8435 0.069 Uiso 1 1 calc R U . . .
C15 C 0.1889(6) 0.0525(5) 0.6921(4) 0.0514(10) Uani 1 1 d . . . . .
H15 H 0.1767 0.1598 0.6489 0.062 Uiso 1 1 calc R U . . .
C16 C 0.3073(7) -0.4457(5) 0.6497(4) 0.0575(11) Uani 1 1 d . . . . .
H16A H 0.3184 -0.5389 0.7090 0.086 Uiso 1 1 calc R U . . .
H16B H 0.4315 -0.4568 0.5979 0.086 Uiso 1 1 calc R U . . .
H16C H 0.2053 -0.4545 0.6085 0.086 Uiso 1 1 calc R U . . .
O1 O 0.3449(4) -0.1738(4) 0.2715(2) 0.0586(8) Uani 1 1 d . . . . .
S1 S 0.20859(15) 0.25154(12) 0.44025(9) 0.0471(4) Uani 1 1 d . . . . .
loop_
_atom_site_aniso_label
_atom_site_aniso_U_11
_atom_site_aniso_U_22
_atom_site_aniso_U_33
_atom_site_aniso_U_23
_atom_site_aniso_U_13
_atom_site_aniso_U_12
C1 0.050(2) 0.040(2) 0.040(2) 0.0020(17) -0.0112(17) -0.0127(16)
C2 0.076(3) 0.040(2) 0.062(3) 0.008(2) -0.019(2) -0.016(2)
C3 0.091(3) 0.054(3) 0.059(3) 0.022(2) -0.019(3) -0.024(2)
C4 0.086(3) 0.062(3) 0.047(3) 0.012(2) -0.015(2) -0.022(2)
C5 0.060(2) 0.057(3) 0.042(2) -0.006(2) -0.0062(19) -0.015(2)
C6 0.046(2) 0.035(2) 0.040(2) -0.0017(17) -0.0067(17) -0.0112(16)
C7 0.045(2) 0.035(2) 0.040(2) -0.0056(17) -0.0082(17) -0.0095(16)
C8 0.0432(19) 0.033(2) 0.039(2) -0.0030(16) -0.0059(16) -0.0111(15)
C9 0.050(2) 0.032(2) 0.040(2) -0.0013(16) -0.0080(17) -0.0060(16)
C10 0.042(2) 0.038(2) 0.037(2) -0.0005(16) -0.0064(16) -0.0084(16)
C11 0.044(2) 0.042(2) 0.038(2) -0.0004(17) -0.0083(17) -0.0061(16)
C12 0.062(3) 0.055(3) 0.040(2) 0.002(2) -0.007(2) -0.009(2)
C13 0.063(3) 0.069(3) 0.036(2) -0.008(2) -0.006(2) -0.009(2)
C14 0.068(3) 0.056(3) 0.046(3) -0.016(2) -0.004(2) -0.007(2)
C15 0.066(3) 0.039(2) 0.048(3) -0.0012(18) -0.011(2) -0.0085(19)
C16 0.073(3) 0.042(2) 0.054(3) -0.001(2) -0.010(2) -0.007(2)
O1 0.089(2) 0.0350(16) 0.0504(18) -0.0094(13) -0.0085(15) -0.0109(14)
S1 0.0674(8) 0.0325(6) 0.0424(7) -0.0024(4) -0.0114(5) -0.0110(5)
loop_
_atom_type_symbol
_atom_type_description
_atom_type_scat_dispersion_real
_atom_type_scat_dispersion_imag
_atom_type_scat_source
C C 0.0033 0.0016 'International Tables Vol C Tables 4.2.6.8 and 6.1.1.4'
H H 0.0000 0.0000 'International Tables Vol C Tables 4.2.6.8 and 6.1.1.4'
O O 0.0106 0.0060 'International Tables Vol C Tables 4.2.6.8 and 6.1.1.4'
S S 0.1246 0.1234 'International Tables Vol C Tables 4.2.6.8 and 6.1.1.4'
loop_
_geom_angle_atom_site_label_1
_geom_angle_atom_site_label_2
_geom_angle_atom_site_label_3
_geom_angle
_geom_angle_site_symmetry_1
_geom_angle_site_symmetry_3
_geom_angle_publ_flag
C6 C1 C2 120.1(4) . . ?
C6 C1 S1 114.3(3) . . ?
C2 C1 S1 125.6(3) . . ?
C3 C2 C1 117.8(4) . . ?
C3 C2 H2 121.1 . . ?
C1 C2 H2 121.1 . . ?
C2 C3 C4 122.4(4) . . ?
C2 C3 H3 118.8 . . ?
C4 C3 H3 118.8 . . ?
C5 C4 C3 119.4(4) . . ?
C5 C4 H4 120.3 . . ?
C3 C4 H4 120.3 . . ?
C6 C5 C4 119.2(4) . . ?
C6 C5 H5 120.4 . . ?
C4 C5 H5 120.4 . . ?
C5 C6 C1 121.1(4) . . ?
C5 C6 C7 126.4(3) . . ?
C1 C6 C7 112.5(3) . . ?
O1 C7 C6 125.4(3) . . ?
O1 C7 C8 124.3(4) . . ?
C6 C7 C8 110.3(3) . . ?
C9 C8 C7 120.6(3) . . ?
C9 C8 S1 128.6(3) . . ?
C7 C8 S1 110.8(3) . . ?
C8 C9 C10 132.4(4) . . ?
C8 C9 H9 113.8 . . ?
C10 C9 H9 113.8 . . ?
C15 C10 C11 117.8(3) . . ?
C15 C10 C9 122.4(3) . . ?
C11 C10 C9 119.7(3) . . ?
C12 C11 C10 118.6(4) . . ?
C12 C11 C16 119.6(4) . . ?
C10 C11 C16 121.9(3) . . ?
C13 C12 C11 122.3(4) . . ?
C13 C12 H12 118.9 . . ?
C11 C12 H12 118.9 . . ?
C12 C13 C14 119.7(4) . . ?
C12 C13 H13 120.1 . . ?
C14 C13 H13 120.1 . . ?
C15 C14 C13 119.3(4) . . ?
C15 C14 H14 120.3 . . ?
C13 C14 H14 120.3 . . ?
C14 C15 C10 122.3(4) . . ?
C14 C15 H15 118.9 . . ?
C10 C15 H15 118.9 . . ?
C11 C16 H16A 109.5 . . ?
C11 C16 H16B 109.5 . . ?
H16A C16 H16B 109.5 . . ?
C11 C16 H16C 109.5 . . ?
H16A C16 H16C 109.5 . . ?
H16B C16 H16C 109.5 . . ?
C1 S1 C8 92.07(17) . . ?
loop_
_geom_bond_atom_site_label_1
_geom_bond_atom_site_label_2
_geom_bond_distance
_geom_bond_site_symmetry_2
_geom_bond_publ_flag
C1 C6 1.385(5) . ?
C1 C2 1.390(5) . ?
C1 S1 1.750(4) . ?
C2 C3 1.373(6) . ?
C2 H2 0.9300 . ?
C3 C4 1.380(6) . ?
C3 H3 0.9300 . ?
C4 C5 1.378(6) . ?
C4 H4 0.9300 . ?
C5 C6 1.373(5) . ?
C5 H5 0.9300 . ?
C6 C7 1.471(5) . ?
C7 O1 1.220(4) . ?
C7 C8 1.492(5) . ?
C8 C9 1.350(5) . ?
C8 S1 1.755(4) . ?
C9 C10 1.447(5) . ?
C9 H9 0.9300 . ?
C10 C15 1.402(5) . ?
C10 C11 1.419(5) . ?
C11 C12 1.373(6) . ?
C11 C16 1.505(5) . ?
C12 C13 1.371(6) . ?
C12 H12 0.9300 . ?
C13 C14 1.385(6) . ?
C13 H13 0.9300 . ?
C14 C15 1.358(5) . ?
C14 H14 0.9300 . ?
C15 H15 0.9300 . ?
C16 H16A 0.9600 . ?
C16 H16B 0.9600 . ?
C16 H16C 0.9600 . ?
loop_
_geom_torsion_atom_site_label_1
_geom_torsion_atom_site_label_2
_geom_torsion_atom_site_label_3
_geom_torsion_atom_site_label_4
_geom_torsion
_geom_torsion_site_symmetry_1
_geom_torsion_site_symmetry_2
_geom_torsion_site_symmetry_3
_geom_torsion_site_symmetry_4
_geom_torsion_publ_flag
C6 C1 C2 C3 -0.2(6) . . . . ?
S1 C1 C2 C3 179.0(3) . . . . ?
C1 C2 C3 C4 0.6(7) . . . . ?
C2 C3 C4 C5 -0.8(7) . . . . ?
C3 C4 C5 C6 0.4(6) . . . . ?
C4 C5 C6 C1 0.0(6) . . . . ?
C4 C5 C6 C7 -178.1(3) . . . . ?
C2 C1 C6 C5 -0.1(6) . . . . ?
S1 C1 C6 C5 -179.4(3) . . . . ?
C2 C1 C6 C7 178.2(3) . . . . ?
S1 C1 C6 C7 -1.0(4) . . . . ?
C5 C6 C7 O1 -0.2(6) . . . . ?
C1 C6 C7 O1 -178.4(3) . . . . ?
C5 C6 C7 C8 178.6(3) . . . . ?
C1 C6 C7 C8 0.4(4) . . . . ?
O1 C7 C8 C9 -0.1(6) . . . . ?
C6 C7 C8 C9 -179.0(3) . . . . ?
O1 C7 C8 S1 179.3(3) . . . . ?
C6 C7 C8 S1 0.4(4) . . . . ?
C7 C8 C9 C10 -179.7(3) . . . . ?
S1 C8 C9 C10 1.0(6) . . . . ?
C8 C9 C10 C15 -1.1(6) . . . . ?
C8 C9 C10 C11 179.5(3) . . . . ?
C15 C10 C11 C12 0.5(5) . . . . ?
C9 C10 C11 C12 180.0(3) . . . . ?
C15 C10 C11 C16 -179.5(3) . . . . ?
C9 C10 C11 C16 -0.1(5) . . . . ?
C10 C11 C12 C13 -0.6(6) . . . . ?
C16 C11 C12 C13 179.5(4) . . . . ?
C11 C12 C13 C14 0.1(6) . . . . ?
C12 C13 C14 C15 0.3(6) . . . . ?
C13 C14 C15 C10 -0.3(6) . . . . ?
C11 C10 C15 C14 -0.1(6) . . . . ?
C9 C10 C15 C14 -179.5(3) . . . . ?
C6 C1 S1 C8 1.1(3) . . . . ?
C2 C1 S1 C8 -178.1(3) . . . . ?
C9 C8 S1 C1 178.5(3) . . . . ?
C7 C8 S1 C1 -0.8(3) . . . . ?
