#------------------------------------------------------------------------------
#$Date: 2022-06-06 05:03:16 +0300 (Mon, 06 Jun 2022) $
#$Revision: 275819 $
#$URL: file:///home/coder/svn-repositories/cod/cif/7/15/86/7158670.cif $
#------------------------------------------------------------------------------
#
# This file is available in the Crystallography Open Database (COD),
# http://www.crystallography.net/
#
# All data on this site have been placed in the public domain by the
# contributors.
#
data_7158670
loop_
_publ_author_name
'Si, Min'
'Yan, Jiaqi'
'Ding, Yongzheng'
'Huang, Hanmin'
_publ_section_title
;
 Pd-Catalyzed carbonylative lactonization of 2-halidearomatic aldehydes
 with H<sub>2</sub>O as a nucleophile.
;
_journal_issue                   19
_journal_name_full               'Organic &amp; biomolecular chemistry'
_journal_page_first              3917
_journal_page_last               3921
_journal_paper_doi               10.1039/d2ob00623e
_journal_volume                  20
_journal_year                    2022
_chemical_absolute_configuration unk
_chemical_formula_moiety         'C16 H10 O5'
_chemical_formula_sum            'C16 H10 O5'
_chemical_formula_weight         282.255
_space_group_crystal_system      monoclinic
_space_group_IT_number           7
_space_group_name_Hall           'P -2yac'
_space_group_name_H-M_alt        'P 1 n 1'
_symmetry_Int_Tables_number      7
_atom_sites_solution_primary     dual
_audit_creation_date             2021-10-13
_audit_creation_method
;
Olex2 1.3
(compiled 2020.11.12 svn.r5f609507 for OlexSys, GUI svn.r6408)
;
_audit_update_record
;
2022-04-02 deposited with the CCDC.	2022-04-29 downloaded from the CCDC.
;
_cell_angle_alpha                90
_cell_angle_beta                 91.313(1)
_cell_angle_gamma                90
_cell_formula_units_Z            2
_cell_length_a                   4.4392(1)
_cell_length_b                   6.5027(1)
_cell_length_c                   22.2547(3)
_cell_measurement_reflns_used    7546
_cell_measurement_temperature    298
_cell_measurement_theta_max      72.9140
_cell_measurement_theta_min      6.0600
_cell_volume                     642.25(2)
_computing_cell_refinement       'CrysAlisPro 1.171.41.110a (Rigaku OD, 2021)'
_computing_data_collection       'CrysAlisPro 1.171.41.110a (Rigaku OD, 2021)'
_computing_data_reduction        'CrysAlisPro 1.171.41.110a (Rigaku OD, 2021)'
_computing_molecular_graphics    'Olex2 1.3 (Dolomanov et al., 2009)'
_computing_publication_material  'Olex2 1.3 (Dolomanov et al., 2009)'
_computing_structure_refinement  'olex2.refine 1.3 (Bourhis et al., 2015)'
_computing_structure_solution    'SHELXT 2014/5 (Sheldrick, 2014)'
_diffrn_ambient_temperature      298
_diffrn_detector                 'CCD plate'
_diffrn_detector_area_resol_mean 5.2169
_diffrn_detector_type            AtlasS2
_diffrn_measured_fraction_theta_full 1.0000
_diffrn_measured_fraction_theta_max 0.9915
_diffrn_measurement_details
;
List of Runs (angles in degrees, time in seconds):

  # Type    Start    End  Width  t~exp~   \w     \q     \k     \f   Frames
#--------------------------------------------------------------------------
  1  \w    -35.00  30.00   1.00    2.00    --  -41.76  57.00  90.00   65
  2  \w   -114.00 -40.00   1.00    2.00    --  -41.76 -57.00  30.00   74
  3  \w    -64.00  31.00   1.00    2.00    --  -41.76  57.00  30.00   95
  4  \w    -65.00 -40.00   1.00    2.00    --  -41.76  57.00  90.00   25
  5  \w    -12.00  70.00   1.00    2.00    --   41.76 -57.00-150.00   82
  6  \w     39.00  73.00   1.00    4.00    --  106.05-125.00   0.00   34
  7  \w     34.00  59.00   1.00    4.00    --  106.05-125.00  90.00   25
  8  \w     39.00  74.00   1.00    4.00    --  106.05 -94.00 -90.00   35
  9  \w     55.00 134.00   1.00    4.00    --  106.05 -30.00 -60.00   79
 10  \w     52.00 132.00   1.00    4.00    --  106.05 -77.00  30.00   80
 11  \w     78.00 177.00   1.00    4.00    --  106.05  61.00 -60.00   99
 12  \w     34.00  92.00   1.00    4.00    --  106.05-118.00-128.00   58
 13  \w     86.00 112.00   1.00    4.00    --  106.05-125.00  90.00   26
 14  \w    143.00 174.00   1.00    4.00    --  106.05  77.00-120.00   31
 15  \w     85.00 126.00   1.00    4.00    --  106.05-142.00-117.23   41
 16  \w     82.00 109.00   1.00    4.00    --  106.05-114.00 -40.00   27
 17  \w     27.00 107.00   1.00    4.00    --  106.05 -94.00   0.00   80
 18  \w     23.00 161.00   1.00    4.00    --  106.05   0.00-180.00  138
 19  \w    -20.00   5.00   1.00    2.00    --   42.01 -77.00-120.00   25
 20  \w    108.00 134.00   1.00    4.00    --  106.05  77.00-180.00   26
 21  \w   -118.00 -54.00   1.00    2.00    --  -42.01-159.00  78.00   64
 22  \w   -114.00 -14.00   1.00    2.00    --  -42.01 -57.00-150.00  100
 23  \w   -114.00 -14.00   1.00    2.00    --  -42.01 -57.00 -60.00  100
 24  \w   -114.00 -14.00   1.00    2.00    --  -42.01 -57.00  60.00  100
 25  \w   -114.00 -14.00   1.00    2.00    --  -42.01 -57.00 150.00  100
 26  \w     78.00 178.00   1.00    4.00    --  106.05  30.00-120.00  100
 27  \w     80.00 178.00   1.00    4.00    --  106.05  45.00 120.00   98
 28  \w     77.00 178.00   1.00    4.00    --  106.05  61.00   0.00  101
 29  \w     77.00 178.00   1.00    4.00    --  106.05  61.00  30.00  101
 30  \w     77.00 178.00   1.00    4.00    --  106.05  61.00 150.00  101
 31  \w     77.00 178.00   1.00    4.00    --  106.05  61.00 -90.00  101
 32  \w     77.00 178.00   1.00    4.00    --  106.05  61.00-180.00  101
 33  \w     77.00 178.00   1.00    4.00    --  106.05  61.00  60.00  101
;
_diffrn_measurement_device       'four-circle diffractometer'
_diffrn_measurement_device_type  'SuperNova, Dual, Cu at home/near, AtlasS2'
_diffrn_measurement_method       '\w scans'
_diffrn_orient_matrix_type
'CrysAlisPro convention (1999,Acta A55,543-557)'
_diffrn_orient_matrix_UB_11      0.0634559000
_diffrn_orient_matrix_UB_12      -0.2324350000
_diffrn_orient_matrix_UB_13      0.0049446000
_diffrn_orient_matrix_UB_21      -0.0498449000
_diffrn_orient_matrix_UB_22      -0.0223287000
_diffrn_orient_matrix_UB_23      -0.0684185000
_diffrn_orient_matrix_UB_31      0.3376189000
_diffrn_orient_matrix_UB_32      0.0401312000
_diffrn_orient_matrix_UB_33      -0.0093948000
_diffrn_radiation_monochromator  mirror
_diffrn_radiation_probe          x-ray
_diffrn_radiation_type           'Cu K\a'
_diffrn_radiation_wavelength     1.54184
_diffrn_reflns_av_R_equivalents  0.0175
_diffrn_reflns_av_unetI/netI     0.0115
_diffrn_reflns_Laue_measured_fraction_full 1.0000
_diffrn_reflns_Laue_measured_fraction_max 0.9915
_diffrn_reflns_limit_h_max       5
_diffrn_reflns_limit_h_min       -4
_diffrn_reflns_limit_k_max       8
_diffrn_reflns_limit_k_min       -8
_diffrn_reflns_limit_l_max       27
_diffrn_reflns_limit_l_min       -27
_diffrn_reflns_number            8918
_diffrn_reflns_point_group_measured_fraction_full 0.9177
_diffrn_reflns_point_group_measured_fraction_max 0.9002
_diffrn_reflns_theta_full        67.6840
_diffrn_reflns_theta_max         73.00
_diffrn_reflns_theta_min         3.97
_diffrn_source                   'micro-focus sealed X-ray tube'
_diffrn_source_type              'SuperNova (Cu) X-ray Source'
_exptl_absorpt_coefficient_mu    0.923
_exptl_absorpt_correction_T_max  1.00000
_exptl_absorpt_correction_T_min  0.79163
_exptl_absorpt_correction_type   multi-scan
_exptl_absorpt_process_details
;
CrysAlisPro 1.171.41.110a (Rigaku Oxford Diffraction, 2021)
Empirical absorption correction using spherical harmonics,
implemented in SCALE3 ABSPACK scaling algorithm.
;
_exptl_crystal_colour            'clear light colourless'
_exptl_crystal_colour_lustre     clear
_exptl_crystal_colour_modifier   light
_exptl_crystal_colour_primary    colourless
_exptl_crystal_density_diffrn    1.460
_exptl_crystal_description       block
_exptl_crystal_F_000             293.107
_exptl_crystal_size_max          0.2
_exptl_crystal_size_mid          0.15
_exptl_crystal_size_min          0.1
_refine_diff_density_max         0.1000
_refine_diff_density_min         -0.1573
_refine_diff_density_rms         0.0300
_refine_ls_abs_structure_details
'Flack, H. D. (1983). Acta Cryst. A39, 876-881.'
_refine_ls_abs_structure_Flack   0.35(13)
_refine_ls_d_res_high            0.8061
_refine_ls_d_res_low             11.1244
_refine_ls_goodness_of_fit_ref   1.1546
_refine_ls_hydrogen_treatment    constr
_refine_ls_matrix_type           full
_refine_ls_number_constraints    20
_refine_ls_number_parameters     190
_refine_ls_number_reflns         2317
_refine_ls_number_restraints     2
_refine_ls_restrained_S_all      1.1546
_refine_ls_R_factor_all          0.0284
_refine_ls_R_factor_gt           0.0283
_refine_ls_shift/su_max          0.0005
_refine_ls_shift/su_mean         0.0000
_refine_ls_structure_factor_coef Fsqd
_refine_ls_weighting_details
'w=1/[\s^2^(Fo^2^)+(0.0443P)^2^+0.0393P] where P=(Fo^2^+2Fc^2^)/3'
_refine_ls_weighting_scheme      calc
_refine_ls_wR_factor_gt          0.0744
_refine_ls_wR_factor_ref         0.0747
_reflns_Friedel_coverage         0.808
_reflns_limit_h_max              5
_reflns_limit_h_min              -4
_reflns_limit_k_max              8
_reflns_limit_k_min              -8
_reflns_limit_l_max              27
_reflns_limit_l_min              -27
_reflns_number_gt                2308
_reflns_number_total             2317
_reflns_threshold_expression     I>=2u(I)
_iucr_refine_instructions_details
;
TITL sm-down_auto_a.res in Pn
REM Old TITL SM-DOWN_auto in Pn #7
REM SHELXT solution in Pn: R1 0.099, Rweak 0.033, Alpha 0.004
REM <I/s> 2.341 for 119 systematic absences, Orientation as input
REM Flack x = -0.042 ( 0.088 ) from 1028 Parsons' quotients
REM Formula found by SHELXT: C16 O5
CELL 1.54184 4.4392 6.5027 22.2547 90 91.313 90
ZERR 2 0.0001 0.0001 0.0003 0 0.001 0
LATT -1
SYMM 0.5+X,-Y,0.5+Z
SFAC C H O
UNIT 32 20 10

L.S. 10
PLAN  20
SIZE 0.1 0.15 0.2
TEMP 24.85
CONF
BOND 
FMAP 2
list 4
MORE -1
ACTA 
BOND $H
WGHT 0.044289 0.039307
FVAR 1.366494
REM <olex2.extras>
REM <HklSrc "%.\\SM-DOWN_auto.hkl">
REM </olex2.extras>

O4    3     0.13175  0.09058  0.52892  11.00000  0.05857  0.04341  0.05416 =
 0.00190  0.00117 -0.01000 
O3    3     0.44979  0.34826  0.49264  11.00000  0.03934  0.05284  0.04458 =
 0.01277  0.00428  0.00328 
O5    3     0.13060 -0.21708  0.57404  11.00000  0.09585  0.04118  0.08504 =
 0.00365  0.00622 -0.01580 
O2    3     0.26030  0.28827  0.39547  11.00000  0.06959  0.05021  0.05808 =
 0.00859 -0.01205 -0.02268 
O1    3     0.38900  0.24334  0.29946  11.00000  0.13001  0.06758  0.05698 =
 -0.01167 -0.01628 -0.02429 
C15   1     0.41270  0.06957  0.61693  11.00000  0.05327  0.04231  0.04413 =
 0.00247  0.01301  0.00201 
C13   1     0.73904  0.14288  0.69976  11.00000  0.06798  0.07466  0.04068 =
 0.00459  0.00244  0.01171 
AFIX 43
H13   2     0.84033  0.10284  0.73488  11.00000 -1.20000 
AFIX 0
C6    1     0.62752  0.77342  0.43929  11.00000  0.05069  0.04607  0.05081 =
 -0.00420  0.00185 -0.00191 
AFIX 43
H6    2     0.58739  0.81279  0.47847  11.00000 -1.20000 
AFIX 0
C16   1     0.21536 -0.04237  0.57407  11.00000  0.05790  0.04055  0.05475 =
 0.00283  0.01221 -0.00145 
C5    1     0.80773  0.89108  0.40311  11.00000  0.05920  0.04455  0.06555 =
 0.00304 -0.00234 -0.01424 
AFIX 43
H5    2     0.88925  1.01285  0.41818  11.00000 -1.20000 
AFIX 0
C8    1     0.30702  0.43856  0.44220  11.00000  0.03932  0.04349  0.04953 =
 0.00917 -0.00275 -0.00256 
AFIX 13
H8    2     0.11529  0.50121  0.45324  11.00000 -1.20000 
AFIX 0
C7    1     0.50946  0.59515  0.41496  11.00000  0.03593  0.03880  0.04335 =
 0.00585 -0.00236 -0.00053 
C11   1     0.62113  0.40885  0.62686  11.00000  0.05705  0.04681  0.04963 =
 -0.00225  0.00652 -0.00177 
AFIX 43
H11   2     0.64093  0.54306  0.61306  11.00000 -1.20000 
AFIX 0
C9    1     0.26091  0.29227  0.53949  11.00000  0.04112  0.03900  0.04671 =
 0.00189  0.00724 -0.00042 
AFIX 13
H9    2     0.10198  0.39503  0.54452  11.00000 -1.20000 
AFIX 0
C3    1     0.75496  0.65205  0.32101  11.00000  0.05360  0.06116  0.04167 =
 0.00707  0.00020 -0.00118 
AFIX 43
H3    2     0.79940  0.61006  0.28227  11.00000 -1.20000 
AFIX 0
C2    1     0.57020  0.53639  0.35727  11.00000  0.04445  0.04369  0.04104 =
 0.00451 -0.00736 -0.00209 
C14   1     0.55995  0.00248  0.66898  11.00000  0.07064  0.05377  0.04902 =
 0.01159  0.01415  0.01027 
AFIX 43
H14   2     0.53894 -0.13181  0.68263  11.00000 -1.20000 
AFIX 0
C10   1     0.44290  0.26782  0.59633  11.00000  0.04479  0.04066  0.04131 =
 0.00073  0.01133  0.00214 
C12   1     0.76983  0.34295  0.67895  11.00000  0.06242  0.07217  0.04753 =
 -0.00644  0.00055 -0.00315 
AFIX 43
H12   2     0.89237  0.43455  0.70032  11.00000 -1.20000 
AFIX 0
C1    1     0.40806  0.34343  0.34444  11.00000  0.06986  0.04732  0.04866 =
 0.00391 -0.01345 -0.00764 
C4    1     0.87021  0.83226  0.34488  11.00000  0.05116  0.06049  0.06119 =
 0.01578  0.00063 -0.01547 
AFIX 43
H4    2     0.99154  0.91538  0.32154  11.00000 -1.20000 
AFIX 0
HKLF 4

END
Q1 1 0.533333 0.583333 0.388889 11 0.05 0.1
Q2 1 0.666667 1.083333 0.513889 11 0.05 0.08
Q3 1 0.366667 0.583333 0.263889 11 0.05 0.08
Q4 1 0.166667 0.583333 0.486111 11 0.05 0.08
Q5 1 0.6 0.916667 0.527778 11 0.05 0.07

  REM The information below was added by Olex2.
  REM
  REM R1 = 0.0283 for 2308 Fo > 4sig(Fo) and 0.0284 for all 2317 data
  REM 190 parameters refined using 2 restraints
  REM Highest difference peak 0.1000, deepest hole -0.1573
  REM Mean Shift 0.0000, Max Shift 0.0005.

  REM +++ Tabular Listing of Refinement Information +++
  REM R1_all = 0.0284
  REM R1_gt = 0.0283
  REM wR_ref = 0.0747
  REM GOOF = 1.1546
  REM Shift_max = 0.0005
  REM Shift_mean = 0.0000
  REM Reflections_all = 2317
  REM Reflections_gt = 2308
  REM Parameters = 190
  REM Hole = -0.1573
  REM Peak = 0.1000
  REM Flack = 0.35(13)

  
;
_cod_data_source_file            d2ob00623e2.cif
_cod_data_source_block           SM-DOWN_auto
_cod_depositor_comments
'Adding full bibliography for 7158669--7158670.cif.'
_cod_original_sg_symbol_Hall     ' P -2yc (x-z,y,z)'
_cod_database_code               7158670
_chemical_oxdiff_formula         C20H20N2O2
_reflns_odcompleteness_completeness 99.92
_reflns_odcompleteness_iscentric 1
_reflns_odcompleteness_theta     66.97
_olex2_refinement_description
;
1. Fixed Uiso
 At 1.2 times of:
  All C(H) groups
2.a Ternary CH refined with riding coordinates:
 C8(H8), C9(H9)
2.b Aromatic/amide H refined with riding coordinates:
 C13(H13), C6(H6), C5(H5), C11(H11), C3(H3), C14(H14), C12(H12), C4(H4)
;
_iucr_refine_fcf_details
;
data_SM-DOWN_auto_CCDC1
_computing_structure_refinement   'olex2.refine 1.3 (Bourhis et al., 2015)'
_shelx_refln_list_code            4
loop_
  _space_group_symop_id
  _space_group_symop_operation_xyz
  1  x,y,z
  2  x+1/2,-y,z+1/2

_space_group_crystal_system       monoclinic
_space_group_IT_number            7
_space_group_name_H-M_alt         'P 1 n 1'
_space_group_name_Hall            ' P -2yc (x-z,y,z)'
_symmetry_space_group_name_H-M    'P 1 n 1'
_symmetry_space_group_name_Hall   ' P -2yc (x-z,y,z)'
_symmetry_Int_Tables_number       7
_cell_length_a                    4.4392(1)
_cell_length_b                    6.5027(1)
_cell_length_c                    22.2547(3)
_cell_angle_alpha                 90
_cell_angle_beta                  91.313(1)
_cell_angle_gamma                 90
_cell_volume                      642.25(2)
loop_
  _refln_index_h
  _refln_index_k
  _refln_index_l
  _refln_F_squared_calc
  _refln_F_squared_meas
  _refln_F_squared_sigma
  _refln_F_squared_weight
  _refln_observed_status
-4 -5 -7 3.754 3.395 0.220 108.962 o
-4 -5 -6 3.158 3.476 0.230 116.898 o
-4 -5 -5 1.671 1.998 0.187 212.392 o
-4 -5 -4 5.278 5.013 0.289 69.440 o
-4 -4 -12 3.326 3.036 0.220 120.847 o
-4 -3 -14 11.898 11.985 0.455 24.753 o
-4 -3 -13 5.222 5.430 0.337 62.748 o
-4 -2 -16 6.212 5.018 0.199 70.708 o
-4 -2 -15 7.718 6.269 0.246 52.801 o
-4 -2 -14 14.416 12.665 0.365 22.462 o
-4 -2 -13 10.775 10.610 0.350 30.733 o
-4 -2 -12 3.148 2.889 0.193 134.335 o
-4 -1 -18 4.131 4.118 0.257 90.341 o
-4 -1 -17 4.651 4.073 0.198 93.258 o
-4 -1 -16 0.953 1.130 0.171 332.239 o
-4 -1 -15 3.449 3.958 0.311 89.411 o
-4 -1 -14 14.713 13.779 0.600 17.739 o
-4 -1 -13 2.147 2.105 0.252 151.425 o
-4 -1 -12 8.659 7.530 0.471 34.654 o
-4 -1 -11 9.178 8.258 0.503 31.251 o
-4 -1 -10 0.242 0.530 0.171 551.463 o
-4 0 -18 10.684 10.882 0.418 28.701 o
-4 0 -16 0.312 0.600 0.145 634.216 o
-4 2 14 40.120 36.009 0.868 4.528 o
-4 3 9 5.280 5.077 0.348 62.323 o
-4 3 14 6.666 6.673 0.370 48.658 o
-4 3 15 14.542 12.687 0.455 20.832 o
-4 4 -1 2.934 3.133 0.295 106.323 o
-4 4 0 1.066 1.382 0.209 255.953 o
-4 4 1 10.007 9.506 0.482 29.223 o
-4 4 2 3.672 2.972 0.268 102.752 o
-4 4 3 2.670 2.646 0.241 133.856 o
-4 4 7 18.548 19.209 0.675 12.548 o
-4 4 8 13.778 14.802 0.568 18.640 o
-4 4 9 13.717 14.390 0.530 19.533 o
-4 4 10 8.917 9.008 0.396 35.510 o
-4 4 13 5.852 5.596 0.300 61.911 o
-4 5 -3 8.751 8.681 0.386 36.873 o
-4 5 -2 3.658 3.229 0.241 107.222 o
-4 5 -1 0.396 0.584 0.118 731.499 o
-4 5 0 4.090 4.257 0.273 87.146 o
-4 5 1 17.527 15.477 0.498 16.119 o
-4 5 2 3.527 2.887 0.214 119.601 o
-4 5 3 7.236 7.106 0.977 17.650 o
-4 5 4 0.307 0.182 0.096 1190.040 o
-4 5 5 1.276 1.194 0.155 310.038 o
-4 5 6 1.871 2.196 0.198 189.504 o
-4 5 7 0.195 0.396 0.096 1198.460 o
-3 -6 -9 2.644 2.849 0.204 145.521 o
-3 -6 -8 7.757 8.756 0.375 40.280 o
-3 -6 -7 5.144 5.061 0.305 68.399 o
-3 -6 -6 2.144 1.955 0.209 176.560 o
-3 -6 -5 13.669 16.810 0.594 17.426 o
-3 -6 -4 7.291 8.194 0.439 39.120 o
-3 -6 -3 15.914 15.654 0.600 16.047 o
-3 -5 -15 2.950 3.117 0.230 125.165 o
-3 -5 -13 0.715 0.455 0.096 679.715 o
-3 -5 -12 7.863 7.781 0.375 41.550 o
-3 -5 -11 2.194 3.165 0.273 127.100 o
-3 -5 -10 3.285 3.524 0.300 96.731 o
-3 -5 -9 2.597 3.047 0.289 114.529 o
-3 -5 -8 0.233 0.171 0.107 1188.000 o
-3 -5 -7 3.469 4.102 0.359 78.811 o
-3 -5 -6 20.224 21.518 0.825 10.151 o
-3 -5 -5 14.584 16.639 0.734 14.815 o
-3 -5 -4 27.954 31.077 1.012 6.200 o
-3 -5 -3 2.917 3.192 0.364 88.004 o
-3 -4 -18 0.877 1.034 0.139 410.353 o
-3 -4 -17 2.497 2.965 0.198 150.248 o
-3 -4 -16 6.197 6.505 0.439 45.612 o
-3 -4 -15 2.440 2.040 0.236 150.917 o
-3 -4 -14 4.287 4.338 0.348 72.366 o
-3 -4 -13 1.398 1.425 0.220 220.165 o
-3 -4 -12 6.358 5.902 0.428 46.996 o
-3 -4 -11 9.805 9.340 0.541 27.666 o
-3 -4 -10 5.084 4.948 0.396 58.387 o
-3 -3 -20 0.092 0.102 0.045 4111.050 o
-3 -3 -19 3.191 2.815 0.180 138.108 o
-3 -3 -18 0.852 0.814 0.113 500.477 o
-3 -3 -17 11.867 11.997 0.613 21.062 o
-3 -3 -16 5.034 4.536 0.391 60.517 o
-3 -3 -15 3.874 3.776 0.370 74.705 o
-3 -3 -14 30.220 27.242 1.001 6.177 o
-3 -3 -13 13.573 14.052 0.734 16.326 o
-3 -3 -12 5.293 5.907 0.487 46.095 o
-3 -3 -11 45.491 41.113 1.264 3.315 o
-3 -3 -10 1.970 2.056 0.295 136.535 o
-3 -3 -9 15.973 16.061 0.771 13.697 o
-3 -3 -8 20.058 19.102 0.825 10.647 o
-3 -3 -6 227.191 224.152 3.284 0.197 o
-3 -3 -5 79.347 80.966 1.458 1.329 o
-3 -3 -4 147.819 147.078 2.360 0.437 o
-3 -3 -3 4.972 4.407 0.431 56.475 o
-3 -2 -21 1.162 1.400 0.099 383.093 o
-3 -2 -20 6.297 6.337 0.280 58.424 o
-3 -2 -19 6.730 7.170 0.320 50.794 o
-3 -2 -18 12.613 12.805 0.456 23.138 o
-3 -2 -17 4.627 4.060 0.278 81.394 o
-3 -2 -16 21.542 21.108 0.634 11.041 o
-3 -2 -15 12.593 12.831 0.723 17.698 o
-3 -2 -14 32.735 32.887 1.167 4.966 o
-3 -2 -13 45.533 45.252 1.382 3.052 o
-3 -2 -12 114.266 117.431 2.201 0.667 o
-3 -2 -11 9.949 10.138 0.653 23.245 o
-3 -2 -10 60.860 59.037 1.532 1.997 o
-3 -2 -9 50.370 52.694 1.835 2.250 o
-3 -2 -8 52.776 52.337 1.250 2.608 o
-3 -2 -7 39.370 39.548 0.822 4.481 o
-3 -2 -6 16.089 17.539 0.763 13.339 o
-3 -2 -5 14.836 16.852 0.744 14.466 o
-3 -2 -4 12.121 13.629 0.661 18.976 o
-3 -2 -3 118.488 126.813 1.966 0.631 o
-3 -1 -22 4.295 4.737 0.168 97.898 o
-3 -1 -21 15.106 15.962 0.346 19.873 o
-3 -1 -20 17.375 18.178 0.564 14.576 o
-3 -1 -19 3.554 3.349 0.192 119.685 o
-3 -1 -18 9.736 11.945 0.447 28.587 o
-3 -1 -17 32.047 31.398 0.991 5.602 o
-3 -1 -16 9.216 10.474 0.373 33.766 o
-3 -1 -15 6.250 5.993 0.680 30.332 o
-3 -1 -14 6.484 8.927 0.573 32.847 o
-3 -1 -11 68.916 69.258 2.838 1.175 o
-3 -1 -10 6.829 7.029 0.489 39.145 o
-3 -1 -9 14.304 15.132 0.704 15.912 o
-3 -1 -8 33.662 33.752 1.034 5.117 o
-3 -1 -7 2.618 3.044 0.321 104.402 o
-3 -1 -6 87.507 86.931 1.589 1.130 o
-3 -1 -5 78.602 81.175 1.519 1.327 o
-3 -1 -4 60.684 58.512 1.272 2.144 o
-3 -1 -3 14.111 17.715 0.690 15.376 o
-3 0 -21 8.533 8.754 0.694 24.510 o
-3 0 -19 26.232 28.340 1.687 4.437 o
-3 0 -17 29.441 30.847 1.055 5.847 o
-3 0 -15 42.858 44.058 1.312 3.333 o
-3 0 -13 21.485 21.400 0.910 9.180 o
-3 0 -11 254.579 254.631 10.775 0.093 o
-3 0 -7 83.613 90.291 2.035 1.076 o
-3 0 -5 15.132 15.787 0.830 13.473 o
-3 0 -3 127.889 130.712 2.346 0.548 o
-3 0 -1 219.328 240.041 3.202 0.198 o
-3 0 1 54.714 55.422 1.596 2.224 o
-3 0 3 67.516 71.103 1.880 1.526 o
-3 0 11 105.202 99.550 2.694 0.733 o
-3 0 21 11.503 10.352 0.514 25.046 o
-3 1 -2 62.940 64.989 1.291 1.952 o
-3 1 -1 31.514 33.190 1.130 5.190 o
-3 1 0 95.528 104.102 2.447 0.820 o
-3 1 1 48.456 48.482 1.692 2.521 o
-3 1 2 9.615 9.356 0.760 20.904 o
-3 1 3 10.984 9.045 0.750 20.067 o
-3 1 6 86.817 81.079 2.164 1.067 o
-3 1 7 3.342 3.631 0.354 83.413 o
-3 1 8 131.199 123.976 5.519 0.347 o
-3 1 9 133.186 124.596 6.424 0.297 o
-3 1 10 17.375 15.251 0.769 13.200 o
-3 1 11 171.668 157.182 3.492 0.322 o
-3 1 12 120.086 112.996 3.963 0.498 o
-3 1 15 19.123 21.710 0.851 10.305 o
-3 1 16 25.718 25.845 0.916 7.498 o
-3 1 18 16.041 14.133 0.653 15.783 o
-3 1 19 1.132 0.964 0.177 311.939 o
-3 1 20 3.079 3.106 0.278 108.621 o
-3 1 21 11.381 9.436 0.439 28.121 o
-3 2 -2 21.889 25.777 0.984 8.059 o
-3 2 -1 1.374 1.191 0.230 218.870 o
-3 2 0 32.418 33.111 1.574 4.039 o
-3 2 1 41.399 48.015 2.881 1.720 o
-3 2 2 5.781 4.681 0.589 38.294 o
-3 2 3 41.279 43.003 1.789 2.855 o
-3 2 4 15.701 16.285 1.119 9.961 o
-3 2 6 27.450 27.758 0.962 6.761 o
-3 2 7 78.824 75.170 1.640 1.347 o
-3 2 8 18.227 17.169 1.060 9.635 o
-3 2 9 127.393 121.218 7.077 0.275 o
-3 2 10 190.041 178.831 7.872 0.172 o
-3 2 16 16.497 15.702 0.750 13.769 o
-3 2 17 4.227 3.792 0.380 70.005 o
-3 2 18 3.861 4.156 0.364 74.109 o
-3 2 19 7.747 7.492 0.455 37.914 o
-3 2 20 9.697 9.093 0.455 31.216 o
-3 3 -2 2.433 1.871 0.522 63.759 o
-3 3 -1 15.880 16.795 1.291 8.396 o
-3 3 0 39.173 41.315 1.286 3.728 o
-3 3 1 88.404 88.432 2.174 1.004 o
-3 3 2 71.746 77.865 3.213 0.989 o
-3 3 3 42.279 40.630 2.239 2.348 o
-3 3 4 74.573 76.158 2.613 1.134 o
-3 3 5 2.322 1.906 0.479 72.762 o
-3 3 6 49.859 47.898 2.099 2.132 o
-3 3 7 109.595 104.728 2.983 0.657 o
-3 3 11 1.676 1.510 0.252 178.816 o
-3 3 12 14.153 13.104 0.659 17.509 o
-3 3 13 21.552 20.682 0.803 9.984 o
-3 3 14 1.214 1.344 0.220 234.704 o
-3 3 16 0.015 0.418 0.193 548.692 o
-3 3 17 13.368 13.329 0.643 18.358 o
-3 3 18 4.927 4.991 0.380 61.070 o
-3 3 19 0.060 -0.021 0.096 2175.720 o
-3 3 20 8.286 7.562 0.391 39.665 o
-3 4 2 37.699 42.655 1.221 3.891 o
-3 4 3 80.543 80.994 1.665 1.263 o
-3 4 4 2.168 3.117 0.343 104.045 o
-3 4 5 15.541 17.265 0.755 13.800 o
-3 4 6 38.220 39.426 1.114 4.159 o
-3 4 7 49.979 58.496 1.328 2.539 o
-3 4 9 3.522 4.809 0.428 63.982 o
-3 4 10 13.371 13.560 0.691 17.392 o
-3 4 11 4.548 4.129 0.386 65.658 o
-3 4 12 9.729 10.984 0.594 24.776 o
-3 4 13 1.231 1.821 0.257 187.337 o
-3 4 14 0.886 0.873 0.171 360.683 o
-3 4 15 3.923 4.353 0.273 88.590 o
-3 4 16 4.952 4.545 0.191 87.147 o
-3 4 17 1.973 1.956 0.201 188.766 o
-3 4 18 6.461 5.363 0.228 64.876 o
-3 5 -2 0.662 0.766 0.198 349.810 o
-3 5 -1 12.066 12.735 0.669 19.261 o
-3 5 0 6.167 6.940 0.493 41.025 o
-3 5 1 5.308 6.373 0.466 47.040 o
-3 5 2 7.850 8.279 0.525 33.066 o
-3 5 3 5.609 5.758 0.304 62.599 o
-3 5 4 32.787 33.299 1.018 5.299 o
-3 5 5 11.859 11.278 0.584 22.173 o
-3 5 6 23.551 23.098 0.825 8.841 o
-3 5 7 16.171 16.877 1.347 7.915 o
-3 5 8 5.008 4.987 0.271 74.134 o
-3 5 9 1.303 1.039 0.209 250.763 o
-3 5 10 10.379 12.665 0.605 22.567 o
-3 5 11 31.587 33.776 0.953 5.592 o
-3 5 12 3.168 3.138 0.300 101.184 o
-3 5 13 11.729 12.814 0.648 20.003 o
-3 5 14 15.294 15.386 1.250 9.000 o
-3 5 15 0.675 0.685 0.134 519.709 o
-3 6 -2 28.978 27.783 0.803 7.013 o
-3 6 -1 0.557 1.216 0.204 323.313 o
-3 6 0 6.285 7.396 0.777 24.847 o
-3 6 1 1.464 1.898 0.241 187.041 o
-3 6 2 3.090 3.033 0.199 132.345 o
-3 6 3 0.691 1.070 0.130 469.005 o
-3 6 4 8.213 8.191 0.288 43.969 o
-3 6 5 4.435 4.359 0.213 91.989 o
-3 6 6 2.389 2.698 0.203 156.246 o
-3 6 7 8.681 7.224 0.256 45.532 o
-3 6 8 3.338 2.969 0.370 83.474 o
-3 6 9 4.814 4.804 0.244 80.437 o
-3 6 10 1.783 2.131 0.198 195.408 o
-3 6 11 0.865 1.366 0.150 362.936 o
-2 -7 -7 7.302 7.744 0.353 44.894 o
-2 -7 -6 7.790 8.253 0.262 46.832 o
-2 -7 -5 1.855 2.131 0.146 224.711 o
-2 -7 -4 1.268 1.726 0.134 303.926 o
-2 -7 -3 0.772 0.659 0.102 585.414 o
-2 -7 -2 9.225 10.143 0.401 33.117 o
-2 -6 -14 0.845 0.647 0.091 589.573 o
-2 -6 -13 9.282 8.773 0.299 38.730 o
-2 -6 -12 3.795 4.199 0.367 74.038 o
-2 -6 -11 9.730 8.988 0.335 35.741 o
-2 -6 -10 1.673 1.600 0.115 283.410 o
-2 -6 -9 0.316 0.231 0.055 1630.050 o
-2 -6 -8 0.690 0.711 0.110 585.647 o
-2 -6 -7 10.019 9.839 0.447 30.079 o
-2 -6 -6 21.456 23.392 0.593 10.854 o
-2 -6 -5 16.698 16.895 0.515 16.023 o
-2 -6 -4 15.443 15.289 0.425 18.902 o
-2 -6 -3 2.664 3.343 0.201 138.826 o
-2 -6 -2 16.790 17.697 1.465 6.973 o
-2 -5 -18 8.857 9.682 0.455 32.395 o
-2 -5 -17 4.507 5.134 0.191 89.051 o
-2 -5 -16 4.312 4.828 0.252 84.622 o
-2 -5 -15 7.628 6.873 0.316 47.589 o
-2 -5 -14 4.735 3.851 0.251 85.626 o
-2 -5 -13 7.626 7.115 0.349 45.121 o
-2 -5 -12 12.674 11.939 0.353 25.793 o
-2 -5 -11 2.280 1.835 0.150 205.331 o
-2 -5 -10 27.635 25.695 0.546 8.480 o
-2 -5 -9 6.771 7.556 0.306 50.587 o
-2 -5 -8 60.767 61.174 1.074 2.184 o
-2 -5 -7 107.391 102.736 1.649 0.819 o
-2 -5 -6 4.328 4.343 0.418 61.947 o
-2 -5 -5 23.515 23.546 0.657 9.681 o
-2 -5 -4 72.505 71.022 1.596 1.520 o
-2 -5 -3 75.668 76.424 1.159 1.512 o
-2 -5 -2 15.729 17.056 0.560 16.163 o
-2 -4 -21 8.004 8.767 0.412 37.619 o
-2 -4 -20 3.316 3.234 0.150 136.676 o
-2 -4 -19 1.772 1.363 0.113 287.420 o
-2 -4 -18 10.031 10.766 0.373 31.503 o
-2 -4 -17 3.523 3.657 0.252 103.466 o
-2 -4 -16 0.666 0.798 0.135 501.886 o
-2 -4 -15 1.900 1.452 0.177 222.333 o
-2 -4 -14 36.402 37.093 0.851 4.930 o
-2 -4 -13 2.707 3.502 0.283 110.412 o
-2 -4 -12 92.278 86.917 1.316 1.107 o
-2 -4 -11 12.554 12.354 0.498 22.635 o
-2 -4 -10 58.809 56.657 1.054 2.361 o
-2 -4 -9 72.149 67.212 0.870 1.780 o
-2 -4 -8 16.331 14.483 0.404 18.679 o
-2 -4 -7 247.405 236.891 1.839 0.182 o
-2 -4 -6 2.186 2.537 0.173 180.465 o
-2 -4 -5 9.849 9.611 0.503 28.697 o
-2 -4 -4 18.528 18.731 0.691 12.528 o
-2 -4 -3 30.250 29.171 0.849 6.480 o
-2 -4 -2 43.611 41.351 1.078 3.665 o
-2 -3 -23 4.570 4.584 0.284 78.431 o
-2 -3 -22 6.219 5.888 0.209 66.249 o
-2 -3 -21 9.535 9.436 0.275 37.755 o
-2 -3 -20 2.706 2.740 0.149 164.711 o
-2 -3 -19 6.068 5.662 0.222 67.264 o
-2 -3 -18 1.713 1.555 0.131 268.856 o
-2 -3 -17 3.288 2.978 0.201 127.524 o
-2 -3 -16 7.292 6.631 0.304 50.449 o
-2 -3 -15 27.784 28.645 0.644 7.717 o
-2 -3 -14 37.718 39.120 0.730 4.831 o
-2 -3 -13 120.972 120.896 1.660 0.653 o
-2 -3 -12 26.662 25.540 0.577 8.687 o
-2 -3 -11 18.674 17.289 0.467 14.917 o
-2 -3 -10 1.160 0.964 0.117 400.908 o
-2 -3 -9 21.793 20.441 0.483 12.027 o
-2 -3 -8 43.442 43.360 0.857 3.851 o
-2 -3 -7 4.923 5.127 0.296 71.076 o
-2 -3 -6 38.070 38.776 1.091 4.242 o
-2 -3 -5 46.596 46.147 1.172 3.181 o
-2 -3 -4 188.094 194.360 2.659 0.277 o
-2 -3 -3 55.362 61.233 1.102 2.385 o
-2 -3 -2 17.121 17.988 0.665 13.736 o
-2 -2 -24 2.647 2.915 0.136 168.030 o
-2 -2 -23 2.670 2.467 0.147 172.247 o
-2 -2 -22 5.933 6.500 0.257 62.211 o
-2 -2 -21 7.602 8.036 0.305 45.886 o
-2 -2 -20 12.962 13.184 0.354 24.345 o
-2 -2 -19 70.292 71.354 1.284 1.663 o
-2 -2 -18 9.414 10.076 0.330 35.311 o
-2 -2 -17 15.746 17.181 0.492 16.934 o
-2 -2 -16 63.096 61.579 0.929 2.147 o
-2 -2 -15 62.926 59.876 1.179 2.084 o
-2 -2 -14 59.373 58.917 0.893 2.363 o
-2 -2 -13 69.955 66.115 0.927 1.845 o
-2 -2 -12 11.555 11.466 0.379 27.571 o
-2 -2 -11 51.585 47.117 1.216 2.825 o
-2 -2 -10 23.462 21.838 0.818 9.093 o
-2 -2 -9 9.454 9.455 0.573 27.008 o
-2 -2 -8 218.683 237.078 2.512 0.207 o
-2 -2 -7 598.649 626.037 4.006 0.031 o
-2 -2 -6 606.735 634.732 3.961 0.030 o
-2 -2 -5 857.918 940.583 5.497 0.015 o
-2 -2 -4 366.994 385.137 19.287 0.036 o
-2 -2 -3 89.918 91.157 1.416 1.096 o
-2 -2 -2 173.600 181.494 4.745 0.262 o
-2 -1 -25 1.335 1.366 0.115 338.909 o
-2 -1 -24 1.894 2.015 0.127 237.861 o
-2 -1 -23 4.063 4.242 0.168 105.789 o
-2 -1 -22 6.590 6.846 0.238 58.194 o
-2 -1 -21 11.076 10.709 0.370 29.453 o
-2 -1 -20 7.377 7.825 0.335 45.544 o
-2 -1 -19 11.858 12.266 0.433 25.128 o
-2 -1 -18 81.793 84.844 1.133 1.314 o
-2 -1 -17 20.021 21.337 0.702 11.159 o
-2 -1 -16 0.665 0.397 0.090 755.150 o
-2 -1 -15 26.265 27.923 0.739 7.851 o
-2 -1 -14 279.014 266.935 2.178 0.144 o
-2 -1 -13 162.428 160.382 1.459 0.395 o
-2 -1 -12 74.037 70.688 1.416 1.545 o
-2 -1 -11 42.658 40.977 0.846 4.043 o
-2 -1 -10 0.545 0.888 0.185 386.767 o
-2 -1 -9 17.953 18.104 0.525 14.597 o
-2 -1 -8 159.719 174.868 1.810 0.375 o
-2 -1 -7 121.949 139.437 1.328 0.609 o
-2 -1 -6 14.193 17.580 0.534 17.539 o
-2 -1 -5 6.861 10.565 0.433 37.265 o
-2 -1 -4 241.715 265.769 2.243 0.172 o
-2 -1 -3 293.478 320.233 2.141 0.121 o
-2 -1 -2 380.605 397.801 2.187 0.076 o
-2 0 -24 29.435 32.774 0.590 6.995 o
-2 0 -22 8.416 10.438 0.422 33.884 o
-2 0 -20 19.933 21.974 0.675 11.264 o
-2 0 -18 34.722 35.356 1.280 4.374 o
-2 0 -16 144.904 140.490 2.269 0.462 o
-2 0 -14 32.294 33.828 0.785 5.885 o
-2 0 -12 26.052 24.158 1.162 6.536 o
-2 0 -10 171.461 171.113 2.795 0.328 o
-2 0 -8 285.738 306.806 3.326 0.124 o
-2 0 -6 482.025 468.349 3.861 0.049 o
-2 0 -4 29.518 29.599 0.932 6.318 o
-2 0 -2 655.169 616.970 4.161 0.028 o
-2 0 0 143.618 130.999 1.151 0.526 o
-2 0 2 756.588 743.376 4.199 0.020 o
-2 0 4 2.503 4.445 0.386 80.966 o
-2 0 6 488.509 490.375 4.418 0.047 o
-2 0 8 727.233 791.103 6.266 0.020 o
-2 0 10 143.577 149.087 2.924 0.424 o
-2 0 12 171.767 175.697 3.481 0.304 o
-2 0 14 214.567 213.291 4.161 0.204 o
-2 0 16 233.875 249.831 4.782 0.164 o
-2 0 24 5.351 6.935 0.450 47.166 o
-2 1 -1 507.884 514.800 3.122 0.044 o
-2 1 0 42.287 42.352 0.604 4.268 o
-2 1 1 130.761 130.973 1.055 0.594 o
-2 1 2 24.431 23.376 0.334 10.769 o
-2 1 3 230.196 243.939 1.647 0.197 o
-2 1 4 448.502 445.314 2.719 0.057 o
-2 1 5 36.644 37.209 0.766 5.035 o
-2 1 6 439.134 445.879 15.662 0.037 o
-2 1 7 1548.910 1620.330 4.585 0.005 o
-2 1 8 296.435 308.361 2.800 0.120 o
-2 1 9 158.002 168.638 2.181 0.379 o
-2 1 10 133.787 140.108 5.829 0.313 o
-2 1 11 141.959 148.763 4.464 0.356 o
-2 1 12 18.684 21.234 0.924 9.976 o
-2 1 13 16.785 19.726 0.883 11.271 o
-2 1 14 48.365 47.988 2.862 1.613 o
-2 1 15 72.395 74.615 1.105 1.621 o
-2 1 16 30.849 31.175 0.733 6.506 o
-2 1 17 31.781 31.109 1.103 5.360 o
-2 1 18 9.874 9.532 0.627 24.547 o
-2 1 19 8.925 8.601 0.594 27.733 o
-2 1 20 38.678 39.795 1.226 3.920 o
-2 1 21 8.872 8.450 0.406 35.932 o
-2 1 22 0.644 0.421 0.110 674.864 o
-2 1 23 1.341 1.349 0.149 300.599 o
-2 1 24 3.886 3.727 0.316 84.636 o
-2 1 25 2.055 2.515 0.171 188.032 o
-2 2 -1 382.149 407.772 2.881 0.073 o
-2 2 0 206.906 226.313 2.022 0.232 o
-2 2 1 174.842 175.186 2.271 0.328 o
-2 2 2 63.013 65.694 1.008 2.049 o
-2 2 3 249.731 266.254 5.942 0.137 o
-2 2 4 19.944 21.945 0.707 11.032 o
-2 2 5 300.286 319.741 9.133 0.084 o
-2 2 6 103.539 119.518 2.014 0.749 o
-2 2 7 17.558 18.504 0.564 14.354 o
-2 2 8 40.658 41.089 1.244 3.684 o
-2 2 9 124.078 125.456 1.969 0.603 o
-2 2 10 9.762 12.485 0.687 21.217 o
-2 2 11 26.036 27.813 0.610 8.413 o
-2 2 12 7.332 7.920 0.424 40.273 o
-2 2 13 7.610 7.995 0.349 43.512 o
-2 2 14 37.874 39.440 1.248 3.968 o
-2 2 15 33.328 31.269 0.817 5.850 o
-2 2 16 40.218 40.758 1.499 3.359 o
-2 2 17 50.523 52.483 2.431 1.810 o
-2 2 18 18.258 19.425 1.119 8.862 o
-2 2 19 21.265 22.503 0.674 10.610 o
-2 2 20 1.605 2.126 0.218 191.404 o
-2 2 21 34.527 30.950 0.734 5.867 o
-2 2 22 5.575 5.258 0.295 65.597 o
-2 2 23 2.241 2.887 0.202 158.312 o
-2 2 24 14.139 13.569 0.374 22.091 o
-2 3 -1 106.217 118.404 1.264 0.794 o
-2 3 0 59.249 60.820 0.908 2.322 o
-2 3 1 159.845 164.006 1.486 0.397 o
-2 3 2 75.358 80.809 1.215 1.460 o
-2 3 3 85.335 90.319 1.644 1.127 o
-2 3 4 47.991 50.692 1.250 2.893 o
-2 3 5 27.745 29.098 0.759 7.288 o
-2 3 6 25.272 25.492 0.730 8.476 o
-2 3 7 175.683 187.842 2.101 0.316 o
-2 3 8 97.385 100.542 1.524 0.938 o
-2 3 9 107.321 109.624 1.950 0.763 o
-2 3 10 14.484 15.323 0.634 16.764 o
-2 3 11 37.312 38.506 0.708 4.953 o
-2 3 12 7.392 7.701 0.359 44.306 o
-2 3 13 8.544 9.217 0.400 36.066 o
-2 3 14 33.218 32.046 1.076 5.181 o
-2 3 15 4.630 4.140 0.407 62.152 o
-2 3 16 2.077 2.230 0.232 161.381 o
-2 3 17 52.753 55.647 1.845 2.115 o
-2 3 18 20.520 20.148 0.583 12.076 o
-2 3 19 8.125 8.045 0.739 23.804 o
-2 3 20 18.554 16.170 1.068 9.617 o
-2 3 21 22.047 20.310 1.387 6.439 o
-2 3 22 3.949 3.756 0.321 82.793 o
-2 3 23 4.763 5.139 0.233 80.618 o
-2 4 -1 52.493 51.251 0.954 2.856 o
-2 4 0 19.243 16.988 0.549 13.911 o
-2 4 1 24.745 23.084 0.937 7.943 o
-2 4 2 181.373 183.562 2.177 0.307 o
-2 4 3 74.328 69.323 1.001 1.663 o
-2 4 4 53.463 55.041 0.936 2.712 o
-2 4 5 7.786 8.314 0.395 39.849 o
-2 4 6 37.527 39.736 0.905 4.551 o
-2 4 7 23.076 23.225 0.654 9.907 o
-2 4 8 77.488 81.970 1.243 1.400 o
-2 4 9 1.262 1.657 0.165 275.837 o
-2 4 10 26.465 28.389 0.710 7.853 o
-2 4 11 14.574 12.210 0.696 16.894 o
-2 4 12 9.996 10.175 0.643 23.486 o
-2 4 13 102.044 103.684 1.987 0.826 o
-2 4 14 26.199 26.113 1.001 7.005 o
-2 4 15 79.513 82.874 1.585 1.282 o
-2 4 16 4.942 5.572 0.396 57.431 o
-2 4 17 3.260 3.884 0.270 101.480 o
-2 4 18 15.023 14.540 0.621 16.846 o
-2 4 19 6.774 6.034 0.377 49.052 o
-2 4 20 1.866 1.876 0.129 243.549 o
-2 4 21 0.627 0.589 0.095 696.365 o
-2 4 22 4.431 4.488 0.289 79.497 o
-2 5 -1 30.289 30.871 0.754 6.588 o
-2 5 0 73.049 76.874 1.193 1.557 o
-2 5 1 188.762 187.883 2.008 0.291 o
-2 5 2 62.961 66.866 1.569 1.806 o
-2 5 3 9.469 12.039 0.680 21.939 o
-2 5 4 16.485 17.030 0.793 12.931 o
-2 5 5 63.570 66.079 1.548 1.810 o
-2 5 6 128.136 127.815 1.528 0.598 o
-2 5 7 26.045 25.846 0.574 8.840 o
-2 5 8 76.702 79.303 0.998 1.492 o
-2 5 9 22.832 22.490 0.543 10.743 o
-2 5 10 0.160 0.221 0.084 1663.850 o
-2 5 11 4.267 5.113 0.256 82.903 o
-2 5 12 17.283 18.899 0.605 13.995 o
-2 5 13 13.618 14.652 0.491 20.165 o
-2 5 14 23.564 26.125 0.555 9.702 o
-2 5 15 1.610 1.545 0.141 271.233 o
-2 5 16 16.252 14.638 0.372 19.058 o
-2 5 17 3.262 3.428 0.173 129.926 o
-2 5 18 1.116 1.111 0.094 429.039 o
-2 5 19 11.311 12.205 0.329 28.510 o
-2 6 -1 38.262 38.785 1.949 2.880 o
-2 6 0 4.812 6.091 0.407 55.574 o
-2 6 1 17.973 18.230 0.452 15.215 o
-2 6 2 9.567 9.723 0.334 35.229 o
-2 6 3 4.645 4.725 0.238 83.573 o
-2 6 4 1.420 1.174 0.133 320.568 o
-2 6 5 2.494 3.320 0.203 143.184 o
-2 6 6 15.561 15.768 0.645 15.656 o
-2 6 7 3.145 3.350 0.202 126.180 o
-2 6 8 5.264 6.272 0.234 70.255 o
-2 6 9 1.126 1.125 0.103 411.891 o
-2 6 10 47.250 46.517 1.713 2.593 o
-2 6 11 0.997 1.343 0.105 413.047 o
-2 6 12 0.682 0.689 0.074 710.316 o
-2 6 13 0.320 0.578 0.068 1128.070 o
-2 6 14 21.382 20.865 0.530 11.837 o
-2 6 15 4.556 5.338 0.178 88.728 o
-2 7 -1 3.776 3.857 0.295 89.217 o
-2 7 0 4.759 4.453 0.224 85.723 o
-2 7 1 4.119 5.536 0.261 81.537 o
-2 7 2 18.639 17.981 0.661 12.940 o
-2 7 3 0.679 0.750 0.088 650.217 o
-2 7 4 5.056 5.308 0.192 81.328 o
-2 7 5 0.169 0.473 0.076 1426.620 o
-2 7 6 20.349 19.018 0.351 14.051 o
-2 7 7 3.198 3.153 0.145 142.400 o
-2 7 8 12.745 11.294 0.278 27.681 o
-2 7 9 0.921 0.873 0.129 440.265 o
-1 -7 -12 6.083 6.384 0.337 54.739 o
-1 -7 -11 1.572 2.064 0.118 268.765 o
-1 -7 -10 16.230 15.664 0.492 17.159 o
-1 -7 -9 3.508 3.364 0.172 124.952 o
-1 -7 -8 16.863 14.430 0.421 17.994 o
-1 -7 -7 19.639 20.933 0.847 10.293 o
-1 -7 -6 2.575 2.829 0.168 161.338 o
-1 -7 -5 11.842 12.522 0.369 26.366 o
-1 -7 -4 5.004 4.720 0.216 82.419 o
-1 -7 -3 13.268 13.763 0.367 23.254 o
-1 -7 -2 1.527 2.285 0.380 107.107 o
-1 -7 -1 6.941 6.528 0.322 51.208 o
-1 -6 -17 0.435 0.701 0.091 805.542 o
-1 -6 -16 6.240 5.614 0.261 62.758 o
-1 -6 -15 6.507 6.631 0.304 54.480 o
-1 -6 -14 4.295 4.485 0.271 83.871 o
-1 -6 -13 5.076 4.351 0.211 84.286 o
-1 -6 -12 2.780 2.624 0.176 154.828 o
-1 -6 -11 1.880 1.508 0.119 264.670 o
-1 -6 -10 9.995 12.051 0.327 31.495 o
-1 -6 -9 28.794 27.143 0.584 7.838 o
-1 -6 -8 9.708 9.779 0.360 33.860 o
-1 -6 -7 19.244 20.042 0.429 13.926 o
-1 -6 -6 11.335 11.961 0.340 28.456 o
-1 -6 -5 62.620 59.288 0.995 2.183 o
-1 -6 -4 8.921 8.082 0.326 39.912 o
-1 -6 -3 6.745 7.669 0.277 52.361 o
-1 -6 -2 48.694 46.446 1.071 3.135 o
-1 -6 -1 21.376 24.439 0.561 10.848 o
-1 -5 -20 10.607 12.435 0.367 28.747 o
-1 -5 -19 4.019 3.621 0.176 110.889 o
-1 -5 -18 1.066 1.276 0.116 390.148 o
-1 -5 -17 2.039 1.606 0.139 234.234 o
-1 -5 -16 0.417 0.309 0.086 1041.420 o
-1 -5 -15 12.230 10.928 0.379 26.855 o
-1 -5 -14 32.294 34.420 0.998 5.336 o
-1 -5 -13 16.087 17.803 0.483 16.500 o
-1 -5 -12 33.797 34.599 0.682 5.794 o
-1 -5 -11 10.046 10.109 0.379 32.017 o
-1 -5 -10 38.731 39.214 0.739 4.689 o
-1 -5 -9 140.610 133.051 1.351 0.529 o
-1 -5 -8 11.533 11.805 0.341 28.214 o
-1 -5 -7 100.717 95.653 0.817 0.993 o
-1 -5 -6 99.963 96.790 1.244 0.960 o
-1 -5 -5 26.008 25.690 0.447 9.331 o
-1 -5 -4 116.490 105.919 1.104 0.770 o
-1 -5 -3 19.015 18.827 0.381 14.824 o
-1 -5 -2 92.750 90.545 1.239 1.086 o
-1 -5 -1 33.438 33.050 0.555 6.232 o
-1 -4 -23 3.847 3.336 0.246 102.012 o
-1 -4 -22 0.677 0.590 0.099 656.551 o
-1 -4 -21 7.880 8.438 0.285 44.935 o
-1 -4 -20 2.736 3.737 0.209 129.284 o
-1 -4 -19 5.802 5.605 0.270 65.167 o
-1 -4 -18 0.399 0.383 0.078 1084.190 o
-1 -4 -17 3.335 3.124 0.186 128.610 o
-1 -4 -16 1.623 1.482 0.159 256.218 o
-1 -4 -15 16.004 15.123 0.483 17.707 o
-1 -4 -14 16.660 16.869 0.513 16.083 o
-1 -4 -13 275.149 273.941 2.281 0.144 o
-1 -4 -12 35.119 35.191 0.572 5.723 o
-1 -4 -11 103.403 99.786 0.940 0.931 o
-1 -4 -10 133.037 129.365 1.147 0.583 o
-1 -4 -9 8.406 8.415 0.304 42.097 o
-1 -4 -8 246.292 238.929 1.673 0.183 o
-1 -4 -7 128.896 125.328 1.082 0.619 o
-1 -4 -6 41.832 41.273 0.730 4.243 o
-1 -4 -5 42.773 45.263 0.940 3.736 o
-1 -4 -4 17.685 20.286 0.629 13.134 o
-1 -4 -3 163.229 160.907 1.756 0.386 o
-1 -4 -2 98.120 98.342 1.636 0.929 o
-1 -4 -1 108.810 114.118 1.398 0.781 o
-1 -3 -24 6.548 6.211 0.208 62.612 o
-1 -3 -23 11.091 10.839 0.315 30.734 o
-1 -3 -22 7.874 8.148 0.251 47.214 o
-1 -3 -21 27.033 27.175 0.492 8.614 o
-1 -3 -20 3.043 3.669 0.174 132.305 o
-1 -3 -19 36.709 37.605 0.681 5.134 o
-1 -3 -18 56.726 59.149 0.840 2.499 o
-1 -3 -17 52.477 53.103 0.778 2.911 o
-1 -3 -16 90.536 87.332 1.326 1.127 o
-1 -3 -15 74.373 71.470 1.035 1.627 o
-1 -3 -14 29.448 27.471 0.533 7.773 o
-1 -3 -13 25.173 23.688 0.484 9.856 o
-1 -3 -12 15.293 13.942 0.362 20.622 o
-1 -3 -11 102.352 94.540 0.898 0.975 o
-1 -3 -10 69.952 63.641 1.315 1.761 o
-1 -3 -9 130.921 132.046 1.826 0.559 o
-1 -3 -8 76.868 74.534 1.342 1.464 o
-1 -3 -7 164.674 167.775 1.961 0.368 o
-1 -3 -6 164.311 177.695 1.976 0.356 o
-1 -3 -5 271.610 289.082 5.561 0.123 o
-1 -3 -4 248.229 245.473 2.256 0.175 o
-1 -3 -3 47.067 53.103 0.752 3.274 o
-1 -3 -2 38.333 35.145 0.610 5.182 o
-1 -3 -1 141.768 141.585 1.215 0.509 o
-1 -2 -26 3.415 3.460 0.262 104.263 o
-1 -2 -25 5.518 5.876 0.208 72.223 o
-1 -2 -24 8.314 8.000 0.231 46.532 o
-1 -2 -23 6.919 7.576 0.248 53.463 o
-1 -2 -22 5.644 6.001 0.239 67.733 o
-1 -2 -21 26.927 25.932 0.479 8.881 o
-1 -2 -20 95.209 93.544 1.111 1.049 o
-1 -2 -19 87.548 91.083 1.071 1.177 o
-1 -2 -18 28.011 26.056 0.440 8.637 o
-1 -2 -17 29.235 26.622 0.420 8.239 o
-1 -2 -16 42.348 41.350 0.533 4.380 o
-1 -2 -15 70.070 68.112 0.662 1.873 o
-1 -2 -14 8.421 8.977 0.235 43.877 o
-1 -2 -13 111.654 114.689 1.052 0.777 o
-1 -2 -12 42.814 42.223 0.861 3.954 o
-1 -2 -11 108.610 112.774 1.618 0.771 o
-1 -2 -10 34.938 39.169 0.967 4.771 o
-1 -2 -9 166.241 170.278 1.458 0.371 o
-1 -2 -8 86.249 89.046 1.751 1.105 o
-1 -2 -7 70.666 73.823 0.854 1.733 o
-1 -2 -6 351.490 369.464 2.491 0.087 o
-1 -2 -5 510.790 520.866 11.664 0.035 o
-1 -2 -4 747.214 763.431 6.461 0.020 o
-1 -2 -3 497.796 518.599 9.300 0.039 o
-1 -2 -2 68.846 68.916 1.323 1.718 o
-1 -2 -1 354.161 343.345 2.089 0.091 o
-1 -1 -26 2.809 2.750 0.152 159.615 o
-1 -1 -25 3.200 3.544 0.184 127.368 o
-1 -1 -24 14.241 14.316 0.343 21.940 o
-1 -1 -23 0.989 0.980 0.108 451.303 o
-1 -1 -22 37.504 39.793 0.560 5.040 o
-1 -1 -21 39.164 40.867 0.591 4.721 o
-1 -1 -20 77.625 75.106 0.745 1.562 o
-1 -1 -19 109.895 102.968 1.138 0.837 o
-1 -1 -18 2.625 3.109 0.149 160.988 o
-1 -1 -17 54.731 51.264 0.618 2.912 o
-1 -1 -16 30.670 31.434 0.404 7.264 o
-1 -1 -15 12.671 13.924 0.289 25.306 o
-1 -1 -14 83.686 78.364 1.112 1.342 o
-1 -1 -13 96.774 105.987 1.523 0.916 o
-1 -1 -12 8.117 8.239 0.361 40.631 o
-1 -1 -11 54.811 55.452 0.879 2.664 o
-1 -1 -10 923.094 942.839 14.200 0.012 o
-1 -1 -9 14.402 15.652 0.508 18.589 o
-1 -1 -8 796.128 840.347 3.627 0.018 o
-1 -1 -7 181.606 194.921 3.288 0.275 o
-1 -1 -6 233.772 218.590 5.551 0.166 o
-1 -1 -5 647.413 648.242 6.528 0.027 o
-1 -1 -4 1342.310 1286.560 7.773 0.007 o
-1 -1 -3 1039.090 998.061 3.272 0.011 o
-1 -1 -2 2983.150 2783.810 8.598 0.001 o
-1 -1 -1 703.546 654.939 2.296 0.025 o
-1 0 -25 4.408 4.758 0.265 82.056 o
-1 0 -23 3.309 4.341 0.299 91.314 o
-1 0 -21 14.374 13.482 0.432 20.945 o
-1 0 -19 20.137 20.932 0.606 11.909 o
-1 0 -17 28.737 27.683 0.601 7.733 o
-1 0 -15 312.954 319.562 1.827 0.112 o
-1 0 -13 112.344 125.733 1.742 0.687 o
-1 0 -11 138.859 135.586 2.324 0.492 o
-1 0 -9 465.223 487.762 3.979 0.050 o
-1 0 -7 347.502 318.239 2.737 0.097 o
-1 0 -5 656.722 595.473 3.368 0.028 o
-1 0 -3 3537.960 3179.130 7.069 0.001 o
-1 0 -1 2409.420 2196.370 5.661 0.002 o
-1 0 3 5631.770 5019.950 69.927 0.000 o
-1 0 5 3628.910 3259.850 102.404 0.001 o
-1 0 7 1364.860 1325.040 34.223 0.005 o
-1 0 9 73.634 71.025 5.088 0.604 o
-1 0 11 410.388 449.391 4.681 0.061 o
-1 0 13 23.826 23.456 1.189 6.858 o
-1 0 15 211.661 210.201 3.883 0.213 o
-1 0 17 217.808 217.140 2.429 0.220 o
-1 0 19 70.159 65.340 1.184 1.775 o
-1 0 21 105.443 106.724 1.514 0.831 o
-1 0 23 32.336 33.829 0.797 5.851 o
-1 0 25 32.872 35.971 2.000 3.115 o
-1 0 27 3.608 4.075 0.278 93.334 o
-1 1 0 3401.930 3136.410 3.135 0.001 o
-1 1 1 2388.970 2225.640 7.548 0.002 o
-1 1 2 2960.050 2803.560 9.158 0.001 o
-1 1 3 2140.300 1984.220 3.430 0.003 o
-1 1 4 1324.100 1254.280 2.292 0.007 o
-1 1 5 435.376 414.630 2.421 0.062 o
-1 1 6 179.010 182.261 4.236 0.267 o
-1 1 7 50.405 46.432 0.814 3.231 o
-1 1 8 237.695 243.819 3.427 0.177 o
-1 1 9 28.629 27.459 0.603 7.782 o
-1 1 10 74.774 85.895 1.599 1.334 o
-1 1 11 74.214 75.204 1.347 1.511 o
-1 1 12 129.736 127.596 1.824 0.576 o
-1 1 13 117.285 125.729 1.734 0.656 o
-1 1 14 148.483 147.780 2.745 0.419 o
-1 1 15 44.329 43.830 0.727 3.882 o
-1 1 16 90.545 90.672 0.945 1.150 o
-1 1 17 40.041 37.541 0.592 4.817 o
-1 1 18 77.805 82.195 0.893 1.456 o
-1 1 19 75.315 73.327 1.319 1.515 o
-1 1 20 79.515 85.108 1.359 1.311 o
-1 1 21 25.991 25.564 0.561 8.948 o
-1 1 22 14.089 13.583 0.483 20.374 o
-1 1 23 7.720 6.824 0.261 50.510 o
-1 1 24 2.713 2.924 0.150 160.747 o
-1 1 25 3.179 2.803 0.144 148.531 o
-1 1 26 1.300 1.529 0.127 319.703 o
-1 1 27 14.383 17.592 0.562 16.983 o
-1 2 0 115.425 103.578 0.808 0.804 o
-1 2 1 73.603 69.573 0.670 1.747 o
-1 2 2 475.689 467.047 1.765 0.051 o
-1 2 3 112.102 109.935 1.505 0.763 o
-1 2 4 199.941 212.466 2.293 0.249 o
-1 2 5 59.484 63.721 0.795 2.295 o
-1 2 6 256.890 261.158 1.807 0.164 o
-1 2 7 436.786 467.892 3.088 0.056 o
-1 2 8 581.799 604.427 3.643 0.033 o
-1 2 9 321.884 331.384 2.319 0.105 o
-1 2 10 21.285 18.709 0.577 12.098 o
-1 2 11 275.447 300.975 2.990 0.133 o
-1 2 12 40.964 41.075 0.812 4.246 o
-1 2 13 0.249 0.958 0.144 585.709 o
-1 2 14 56.279 57.523 0.637 2.645 o
-1 2 15 12.092 11.861 0.278 28.381 o
-1 2 16 27.812 28.006 0.458 8.354 o
-1 2 17 59.212 60.419 0.834 2.362 o
-1 2 18 93.497 90.291 0.883 1.117 o
-1 2 19 25.080 25.494 0.474 9.598 o
-1 2 20 10.463 10.027 0.340 32.379 o
-1 2 21 19.165 21.024 0.621 12.238 o
-1 2 22 7.422 7.585 0.276 49.298 o
-1 2 23 23.764 22.910 0.512 10.432 o
-1 2 24 6.845 6.809 0.272 54.453 o
-1 2 25 9.837 10.372 0.252 36.161 o
-1 2 26 6.285 7.500 0.276 55.343 o
-1 3 0 121.390 135.093 1.542 0.615 o
-1 3 1 586.630 632.908 7.878 0.030 o
-1 3 2 127.116 140.319 1.666 0.565 o
-1 3 3 62.907 66.318 1.275 1.939 o
-1 3 4 134.334 140.969 1.500 0.535 o
-1 3 5 73.580 89.117 1.064 1.442 o
-1 3 6 96.002 104.382 2.212 0.847 o
-1 3 7 7.035 5.611 0.333 52.179 o
-1 3 8 76.444 79.112 1.251 1.447 o
-1 3 9 37.830 44.334 0.971 4.181 o
-1 3 10 64.173 62.350 1.181 2.000 o
-1 3 11 28.796 31.089 0.651 7.164 o
-1 3 12 73.780 73.210 0.874 1.656 o
-1 3 13 125.635 119.022 0.978 0.662 o
-1 3 14 16.708 17.738 0.350 17.339 o
-1 3 15 11.175 10.708 0.281 31.517 o
-1 3 16 81.037 78.094 0.908 1.429 o
-1 3 17 46.522 48.031 0.718 3.527 o
-1 3 18 48.907 45.890 0.703 3.437 o
-1 3 19 40.547 40.892 0.589 4.556 o
-1 3 20 22.957 23.377 0.434 11.032 o
-1 3 21 1.043 0.936 0.093 470.202 o
-1 3 22 6.100 6.256 0.232 63.909 o
-1 3 23 19.275 18.008 0.358 15.094 o
-1 3 24 13.867 14.165 0.279 23.420 o
-1 3 25 10.087 9.871 0.304 34.621 o
-1 4 0 126.925 132.784 1.390 0.597 o
-1 4 1 43.683 45.726 0.937 3.647 o
-1 4 2 2.380 2.944 0.265 128.415 o
-1 4 3 166.600 160.694 1.809 0.376 o
-1 4 4 146.252 157.940 1.805 0.443 o
-1 4 5 6.520 7.090 0.328 51.457 o
-1 4 6 37.958 40.783 0.732 4.697 o
-1 4 7 56.548 57.063 0.737 2.603 o
-1 4 8 11.696 12.931 0.361 26.449 o
-1 4 9 23.057 23.584 0.497 10.656 o
-1 4 10 43.477 40.907 0.737 4.089 o
-1 4 11 44.783 42.426 0.645 3.978 o
-1 4 12 60.942 63.809 0.690 2.268 o
-1 4 13 24.024 25.668 0.455 10.029 o
-1 4 14 143.704 140.043 1.483 0.496 o
-1 4 15 45.867 44.383 0.674 3.767 o
-1 4 16 81.665 79.465 0.897 1.404 o
-1 4 17 47.155 48.367 0.692 3.484 o
-1 4 18 10.827 11.338 0.336 30.226 o
-1 4 19 1.376 1.417 0.123 321.061 o
-1 4 20 4.459 4.204 0.171 99.022 o
-1 4 21 0.648 0.697 0.071 737.209 o
-1 4 22 2.062 2.184 0.120 223.841 o
-1 4 23 1.033 0.884 0.150 375.153 o
-1 5 0 10.815 11.772 0.318 30.236 o
-1 5 1 49.724 46.635 0.565 3.434 o
-1 5 2 74.870 76.323 0.943 1.577 o
-1 5 3 51.757 46.901 0.631 3.239 o
-1 5 4 53.025 52.254 0.627 2.982 o
-1 5 5 51.917 51.892 0.702 3.023 o
-1 5 6 78.638 72.975 0.756 1.561 o
-1 5 7 10.343 10.586 0.281 33.698 o
-1 5 8 61.471 60.013 0.771 2.298 o
-1 5 9 80.541 81.274 0.907 1.407 o
-1 5 10 7.920 8.661 0.307 43.291 o
-1 5 11 37.494 35.601 0.528 5.381 o
-1 5 12 150.480 153.459 1.348 0.448 o
-1 5 13 30.401 28.899 0.477 7.489 o
-1 5 14 53.553 55.694 0.885 2.719 o
-1 5 15 16.435 17.225 0.489 16.386 o
-1 5 16 12.673 11.018 0.361 26.417 o
-1 5 17 1.746 1.826 0.148 241.915 o
-1 5 18 2.239 2.202 0.195 174.535 o
-1 5 19 9.130 8.741 0.242 41.370 o
-1 5 20 8.512 8.911 0.231 43.791 o
-1 6 0 74.787 75.863 1.477 1.458 o
-1 6 1 6.718 6.579 0.317 52.498 o
-1 6 2 13.795 14.191 0.326 22.860 o
-1 6 3 41.558 42.591 0.565 4.370 o
-1 6 4 73.683 71.660 0.735 1.705 o
-1 6 5 82.932 79.809 1.081 1.348 o
-1 6 6 116.624 117.253 1.071 0.727 o
-1 6 7 53.536 52.015 0.839 2.847 o
-1 6 8 23.492 24.251 0.425 10.648 o
-1 6 9 7.872 8.177 0.284 45.567 o
-1 6 10 14.897 16.274 0.390 19.406 o
-1 6 11 14.588 13.823 0.359 21.579 o
-1 6 12 4.115 4.781 0.207 94.444 o
-1 6 13 24.421 25.095 0.594 9.409 o
-1 6 14 5.483 5.663 0.204 73.908 o
-1 6 15 1.981 1.840 0.114 245.621 o
-1 6 16 7.434 7.412 0.232 52.062 o
-1 6 17 0.633 0.707 0.100 643.097 o
-1 7 0 1.658 2.097 0.303 140.003 o
-1 7 1 21.416 23.126 0.608 10.836 o
-1 7 2 14.010 14.911 0.385 21.258 o
-1 7 3 14.991 16.030 0.507 17.885 o
-1 7 4 6.500 6.124 0.248 60.334 o
-1 7 5 0.193 0.240 0.069 1820.040 o
-1 7 6 11.560 11.404 0.275 30.016 o
-1 7 7 12.936 12.946 0.412 23.487 o
-1 7 8 5.030 4.948 0.180 85.032 o
-1 7 9 15.744 13.101 0.319 21.120 o
-1 7 10 7.283 5.958 0.182 60.023 o
-1 7 11 2.739 2.862 0.121 169.935 o
-1 7 12 1.452 1.162 0.093 360.318 o
0 -8 -3 2.514 2.121 0.198 164.095 o
0 -8 -2 2.848 3.086 0.351 92.737 o
0 -8 -1 1.295 1.422 0.121 334.107 o
0 -7 -13 4.568 4.928 0.230 84.311 o
0 -7 -12 4.001 3.810 0.165 111.245 o
0 -7 -11 3.662 2.863 0.132 136.231 o
0 -7 -10 0.129 0.179 0.079 1971.970 o
0 -7 -9 2.258 2.432 0.137 196.398 o
0 -7 -8 11.640 10.827 0.275 30.472 o
0 -7 -7 11.565 10.320 0.288 30.904 o
0 -7 -6 9.329 11.247 0.306 34.750 o
0 -7 -5 19.917 20.731 0.759 10.898 o
0 -7 -4 27.220 27.287 0.959 6.861 o
0 -7 -3 47.086 45.471 2.030 2.318 o
0 -7 -2 2.443 3.020 0.178 158.639 o
0 -7 -1 1.102 0.792 0.084 489.499 o
0 -6 -18 4.689 5.262 0.287 73.732 o
0 -6 -17 1.479 1.361 0.106 328.768 o
0 -6 -16 0.592 0.788 0.079 716.431 o
0 -6 -15 23.005 24.297 0.680 9.605 o
0 -6 -14 7.794 7.665 0.224 50.021 o
0 -6 -13 0.500 0.748 0.087 759.235 o
0 -6 -12 33.255 32.700 0.493 6.409 o
0 -6 -11 1.638 1.927 0.133 257.459 o
0 -6 -10 46.647 46.842 0.786 3.511 o
0 -6 -9 17.964 19.157 0.480 14.649 o
0 -6 -8 33.263 36.142 0.627 5.858 o
0 -6 -7 112.389 120.703 1.428 0.726 o
0 -6 -6 154.125 159.390 1.531 0.421 o
0 -6 -5 18.009 19.082 0.460 14.820 o
0 -6 -4 5.880 5.281 0.215 71.059 o
0 -6 -3 25.559 27.537 0.480 9.060 o
0 -6 -2 47.215 44.747 0.618 3.679 o
0 -6 -1 58.931 56.100 0.731 2.512 o
0 -5 -21 0.213 0.142 0.054 2278.120 o
0 -5 -20 13.342 13.569 0.337 23.785 o
0 -5 -19 0.825 0.922 0.087 554.347 o
0 -5 -18 1.817 2.050 0.133 238.281 o
0 -5 -17 3.246 3.068 0.148 141.430 o
0 -5 -16 33.364 32.872 0.570 6.235 o
0 -5 -15 35.461 35.098 0.517 5.757 o
0 -5 -14 76.062 73.830 0.706 1.621 o
0 -5 -13 88.705 93.299 0.802 1.173 o
0 -5 -12 36.722 37.481 0.515 5.373 o
0 -5 -11 7.307 7.205 0.230 53.428 o
0 -5 -10 17.616 18.570 0.399 15.810 o
0 -5 -9 135.281 127.892 2.005 0.539 o
0 -5 -8 69.609 64.500 0.637 1.951 o
0 -5 -7 25.537 25.504 0.413 9.642 o
0 -5 -6 94.683 94.106 1.299 1.032 o
0 -5 -5 16.034 15.174 0.312 19.656 o
0 -5 -4 16.990 17.914 0.306 17.378 o
0 -5 -3 28.353 28.556 0.394 8.275 o
0 -5 -2 21.974 21.561 0.356 12.311 o
0 -5 -1 24.173 22.369 0.363 11.006 o
0 -4 -23 0.578 0.807 0.083 708.294 o
0 -4 -22 4.369 4.632 0.174 96.693 o
0 -4 -21 14.564 14.001 0.329 21.913 o
0 -4 -20 2.623 2.911 0.167 158.525 o
0 -4 -19 2.383 2.269 0.155 186.085 o
0 -4 -18 3.089 3.485 0.195 127.738 o
0 -4 -17 17.175 16.761 0.379 17.099 o
0 -4 -16 1.357 1.549 0.117 321.346 o
0 -4 -15 132.211 129.245 0.956 0.593 o
0 -4 -14 166.369 160.771 1.251 0.387 o
0 -4 -13 8.613 7.582 0.206 47.137 o
0 -4 -12 7.743 7.036 0.196 53.251 o
0 -4 -11 19.132 17.171 0.308 15.853 o
0 -4 -10 145.365 132.508 1.288 0.511 o
0 -4 -9 13.197 14.271 0.266 24.523 o
0 -4 -8 73.362 76.646 0.858 1.626 o
0 -4 -7 120.751 125.864 1.271 0.660 o
0 -4 -6 194.171 192.865 2.496 0.270 o
0 -4 -5 124.010 122.817 1.681 0.628 o
0 -4 -4 85.051 80.675 1.237 1.276 o
0 -4 -3 1.107 1.076 0.145 355.914 o
0 -4 -2 20.740 25.576 0.700 10.068 o
0 -4 -1 468.280 492.312 6.523 0.047 o
0 -3 -25 1.010 1.192 0.129 388.473 o
0 -3 -24 6.509 6.182 0.202 63.414 o
0 -3 -23 12.049 13.373 0.330 26.107 o
0 -3 -22 11.167 12.099 0.340 28.651 o
0 -3 -21 48.119 49.689 0.695 3.360 o
0 -3 -20 20.213 20.212 0.420 13.341 o
0 -3 -19 9.086 8.479 0.281 40.538 o
0 -3 -18 34.599 34.336 0.563 5.895 o
0 -3 -17 126.274 123.699 1.690 0.612 o
0 -3 -16 23.718 22.948 0.460 10.680 o
0 -3 -15 49.400 48.880 0.642 3.329 o
0 -3 -14 79.460 75.321 0.631 1.533 o
0 -3 -13 16.220 16.412 0.280 19.090 o
0 -3 -12 170.212 167.283 1.466 0.364 o
0 -3 -11 475.166 459.870 5.553 0.049 o
0 -3 -10 70.273 68.097 1.039 1.777 o
0 -3 -9 94.831 96.924 1.189 1.025 o
0 -3 -8 106.516 107.657 1.194 0.843 o
0 -3 -7 131.618 136.573 2.081 0.532 o
0 -3 -6 135.136 132.647 1.060 0.566 o
0 -3 -5 169.924 177.927 1.377 0.352 o
0 -3 -4 2.296 3.139 0.157 170.005 o
0 -3 -3 357.804 357.094 2.494 0.087 o
0 -3 -2 70.918 86.359 0.835 1.572 o
0 -3 -1 758.253 766.198 2.782 0.020 o
0 -2 -26 1.194 1.640 0.113 342.247 o
0 -2 -25 4.653 4.265 0.259 82.871 o
0 -2 -24 15.866 15.523 0.370 19.022 o
0 -2 -23 0.250 0.328 0.093 1201.260 o
0 -2 -22 1.166 1.605 0.151 303.845 o
0 -2 -21 153.317 161.400 2.018 0.408 o
0 -2 -20 125.082 133.353 1.858 0.583 o
0 -2 -19 63.171 60.976 0.747 2.218 o
0 -2 -18 19.265 20.232 0.376 14.211 o
0 -2 -17 70.438 65.171 0.715 1.897 o
0 -2 -16 8.626 7.376 0.228 46.646 o
0 -2 -15 30.106 29.697 0.470 7.480 o
0 -2 -14 8.446 8.888 0.254 43.209 o
0 -2 -13 172.009 171.864 2.743 0.327 o
0 -2 -12 89.056 92.535 1.204 1.128 o
0 -2 -11 153.236 154.296 1.775 0.426 o
0 -2 -10 262.108 253.319 2.137 0.161 o
0 -2 -9 256.950 259.996 2.664 0.160 o
0 -2 -8 162.029 177.725 1.352 0.374 o
0 -2 -7 73.122 75.129 1.048 1.611 o
0 -2 -6 31.810 35.515 0.540 6.333 o
0 -2 -5 149.507 139.740 1.219 0.481 o
0 -2 -4 530.306 530.829 2.269 0.041 o
0 -2 -3 45.433 43.949 0.587 3.893 o
0 -2 -2 225.097 201.902 1.143 0.231 o
0 -2 -1 937.715 840.686 2.753 0.014 o
0 -1 -27 4.759 4.247 0.214 88.400 o
0 -1 -26 3.117 2.780 0.162 146.017 o
0 -1 -25 8.043 7.274 0.285 46.689 o
0 -1 -24 3.817 4.352 0.183 106.567 o
0 -1 -23 1.954 1.779 0.130 239.770 o
0 -1 -22 59.194 60.964 0.917 2.317 o
0 -1 -21 80.183 84.950 1.423 1.288 o
0 -1 -20 22.331 23.172 0.473 11.177 o
0 -1 -19 50.295 48.135 0.640 3.293 o
0 -1 -18 9.445 9.354 0.249 39.002 o
0 -1 -17 26.509 26.979 0.404 9.070 o
0 -1 -16 55.321 51.751 0.643 2.852 o
0 -1 -15 71.375 71.526 0.949 1.724 o
0 -1 -14 75.295 85.475 2.351 1.138 o
0 -1 -13 516.140 572.243 9.436 0.035 o
0 -1 -12 1.987 3.075 0.207 161.938 o
0 -1 -11 6.668 7.474 0.300 51.721 o
0 -1 -10 45.647 49.303 0.744 3.526 o
0 -1 -9 905.730 922.819 2.917 0.014 o
0 -1 -8 164.126 158.749 2.011 0.381 o
0 -1 -7 413.828 398.431 1.592 0.068 o
0 -1 -6 398.303 362.298 3.015 0.075 o
0 -1 -5 858.646 783.300 8.052 0.016 o
0 -1 -4 131.280 121.589 0.777 0.625 o
0 -1 -3 237.006 210.171 0.889 0.211 o
0 -1 -2 1717.620 1563.520 6.694 0.004 o
0 -1 -1 1380.020 1229.160 2.833 0.007 o
0 0 -26 0.111 0.051 0.054 3609.120 o
0 0 -24 23.020 24.441 0.677 9.590 o
0 0 -22 178.548 182.274 3.701 0.281 o
0 0 -20 40.357 40.292 1.018 4.066 o
0 0 -18 56.961 55.947 1.564 2.157 o
0 0 -16 24.831 27.470 0.795 8.045 o
0 0 -14 50.829 58.852 3.923 1.023 o
0 0 -12 153.203 187.725 6.418 0.234 o
0 0 -10 331.831 354.371 4.423 0.091 o
0 0 -8 870.995 799.054 17.311 0.014 o
0 0 -6 172.841 162.587 1.671 0.360 o
0 0 -4 2762.210 2451.640 5.136 0.002 o
0 0 -2 1495.650 1423.200 2.710 0.005 o
0 0 2 1494.950 1400.770 2.075 0.006 o
0 0 4 2779.830 2504.220 3.558 0.002 o
0 0 6 172.474 148.962 0.866 0.391 o
0 0 8 877.437 784.191 2.318 0.016 o
0 0 10 335.869 356.134 13.806 0.054 o
0 0 12 154.971 185.138 3.781 0.319 o
0 0 14 50.859 58.357 1.757 2.196 o
0 0 16 24.859 27.286 0.643 8.709 o
0 0 18 56.658 55.213 1.294 2.347 o
0 0 20 40.378 41.515 0.809 4.286 o
0 0 22 179.476 190.008 2.230 0.304 o
0 0 24 23.100 25.340 0.702 9.286 o
0 0 26 0.123 -0.007 0.050 4119.610 o
0 1 0 23.997 20.399 0.242 11.975 o
0 1 1 1395.360 1245.220 2.505 0.007 o
0 1 2 1720.020 1571.460 1.917 0.004 o
0 1 3 235.635 208.488 1.568 0.211 o
0 1 4 130.876 120.009 1.020 0.625 o
0 1 5 860.132 811.747 6.547 0.016 o
0 1 6 398.653 364.127 2.801 0.075 o
0 1 7 414.681 395.291 2.439 0.068 o
0 1 8 163.961 164.542 1.079 0.391 o
0 1 9 901.259 927.527 6.159 0.014 o
0 1 10 45.634 50.070 0.603 3.599 o
0 1 11 7.068 10.606 1.415 9.616 o
0 1 12 2.172 2.996 0.210 155.450 o
0 1 13 515.001 533.727 2.884 0.042 o
0 1 14 75.499 81.642 1.368 1.414 o
0 1 15 71.403 73.083 1.543 1.538 o
0 1 16 55.148 52.680 0.579 2.862 o
0 1 17 26.440 26.911 0.398 9.122 o
0 1 18 9.203 9.148 0.255 39.972 o
0 1 19 49.962 47.972 0.582 3.356 o
0 1 20 22.182 23.721 0.484 11.066 o
0 1 21 80.226 86.020 0.941 1.362 o
0 1 22 59.175 60.958 0.671 2.411 o
0 1 23 1.861 1.668 0.116 261.665 o
0 1 24 3.863 4.621 0.169 105.663 o
0 1 25 8.126 7.325 0.216 49.578 o
0 1 26 3.146 2.724 0.140 152.053 o
0 1 27 4.751 4.208 0.145 97.801 o
0 2 0 519.525 523.802 3.212 0.042 o
0 2 1 938.649 868.160 3.108 0.014 o
0 2 2 225.406 204.955 1.086 0.228 o
0 2 3 45.402 44.899 0.465 3.935 o
0 2 4 527.205 526.100 2.598 0.041 o
0 2 5 148.880 142.093 1.187 0.479 o
0 2 6 31.400 33.562 0.882 5.817 o
0 2 7 73.935 75.659 0.743 1.645 o
0 2 8 162.694 179.344 1.389 0.369 o
0 2 9 253.707 254.936 1.931 0.168 o
0 2 10 263.362 263.619 1.977 0.157 o
0 2 11 152.366 154.698 1.229 0.442 o
0 2 12 89.121 92.312 1.014 1.152 o
0 2 13 173.082 172.976 1.426 0.350 o
0 2 14 8.614 9.318 0.226 42.798 o
0 2 15 29.606 29.399 0.498 7.576 o
0 2 16 8.774 7.540 0.241 45.129 o
0 2 17 71.094 65.998 0.809 1.843 o
0 2 18 19.092 20.107 0.419 14.070 o
0 2 19 63.330 63.044 0.779 2.162 o
0 2 20 124.485 129.881 1.214 0.627 o
0 2 21 152.558 162.364 2.395 0.397 o
0 2 22 1.062 1.407 0.112 383.529 o
0 2 23 0.277 0.398 0.073 1313.600 o
0 2 24 15.861 15.958 0.415 18.291 o
0 2 25 4.674 4.383 0.185 92.615 o
0 2 26 1.177 1.573 0.100 364.430 o
0 3 0 282.529 288.425 1.682 0.137 o
0 3 1 760.664 769.508 6.023 0.020 o
0 3 2 72.095 85.026 1.009 1.528 o
0 3 3 356.332 354.977 1.880 0.089 o
0 3 4 2.323 3.124 0.183 159.432 o
0 3 5 168.688 180.819 2.245 0.336 o
0 3 6 135.151 135.524 2.095 0.518 o
0 3 7 130.612 138.933 1.235 0.567 o
0 3 8 108.276 111.187 1.134 0.815 o
0 3 9 94.461 98.468 1.490 0.986 o
0 3 10 70.130 70.977 1.074 1.732 o
0 3 11 476.657 486.528 3.277 0.049 o
0 3 12 170.663 168.932 2.039 0.350 o
0 3 13 16.733 16.959 0.285 18.244 o
0 3 14 78.699 75.258 0.728 1.538 o
0 3 15 49.120 49.375 0.673 3.313 o
0 3 16 23.642 22.444 0.432 10.945 o
0 3 17 125.987 127.526 1.495 0.613 o
0 3 18 34.647 35.275 0.644 5.672 o
0 3 19 9.338 9.116 0.267 39.164 o
0 3 20 19.749 20.945 0.389 13.590 o
0 3 21 48.525 50.999 0.659 3.306 o
0 3 22 11.257 12.412 0.312 28.811 o
0 3 23 11.788 13.255 0.298 27.270 o
0 3 24 6.603 6.338 0.187 63.143 o
0 3 25 1.057 1.191 0.085 447.408 o
0 4 0 1.375 7.908 0.455 63.603 o
0 4 1 467.482 509.336 3.071 0.049 o
0 4 2 19.982 20.950 0.566 12.268 o
0 4 3 1.145 0.794 0.124 407.896 o
0 4 4 84.381 80.273 1.060 1.320 o
0 4 5 124.020 122.841 1.513 0.637 o
0 4 6 194.549 188.878 1.902 0.281 o
0 4 7 119.741 123.872 1.985 0.631 o
0 4 8 73.815 76.068 0.617 1.663 o
0 4 9 13.058 14.111 0.266 24.875 o
0 4 10 144.321 134.179 1.070 0.518 o
0 4 11 19.505 17.063 0.288 15.729 o
0 4 12 7.486 6.788 0.188 55.798 o
0 4 13 8.736 7.800 0.211 45.902 o
0 4 14 166.417 164.218 1.218 0.382 o
0 4 15 132.838 129.709 1.554 0.567 o
0 4 16 1.361 1.391 0.130 317.334 o
0 4 17 17.450 17.153 0.353 16.922 o
0 4 18 2.920 3.682 0.180 133.602 o
0 4 19 2.434 2.581 0.149 179.430 o
0 4 20 2.573 2.975 0.138 169.166 o
0 4 21 14.735 14.312 0.274 22.169 o
0 4 22 4.460 4.790 0.166 95.210 o
0 4 23 0.522 0.728 0.063 848.678 o
0 5 0 3.701 3.411 0.147 125.180 o
0 5 1 24.288 22.282 0.364 10.969 o
0 5 2 22.070 21.398 0.346 12.345 o
0 5 3 27.902 28.076 0.412 8.436 o
0 5 4 17.232 17.776 0.326 17.066 o
0 5 5 16.078 15.280 0.305 19.617 o
0 5 6 94.903 92.013 0.797 1.093 o
0 5 7 25.924 26.535 0.432 9.260 o
0 5 8 68.826 63.070 0.598 2.009 o
0 5 9 134.788 128.305 1.049 0.579 o
0 5 10 17.386 18.889 0.413 15.744 o
0 5 11 7.165 7.004 0.258 53.084 o
0 5 12 36.801 37.325 0.583 5.283 o
0 5 13 89.159 92.434 0.906 1.162 o
0 5 14 76.050 73.310 0.800 1.612 o
0 5 15 35.561 35.497 0.543 5.670 o
0 5 16 33.378 33.987 0.577 6.117 o
0 5 17 3.366 3.199 0.157 134.009 o
0 5 18 1.809 2.076 0.140 233.140 o
0 5 19 0.785 0.894 0.079 593.808 o
0 5 20 13.525 13.462 0.257 24.770 o
0 5 21 0.203 0.179 0.040 2524.580 o
0 6 0 30.050 30.508 0.518 7.286 o
0 6 1 59.060 56.592 0.701 2.506 o
0 6 2 47.127 45.449 0.628 3.649 o
0 6 3 25.420 27.325 0.547 8.906 o
0 6 4 6.145 5.730 0.257 63.363 o
0 6 5 17.991 18.761 0.462 14.925 o
0 6 6 154.835 154.752 2.567 0.396 o
0 6 7 113.181 115.706 2.309 0.669 o
0 6 8 32.754 34.319 0.730 5.892 o
0 6 9 17.881 18.003 0.348 16.245 o
0 6 10 46.394 45.768 0.633 3.694 o
0 6 11 1.685 2.074 0.120 256.132 o
0 6 12 33.375 31.472 0.460 6.564 o
0 6 13 0.482 0.813 0.077 788.499 o
0 6 14 7.726 7.580 0.219 50.806 o
0 6 15 22.752 24.052 0.606 10.133 o
0 6 16 0.552 0.805 0.072 762.392 o
0 6 17 1.463 1.315 0.093 346.542 o
0 6 18 4.761 5.100 0.364 63.758 o
0 7 0 0.828 0.771 0.079 600.895 o
0 7 1 1.134 1.070 0.124 383.813 o
0 7 2 2.420 4.027 0.220 129.977 o
0 7 3 47.123 47.918 0.826 3.402 o
0 7 4 27.440 26.212 0.471 8.699 o
0 7 5 20.114 20.289 0.409 13.445 o
0 7 6 9.235 10.418 0.290 36.698 o
0 7 7 11.538 10.158 0.281 31.302 o
0 7 8 11.732 11.051 0.284 29.836 o
0 7 9 2.221 2.262 0.147 198.468 o
0 7 10 0.126 0.136 0.045 3322.460 o
0 7 11 3.711 3.049 0.183 121.595 o
0 7 12 3.957 3.601 0.214 104.842 o
0 7 13 4.462 4.659 0.351 69.281 o
0 8 0 0.492 0.483 0.078 915.039 o
0 8 1 1.290 1.465 0.121 331.824 o
0 8 2 2.848 2.870 0.163 152.595 o
1 -7 -12 1.536 1.141 0.091 351.020 o
1 -7 -11 2.742 3.033 0.154 156.578 o
1 -7 -10 7.264 6.052 0.202 58.681 o
1 -7 -9 15.491 14.321 0.292 20.993 o
1 -7 -8 4.896 4.728 0.164 89.881 o
1 -7 -7 12.791 13.451 0.266 25.853 o
1 -7 -6 11.458 11.602 0.240 30.714 o
1 -7 -5 0.188 0.272 0.052 2101.850 o
1 -7 -4 6.574 6.516 0.185 62.860 o
1 -7 -3 14.703 15.550 0.288 21.245 o
1 -7 -2 14.250 15.201 0.369 21.015 o
1 -7 -1 21.190 22.384 0.395 12.318 o
1 -7 0 1.664 2.501 0.339 118.868 o
1 -6 -17 0.645 0.791 0.139 496.543 o
1 -6 -16 7.381 7.254 0.205 54.182 o
1 -6 -15 1.941 1.901 0.114 246.335 o
1 -6 -14 5.586 6.161 0.192 71.756 o
1 -6 -13 24.429 25.680 0.369 10.174 o
1 -6 -12 4.170 4.669 0.170 100.148 o
1 -6 -11 14.693 14.151 0.286 22.195 o
1 -6 -10 15.102 16.913 0.321 19.629 o
1 -6 -9 7.897 7.980 0.211 49.319 o
1 -6 -8 23.537 24.395 0.372 10.803 o
1 -6 -7 53.245 51.535 0.547 3.026 o
1 -6 -6 116.983 117.928 0.830 0.732 o
1 -6 -5 82.913 81.964 0.697 1.381 o
1 -6 -4 73.488 72.995 0.962 1.647 o
1 -6 -3 41.204 42.632 0.610 4.363 o
1 -6 -2 13.986 13.899 0.406 21.572 o
1 -6 -1 6.913 7.682 0.274 51.662 o
1 -6 0 75.297 74.891 1.837 1.358 o
1 -5 -21 8.232 8.922 0.418 36.509 o
1 -5 -20 8.475 8.921 0.218 44.409 o
1 -5 -19 9.209 8.729 0.213 42.079 o
1 -5 -18 2.340 2.251 0.119 204.832 o
1 -5 -17 1.726 1.845 0.118 264.201 o
1 -5 -16 12.697 11.416 0.292 27.400 o
1 -5 -15 16.368 16.878 0.332 18.230 o
1 -5 -14 53.609 55.258 0.570 2.881 o
1 -5 -13 30.747 29.910 0.395 7.446 o
1 -5 -12 150.716 158.814 1.495 0.434 o
1 -5 -11 37.832 36.451 0.446 5.364 o
1 -5 -10 8.064 9.274 0.231 44.864 o
1 -5 -9 79.780 81.299 0.665 1.456 o
1 -5 -8 61.359 59.949 0.571 2.366 o
1 -5 -7 10.039 9.624 0.204 37.946 o
1 -5 -6 78.002 70.172 0.820 1.599 o
1 -5 -5 52.657 51.526 0.514 3.078 o
1 -5 -4 53.721 52.402 0.519 2.980 o
1 -5 -3 51.272 46.413 0.578 3.320 o
1 -5 -2 75.303 77.549 1.097 1.521 o
1 -5 -1 49.185 44.724 0.565 3.551 o
1 -5 0 10.790 11.366 0.264 32.031 o
1 -4 -23 1.071 1.019 0.110 424.783 o
1 -4 -22 1.996 2.215 0.138 217.208 o
1 -4 -21 0.640 0.617 0.060 809.751 o
1 -4 -20 4.282 3.691 0.148 109.875 o
1 -4 -19 1.396 1.511 0.108 328.079 o
1 -4 -18 10.761 11.051 0.248 32.852 o
1 -4 -17 46.595 48.180 0.573 3.617 o
1 -4 -16 81.639 78.603 0.995 1.398 o
1 -4 -15 45.714 43.768 0.681 3.802 o
1 -4 -14 143.401 139.401 1.024 0.511 o
1 -4 -13 24.556 25.883 0.358 10.119 o
1 -4 -12 61.012 62.281 0.534 2.340 o
1 -4 -11 44.752 42.076 0.424 4.164 o
1 -4 -10 43.106 40.481 0.438 4.419 o
1 -4 -9 22.763 22.584 0.285 11.911 o
1 -4 -8 11.698 12.552 0.202 29.802 o
1 -4 -7 56.481 55.929 0.754 2.627 o
1 -4 -6 38.553 40.269 0.521 4.913 o
1 -4 -5 6.685 6.912 0.207 59.337 o
1 -4 -4 147.494 154.792 2.559 0.418 o
1 -4 -3 166.696 164.055 1.996 0.367 o
1 -4 -2 2.278 3.746 0.386 86.761 o
1 -4 -1 43.438 47.025 0.855 3.698 o
1 -4 0 128.911 133.080 1.819 0.566 o
1 -3 -25 9.912 10.121 0.444 30.101 o
1 -3 -24 14.137 14.097 0.293 22.900 o
1 -3 -23 19.269 18.143 0.370 14.963 o
1 -3 -22 6.219 6.541 0.247 60.916 o
1 -3 -21 1.054 0.945 0.100 453.950 o
1 -3 -20 23.412 23.873 0.407 10.837 o
1 -3 -19 40.462 40.241 0.698 4.482 o
1 -3 -18 47.965 44.688 0.573 3.648 o
1 -3 -17 46.706 47.125 0.624 3.618 o
1 -3 -16 80.724 76.743 0.921 1.447 o
1 -3 -15 11.372 10.496 0.244 32.127 o
1 -3 -14 16.740 17.372 0.271 18.139 o
1 -3 -13 124.956 117.248 1.322 0.658 o
1 -3 -12 73.352 71.150 0.826 1.703 o
1 -3 -11 29.259 30.625 0.375 7.775 o
1 -3 -10 65.163 60.990 1.543 1.837 o
1 -3 -9 37.812 41.141 0.991 4.311 o
1 -3 -8 75.969 75.965 1.900 1.320 o
1 -3 -7 7.120 5.500 0.314 53.431 o
1 -3 -6 95.342 96.548 1.655 0.966 o
1 -3 -5 74.163 90.741 1.802 1.255 o
1 -3 -4 133.517 139.045 2.452 0.500 o
1 -3 -3 61.870 65.550 0.853 2.146 o
1 -3 -2 129.729 143.612 1.114 0.564 o
1 -3 -1 584.524 627.572 6.204 0.031 o
1 -3 0 120.916 135.995 2.313 0.571 o
1 -2 -26 6.429 7.605 0.412 44.655 o
1 -2 -25 9.874 10.193 0.255 36.216 o
1 -2 -24 6.681 6.603 0.233 58.728 o
1 -2 -23 23.909 23.581 0.509 10.252 o
1 -2 -22 7.554 7.827 0.292 47.230 o
1 -2 -21 18.907 20.753 0.490 13.473 o
1 -2 -20 10.521 9.973 0.283 33.971 o
1 -2 -19 25.061 24.936 0.485 9.662 o
1 -2 -18 93.440 86.780 1.088 1.121 o
1 -2 -17 58.505 59.389 0.708 2.464 o
1 -2 -16 27.849 26.984 0.392 8.668 o
1 -2 -15 12.124 11.274 0.247 29.489 o
1 -2 -14 55.814 51.963 0.662 2.809 o
1 -2 -13 0.235 0.944 0.102 807.814 o
1 -2 -12 40.932 40.022 1.112 3.894 o
1 -2 -11 276.179 297.919 5.154 0.121 o
1 -2 -10 21.169 19.445 0.481 12.623 o
1 -2 -9 320.289 322.579 2.794 0.106 o
1 -2 -8 585.511 595.408 3.836 0.033 o
1 -2 -7 439.768 471.582 5.080 0.054 o
1 -2 -6 258.303 267.138 2.107 0.159 o
1 -2 -5 60.506 67.913 0.636 2.218 o
1 -2 -4 197.197 215.866 1.353 0.260 o
1 -2 -3 111.312 113.628 0.778 0.797 o
1 -2 -2 474.395 479.302 5.123 0.048 o
1 -2 -1 74.421 75.346 1.176 1.548 o
1 -2 0 114.110 110.388 1.003 0.777 o
1 -1 -27 14.348 16.516 0.578 17.225 o
1 -1 -26 1.317 1.536 0.120 325.088 o
1 -1 -25 3.247 2.743 0.178 137.927 o
1 -1 -24 2.645 2.843 0.148 165.290 o
1 -1 -23 7.732 6.924 0.263 50.105 o
1 -1 -22 13.931 13.498 0.383 22.265 o
1 -1 -21 25.957 25.018 0.537 9.139 o
1 -1 -20 79.631 80.201 0.944 1.431 o
1 -1 -19 75.425 70.498 0.742 1.673 o
1 -1 -18 77.944 80.381 0.971 1.459 o
1 -1 -17 39.764 35.626 0.477 5.110 o
1 -1 -16 91.358 90.582 1.054 1.127 o
1 -1 -15 44.701 42.470 0.484 4.109 o
1 -1 -14 149.583 148.847 2.316 0.430 o
1 -1 -13 117.839 122.844 2.003 0.644 o
1 -1 -12 129.242 124.574 1.915 0.581 o
1 -1 -11 73.383 76.855 2.678 1.126 o
1 -1 -10 75.292 81.674 1.386 1.414 o
1 -1 -9 28.859 27.747 0.758 7.195 o
1 -1 -8 234.349 240.862 1.402 0.195 o
1 -1 -7 51.283 48.836 0.545 3.249 o
1 -1 -6 178.550 185.105 1.051 0.327 o
1 -1 -5 431.107 423.673 2.302 0.062 o
1 -1 -4 1317.920 1270.630 2.962 0.007 o
1 -1 -3 2139.580 2028.890 14.929 0.003 o
1 -1 -2 2951.970 2863.100 4.091 0.001 o
1 -1 -1 2393.650 2242.360 12.068 0.002 o
1 -1 0 3396.280 3246.790 29.946 0.001 o
1 0 -27 3.603 3.877 0.289 92.490 o
1 0 -25 32.495 35.007 0.759 5.815 o
1 0 -23 32.594 36.426 0.875 5.438 o
1 0 -21 105.763 104.269 1.577 0.834 o
1 0 -19 69.391 64.340 1.240 1.792 o
1 0 -17 217.093 213.512 2.738 0.220 o
1 0 -15 212.976 207.486 2.262 0.234 o
1 0 -13 23.832 19.847 1.130 7.494 o
1 0 -11 410.619 433.443 4.659 0.062 o
1 0 -9 74.190 76.752 1.735 1.390 o
1 0 -7 1359.890 1355.780 9.361 0.006 o
1 0 -5 3637.400 3457.950 12.660 0.001 o
1 0 -3 5643.990 5262.490 103.173 0.000 o
1 0 -1 2678.030 2542.780 4.295 0.002 o
1 0 1 2431.960 2329.660 8.258 0.002 o
1 0 3 3538.960 3237.590 7.910 0.001 o
1 0 5 655.990 648.146 11.455 0.024 o
1 0 7 346.591 320.483 14.628 0.052 o
1 0 9 465.799 490.493 14.307 0.036 o
1 0 11 136.960 138.233 2.919 0.464 o
1 0 13 112.205 119.857 2.640 0.634 o
1 0 15 311.961 315.952 3.690 0.108 o
1 0 17 28.222 27.614 0.761 7.339 o
1 0 19 20.102 21.081 0.493 12.676 o
1 0 21 14.239 13.259 0.476 20.503 o
1 0 23 3.216 4.129 0.310 91.255 o
1 0 25 4.360 4.858 0.391 63.737 o
1 0 27 16.624 19.354 0.594 14.366 o
1 1 1 698.937 682.309 2.844 0.024 o
1 1 2 2985.540 2814.530 9.843 0.001 o
1 1 3 1041.730 1027.390 9.787 0.011 o
1 1 4 1342.630 1306.280 5.608 0.007 o
1 1 5 649.702 645.878 4.888 0.027 o
1 1 6 233.470 227.475 3.089 0.191 o
1 1 7 180.998 189.969 1.927 0.306 o
1 1 8 795.748 833.806 5.187 0.018 o
1 1 9 14.396 16.071 0.524 18.174 o
1 1 10 930.736 979.240 10.312 0.012 o
1 1 11 54.392 52.805 0.913 2.736 o
1 1 12 8.284 7.990 0.439 36.585 o
1 1 13 97.201 102.773 1.376 0.944 o
1 1 14 83.958 72.903 1.062 1.397 o
1 1 15 12.874 13.892 0.301 24.824 o
1 1 16 31.024 31.458 0.462 7.070 o
1 1 17 54.254 49.763 0.624 2.984 o
1 1 18 2.563 2.533 0.154 172.624 o
1 1 19 109.317 100.677 0.905 0.868 o
1 1 20 77.587 74.571 0.900 1.543 o
1 1 21 39.364 40.922 0.566 4.720 o
1 1 22 37.547 39.459 0.918 4.543 o
1 1 23 1.060 0.881 0.086 485.544 o
1 1 24 14.406 14.455 0.384 21.058 o
1 1 25 3.162 3.317 0.157 138.039 o
1 1 26 2.867 2.912 0.131 161.059 o
1 2 1 354.814 364.401 2.431 0.087 o
1 2 2 69.761 75.330 1.188 1.655 o
1 2 3 495.681 530.875 3.676 0.044 o
1 2 4 744.058 764.064 2.971 0.021 o
1 2 5 510.783 544.893 1.606 0.042 o
1 2 6 349.753 363.203 2.939 0.088 o
1 2 7 70.107 74.573 0.713 1.767 o
1 2 8 86.900 94.392 0.746 1.197 o
1 2 9 165.071 169.679 1.319 0.377 o
1 2 10 34.742 38.298 0.737 5.269 o
1 2 11 108.520 102.449 1.367 0.835 o
1 2 12 42.460 40.150 0.936 3.991 o
1 2 13 111.453 110.384 1.212 0.787 o
1 2 14 8.647 8.963 0.232 43.123 o
1 2 15 70.310 68.219 0.683 1.860 o
1 2 16 42.917 42.036 0.508 4.301 o
1 2 17 28.944 26.091 0.421 8.398 o
1 2 18 27.396 25.237 0.417 9.028 o
1 2 19 87.177 91.311 0.910 1.201 o
1 2 20 95.169 93.021 1.113 1.053 o
1 2 21 27.260 25.249 0.434 9.022 o
1 2 22 5.685 6.076 0.206 70.120 o
1 2 23 6.887 7.512 0.216 55.730 o
1 2 24 8.126 7.912 0.220 48.043 o
1 2 25 5.494 5.955 0.228 70.291 o
1 2 26 3.454 3.815 0.160 123.734 o
1 3 1 141.179 144.657 1.769 0.488 o
1 3 2 36.978 33.701 0.602 5.499 o
1 3 3 47.343 55.277 1.056 2.962 o
1 3 4 247.553 258.701 1.748 0.173 o
1 3 5 271.293 290.672 2.785 0.139 o
1 3 6 163.104 175.568 2.510 0.349 o
1 3 7 164.867 172.442 2.038 0.360 o
1 3 8 76.943 75.967 0.810 1.557 o
1 3 9 129.377 130.719 1.242 0.595 o
1 3 10 70.188 63.397 1.067 1.838 o
1 3 11 103.383 93.304 0.933 0.968 o
1 3 12 14.768 13.469 0.262 22.831 o
1 3 13 24.999 22.805 0.392 10.448 o
1 3 14 29.356 26.753 0.435 8.149 o
1 3 15 74.176 69.771 0.777 1.709 o
1 3 16 90.780 84.348 1.398 1.134 o
1 3 17 52.989 52.949 0.719 2.917 o
1 3 18 56.717 58.507 0.822 2.523 o
1 3 19 36.902 37.992 0.736 4.998 o
1 3 20 2.834 3.421 0.183 138.451 o
1 3 21 26.880 27.991 0.472 8.595 o
1 3 22 7.674 8.006 0.240 49.013 o
1 3 23 11.083 11.420 0.259 31.394 o
1 3 24 6.494 6.128 0.171 65.814 o
1 3 25 13.283 15.027 0.514 19.928 o
1 4 1 109.876 111.872 1.294 0.788 o
1 4 2 99.161 101.491 1.556 0.911 o
1 4 3 162.770 161.488 1.838 0.385 o
1 4 4 17.812 20.433 0.511 14.065 o
1 4 5 42.476 44.342 0.494 4.236 o
1 4 6 41.609 41.044 0.461 4.541 o
1 4 7 128.220 121.324 1.530 0.616 o
1 4 8 245.194 234.612 1.976 0.185 o
1 4 9 8.735 8.973 0.252 42.056 o
1 4 10 133.829 128.796 1.671 0.560 o
1 4 11 104.549 98.330 0.831 0.934 o
1 4 12 34.970 34.887 0.504 5.877 o
1 4 13 273.953 266.252 2.759 0.145 o
1 4 14 16.660 16.892 0.407 17.219 o
1 4 15 15.894 14.941 0.374 19.253 o
1 4 16 1.554 1.494 0.128 291.068 o
1 4 17 3.431 2.963 0.168 132.813 o
1 4 18 0.354 0.256 0.066 1376.090 o
1 4 19 5.824 5.235 0.186 74.401 o
1 4 20 2.763 3.554 0.144 150.015 o
1 4 21 8.056 8.408 0.269 45.039 o
1 4 22 0.642 0.545 0.066 813.786 o
1 4 23 4.002 3.535 0.130 119.868 o
1 5 1 33.599 33.358 0.574 6.140 o
1 5 2 91.192 88.745 0.684 1.180 o
1 5 3 18.564 18.128 0.327 15.802 o
1 5 4 117.152 104.196 0.809 0.786 o
1 5 5 25.718 25.205 0.413 9.631 o
1 5 6 100.057 94.731 1.065 0.987 o
1 5 7 100.399 93.176 1.984 0.888 o
1 5 8 11.443 11.629 0.337 28.639 o
1 5 9 140.998 130.366 1.307 0.535 o
1 5 10 38.928 38.090 0.597 4.919 o
1 5 11 10.304 9.963 0.310 33.766 o
1 5 12 33.268 32.456 0.547 6.334 o
1 5 13 16.262 16.908 0.393 17.717 o
1 5 14 32.532 33.934 0.540 6.347 o
1 5 15 12.416 11.347 0.305 27.742 o
1 5 16 0.453 0.418 0.071 1038.200 o
1 5 17 2.150 1.690 0.110 240.447 o
1 5 18 1.158 1.463 0.101 376.519 o
1 5 19 4.055 3.550 0.140 117.086 o
1 5 20 10.649 11.898 0.254 31.962 o
1 6 1 22.010 23.039 0.528 11.059 o
1 6 2 49.390 45.743 0.924 3.238 o
1 6 3 6.587 7.344 0.260 55.176 o
1 6 4 8.969 8.006 0.270 42.246 o
1 6 5 62.273 59.718 0.760 2.275 o
1 6 6 11.477 12.191 0.326 28.289 o
1 6 7 19.371 19.709 0.470 13.655 o
1 6 8 9.868 9.963 0.295 35.375 o
1 6 9 28.982 27.751 0.636 7.556 o
1 6 10 9.781 11.807 0.348 31.668 o
1 6 11 1.886 1.439 0.128 261.124 o
1 6 12 2.801 2.686 0.142 164.484 o
1 6 13 5.051 4.289 0.171 89.947 o
1 6 14 4.233 4.223 0.161 104.010 o
1 6 15 6.457 6.198 0.180 65.220 o
1 6 16 6.314 5.390 0.142 72.291 o
1 6 17 0.477 0.640 0.069 903.046 o
1 7 1 6.993 6.282 0.207 59.423 o
1 7 2 1.483 2.195 0.170 231.183 o
1 7 3 13.594 13.098 0.418 22.386 o
1 7 4 4.946 4.639 0.156 90.651 o
1 7 5 12.123 12.715 0.248 28.031 o
1 7 6 2.564 3.046 0.140 167.352 o
1 7 7 19.556 19.908 0.434 13.735 o
1 7 8 16.812 14.188 0.477 17.483 o
1 7 9 3.524 3.436 0.166 125.147 o
1 7 10 16.015 16.066 0.356 18.742 o
1 7 11 1.641 2.028 0.127 257.607 o
1 7 12 6.122 5.925 0.212 66.572 o
2 -7 -8 12.649 11.436 0.316 27.006 o
2 -7 -7 3.155 3.430 0.151 138.074 o
2 -7 -6 20.209 18.880 0.487 13.275 o
2 -7 -5 0.165 0.418 0.064 1693.980 o
2 -7 -4 5.112 5.310 0.175 82.433 o
2 -7 -3 0.697 0.796 0.084 641.260 o
2 -7 -2 18.878 18.185 0.574 13.556 o
2 -7 -1 4.164 4.902 0.274 82.489 o
2 -7 0 4.758 4.869 0.183 88.559 o
2 -7 1 3.725 4.131 0.200 107.043 o
2 -6 -15 4.635 5.960 0.199 81.633 o
2 -6 -14 21.254 20.352 0.393 12.852 o
2 -6 -13 0.322 0.519 0.074 1125.720 o
2 -6 -12 0.681 0.773 0.077 678.290 o
2 -6 -11 0.938 1.246 0.100 444.922 o
2 -6 -10 47.511 47.176 1.002 3.250 o
2 -6 -9 1.181 1.294 0.109 376.454 o
2 -6 -8 5.252 6.074 0.193 75.219 o
2 -6 -7 3.161 3.081 0.143 144.997 o
2 -6 -6 15.641 15.242 0.285 20.334 o
2 -6 -5 2.604 3.354 0.153 155.853 o
2 -6 -4 1.428 0.968 0.091 383.724 o
2 -6 -3 4.825 4.943 0.185 86.981 o
2 -6 -2 9.928 10.523 0.333 33.282 o
2 -6 -1 18.024 18.115 0.431 15.404 o
2 -6 0 4.664 7.326 0.317 62.357 o
2 -6 1 38.531 40.293 0.652 4.762 o
2 -5 -19 11.388 11.461 0.331 29.052 o
2 -5 -18 1.146 1.301 0.109 382.587 o
2 -5 -17 3.347 3.532 0.159 129.801 o
2 -5 -16 16.288 14.429 0.302 19.884 o
2 -5 -15 1.632 1.622 0.120 282.592 o
2 -5 -14 23.683 25.679 0.398 10.375 o
2 -5 -13 13.632 14.150 0.285 23.690 o
2 -5 -12 17.146 19.018 0.339 16.496 o
2 -5 -11 4.326 5.013 0.197 91.447 o
2 -5 -10 0.140 0.170 0.067 2268.420 o
2 -5 -9 22.433 21.400 0.474 11.530 o
2 -5 -8 77.120 77.406 1.375 1.422 o
2 -5 -7 26.030 26.151 0.483 9.123 o
2 -5 -6 128.285 123.184 1.543 0.610 o
2 -5 -5 63.208 63.658 0.806 2.146 o
2 -5 -4 16.384 15.499 0.316 19.061 o
2 -5 -3 9.745 12.139 0.263 33.693 o
2 -5 -2 62.800 65.843 0.912 2.087 o
2 -5 -1 189.177 180.562 1.930 0.299 o
2 -5 0 73.552 76.714 1.138 1.561 o
2 -5 1 30.083 29.426 0.673 7.003 o
2 -4 -21 0.639 0.434 0.076 820.188 o
2 -4 -20 1.923 1.870 0.101 256.551 o
2 -4 -19 6.716 5.873 0.189 63.888 o
2 -4 -18 14.736 13.501 0.308 22.292 o
2 -4 -17 3.140 3.889 0.208 118.662 o
2 -4 -16 5.048 5.232 0.216 79.109 o
2 -4 -15 79.577 79.156 1.081 1.418 o
2 -4 -14 26.350 25.503 0.440 9.267 o
2 -4 -13 102.351 98.725 1.607 0.888 o
2 -4 -12 9.684 8.738 0.263 38.776 o
2 -4 -11 14.552 11.661 0.300 23.976 o
2 -4 -10 26.822 27.293 0.422 8.867 o
2 -4 -9 1.249 1.732 0.113 328.213 o
2 -4 -8 77.570 76.675 0.600 1.565 o
2 -4 -7 23.172 22.448 0.345 11.521 o
2 -4 -6 37.522 37.989 0.415 5.327 o
2 -4 -5 8.169 8.624 0.187 47.484 o
2 -4 -4 53.280 53.980 0.480 2.973 o
2 -4 -3 75.390 67.140 0.520 1.754 o
2 -4 -2 181.717 175.300 1.085 0.331 o
2 -4 -1 24.655 23.584 0.552 9.779 o
2 -4 0 18.816 16.214 0.355 16.154 o
2 -4 1 51.536 47.442 0.562 3.272 o
2 -3 -23 4.701 4.814 0.321 70.870 o
2 -3 -22 3.893 3.617 0.180 112.424 o
2 -3 -21 21.840 20.808 0.342 12.651 o
2 -3 -20 18.379 16.231 0.306 16.890 o
2 -3 -19 7.869 7.721 0.204 50.421 o
2 -3 -18 20.402 21.337 0.391 13.072 o
2 -3 -17 52.771 52.192 0.627 2.999 o
2 -3 -16 2.032 2.130 0.271 145.155 o
2 -3 -15 4.619 3.929 0.183 96.910 o
2 -3 -14 33.260 31.408 0.500 6.525 o
2 -3 -13 8.644 8.669 0.252 42.940 o
2 -3 -12 7.149 7.535 0.232 53.255 o
2 -3 -11 37.539 36.204 0.496 5.369 o
2 -3 -10 14.427 14.679 0.314 21.843 o
2 -3 -9 107.166 103.240 0.795 0.883 o
2 -3 -8 96.974 94.459 1.319 1.000 o
2 -3 -7 175.795 176.680 1.257 0.341 o
2 -3 -6 25.512 23.599 0.441 9.910 o
2 -3 -5 27.297 28.237 0.832 7.222 o
2 -3 -4 48.512 50.130 1.089 3.018 o
2 -3 -3 84.339 85.449 2.194 1.064 o
2 -3 -2 75.539 78.783 1.309 1.456 o
2 -3 -1 159.918 158.166 2.085 0.391 o
2 -3 0 59.037 59.167 1.246 2.205 o
2 -3 1 106.622 115.726 1.583 0.778 o
2 -2 -24 14.193 14.480 0.417 20.811 o
2 -2 -23 2.367 3.406 0.273 120.797 o
2 -2 -22 5.493 5.523 0.321 62.422 o
2 -2 -21 34.102 32.595 0.614 6.043 o
2 -2 -20 1.659 1.962 0.124 261.175 o
2 -2 -19 21.267 22.332 0.359 12.469 o
2 -2 -18 18.356 18.618 0.340 15.679 o
2 -2 -17 50.910 49.633 0.740 3.139 o
2 -2 -16 40.033 37.821 0.540 4.859 o
2 -2 -15 32.976 31.132 0.473 6.660 o
2 -2 -14 37.547 37.666 0.513 5.240 o
2 -2 -13 7.653 8.466 0.315 44.294 o
2 -2 -12 7.271 7.349 0.202 54.687 o
2 -2 -11 26.166 25.993 0.374 9.444 o
2 -2 -10 10.191 12.329 0.321 30.919 o
2 -2 -9 123.574 116.183 2.087 0.624 o
2 -2 -8 39.905 37.578 1.155 4.024 o
2 -2 -7 17.652 19.412 0.756 12.179 o
2 -2 -6 102.593 119.618 5.055 0.448 o
2 -2 -5 300.585 308.807 2.943 0.118 o
2 -2 -4 19.172 23.013 0.798 10.458 o
2 -2 -3 250.588 274.837 4.051 0.150 o
2 -2 -2 63.495 66.072 0.943 2.048 o
2 -2 -1 175.065 170.790 1.778 0.342 o
2 -2 0 206.805 223.488 1.679 0.237 o
2 -2 1 380.234 392.787 2.556 0.076 o
2 -1 -25 2.120 2.463 0.252 146.872 o
2 -1 -24 3.993 3.761 0.229 99.981 o
2 -1 -23 1.379 1.327 0.126 324.176 o
2 -1 -22 0.615 0.445 0.096 746.080 o
2 -1 -21 8.759 8.643 0.291 40.980 o
2 -1 -20 38.350 37.914 0.764 4.777 o
2 -1 -19 9.034 8.503 0.303 39.810 o
2 -1 -18 9.983 9.451 0.285 36.066 o
2 -1 -17 31.442 31.406 0.438 7.025 o
2 -1 -16 31.227 29.860 0.464 7.203 o
2 -1 -15 71.502 69.268 0.894 1.764 o
2 -1 -14 48.382 44.958 0.707 3.511 o
2 -1 -13 16.542 18.612 0.318 17.374 o
2 -1 -12 18.687 20.416 0.435 14.119 o
2 -1 -11 142.373 132.619 2.119 0.493 o
2 -1 -10 133.528 125.685 1.590 0.573 o
2 -1 -9 157.989 148.468 1.971 0.415 o
2 -1 -8 296.141 287.627 2.649 0.126 o
2 -1 -7 1550.270 1552.810 6.430 0.005 o
2 -1 -6 438.686 448.392 4.817 0.056 o
2 -1 -5 36.580 37.307 0.718 5.114 o
2 -1 -4 448.467 469.554 4.568 0.053 o
2 -1 -3 230.143 239.354 1.408 0.201 o
2 -1 -2 25.012 25.132 0.559 9.351 o
2 -1 -1 129.786 139.360 2.030 0.537 o
2 -1 0 42.873 45.611 0.789 3.873 o
2 -1 1 508.995 517.073 17.038 0.029 o
2 0 -24 5.339 6.480 0.444 48.590 o
2 0 -22 4.963 5.294 0.253 75.324 o
2 0 -20 150.546 141.952 1.416 0.467 o
2 0 -18 20.051 20.195 0.625 11.984 o
2 0 -16 237.016 233.945 1.907 0.194 o
2 0 -14 215.368 212.869 1.862 0.231 o
2 0 -12 170.527 159.358 2.031 0.362 o
2 0 -10 142.628 135.441 2.908 0.450 o
2 0 -8 726.807 719.411 6.110 0.022 o
2 0 -6 492.176 480.633 3.896 0.047 o
2 0 -4 2.858 5.083 0.945 22.296 o
2 0 -2 758.140 765.459 2.783 0.020 o
2 0 0 144.057 132.737 1.208 0.519 o
2 0 2 656.558 625.847 3.393 0.028 o
2 0 4 29.983 31.051 0.821 6.437 o
2 0 6 483.274 477.849 5.136 0.047 o
2 0 8 287.115 290.033 4.274 0.123 o
2 0 10 172.468 161.018 3.379 0.320 o
2 0 12 25.663 23.800 0.645 8.989 o
2 0 14 32.747 31.551 0.671 6.264 o
2 0 16 143.834 141.131 1.473 0.494 o
2 0 18 34.764 34.958 0.761 5.464 o
2 0 20 19.723 21.065 0.563 12.391 o
2 0 22 8.495 10.233 0.648 25.201 o
2 0 24 29.969 32.752 0.642 6.757 o
2 1 2 380.965 392.547 9.508 0.060 o
2 1 3 295.533 317.148 2.904 0.118 o
2 1 4 239.420 245.881 3.082 0.177 o
2 1 5 7.388 9.143 0.404 39.299 o
2 1 6 14.770 18.133 0.578 16.257 o
2 1 7 122.206 146.139 2.988 0.500 o
2 1 8 161.017 170.433 6.520 0.232 o
2 1 9 17.747 16.944 0.774 12.535 o
2 1 10 0.529 0.784 0.212 339.330 o
2 1 11 43.639 42.285 0.589 4.145 o
2 1 12 73.459 69.079 0.710 1.751 o
2 1 13 162.493 157.651 1.596 0.396 o
2 1 14 278.607 258.481 3.565 0.140 o
2 1 15 26.314 27.226 0.452 8.955 o
2 1 16 0.689 0.474 0.080 751.905 o
2 1 17 19.899 20.827 0.416 13.369 o
2 1 18 81.728 82.034 0.894 1.378 o
2 1 19 11.816 12.169 0.343 27.287 o
2 1 20 7.298 7.777 0.269 49.839 o
2 1 21 10.998 10.260 0.290 32.220 o
2 1 22 6.533 6.668 0.221 60.275 o
2 1 23 4.147 4.141 0.159 106.527 o
2 1 24 1.943 2.097 0.115 237.976 o
2 1 25 1.228 1.067 0.108 390.795 o
2 2 2 171.772 180.953 1.760 0.338 o
2 2 3 89.518 87.437 1.647 1.090 o
2 2 4 368.702 388.413 3.334 0.078 o
2 2 5 861.712 909.364 4.082 0.015 o
2 2 6 605.334 612.115 7.613 0.029 o
2 2 7 597.942 629.295 4.096 0.031 o
2 2 8 217.407 233.127 2.908 0.207 o
2 2 9 9.152 9.046 0.587 27.304 o
2 2 10 23.238 21.730 0.459 11.161 o
2 2 11 51.407 44.513 0.593 3.371 o
2 2 12 11.138 10.038 0.269 32.694 o
2 2 13 69.054 60.580 0.706 2.020 o
2 2 14 59.689 55.426 0.641 2.525 o
2 2 15 63.284 57.952 0.625 2.311 o
2 2 16 62.518 59.475 0.638 2.308 o
2 2 17 15.819 16.652 0.365 18.558 o
2 2 18 9.316 9.781 0.275 37.902 o
2 2 19 70.726 71.839 0.764 1.778 o
2 2 20 13.212 13.141 0.291 25.029 o
2 2 21 7.601 7.936 0.240 49.518 o
2 2 22 6.036 6.191 0.199 67.214 o
2 2 23 2.630 2.177 0.086 202.361 o
2 2 24 2.652 2.607 0.132 175.571 o
2 3 2 16.857 17.709 0.630 14.351 o
2 3 3 54.245 57.931 1.135 2.487 o
2 3 4 186.735 188.614 2.862 0.280 o
2 3 5 45.813 44.840 1.013 3.440 o
2 3 6 37.430 36.296 0.553 5.307 o
2 3 7 4.960 5.200 0.197 82.443 o
2 3 8 43.253 41.319 0.509 4.302 o
2 3 9 21.722 20.521 0.388 12.570 o
2 3 10 1.233 1.209 0.103 383.082 o
2 3 11 18.417 16.345 0.378 16.234 o
2 3 12 26.880 24.523 0.507 9.029 o
2 3 13 121.149 119.108 1.292 0.678 o
2 3 14 37.757 38.517 0.616 5.022 o
2 3 15 27.863 27.471 0.517 8.248 o
2 3 16 7.031 6.520 0.208 58.317 o
2 3 17 3.393 3.227 0.146 135.565 o
2 3 18 1.749 1.605 0.109 280.367 o
2 3 19 6.177 5.724 0.188 68.838 o
2 3 20 2.773 2.778 0.123 169.829 o
2 3 21 9.444 9.376 0.252 38.886 o
2 3 22 6.220 5.773 0.205 67.009 o
2 3 23 4.492 4.547 0.305 76.168 o
2 4 2 43.426 38.858 0.473 4.448 o
2 4 3 29.911 28.378 0.433 7.779 o
2 4 4 18.426 18.463 0.352 15.596 o
2 4 5 9.717 9.368 0.253 37.983 o
2 4 6 2.266 2.535 0.140 191.894 o
2 4 7 246.683 226.401 1.680 0.189 o
2 4 8 16.129 14.052 0.314 20.161 o
2 4 9 72.474 66.052 0.701 1.824 o
2 4 10 58.711 56.249 0.824 2.481 o
2 4 11 12.467 12.261 0.391 25.107 o
2 4 12 92.376 85.515 1.020 1.153 o
2 4 13 2.691 3.152 0.209 137.805 o
2 4 14 36.873 36.006 0.648 5.272 o
2 4 15 1.810 1.535 0.144 251.651 o
2 4 16 0.623 0.575 0.104 668.884 o
2 4 17 3.670 3.750 0.194 112.772 o
2 4 18 10.114 11.063 0.306 32.973 o
2 4 19 1.849 1.482 0.127 263.325 o
2 4 20 3.245 3.127 0.160 137.645 o
2 4 21 7.995 7.929 0.224 48.427 o
2 5 2 15.530 16.637 0.424 18.181 o
2 5 3 75.669 73.290 1.319 1.508 o
2 5 4 72.876 72.168 1.029 1.657 o
2 5 5 23.544 24.117 0.481 10.417 o
2 5 6 4.426 4.383 0.217 91.344 o
2 5 7 107.544 99.335 1.169 0.874 o
2 5 8 61.633 59.872 0.956 2.225 o
2 5 9 6.890 7.599 0.262 52.697 o
2 5 10 28.119 25.933 0.598 8.137 o
2 5 11 2.217 1.687 0.127 226.063 o
2 5 12 12.554 11.990 0.355 25.914 o
2 5 13 7.527 7.363 0.272 49.512 o
2 5 14 4.857 4.298 0.202 88.458 o
2 5 15 7.603 6.822 0.240 52.291 o
2 5 16 4.417 4.911 0.192 91.591 o
2 5 17 4.550 5.686 0.191 85.045 o
2 5 18 8.979 9.229 0.237 41.213 o
2 6 2 16.498 18.702 0.449 16.174 o
2 6 3 2.693 3.446 0.182 142.470 o
2 6 4 15.564 15.522 0.397 19.017 o
2 6 5 16.821 17.368 0.371 17.213 o
2 6 6 21.364 22.420 0.434 12.019 o
2 6 7 10.037 9.690 0.269 36.077 o
2 6 8 0.689 0.641 0.076 712.775 o
2 6 9 0.279 0.135 0.048 2055.010 o
2 6 10 1.743 1.724 0.121 266.290 o
2 6 11 9.481 9.173 0.254 39.047 o
2 6 12 3.784 4.585 0.209 100.501 o
2 6 13 9.132 9.325 0.275 39.212 o
2 6 14 0.840 0.840 0.082 573.991 o
2 6 15 4.068 3.783 0.187 106.420 o
2 7 2 9.235 10.751 0.331 34.827 o
2 7 3 0.821 0.676 0.093 587.034 o
2 7 4 1.246 1.745 0.123 317.554 o
2 7 5 1.913 2.128 0.130 230.485 o
2 7 6 7.861 7.618 0.278 47.103 o
2 7 7 7.210 7.711 0.383 43.511 o
2 7 8 7.121 7.465 0.348 46.509 o
3 -6 -10 1.677 1.923 0.187 214.273 o
3 -6 -9 5.039 5.115 0.592 39.431 o
3 -6 -8 3.225 3.197 0.158 137.800 o
3 -6 -7 8.776 7.721 0.431 36.027 o
3 -6 -6 2.429 2.804 0.158 171.305 o
3 -6 -5 4.340 4.769 0.230 87.991 o
3 -6 -4 8.274 9.120 0.291 41.895 o
3 -6 -3 0.670 1.033 0.115 519.034 o
3 -6 -2 3.061 2.792 0.170 145.025 o
3 -6 -1 1.419 1.583 0.171 258.780 o
3 -6 0 6.301 6.770 0.319 54.039 o
3 -6 1 0.536 1.012 0.128 530.825 o
3 -6 2 29.398 25.695 0.706 7.479 o
3 -5 -15 0.666 0.579 0.070 768.761 o
3 -5 -14 15.261 14.724 0.421 19.440 o
3 -5 -13 11.857 11.857 0.273 28.963 o
3 -5 -12 3.280 3.435 0.140 137.278 o
3 -5 -11 31.878 32.069 0.487 6.765 o
3 -5 -10 10.576 11.769 0.363 29.581 o
3 -5 -9 1.340 1.100 0.085 395.291 o
3 -5 -8 4.894 4.801 0.167 89.064 o
3 -5 -7 16.498 16.691 0.310 18.395 o
3 -5 -6 23.559 23.653 0.489 10.469 o
3 -5 -5 12.217 12.149 0.320 27.065 o
3 -5 -4 32.900 33.608 0.552 6.287 o
3 -5 -3 5.668 6.232 0.301 60.931 o
3 -5 -2 7.940 8.418 0.462 35.785 o
3 -5 -1 5.375 6.092 0.299 63.595 o
3 -5 0 6.277 7.081 0.325 52.935 o
3 -5 1 11.888 12.114 0.453 24.724 o
3 -5 2 0.741 0.996 0.122 486.353 o
3 -4 -18 6.519 5.594 0.180 67.096 o
3 -4 -17 1.966 1.668 0.116 252.547 o
3 -4 -16 4.911 4.767 0.210 83.979 o
3 -4 -15 3.903 3.974 0.181 108.848 o
3 -4 -14 0.877 0.947 0.106 491.331 o
3 -4 -13 1.222 1.959 0.125 304.989 o
3 -4 -12 9.735 9.965 0.276 36.344 o
3 -4 -11 4.543 4.249 0.173 97.176 o
3 -4 -10 13.271 12.047 0.319 25.360 o
3 -4 -9 3.621 4.130 0.156 117.302 o
3 -4 -8 20.027 20.346 0.341 13.883 o
3 -4 -7 49.412 50.786 0.649 3.256 o
3 -4 -6 38.824 37.943 0.512 5.042 o
3 -4 -5 15.321 15.590 0.365 19.618 o
3 -4 -4 1.988 2.725 0.162 190.889 o
3 -4 -3 81.346 79.827 1.114 1.371 o
3 -4 -2 36.993 40.725 0.803 4.713 o
3 -4 -1 25.298 26.359 0.560 9.047 o
3 -4 0 36.859 37.375 0.664 5.155 o
3 -4 1 142.255 139.571 1.550 0.501 o
3 -4 2 148.722 152.150 1.656 0.449 o
3 -3 -20 8.370 7.926 0.259 45.219 o
3 -3 -19 0.069 0.047 0.049 4853.870 o
3 -3 -18 4.834 4.970 0.210 83.666 o
3 -3 -17 13.346 12.612 0.353 24.216 o
3 -3 -16 0.015 0.121 0.068 3590.140 o
3 -3 -15 20.957 20.160 0.443 12.786 o
3 -3 -14 1.221 1.352 0.133 334.741 o
3 -3 -13 21.388 18.757 0.390 13.256 o
3 -3 -12 14.136 12.132 0.283 24.484 o
3 -3 -11 1.661 1.446 0.106 300.179 o
3 -3 -10 10.835 9.914 0.226 34.636 o
3 -3 -9 13.400 12.949 0.255 25.411 o
3 -3 -8 17.148 15.591 0.282 18.531 o
3 -3 -7 109.240 106.126 0.778 0.850 o
3 -3 -6 50.339 49.289 0.503 3.320 o
3 -3 -5 2.497 1.964 0.119 204.091 o
3 -3 -4 74.478 73.888 1.223 1.551 o
3 -3 -3 42.679 40.129 0.677 4.271 o
3 -3 -2 70.719 72.022 0.967 1.730 o
3 -3 -1 88.208 84.082 1.237 1.198 o
3 -3 0 38.076 38.434 0.629 4.968 o
3 -3 1 15.947 16.550 0.442 17.622 o
3 -3 2 2.591 2.357 0.214 150.799 o
3 -2 -21 0.445 0.299 0.068 1153.390 o
3 -2 -20 9.652 10.009 0.341 34.395 o
3 -2 -19 7.741 8.831 0.352 41.375 o
3 -2 -18 3.754 4.113 0.265 93.894 o
3 -2 -17 4.270 3.801 0.234 94.669 o
3 -2 -16 16.838 16.146 0.340 18.055 o
3 -2 -15 6.686 7.479 0.247 55.110 o
3 -2 -14 4.313 4.159 0.175 101.134 o
3 -2 -13 33.310 33.304 0.620 6.109 o
3 -2 -12 42.437 42.117 0.503 4.353 o
3 -2 -11 51.822 52.396 0.652 3.040 o
3 -2 -10 190.513 180.456 1.562 0.301 o
3 -2 -9 126.460 123.196 0.948 0.645 o
3 -2 -8 18.331 18.046 0.245 16.544 o
3 -2 -7 78.887 76.186 0.812 1.510 o
3 -2 -6 27.073 27.505 0.313 9.019 o
3 -2 -5 6.767 7.655 0.165 58.724 o
3 -2 -4 15.687 16.992 0.241 19.676 o
3 -2 -3 40.807 43.167 0.517 4.464 o
3 -2 -2 5.833 5.862 0.227 67.937 o
3 -2 -1 41.248 44.594 0.615 4.249 o
3 -2 0 32.485 31.310 0.597 6.497 o
3 -2 1 1.330 2.253 0.324 135.283 o
3 -2 2 21.660 23.122 0.391 11.906 o
3 -1 -22 2.073 2.954 0.161 182.107 o
3 -1 -21 11.391 11.266 0.352 28.737 o
3 -1 -20 3.021 3.274 0.183 135.614 o
3 -1 -19 1.196 1.085 0.120 377.719 o
3 -1 -18 16.227 15.227 0.438 18.018 o
3 -1 -17 0.420 0.439 0.102 857.673 o
3 -1 -16 25.782 25.191 0.548 9.127 o
3 -1 -15 19.498 20.692 0.410 13.690 o
3 -1 -14 61.487 62.868 0.776 2.238 o
3 -1 -13 19.813 20.687 0.594 12.212 o
3 -1 -12 119.965 117.340 1.499 0.680 o
3 -1 -11 171.095 159.509 1.146 0.377 o
3 -1 -10 17.689 16.093 0.302 17.603 o
3 -1 -9 133.848 127.182 0.917 0.591 o
3 -1 -8 131.911 123.460 0.827 0.615 o
3 -1 -7 3.389 3.577 0.129 134.640 o
3 -1 -6 87.211 80.809 0.917 1.286 o
3 -1 -5 36.540 37.415 0.371 5.568 o
3 -1 -4 88.724 84.571 0.637 1.257 o
3 -1 -3 11.032 10.467 0.443 27.697 o
3 -1 -2 9.486 10.990 0.349 33.282 o
3 -1 -1 48.439 49.179 1.186 2.966 o
3 -1 0 95.497 103.802 1.552 0.938 o
3 -1 1 31.670 32.922 0.516 6.665 o
3 -1 2 63.504 64.195 0.835 2.116 o
3 0 -21 11.607 11.685 0.519 23.818 o
3 0 -19 5.286 4.054 0.364 63.743 o
3 0 -17 13.469 13.635 0.728 16.639 o
3 0 -15 27.550 29.670 0.752 7.291 o
3 0 -13 95.376 94.099 1.821 0.956 o
3 0 -11 105.368 101.412 1.397 0.867 o
3 0 -9 44.425 40.682 0.600 4.137 o
3 0 -7 134.020 129.793 1.111 0.577 o
3 0 -5 417.366 403.294 2.587 0.066 o
3 0 -3 65.839 67.209 1.917 1.586 o
3 0 -1 55.662 55.074 1.633 2.172 o
3 0 1 220.245 233.613 2.582 0.206 o
3 0 3 129.185 122.449 1.334 0.616 o
3 0 5 14.934 13.658 0.461 19.765 o
3 0 7 83.448 83.526 1.014 1.315 o
3 0 9 56.531 52.483 0.733 2.724 o
3 0 11 254.190 240.563 1.817 0.175 o
3 0 13 21.744 20.228 0.504 11.978 o
3 0 15 42.410 42.328 0.779 4.079 o
3 0 17 29.594 32.187 1.101 5.591 o
3 0 19 26.102 26.578 1.018 6.912 o
3 0 21 8.457 8.569 0.498 32.677 o
3 1 3 14.298 17.307 0.267 20.889 o
3 1 4 61.218 57.399 0.486 2.452 o
3 1 5 79.213 79.608 0.551 1.499 o
3 1 6 87.548 82.470 0.733 1.287 o
3 1 7 2.506 2.478 0.115 191.326 o
3 1 8 33.578 32.682 0.432 6.447 o
3 1 9 14.188 14.009 0.294 22.884 o
3 1 10 6.796 6.418 0.201 60.625 o
3 1 11 68.547 63.778 0.720 1.979 o
3 1 12 68.467 66.473 0.736 1.934 o
3 1 13 56.072 54.782 0.668 2.715 o
3 1 14 6.310 7.769 0.253 56.041 o
3 1 15 6.462 6.144 0.249 60.415 o
3 1 16 9.110 10.043 0.309 36.951 o
3 1 17 31.862 32.478 0.659 6.368 o
3 1 18 9.858 12.236 0.329 31.534 o
3 1 19 3.477 2.915 0.158 134.622 o
3 1 20 17.424 17.090 0.530 15.256 o
3 1 21 15.273 15.241 0.443 18.866 o
3 1 22 4.332 4.448 0.211 93.125 o
3 2 3 119.705 120.248 1.121 0.692 o
3 2 4 11.806 12.634 0.385 26.004 o
3 2 5 14.961 16.363 0.379 19.425 o
3 2 6 16.528 16.161 0.380 17.952 o
3 2 7 39.918 39.195 0.548 4.777 o
3 2 8 53.277 53.606 1.077 2.671 o
3 2 9 50.143 51.931 0.987 2.948 o
3 2 10 60.657 58.078 1.056 2.256 o
3 2 11 9.955 9.757 0.426 31.038 o
3 2 12 114.331 115.365 1.399 0.733 o
3 2 13 45.301 44.759 0.870 3.624 o
3 2 14 32.565 31.671 0.725 6.164 o
3 2 15 12.570 12.742 0.393 24.531 o
3 2 16 21.177 19.859 0.415 12.912 o
3 2 17 4.555 4.105 0.185 96.283 o
3 2 18 12.819 13.066 0.301 25.586 o
3 2 19 6.703 6.756 0.201 60.104 o
3 2 20 6.291 5.812 0.255 62.245 o
3 2 21 1.152 1.178 0.150 334.092 o
3 3 3 5.148 4.806 0.206 81.501 o
3 3 4 147.225 141.914 1.444 0.479 o
3 3 5 79.708 77.620 1.224 1.403 o
3 3 6 226.354 208.197 1.530 0.223 o
3 3 7 151.777 143.379 2.348 0.431 o
3 3 8 19.952 17.997 0.458 13.917 o
3 3 9 15.845 15.586 0.376 18.948 o
3 3 10 1.907 1.663 0.151 233.732 o
3 3 11 45.528 41.227 0.689 3.925 o
3 3 12 5.262 5.108 0.277 70.581 o
3 3 13 13.690 14.141 0.445 21.145 o
3 3 14 30.565 29.478 0.800 6.537 o
3 3 15 3.719 3.782 0.223 105.509 o
3 3 16 5.191 5.166 0.261 72.829 o
3 3 17 12.061 11.727 0.365 26.762 o
3 3 18 0.842 0.643 0.105 554.664 o
3 3 19 3.229 2.825 0.152 144.462 o
3 3 20 0.098 0.040 0.040 5077.480 o
3 4 3 26.321 26.321 0.533 8.829 o
3 4 4 2.892 2.987 0.172 146.647 o
3 4 5 31.189 31.065 0.586 6.812 o
3 4 6 18.757 19.059 0.411 14.705 o
3 4 7 16.287 15.501 0.370 18.605 o
3 4 8 10.886 10.594 0.305 31.728 o
3 4 9 50.269 48.213 0.666 3.277 o
3 4 10 5.149 4.809 0.230 78.603 o
3 4 11 9.894 9.521 0.313 35.312 o
3 4 12 6.457 6.120 0.239 61.326 o
3 4 13 1.454 1.499 0.120 309.703 o
3 4 14 4.345 4.243 0.165 101.351 o
3 4 15 2.498 2.237 0.114 198.227 o
3 4 16 6.308 5.947 0.165 68.393 o
3 4 17 2.492 2.707 0.145 175.573 o
3 4 18 0.921 0.949 0.102 485.712 o
3 5 3 3.078 2.920 0.184 138.416 o
3 5 4 28.004 28.055 0.705 7.532 o
3 5 5 14.307 14.362 0.331 21.988 o
3 5 6 20.252 19.637 0.436 13.387 o
3 5 7 3.415 3.811 0.193 117.351 o
3 5 8 0.270 0.151 0.063 1806.140 o
3 5 9 2.544 2.468 0.187 161.297 o
3 5 10 3.226 2.920 0.166 139.409 o
3 5 11 2.116 2.376 0.127 210.433 o
3 5 12 7.909 6.592 0.206 53.078 o
3 5 13 0.730 0.415 0.056 829.376 o
3 5 14 2.784 2.452 0.119 177.441 o
3 6 3 15.716 13.635 0.346 20.501 o
3 6 4 7.366 7.370 0.249 51.609 o
3 6 5 13.787 14.201 0.332 22.781 o
3 6 6 2.198 1.792 0.159 206.167 o
3 6 7 5.197 4.333 0.218 82.221 o
3 6 8 7.918 7.835 0.412 39.251 o
3 6 9 2.583 2.217 0.214 152.998 o
3 6 10 0.588 0.450 0.102 733.532 o
4 -5 -8 1.001 1.483 0.171 304.358 o
4 -5 -7 0.196 0.546 0.129 815.313 o
4 -5 -6 1.874 1.960 0.143 230.772 o
4 -5 -5 1.241 1.184 0.090 399.989 o
4 -5 -4 0.338 0.276 0.058 1477.550 o
4 -5 -3 7.176 7.132 0.346 47.105 o
4 -5 -2 3.569 3.411 0.174 122.599 o
4 -5 -1 17.539 17.144 0.428 16.169 o
4 -5 0 4.081 4.483 0.189 100.045 o
4 -5 1 0.355 0.510 0.076 1071.680 o
4 -5 2 3.743 3.328 0.235 106.225 o
4 -5 3 8.705 8.550 0.565 29.323 o
4 -4 -13 5.916 5.446 0.300 61.983 o
4 -4 -12 5.453 5.208 0.213 75.478 o
4 -4 -11 4.968 4.673 0.177 87.830 o
4 -4 -10 8.988 9.404 0.244 40.656 o
4 -4 -9 13.565 13.684 0.333 23.430 o
4 -4 -8 13.764 14.672 0.349 22.249 o
4 -4 -7 18.599 18.410 0.411 15.046 o
4 -4 -6 7.666 7.587 0.281 47.872 o
4 -4 -5 7.414 7.917 0.298 47.310 o
4 -4 -4 5.945 5.428 0.252 66.465 o
4 -4 -3 2.636 2.841 0.192 150.100 o
4 -4 -2 3.684 3.091 0.227 111.190 o
4 -4 -1 10.058 9.944 0.424 30.684 o
4 -4 0 1.121 1.313 0.144 337.862 o
4 -4 1 2.886 3.090 0.242 123.157 o
4 -4 2 5.441 5.284 0.253 71.044 o
4 -4 3 7.529 6.995 0.283 49.791 o
4 -3 -16 0.424 0.463 0.074 1027.710 o
4 -3 -15 14.396 13.910 0.365 21.679 o
4 -3 -14 6.579 6.617 0.276 56.190 o
4 -3 -13 12.547 13.199 0.264 26.527 o
4 -3 -12 5.020 4.724 0.173 87.302 o
4 -3 -11 7.747 6.865 0.218 52.586 o
4 -3 -10 0.879 0.847 0.100 518.198 o
4 -3 -9 5.280 5.483 0.242 72.809 o
4 -3 -8 15.110 16.938 0.370 19.069 o
4 -3 -7 3.521 3.613 0.184 119.383 o
4 -3 -6 2.113 1.826 0.166 205.952 o
4 -3 -5 6.419 7.499 0.324 51.247 o
4 -3 -4 10.396 10.717 0.391 30.233 o
4 -3 -3 6.966 7.573 0.337 47.655 o
4 -3 -2 27.258 26.660 0.625 8.178 o
4 -3 -1 39.407 40.696 0.766 4.490 o
4 -3 0 62.935 64.578 1.157 2.014 o
4 -3 1 90.481 97.396 1.616 1.021 o
4 -3 2 30.029 32.257 0.839 6.271 o
4 -3 3 8.567 8.324 0.256 43.755 o
4 -2 -18 1.900 1.447 0.110 272.468 o
4 -2 -17 7.599 7.783 0.272 48.208 o
4 -2 -16 7.321 6.940 0.282 50.964 o
4 -2 -15 5.732 5.258 0.206 73.277 o
4 -2 -14 39.959 38.094 0.572 4.816 o
4 -2 -13 47.145 45.071 0.626 3.665 o
4 -2 -12 41.772 41.374 0.494 4.476 o
4 -2 -11 2.405 2.295 0.130 195.296 o
4 -2 -10 9.107 9.017 0.252 40.626 o
4 -2 -9 19.059 19.066 0.334 15.026 o
4 -2 -8 40.178 41.535 0.871 4.226 o
4 -2 -7 55.639 58.060 1.177 2.399 o
4 -2 -6 28.993 30.184 0.525 7.565 o
4 -2 -5 9.689 10.499 0.237 36.825 o
4 -2 -4 3.634 4.363 0.157 114.484 o
4 -2 -3 37.518 38.381 0.534 5.167 o
4 -2 -2 11.682 12.844 0.288 28.047 o
4 -2 -1 14.607 14.408 0.305 21.901 o
4 -2 0 18.094 19.313 0.384 15.292 o
4 -2 1 8.609 8.473 0.304 41.282 o
4 -2 2 8.084 8.849 0.282 43.499 o
4 -2 3 38.848 38.009 0.568 4.971 o
4 -1 -19 11.048 11.378 0.290 30.833 o
4 -1 -18 1.736 1.345 0.178 236.892 o
4 -1 -17 4.280 3.273 0.188 107.045 o
4 -1 -16 14.595 13.457 0.341 22.066 o
4 -1 -15 3.984 3.159 0.147 121.690 o
4 -1 -14 5.579 4.404 0.183 81.516 o
4 -1 -13 8.223 8.495 0.212 46.607 o
4 -1 -12 42.868 42.590 0.612 4.187 o
4 -1 -11 11.921 12.361 0.272 28.348 o
4 -1 -10 38.519 39.755 0.489 4.985 o
4 -1 -9 0.108 0.310 0.072 1946.360 o
4 -1 -8 31.840 33.900 0.443 6.659 o
4 -1 -7 33.122 34.402 0.486 6.283 o
4 -1 -6 15.803 14.991 0.262 20.516 o
4 -1 -5 0.661 0.612 0.064 780.266 o
4 -1 -4 11.493 11.964 0.273 29.608 o
4 -1 -3 8.483 8.288 0.229 45.273 o
4 -1 -2 20.288 18.882 0.341 14.189 o
4 -1 -1 45.182 44.695 0.940 3.567 o
4 -1 0 26.387 25.996 0.747 8.033 o
4 -1 1 10.959 10.106 0.281 32.742 o
4 -1 2 14.435 13.766 0.380 21.513 o
4 -1 3 9.217 9.285 0.292 38.364 o
4 0 -18 9.129 8.515 0.418 34.689 o
4 0 -16 1.316 0.533 0.110 424.507 o
4 0 -14 1.776 1.181 0.119 291.335 o
4 0 -12 26.296 27.222 0.683 8.150 o
4 0 -10 41.228 41.541 0.710 4.314 o
4 0 -8 61.777 65.755 0.818 2.157 o
4 0 -6 21.013 22.118 0.453 12.172 o
4 0 -4 23.799 23.873 0.480 10.370 o
4 0 -2 52.948 53.755 0.823 2.840 o
4 0 0 1.020 0.812 0.115 452.382 o
4 0 2 51.075 50.033 0.757 3.105 o
4 0 4 105.493 108.824 1.146 0.851 o
4 0 6 31.701 36.097 0.897 5.542 o
4 0 8 65.050 69.442 1.233 1.845 o
4 0 10 79.216 79.406 1.250 1.390 o
4 0 12 38.586 39.069 0.924 4.443 o
4 0 14 29.248 30.140 0.943 6.284 o
4 1 4 3.914 4.071 0.213 101.926 o
4 1 5 0.054 0.276 0.074 2244.640 o
4 1 6 2.791 2.189 0.181 159.907 o
4 1 7 17.144 18.131 0.833 11.945 o
4 1 8 2.509 3.616 0.314 103.691 o
4 1 9 57.830 61.638 1.168 2.243 o
4 1 10 0.243 0.686 0.179 495.248 o
4 1 11 9.072 9.130 0.621 26.111 o
4 1 12 8.703 9.190 0.420 34.800 o
4 1 13 2.004 2.160 0.206 179.636 o
4 1 14 14.559 15.543 0.488 18.795 o
4 1 15 3.375 4.223 0.240 103.881 o
4 1 16 0.931 1.085 0.120 429.756 o
4 1 17 4.654 4.365 0.284 78.681 o
4 2 4 5.174 6.256 0.235 70.972 o
4 2 5 17.367 18.147 0.383 16.314 o
4 2 6 2.727 3.105 0.190 143.841 o
4 2 7 0.964 0.977 0.138 400.574 o
4 2 8 6.305 6.243 0.293 57.611 o
4 2 9 1.356 1.796 0.165 260.271 o
4 2 10 5.331 5.993 0.363 57.570 o
4 2 11 17.240 18.978 0.607 13.977 o
4 2 12 3.175 3.330 0.263 109.320 o
4 2 13 10.657 12.638 0.452 26.244 o
4 2 14 14.499 14.391 0.452 19.983 o
4 2 15 7.647 7.588 0.304 46.668 o
4 2 16 6.203 5.825 0.240 64.064 o
4 2 17 0.025 0.552 0.102 1290.510 o
4 3 4 5.485 5.296 0.205 75.600 o
4 3 5 36.542 37.941 0.602 5.250 o
4 3 6 1.895 2.492 0.168 198.280 o
4 3 7 41.806 38.946 0.587 4.525 o
4 3 8 26.209 24.763 0.770 8.145 o
4 3 9 38.513 36.367 1.019 4.439 o
4 3 10 0.225 0.392 0.096 1161.190 o
4 3 11 6.085 6.285 0.243 63.049 o
4 3 12 10.763 9.563 0.388 30.753 o
4 3 13 5.238 5.611 0.268 69.722 o
4 3 14 11.900 12.622 0.412 25.246 o
4 3 15 1.153 1.101 0.106 405.074 o
4 4 4 15.735 14.771 0.421 18.920 o
4 4 5 15.596 15.987 0.629 15.769 o
4 4 6 30.732 29.402 0.881 6.277 o
4 4 7 11.401 9.374 0.286 32.425 o
4 4 8 15.507 13.964 0.329 20.759 o
4 4 9 10.339 8.419 0.250 37.629 o
4 4 10 2.054 2.071 0.123 226.608 o
4 4 11 10.192 8.308 0.219 39.175 o
4 4 12 3.422 2.560 0.198 130.065 o
4 5 4 5.162 4.960 0.383 59.431 o
4 5 5 1.621 1.886 0.252 173.476 o
4 5 6 3.146 3.181 0.246 115.684 o
4 5 7 3.789 3.411 0.241 103.519 o
5 -3 -5 2.243 2.330 0.230 155.046 o
5 -3 -4 10.060 9.692 0.324 34.297 o
5 -3 -3 2.591 2.521 0.152 172.422 o
5 -3 -2 6.824 7.355 0.250 54.502 o
5 -3 -1 4.042 4.315 0.193 101.360 o
5 -3 0 1.230 1.724 0.177 263.022 o
5 -3 1 5.972 5.623 0.295 61.532 o
5 -3 2 2.281 1.569 0.161 206.753 o
5 -2 -9 1.862 1.913 0.125 245.377 o
5 -2 -8 1.783 1.585 0.119 270.227 o
5 -2 -7 1.450 1.198 0.113 336.908 o
5 -2 -6 0.407 0.390 0.086 1010.020 o
5 -2 -5 5.245 5.092 0.253 73.656 o
5 -2 -4 2.868 2.844 0.162 152.785 o
5 -2 -3 7.341 7.489 0.294 48.825 o
5 -2 -2 7.394 7.267 0.602 31.191 o
5 -2 -1 19.199 24.015 1.846 4.659 o
5 -2 0 32.221 34.840 1.232 4.760 o
5 -2 1 8.760 12.001 0.318 34.872 o
5 -2 2 5.970 6.747 0.266 60.316 o
5 -2 3 7.858 8.261 0.210 48.887 o
5 -2 4 5.893 5.106 0.160 76.501 o
5 -1 -11 2.910 2.456 0.144 164.147 o
5 -1 -10 4.757 5.078 0.335 67.619 o
5 -1 -9 7.531 7.544 0.455 38.453 o
5 -1 -8 10.597 11.449 0.296 31.636 o
5 -1 -7 23.317 23.775 0.439 10.768 o
5 -1 -6 0.406 0.499 0.076 1013.220 o
5 -1 -5 3.031 3.378 0.156 141.301 o
5 -1 -4 2.243 2.369 0.168 184.166 o
5 -1 -3 0.972 0.850 0.078 533.401 o
5 -1 -2 2.699 2.856 0.145 164.028 o
5 -1 -1 0.242 0.553 0.068 1285.510 o
5 -1 0 8.572 10.179 0.470 31.881 o
5 -1 1 18.561 19.320 0.415 14.720 o
5 -1 2 13.382 14.186 0.472 21.014 o
5 -1 3 20.608 21.044 0.483 12.485 o
5 -1 4 17.235 17.707 0.437 16.101 o
5 0 -11 0.595 0.830 0.129 538.838 o
5 0 -9 22.916 24.339 0.672 9.672 o
5 0 -7 8.714 8.207 0.304 41.364 o
5 0 -5 7.687 8.183 0.306 45.155 o
5 0 -3 3.160 4.223 0.184 120.579 o
5 0 -1 3.115 2.845 0.230 124.513 o
5 0 1 15.838 17.528 0.653 14.783 o
5 0 3 44.857 45.290 1.039 3.466 o
5 0 5 4.425 4.627 0.337 71.636 o
5 0 7 14.834 12.001 0.498 20.163 o
5 0 9 1.474 0.916 0.123 342.403 o
5 1 5 27.438 25.692 1.143 6.258 o
5 1 6 2.105 1.740 0.142 223.403 o
5 1 7 3.936 3.044 0.260 99.983 o
5 1 8 1.434 1.212 0.104 348.505 o
5 1 9 0.613 0.088 0.045 1204.830 o
5 1 10 3.180 2.164 0.166 152.455 o
5 2 5 8.569 7.387 0.225 46.982 o
5 2 6 13.636 11.616 0.380 24.033 o
;
_olex2_submission_special_instructions 'No special instructions were received'
_oxdiff_exptl_absorpt_empirical_details
;
Empirical correction (ABSPACK) includes:
- Absorption correction using spherical harmonics
- Frame scaling
;
_oxdiff_exptl_absorpt_empirical_full_max 1.289
_oxdiff_exptl_absorpt_empirical_full_min 0.718
loop_
_space_group_symop_id
_space_group_symop_operation_xyz
1 x,y,z
2 x+1/2,-y,z+1/2
loop_
_atom_site_label
_atom_site_type_symbol
_atom_site_fract_x
_atom_site_fract_y
_atom_site_fract_z
_atom_site_U_iso_or_equiv
_atom_site_adp_type
_atom_site_occupancy
_atom_site_refinement_flags_posn
O4 O 0.1318(3) 0.09058(16) 0.52892(5) 0.0521(3) Uani 1.000000 .
O3 O 0.4498(2) 0.34826(17) 0.49264(4) 0.0455(2) Uani 1.000000 .
O5 O 0.1306(4) -0.21708(17) 0.57404(7) 0.0740(4) Uani 1.000000 .
O2 O 0.2603(3) 0.28827(18) 0.39547(5) 0.0595(3) Uani 1.000000 .
O1 O 0.3890(4) 0.2433(2) 0.29946(6) 0.0851(5) Uani 1.000000 .
C15 C 0.4127(4) 0.0696(2) 0.61693(6) 0.0464(3) Uani 1.000000 .
C13 C 0.7390(5) 0.1429(3) 0.69976(7) 0.0611(4) Uani 1.000000 .
H13 H 0.8403(5) 0.1028(3) 0.73488(7) 0.0733(5) Uiso 1.000000 R
C6 C 0.6275(4) 0.7734(2) 0.43929(7) 0.0492(3) Uani 1.000000 .
H6 H 0.5874(4) 0.8128(2) 0.47847(7) 0.0590(4) Uiso 1.000000 R
C16 C 0.2154(4) -0.0424(2) 0.57407(7) 0.0509(4) Uani 1.000000 .
C5 C 0.8077(4) 0.8911(2) 0.40311(8) 0.0565(4) Uani 1.000000 .
H5 H 0.8892(4) 1.0128(2) 0.41818(8) 0.0678(5) Uiso 1.000000 R
C8 C 0.3070(3) 0.4386(2) 0.44220(6) 0.0442(3) Uani 1.000000 .
H8 H 0.1153(3) 0.5012(2) 0.45324(6) 0.0530(4) Uiso 1.000000 R
C7 C 0.5095(3) 0.5952(2) 0.41496(6) 0.0394(3) Uani 1.000000 .
C11 C 0.6211(4) 0.4088(2) 0.62686(7) 0.0511(3) Uani 1.000000 .
H11 H 0.6409(4) 0.5431(2) 0.61306(7) 0.0613(4) Uiso 1.000000 R
C9 C 0.2609(3) 0.2923(2) 0.53949(6) 0.0422(3) Uani 1.000000 .
H9 H 0.1020(3) 0.3950(2) 0.54452(6) 0.0506(3) Uiso 1.000000 R
C3 C 0.7550(4) 0.6521(3) 0.32101(7) 0.0522(4) Uani 1.000000 .
H3 H 0.7994(4) 0.6101(3) 0.28227(7) 0.0626(4) Uiso 1.000000 R
C2 C 0.5702(3) 0.5364(2) 0.35727(6) 0.0432(3) Uani 1.000000 .
C14 C 0.5599(4) 0.0025(3) 0.66898(7) 0.0576(4) Uani 1.000000 .
H14 H 0.5389(4) -0.1318(3) 0.68263(7) 0.0691(5) Uiso 1.000000 R
C10 C 0.4429(3) 0.2678(2) 0.59633(6) 0.0421(3) Uani 1.000000 .
C12 C 0.7698(4) 0.3429(3) 0.67895(8) 0.0607(4) Uani 1.000000 .
H12 H 0.8924(4) 0.4345(3) 0.70032(8) 0.0729(5) Uiso 1.000000 R
C1 C 0.4081(4) 0.3434(2) 0.34444(7) 0.0555(4) Uani 1.000000 .
C4 C 0.8702(4) 0.8323(3) 0.34488(8) 0.0576(4) Uani 1.000000 .
H4 H 0.9915(4) 0.9154(3) 0.32154(8) 0.0691(5) Uiso 1.000000 R
loop_
_atom_site_aniso_label
_atom_site_aniso_U_11
_atom_site_aniso_U_22
_atom_site_aniso_U_33
_atom_site_aniso_U_12
_atom_site_aniso_U_13
_atom_site_aniso_U_23
O4 0.0586(7) 0.0434(5) 0.0542(6) -0.0100(5) 0.0012(5) 0.0019(4)
O3 0.0393(5) 0.0528(6) 0.0446(5) 0.0033(4) 0.0043(4) 0.0128(4)
O5 0.0959(10) 0.0412(6) 0.0850(9) -0.0158(7) 0.0062(8) 0.0037(6)
O2 0.0696(8) 0.0502(6) 0.0581(6) -0.0227(5) -0.0121(5) 0.0086(5)
O1 0.1300(14) 0.0676(8) 0.0570(7) -0.0243(8) -0.0163(8) -0.0117(6)
C15 0.0533(9) 0.0423(7) 0.0441(7) 0.0020(6) 0.0130(6) 0.0025(6)
C13 0.0680(11) 0.0747(11) 0.0407(7) 0.0117(9) 0.0024(7) 0.0046(7)
C6 0.0507(9) 0.0461(8) 0.0508(8) -0.0019(6) 0.0019(6) -0.0042(6)
C16 0.0579(10) 0.0405(7) 0.0547(8) -0.0014(6) 0.0122(7) 0.0028(6)
C5 0.0592(10) 0.0446(7) 0.0656(10) -0.0142(7) -0.0023(8) 0.0030(7)
C8 0.0393(7) 0.0435(7) 0.0495(7) -0.0026(6) -0.0028(6) 0.0092(6)
C7 0.0359(7) 0.0388(6) 0.0434(6) -0.0005(5) -0.0024(5) 0.0059(5)
C11 0.0571(9) 0.0468(7) 0.0496(8) -0.0018(7) 0.0065(7) -0.0022(6)
C9 0.0411(7) 0.0390(6) 0.0467(7) -0.0004(5) 0.0072(6) 0.0019(5)
C3 0.0536(9) 0.0612(9) 0.0417(7) -0.0012(7) 0.0002(6) 0.0071(6)
C2 0.0445(7) 0.0437(7) 0.0410(6) -0.0021(6) -0.0074(5) 0.0045(5)
C14 0.0706(11) 0.0538(8) 0.0490(8) 0.0103(8) 0.0141(8) 0.0116(7)
C10 0.0448(8) 0.0407(7) 0.0413(6) 0.0021(6) 0.0113(5) 0.0007(5)
C12 0.0624(10) 0.0722(11) 0.0475(7) -0.0031(8) 0.0005(7) -0.0064(8)
C1 0.0699(11) 0.0473(8) 0.0487(8) -0.0076(7) -0.0135(7) 0.0039(6)
C4 0.0512(9) 0.0605(9) 0.0612(9) -0.0155(8) 0.0006(7) 0.0158(7)
loop_
_atom_type_symbol
_atom_type_scat_dispersion_real
_atom_type_scat_dispersion_imag
_atom_type_scat_Cromer_Mann_a1
_atom_type_scat_Cromer_Mann_a2
_atom_type_scat_Cromer_Mann_a3
_atom_type_scat_Cromer_Mann_a4
_atom_type_scat_Cromer_Mann_b1
_atom_type_scat_Cromer_Mann_b2
_atom_type_scat_Cromer_Mann_b3
_atom_type_scat_Cromer_Mann_b4
_atom_type_scat_Cromer_Mann_c
_atom_type_scat_source
_atom_type_scat_dispersion_source
H 0.00000 0.00000 0.49300 0.32291 0.14019 0.04081 10.51090 26.12570 3.14236
57.79970 0.0030380000826
'International Tables Volume C Table 6.1.1.4 (pp. 500-502)'
'Henke, Gullikson and Davis, At. Data and Nucl. Data Tables, 1993, 54, 2'
C 0.01920 0.00962 2.31000 1.02000 1.58860 0.86500 20.84390 10.20750 0.56870
51.65120 0.215599998832
'International Tables Volume C Table 6.1.1.4 (pp. 500-502)'
'Henke, Gullikson and Davis, At. Data and Nucl. Data Tables, 1993, 54, 2'
O 0.05239 0.03377 3.04850 2.28680 1.54630 0.86700 13.27710 5.70110 0.32390
32.90890 0.250800013542
'International Tables Volume C Table 6.1.1.4 (pp. 500-502)'
'Henke, Gullikson and Davis, At. Data and Nucl. Data Tables, 1993, 54, 2'
loop_
_diffrn_refln_index_h
_diffrn_refln_index_k
_diffrn_refln_index_l
_diffrn_refln_intensity_net
_diffrn_refln_intensity_u
-4 0 -18 20.32 0.78
-4 0 -17 0.18 0.15
-4 0 -16 1.12 0.27
-4 0 -15 0.41 0.23
-4 -1 -18 7.69 0.48
-4 1 -17 7.41 0.5
-4 -1 -17 7.83 0.55
-4 1 -16 2.11 0.32
-4 1 -15 7.39 0.58
-4 1 -14 25.73 1.12
-4 1 -13 3.93 0.47
-4 1 -12 14.06 0.88
-4 1 -11 15.42 0.94
-4 1 -10 0.99 0.32
-4 2 -16 9.42 0.53
-4 -2 -16 9.32 0.52
-4 2 -15 11.25 0.62
-4 -2 -15 12.17 0.65
-4 2 -14 23.32 0.95
-4 -2 -14 23.99 0.98
-4 -2 -13 20.25 0.95
-4 2 -13 19.4 0.9
-4 2 -12 5.57 0.5
-4 -2 -12 5.19 0.52
-4 2 14 67.24 1.62
-4 -3 -14 22.38 0.85
-4 -3 -13 10.14 0.63
-4 3 9 9.48 0.65
-4 3 14 12.46 0.69
-4 3 15 23.69 0.85
-4 -4 -12 5.67 0.41
-4 4 -1 5.85 0.55
-4 4 0 2.58 0.39
-4 4 1 17.75 0.9
-4 4 2 5.55 0.5
-4 4 3 4.94 0.45
-4 4 7 35.87 1.26
-4 4 8 27.64 1.06
-4 4 9 26.87 0.99
-4 4 10 16.82 0.74
-4 4 13 10.45 0.56
-4 5 -7 6.34 0.41
-4 5 -6 6.49 0.43
-4 5 -5 3.73 0.35
-4 5 -4 9.36 0.54
-4 5 -3 16.21 0.72
-4 5 -2 6.03 0.45
-4 5 -1 1.09 0.22
-4 5 0 7.95 0.51
-4 5 1 28.9 0.93
-4 5 2 5.39 0.4
-4 5 3 15.41 0.75
-4 5 3 11.76 0.55
-4 5 4 0.34 0.18
-4 5 5 2.23 0.29
-4 5 6 4.1 0.37
-4 5 7 0.74 0.18
-3 0 -22 0.31 0.14
-3 0 -22 0.03 0.12
-3 0 -21 17.66 0.89
-3 0 -21 15.07 0.81
-3 0 -20 0.21 0.19
-3 0 -20 0.33 0.24
-3 0 -19 56.2 1.88
-3 0 -19 49.9 1.7
-3 0 -18 0.83 0.28
-3 0 -17 57.6 1.97
-3 0 -16 0.05 0.26
-3 0 -15 82.27 2.45
-3 0 -14 0.49 0.26
-3 0 -13 39.96 1.7
-3 0 -12 1.2 0.39
-3 0 -11 502.72 8.5
-3 0 -11 462.48 5.63
-3 0 -10 0.98 0.53
-3 0 -7 168.6 3.8
-3 0 -6 0.52 0.34
-3 0 -5 29.48 1.55
-3 0 -4 2.34 0.44
-3 0 -3 244.08 4.38
-3 0 -2 0.5 0.33
-3 0 -1 448.23 5.98
-3 0 0 0.66 0.33
-3 0 1 103.49 2.98
-3 0 2 -0.21 0.34
-3 0 3 132.77 3.51
-3 0 4 0.28 0.33
-3 0 10 0.03 0.24
-3 0 11 185.89 5.03
-3 0 12 2.75 0.7
-3 0 21 19.33 0.96
-3 0 22 -0.08 0.12
-3 -1 -22 8.9 0.52
-3 -1 -22 8.68 0.55
-3 1 -22 8.95 0.56
-3 1 -21 29.34 1.13
-3 -1 -21 30.99 1.12
-3 -1 -21 29.02 1.11
-3 1 -20 36.03 1.4
-3 1 -20 31.91 1.2
-3 -1 -20 34.29 1.33
-3 1 -19 5.56 0.55
-3 1 -19 6.91 0.67
-3 -1 -19 6.42 0.64
-3 1 -18 23.73 1.29
-3 1 -18 20.68 1.1
-3 -1 -18 22.8 1.23
-3 1 -17 56.89 1.88
-3 -1 -17 60.59 2.06
-3 -1 -16 19.62 1.23
-3 1 -16 18.87 1.12
-3 1 -16 20.34 1.29
-3 -1 -15 12.54 0.99
-3 1 -15 10 0.83
-3 1 -14 16.67 1.07
-3 1 -11 124.53 3.84
-3 -1 -11 135.13 4.4
-3 1 -10 13.49 1.25
-3 -1 -10 12.68 1.34
-3 -1 -9 28.08 1.95
-3 1 -9 28.4 1.78
-3 1 -8 62.5 2.61
-3 -1 -8 63.65 2.87
-3 -1 -7 6.24 0.92
-3 1 -7 5.19 0.79
-3 1 -6 159.91 4.05
-3 -1 -6 165.04 4.36
-3 -1 -5 153.23 4.1
-3 1 -5 150.03 3.93
-3 -1 -4 109.17 3.36
-3 1 -4 109.35 3.36
-3 1 -3 34.12 1.89
-3 -1 -3 32.12 1.76
-3 1 -2 120.15 3.52
-3 -1 -2 122.4 3.31
-3 -1 -1 63.84 2.31
-3 1 -1 59.62 2.51
-3 1 0 194.39 4.57
-3 1 1 90.53 3.16
-3 1 2 17.47 1.42
-3 1 3 16.89 1.4
-3 1 6 151.4 4.04
-3 1 7 6.34 0.91
-3 -1 7 7.21 0.96
-3 1 8 221.16 5.26
-3 -1 8 241.77 5.48
-3 -1 9 244.55 5.7
-3 1 9 220.56 5.46
-3 -1 10 28.98 2.04
-3 1 10 27.97 2.02
-3 -1 11 299.94 6.65
-3 1 11 286.9 6.59
-3 -1 12 218.33 5.84
-3 1 12 203.53 5.69
-3 1 15 40.54 1.59
-3 1 16 48.26 1.71
-3 -1 18 26.39 1.22
-3 -1 19 1.8 0.33
-3 -1 20 5.8 0.52
-3 -1 21 17.62 0.82
-3 -2 -21 2.43 0.32
-3 -2 -21 2.55 0.3
-3 2 -21 2.88 0.35
-3 2 -20 11.61 0.73
-3 -2 -20 12.06 0.75
-3 -2 -19 13.67 0.85
-3 2 -19 13.1 0.84
-3 -2 -18 23.66 1.2
-3 2 -18 24.16 1.21
-3 2 -17 7.26 0.72
-3 -2 -17 7.9 0.75
-3 2 -16 38.45 1.65
-3 -2 -16 40.39 1.7
-3 2 -15 23.96 1.35
-3 2 -14 61.41 2.18
-3 2 -13 84.5 2.58
-3 2 -12 219.28 4.11
-3 2 -11 18.93 1.22
-3 2 -10 110.24 2.86
-3 2 -9 101.43 3.6
-3 2 -9 93.39 2.59
-3 -2 -9 104.89 3.85
-3 2 -8 101.08 3.57
-3 2 -8 94.35 2.53
-3 -2 -8 100.9 3.71
-3 2 -7 74.3 3.02
-3 2 -7 73.38 2.18
-3 -2 -7 74.31 3.1
-3 2 -6 33.27 2.03
-3 -2 -6 32.23 2
-3 2 -5 32.16 2.01
-3 -2 -5 30.81 1.92
-3 2 -4 26.13 1.82
-3 -2 -4 24.84 1.68
-3 -2 -3 237.17 4.99
-3 2 -3 236.36 5.42
-3 -2 -2 47 2.46
-3 2 -2 44.88 2.39
-3 -2 -2 51.54 2.26
-3 -2 -1 2.66 0.64
-3 2 -1 1.8 0.52
-3 -2 0 64.65 2.79
-3 2 0 58.77 2.77
-3 2 1 83.89 3.35
-3 -2 1 94.65 3.31
-3 2 2 8.74 1.1
-3 2 3 80.3 3.34
-3 2 4 30.41 2.09
-3 2 6 52.06 2.51
-3 -2 6 51.59 2.57
-3 -2 7 142.81 4.44
-3 2 7 138.07 4.23
-3 -2 8 34.11 2.27
-3 2 8 30.15 2.06
-3 2 9 213.7 5.55
-3 -2 9 240.13 6.14
-3 2 10 319.74 6.97
-3 -2 10 349.14 7.54
-3 2 16 29.32 1.4
-3 2 17 7.08 0.71
-3 2 18 7.76 0.68
-3 2 19 13.99 0.85
-3 2 20 16.98 0.85
-3 3 -20 0.15 0.1
-3 -3 -20 0.25 0.15
-3 -3 -19 5.51 0.49
-3 3 -19 5.01 0.46
-3 -3 -18 1.62 0.31
-3 3 -18 1.42 0.29
-3 -3 -17 23.55 1.15
-3 3 -17 21.26 1.09
-3 3 -16 8.47 0.73
-3 3 -15 7.05 0.69
-3 3 -14 50.87 1.87
-3 3 -13 26.24 1.37
-3 3 -12 11.03 0.91
-3 3 -11 76.77 2.36
-3 3 -10 3.84 0.55
-3 3 -9 29.99 1.44
-3 3 -8 35.67 1.54
-3 -3 -6 426.87 8.56
-3 -3 -6 406.49 7.43
-3 3 -6 424.2 7.69
-3 3 -5 151.28 4.69
-3 -3 -5 152.53 5.04
-3 -3 -5 150.03 4.47
-3 -3 -4 276.89 6.7
-3 -3 -4 272.9 5.85
-3 -3 -3 8.34 1.18
-3 3 -3 8.13 1.1
-3 -3 -2 4.69 0.89
-3 3 -2 2.74 0.54
-3 -3 -1 33.74 2.25
-3 3 -1 28.92 2.11
-3 3 0 76.98 3.41
-3 -3 0 77.31 3.38
-3 -3 1 169.04 4.92
-3 3 1 160.92 4.98
-3 -3 2 151.06 4.64
-3 3 2 139.06 4.71
-3 -3 3 79.67 3.32
-3 3 3 71.31 3.44
-3 3 4 142.21 4.88
-3 3 5 3.99 0.5
-3 3 5 2.2 0.66
-3 3 6 89.44 3.92
-3 -3 7 195.56 5.57
-3 3 11 2.82 0.47
-3 3 12 24.47 1.23
-3 3 13 38.62 1.5
-3 3 14 2.51 0.41
-3 3 16 0.78 0.36
-3 3 17 24.89 1.2
-3 3 18 9.32 0.71
-3 3 19 -0.04 0.18
-3 3 20 14.12 0.73
-3 -4 -18 1.93 0.26
-3 -4 -17 5.93 0.5
-3 4 -17 5.19 0.44
-3 -4 -16 13.01 0.79
-3 4 -16 11.37 0.7
-3 4 -15 3.81 0.44
-3 4 -14 8.1 0.65
-3 4 -13 2.66 0.41
-3 4 -12 11.02 0.8
-3 4 -11 17.44 1.01
-3 4 -10 9.24 0.74
-3 4 2 79.65 2.28
-3 4 3 151.24 3.11
-3 4 4 5.82 0.64
-3 4 5 32.24 1.41
-3 4 6 73.62 2.08
-3 4 7 109.23 2.48
-3 4 9 8.98 0.8
-3 4 10 25.32 1.29
-3 4 11 7.71 0.72
-3 4 12 20.51 1.11
-3 4 13 3.4 0.48
-3 4 14 1.63 0.32
-3 4 15 7.68 0.6
-3 4 15 8.7 0.72
-3 -4 16 8.52 0.63
-3 4 16 8.78 0.68
-3 4 16 8.25 0.56
-3 4 17 4.06 0.46
-3 -4 17 3.31 0.38
-3 4 18 10.43 0.64
-3 -4 18 9.66 0.57
-3 -5 -15 5.82 0.43
-3 5 -13 0.85 0.18
-3 5 -12 14.53 0.7
-3 5 -11 5.91 0.51
-3 5 -10 6.58 0.56
-3 5 -9 5.69 0.54
-3 5 -8 0.32 0.2
-3 5 -7 7.66 0.67
-3 5 -6 40.18 1.54
-3 5 -5 31.07 1.37
-3 5 -4 58.03 1.89
-3 5 -3 5.96 0.68
-3 5 -2 1.43 0.37
-3 5 -1 23.78 1.25
-3 5 0 12.96 0.92
-3 5 1 11.9 0.87
-3 5 2 15.46 0.98
-3 5 3 11.07 0.84
-3 -5 3 10.47 0.77
-3 5 4 62.18 1.9
-3 5 5 21.06 1.09
-3 5 6 43.13 1.54
-3 5 7 29.23 1.23
-3 5 7 34.26 1.46
-3 5 8 9.29 0.67
-3 5 8 9.34 0.77
-3 5 9 1.94 0.39
-3 5 10 23.65 1.13
-3 5 11 63.07 1.78
-3 5 12 5.86 0.56
-3 5 13 25.16 1.05
-3 5 13 22.74 0.98
-3 5 14 26.5 0.97
-3 5 14 31.17 1.1
-3 5 15 1.28 0.25
-3 6 -9 5.32 0.38
-3 6 -8 16.35 0.7
-3 6 -7 9.45 0.57
-3 6 -6 3.65 0.39
-3 6 -5 31.39 1.11
-3 6 -4 15.3 0.82
-3 6 -3 29.23 1.12
-3 6 -2 51.88 1.5
-3 6 -1 2.27 0.38
-3 6 0 15.2 0.81
-3 6 0 12.3 0.76
-3 6 1 3.08 0.4
-3 6 1 3.98 0.44
-3 6 2 5.36 0.51
-3 6 2 5.97 0.54
-3 6 3 2.15 0.36
-3 6 3 1.85 0.33
-3 6 4 15.29 0.81
-3 -6 4 15.3 0.72
-3 6 5 8.15 0.59
-3 -6 5 8.13 0.54
-3 -6 6 4.48 0.4
-3 6 6 5.93 0.52
-3 6 6 4.88 0.44
-3 6 7 13.39 0.67
-3 -6 7 13.59 0.68
-3 -6 8 4.92 0.41
-3 6 8 6.3 0.51
-3 -6 9 8.26 0.5
-3 6 9 8.68 0.56
-3 6 9 9.9 0.54
-3 6 10 3.98 0.37
-3 6 11 2.55 0.28
-2 0 -25 0.02 0.11
-2 0 -24 60.81 1.43
-2 0 -24 61.76 1.73
-2 0 -23 0.27 0.28
-2 0 -23 0.18 0.2
-2 0 -22 19.85 1.18
-2 0 -22 19.19 1.06
-2 0 -21 0.06 0.19
-2 0 -21 0.26 0.25
-2 0 -20 42.33 1.85
-2 0 -20 39.84 1.72
-2 0 -19 -0.18 0.33
-2 0 -18 66.02 2.39
-2 0 -17 0.46 0.38
-2 0 -16 264.16 6.12
-2 0 -16 260.64 5.87
-2 0 -15 0.17 0.23
-2 0 -15 0.87 0.35
-2 0 -15 0.14 0.34
-2 0 -14 63.67 2.83
-2 0 -14 64.77 2.22
-2 0 -14 60.13 2.7
-2 0 -13 -0.13 0.23
-2 0 -13 -0.21 0.29
-2 0 -12 45.11 2.17
-2 0 -11 0.16 0.21
-2 0 -10 319.52 5.22
-2 0 -9 0.44 0.28
-2 0 -8 572.9 6.21
-2 0 -7 0.78 0.33
-2 0 -6 874.55 7.21
-2 0 -5 -0.16 0.22
-2 0 -4 55.27 1.74
-2 0 -3 10.01 0.74
-2 0 -2 1152.07 7.77
-2 0 -1 0.36 0.21
-2 0 -1 0.77 0.19
-2 0 0 242.14 3.62
-2 0 0 245.94 2.67
-2 0 1 1.42 0.35
-2 0 2 1388.11 7.84
-2 0 3 0.36 0.13
-2 0 3 0.23 0.19
-2 0 4 8.3 0.72
-2 0 5 0.69 0.31
-2 0 6 915.68 8.25
-2 0 7 1.14 0.45
-2 0 8 1477.23 11.7
-2 0 9 0.1 0.33
-2 0 10 278.39 5.46
-2 0 11 0.31 0.38
-2 0 12 328.08 6.5
-2 0 13 0.85 0.51
-2 0 14 398.28 7.77
-2 0 15 0.52 0.46
-2 0 16 466.51 8.93
-2 0 23 0.01 0.19
-2 0 24 12.95 0.84
-2 0 25 0.1 0.15
-2 -1 -25 2.66 0.31
-2 1 -25 2.44 0.3
-2 -1 -24 3.76 0.42
-2 1 -24 3.99 0.39
-2 1 -24 3.46 0.42
-2 -1 -23 8.61 0.7
-2 1 -23 7.34 0.66
-2 -1 -23 7.87 0.56
-2 1 -23 7.87 0.61
-2 -1 -22 13.06 0.94
-2 -1 -22 12.77 0.83
-2 1 -22 13.38 0.89
-2 1 -22 11.83 0.9
-2 -1 -21 20.21 1.22
-2 1 -21 19.65 1.2
-2 1 -21 20.12 1.17
-2 1 -20 14.49 1.06
-2 -1 -20 14.86 1.1
-2 1 -20 14.49 1.09
-2 1 -19 22.59 1.37
-2 1 -19 22.8 1.4
-2 -1 -19 23.34 1.43
-2 1 -18 155.39 3.63
-2 -1 -18 162.77 3.74
-2 1 -18 157.2 3.63
-2 1 -17 39.69 1.84
-2 -1 -17 40 1.87
-2 -1 -16 0.49 0.33
-2 1 -16 0.59 0.3
-2 1 -16 0.76 0.32
-2 -1 -16 1.25 0.42
-2 -1 -15 51.49 2.63
-2 1 -15 52.01 2.05
-2 1 -15 53 2.65
-2 -1 -14 484.14 7.36
-2 -1 -14 504.34 8.22
-2 1 -14 502.81 7.91
-2 1 -14 502.07 6.1
-2 -1 -13 295.66 5.52
-2 -1 -13 302.56 6.1
-2 1 -13 304.46 6.05
-2 1 -13 297.41 4.58
-2 1 -12 138.37 3.88
-2 1 -12 127.94 2.91
-2 -1 -12 128.62 3.48
-2 -1 -12 136.51 4
-2 -1 -11 75.08 2.88
-2 1 -11 78.06 2.79
-2 -1 -11 76.3 2.57
-2 -1 -10 1.3 0.45
-2 -1 -10 2.28 0.48
-2 1 -10 1.17 0.39
-2 -1 -9 32.51 1.52
-2 1 -9 34.98 1.76
-2 -1 -9 34.32 1.88
-2 -1 -8 329.22 4.48
-2 1 -8 322.91 5.15
-2 -1 -7 262.31 4.78
-2 1 -7 264.48 4.54
-2 -1 -7 256.21 3.77
-2 1 -6 33.96 1.61
-2 -1 -6 32.08 1.27
-2 1 -5 17.73 1.18
-2 -1 -5 20.46 1.25
-2 -1 -5 20.43 0.95
-2 -1 -4 496.95 5.84
-2 1 -4 495.55 6.01
-2 -1 -3 595.07 4.53
-2 -1 -3 594.2 6.16
-2 1 -3 608.26 6.61
-2 1 -2 744.03 7.39
-2 -1 -2 742.28 4.9
-2 1 -1 954.35 8.31
-2 -1 -1 970.59 7.15
-2 -1 -1 948.72 5.54
-2 1 -1 972.87 6.05
-2 -1 0 81.58 1.98
-2 1 0 77.7 2.39
-2 1 0 80.7 1.89
-2 -1 0 76.76 1.6
-2 -1 1 243.88 2.97
-2 1 1 249.73 3.54
-2 1 1 242.06 2.69
-2 1 2 44.14 1.31
-2 -1 2 44.93 1.31
-2 1 2 44.31 1.59
-2 -1 2 41.06 1.26
-2 -1 2 44.2 1.62
-2 -1 3 454.13 3.84
-2 -1 3 457.96 5.14
-2 1 4 831.27 6.76
-2 1 4 831.88 7.69
-2 1 5 68.39 2.08
-2 -1 5 70.43 1.97
-2 1 6 799.64 7.5
-2 -1 6 858.13 6.84
-2 -1 7 3016.75 13
-2 1 7 3030.8 15.43
-2 -1 7 3034.38 16.84
-2 1 8 571.88 7.09
-2 -1 8 580.41 7.74
-2 -1 9 315.96 6.01
-2 1 9 313.99 5.54
-2 1 10 251.63 5.17
-2 -1 10 273.4 5.85
-2 1 11 269.99 5.63
-2 -1 11 286.66 6.19
-2 -1 12 41.47 2.45
-2 1 12 38.02 2.22
-2 1 13 35.44 2.23
-2 -1 13 38.39 2.45
-2 -1 14 95.15 3.92
-2 1 14 84.46 3.56
-2 1 15 134.05 4.8
-2 1 15 136.29 4.67
-2 -1 15 142.14 4.91
-2 1 15 141.58 3.1
-2 -1 16 61.46 3.33
-2 1 16 57.53 3.12
-2 1 16 56.25 3.15
-2 1 16 58.01 2.04
-2 1 17 58.09 2.06
-2 1 18 17.8 1.17
-2 1 19 16.06 1.11
-2 1 20 74.31 2.29
-2 -1 21 16.24 1.11
-2 1 21 15.35 1.04
-2 1 22 0.8 0.28
-2 -1 22 0.77 0.3
-2 1 23 2.5 0.38
-2 -1 23 2.54 0.41
-2 -1 24 6.96 0.59
-2 -1 25 4.39 0.42
-2 1 25 5.03 0.47
-2 -2 -24 5.78 0.46
-2 2 -24 5.53 0.43
-2 2 -24 5.01 0.43
-2 2 -23 4.21 0.46
-2 2 -23 4.82 0.48
-2 -2 -23 4.78 0.49
-2 2 -22 12.38 0.83
-2 -2 -22 11.89 0.83
-2 2 -22 12.13 0.83
-2 2 -21 15.05 0.99
-2 2 -21 14.33 0.97
-2 -2 -21 15.62 1
-2 2 -20 25.1 1.35
-2 2 -20 24.36 1.33
-2 -2 -20 26.67 1.39
-2 -2 -20 22.83 1.14
-2 -2 -19 138.01 3.27
-2 -2 -19 127.49 2.81
-2 2 -19 131.38 3.18
-2 2 -19 137.47 3.24
-2 2 -18 19.46 1.3
-2 -2 -18 18.41 1.12
-2 2 -18 18.87 1.26
-2 -2 -18 18.63 1.27
-2 2 -17 32.67 1.64
-2 -2 -17 31.43 1.49
-2 2 -17 32.26 1.66
-2 2 -16 112.07 3.04
-2 -2 -16 114.9 2.83
-2 2 -16 118.12 3.18
-2 -2 -15 111.95 2.76
-2 2 -15 116.45 3.13
-2 2 -15 107.25 2.92
-2 2 -14 109.14 2.98
-2 2 -14 109.98 3.92
-2 -2 -14 115.96 4.11
-2 2 -14 107.77 2.85
-2 2 -13 121.61 4.04
-2 2 -13 123.55 3.13
-2 2 -13 121.22 2.96
-2 -2 -13 129.45 4.22
-2 -2 -12 20.64 1.7
-2 2 -12 22.16 1.32
-2 2 -12 21.28 1.6
-2 2 -12 21.21 1.21
-2 2 -11 86.96 3.11
-2 -2 -11 89.12 3.32
-2 -2 -10 40.37 2.2
-2 2 -10 41.15 2.12
-2 -2 -9 18.79 1.49
-2 2 -9 16.65 1.32
-2 2 -8 443.92 6.56
-2 -2 -8 441.41 6.71
-2 -2 -7 1174.98 10.65
-2 2 -7 1163.12 10.51
-2 -2 -6 1180.11 10.3
-2 2 -6 1190.65 10.63
-2 2 -5 1767.21 12.87
-2 -2 -5 1746.68 12.08
-2 -2 -4 685.57 7.4
-2 2 -4 757.6 8.32
-2 -2 -3 169.56 3.55
-2 2 -3 171.03 3.96
-2 -2 -2 348.64 4.93
-2 2 -2 330.92 4.35
-2 -2 -1 757.43 6.97
-2 2 -1 767.26 8.46
-2 2 0 419.65 5.26
-2 -2 0 415 5
-2 2 0 431.56 6.4
-2 -2 0 429.25 6.12
-2 -2 1 334.01 5.34
-2 2 1 330.85 4.84
-2 -2 1 319.74 4.21
-2 -2 2 125.65 3.26
-2 -2 2 119.61 2.45
-2 2 2 124.62 3.07
-2 2 3 510.02 6.4
-2 2 3 487.83 5.34
-2 2 4 39.87 1.88
-2 2 4 39.45 1.64
-2 -2 4 43.94 1.93
-2 -2 5 615.26 7.2
-2 2 5 581.15 6.54
-2 -2 6 231.21 4.47
-2 2 6 221.38 4.71
-2 2 6 217.05 4.21
-2 2 7 33.85 1.92
-2 2 7 34.77 1.78
-2 -2 7 34.92 1.78
-2 2 8 73.97 2.71
-2 -2 8 81.24 2.71
-2 2 8 74.14 2.94
-2 2 9 237.59 5.44
-2 2 9 231.39 4.99
-2 2 10 22.31 1.77
-2 -2 10 24.33 1.86
-2 2 11 49.99 2.54
-2 -2 11 52.13 2.82
-2 2 11 51.09 2.72
-2 2 11 52.98 1.68
-2 2 12 14.45 0.92
-2 2 12 13.78 1.47
-2 2 12 13.84 1.42
-2 -2 12 17.98 1.75
-2 2 13 14.14 1.52
-2 2 13 14.92 0.94
-2 -2 13 16.5 1.71
-2 2 13 14.33 1.49
-2 2 14 70.65 3.46
-2 -2 14 78.81 3.78
-2 2 14 71.92 3.39
-2 -2 15 58.16 2.08
-2 2 15 60.12 3.25
-2 2 15 57.24 3.11
-2 2 16 78.91 2.45
-2 -2 16 73.31 2.36
-2 -2 17 93.5 2.67
-2 2 17 102.58 2.82
-2 -2 18 34.21 1.64
-2 2 18 38.39 1.76
-2 2 19 41.82 1.8
-2 -2 19 42.21 1.76
-2 -2 20 3.99 0.57
-2 2 20 3.95 0.58
-2 -2 21 57.3 1.91
-2 2 21 58.31 1.97
-2 2 22 10.38 0.8
-2 -2 22 9.28 0.74
-2 -2 23 5.23 0.52
-2 2 23 5.56 0.55
-2 -2 24 24.78 0.96
-2 2 24 25.94 1.02
-2 3 -23 8.56 0.53
-2 3 -22 11.52 0.71
-2 3 -22 10.57 0.64
-2 -3 -22 10.95 0.68
-2 3 -21 17.49 0.91
-2 -3 -21 18.76 0.97
-2 -3 -21 16.84 0.81
-2 -3 -20 4.46 0.47
-2 3 -20 5.7 0.61
-2 -3 -20 5.61 0.6
-2 3 -20 4.92 0.53
-2 -3 -19 9.96 0.75
-2 -3 -19 11.3 0.88
-2 3 -19 10.12 0.81
-2 3 -19 11.1 0.9
-2 -3 -18 2.53 0.41
-2 3 -18 3.23 0.5
-2 3 -18 2.44 0.48
-2 -3 -18 3.44 0.54
-2 3 -17 6.03 0.73
-2 -3 -17 5.11 0.59
-2 3 -17 5.66 0.65
-2 -3 -16 12.1 0.93
-2 3 -16 13.08 1
-2 3 -16 11.92 1.03
-2 3 -15 56.23 2.17
-2 -3 -15 52.07 1.91
-2 3 -15 52.55 1.99
-2 3 -14 73.93 2.34
-2 -3 -14 72.5 2.25
-2 3 -14 72.7 2.51
-2 3 -13 229.15 4.38
-2 -3 -13 222.95 3.92
-2 -3 -12 46.73 1.77
-2 -3 -12 50.2 2.77
-2 3 -12 46.88 1.97
-2 3 -12 48.71 2.54
-2 3 -11 31.95 2.01
-2 -3 -11 31.7 2.17
-2 3 -11 31.83 1.6
-2 -3 -11 33.08 1.47
-2 3 -10 1.61 0.5
-2 -3 -10 2.04 0.56
-2 -3 -10 1.53 0.33
-2 3 -10 2.14 0.46
-2 3 -9 39.86 2.18
-2 3 -9 38.91 1.66
-2 -3 -9 39.3 2.31
-2 -3 -9 36.23 1.46
-2 3 -8 79.95 3.02
-2 3 -8 81.03 2.33
-2 -3 -8 81.97 3.22
-2 -3 -7 9.6 1.1
-2 3 -7 9.09 1.04
-2 3 -7 9.83 0.81
-2 -3 -6 73.51 2.88
-2 3 -6 71.27 2.88
-2 -3 -5 84.19 3.01
-2 3 -5 88.29 3.19
-2 -3 -4 358.24 6.01
-2 3 -4 368.17 6.44
-2 -3 -3 116.96 3.36
-2 3 -3 113.3 3.63
-2 -3 -3 112.08 3.73
-2 3 -2 28.92 1.82
-2 3 -2 35.17 1.77
-2 -3 -2 34.52 2.05
-2 -3 -2 35.01 1.8
-2 -3 -1 215.95 4.31
-2 3 -1 218.85 5.06
-2 3 -1 226.42 4.5
-2 -3 -1 223.44 5.18
-2 3 0 112.37 3.66
-2 3 0 114.05 3.28
-2 -3 0 114.55 3.65
-2 -3 0 113.28 3.08
-2 3 1 306.15 5.48
-2 3 1 295.41 5.99
-2 -3 1 307.62 5.93
-2 -3 1 312.46 4.98
-2 -3 2 149.77 3.35
-2 3 2 147.67 3.89
-2 -3 2 156.17 4.21
-2 3 3 166.77 4.25
-2 -3 3 170.66 4.44
-2 -3 4 95.06 3.3
-2 3 4 94.25 3.3
-2 3 5 54.34 2.56
-2 -3 5 54.19 2.53
-2 3 5 54.45 2.3
-2 -3 6 47.42 2.38
-2 3 6 48.74 2.28
-2 3 6 46.44 2.43
-2 -3 7 357.37 6.56
-2 3 7 342.02 6.72
-2 3 7 352.05 6.35
-2 3 8 189.74 4.87
-2 3 8 182.12 5.05
-2 -3 8 190.75 4.87
-2 3 9 196.99 5.08
-2 3 9 205.88 5.5
-2 -3 9 211.26 5.22
-2 3 10 26.56 1.99
-2 -3 10 30.62 2.06
-2 3 10 28.5 2.11
-2 3 11 74.05 3.47
-2 -3 11 72.08 3.18
-2 3 11 69.97 3.23
-2 -3 11 71.56 3.53
-2 3 11 71.93 2.16
-2 -3 12 14.18 1.65
-2 3 12 15.04 1.01
-2 3 12 13.32 1.47
-2 3 12 14.01 1.55
-2 -3 13 18.94 1.91
-2 3 13 18.08 1.75
-2 3 13 16.79 1.09
-2 3 13 15.73 1.69
-2 3 14 59.84 2.01
-2 3 15 7.73 0.76
-2 3 16 4.02 0.64
-2 3 16 4.28 0.59
-2 3 17 107.66 2.88
-2 3 17 100.77 2.55
-2 3 18 37.54 1.52
-2 -3 18 37.71 1.56
-2 -3 19 13.79 0.91
-2 3 19 16.55 1.11
-2 3 20 32.37 1.45
-2 -3 20 28.38 1.24
-2 3 21 40.85 1.56
-2 -3 21 35.67 1.28
-2 -3 22 6.52 0.5
-2 3 22 7.72 0.65
-2 3 23 9.19 0.62
-2 -3 23 9.96 0.61
-2 4 -21 16.37 0.77
-2 4 -20 6.56 0.56
-2 -4 -20 6.08 0.49
-2 -4 -20 5.65 0.43
-2 4 -19 2.43 0.4
-2 -4 -19 2.95 0.39
-2 -4 -19 2.27 0.32
-2 -4 -18 20.9 1.09
-2 -4 -18 18.78 0.95
-2 4 -18 20.94 1.14
-2 -4 -17 6.56 0.62
-2 4 -17 7.16 0.72
-2 -4 -16 1.39 0.33
-2 4 -16 1.61 0.39
-2 -4 -15 2.6 0.43
-2 4 -15 2.86 0.52
-2 4 -14 70.71 2.37
-2 -4 -14 68.04 2.14
-2 -4 -13 6.44 0.71
-2 4 -13 6.66 0.79
-2 -4 -12 162.66 3.33
-2 4 -12 161.87 3.64
-2 4 -11 23.7 1.39
-2 -4 -11 22.53 1.25
-2 -4 -10 104.29 2.67
-2 4 -10 107.53 2.91
-2 -4 -9 130.4 4.56
-2 -4 -9 129.05 4.81
-2 4 -9 126.02 4.03
-2 4 -9 125.02 3.11
-2 -4 -9 122.28 2.86
-2 -4 -8 29.74 2.3
-2 4 -8 26.55 1.86
-2 -4 -8 27.49 2.11
-2 4 -8 28.04 1.46
-2 -4 -8 25.19 1.31
-2 -4 -7 433.36 5.24
-2 4 -7 445.27 5.6
-2 4 -7 439.5 7.44
-2 -4 -7 452.41 8.81
-2 -4 -7 451.87 8.18
-2 4 -6 4.86 0.61
-2 4 -6 3.97 0.77
-2 -4 -6 4.45 0.91
-2 -4 -6 5.03 0.92
-2 -4 -6 4.98 0.6
-2 -4 -5 17.54 1.73
-2 4 -5 17.07 1.51
-2 -4 -5 19.23 1.66
-2 4 -4 35.38 2.17
-2 -4 -4 34.2 2.16
-2 -4 -4 35.41 2.4
-2 -4 -3 52.57 2.61
-2 4 -3 53.57 2.68
-2 -4 -3 57.78 2.99
-2 -4 -2 75.18 3.1
-2 4 -2 79.99 3.13
-2 4 -2 72.44 3.15
-2 -4 -2 81.58 3.56
-2 -4 -1 98.05 3.86
-2 -4 -1 94.96 3.38
-2 4 -1 92.94 3.59
-2 4 -1 97.02 3.47
-2 -4 0 35.08 2.3
-2 -4 0 31.98 1.93
-2 4 0 31.54 2.03
-2 4 0 28.48 2
-2 4 1 42.67 2.52
-2 4 1 43.5 2.43
-2 -4 2 351.46 7.21
-2 4 2 341.44 6.78
-2 4 2 335.54 7.04
-2 4 3 122.22 4.29
-2 4 3 129.86 4.26
-2 4 3 130.98 2.82
-2 -4 3 132.37 4.42
-2 -4 4 105.71 3.97
-2 4 4 106.46 3.92
-2 4 4 101.81 2.49
-2 4 4 98.25 3.9
-2 4 5 15.01 0.99
-2 -4 5 15.35 1.52
-2 4 5 16.91 1.61
-2 4 6 73.49 3.37
-2 -4 6 79.02 3.46
-2 4 6 72.56 2.09
-2 4 7 45.27 2.7
-2 4 7 43.22 1.62
-2 -4 7 41.89 2.57
-2 4 8 151.06 3.06
-2 4 8 156.98 5.12
-2 -4 8 154.47 4.96
-2 4 9 3.13 0.5
-2 4 9 3.37 0.59
-2 -4 9 2.02 0.63
-2 4 9 3.64 0.92
-2 4 10 52.12 1.91
-2 4 10 53.81 1.84
-2 4 11 22.8 1.3
-2 4 12 19 1.2
-2 4 13 193.61 3.71
-2 4 14 48.76 1.87
-2 4 15 157.79 3.37
-2 4 15 151.87 3.22
-2 4 16 11.16 0.92
-2 4 16 9.68 0.84
-2 4 17 7.29 0.74
-2 4 17 7.22 0.69
-2 4 18 28.38 1.33
-2 4 18 26.06 1.2
-2 4 19 12.22 0.85
-2 4 19 9.9 0.7
-2 -4 19 11.93 0.83
-2 4 20 3.2 0.42
-2 4 20 3.35 0.38
-2 -4 20 4 0.47
-2 -4 21 1.04 0.23
-2 4 21 1.18 0.28
-2 4 22 8.38 0.54
-2 5 -18 18.08 0.85
-2 5 -17 9.93 0.69
-2 -5 -17 9.07 0.57
-2 -5 -17 9.86 0.61
-2 -5 -16 9.02 0.63
-2 5 -16 9.01 0.71
-2 5 -15 13 0.89
-2 -5 -15 12.7 0.79
-2 5 -14 7.3 0.7
-2 -5 -14 7.1 0.63
-2 -5 -13 13.14 0.88
-2 5 -13 13.46 0.97
-2 5 -12 22.91 1.04
-2 5 -12 21.8 1.25
-2 -5 -12 21.91 1.17
-2 5 -11 3.6 0.45
-2 -5 -11 3.36 0.5
-2 5 -11 3.25 0.51
-2 5 -10 48.32 1.66
-2 5 -10 47.9 1.89
-2 -5 -10 47.66 1.77
-2 5 -9 14.02 0.94
-2 5 -9 13.71 1.03
-2 -5 -9 14.57 1.01
-2 -5 -8 112.82 2.76
-2 5 -8 115.77 2.92
-2 -5 -7 188.87 3.55
-2 5 -7 195.03 3.74
-2 -5 -6 8.11 0.78
-2 5 -5 44.55 1.75
-2 -5 -5 43.39 1.72
-2 5 -4 132.62 2.98
-2 5 -3 142 3.09
-2 -5 -3 143.38 3.03
-2 5 -2 31.5 1.49
-2 -5 -2 32.18 1.47
-2 5 -1 57.06 1.98
-2 -5 -1 58.23 2
-2 5 0 145.76 3.17
-2 -5 0 141.32 3.13
-2 -5 1 347 4.97
-2 5 1 354.5 4.91
-2 5 2 124.86 2.93
-2 5 3 22.48 1.27
-2 5 4 31.8 1.48
-2 5 5 123.39 2.89
-2 -5 6 236.35 4.02
-2 5 6 240.98 4.05
-2 5 7 47.17 1.82
-2 5 7 49.75 1.89
-2 -5 7 47.89 1.86
-2 -5 8 145.82 3.25
-2 5 8 151.93 3.28
-2 5 8 146.51 3.16
-2 -5 9 42.48 1.78
-2 5 9 43.72 1.75
-2 5 9 39.9 1.64
-2 5 10 0.46 0.32
-2 5 10 0.54 0.25
-2 -5 10 0.24 0.26
-2 5 11 8.77 0.75
-2 -5 11 9.76 0.87
-2 5 11 10.27 0.89
-2 5 12 34.16 1.41
-2 5 12 37.78 1.62
-2 -5 12 34.12 1.56
-2 5 13 27.23 1.34
-2 -5 13 25.43 1.34
-2 5 13 29.19 1.35
-2 -5 14 47.03 1.74
-2 5 14 48.25 1.73
-2 5 14 50.89 1.73
-2 5 15 3.23 0.49
-2 5 15 2.69 0.44
-2 -5 15 2.75 0.44
-2 5 16 28.11 1.22
-2 5 16 27.77 1.2
-2 -5 16 26.08 1.19
-2 -5 17 6.28 0.56
-2 5 17 6.23 0.55
-2 5 17 6.69 0.57
-2 5 18 1.84 0.28
-2 5 18 2.1 0.31
-2 -5 18 2.31 0.33
-2 -5 19 22.64 0.87
-2 5 19 22.94 0.87
-2 6 -14 1.03 0.2
-2 -6 -14 1.37 0.22
-2 6 -13 16.25 0.81
-2 -6 -13 16.5 0.77
-2 6 -12 7.13 0.57
-2 -6 -12 8.5 0.6
-2 -6 -11 16.96 0.88
-2 6 -11 16.6 0.89
-2 -6 -10 2.94 0.39
-2 6 -10 3.31 0.37
-2 6 -10 2.65 0.36
-2 6 -9 0.36 0.15
-2 -6 -9 0.4 0.2
-2 6 -9 0.56 0.2
-2 6 -8 1.51 0.3
-2 -6 -8 1.11 0.28
-2 -6 -7 17.5 1
-2 6 -7 19.17 1
-2 -6 -6 42.58 1.58
-2 6 -6 44.69 1.55
-2 6 -5 32.03 1.36
-2 -6 -5 31.05 1.36
-2 -6 -4 27.61 1.3
-2 6 -4 30.26 1.34
-2 -6 -4 27.83 1.22
-2 -6 -3 5.94 0.6
-2 6 -3 6.82 0.7
-2 -6 -3 6.02 0.66
-2 6 -2 35.86 1.51
-2 -6 -2 30.39 1.35
-2 -6 -1 68.84 2.06
-2 6 -1 76.12 2.2
-2 -6 0 10.64 0.85
-2 6 0 12.16 0.94
-2 6 1 34.15 1.51
-2 -6 1 33.02 1.47
-2 6 1 34.84 1.41
-2 -6 2 16.83 1.07
-2 6 2 19.35 1.07
-2 6 2 18.11 1.1
-2 -6 3 8.65 0.78
-2 6 3 8.62 0.73
-2 6 3 9.22 0.8
-2 -6 4 2.05 0.43
-2 6 4 1.83 0.42
-2 6 4 2.59 0.44
-2 6 5 6.6 0.66
-2 -6 5 5.89 0.66
-2 6 5 6.07 0.65
-2 -6 6 28.87 1.39
-2 6 6 27.36 1.31
-2 6 6 31.9 1.37
-2 6 7 6.65 0.66
-2 6 7 6.02 0.65
-2 -6 7 6.07 0.65
-2 -6 8 10.64 0.75
-2 6 8 12.98 0.9
-2 6 8 11.38 0.83
-2 -6 8 12.07 0.89
-2 6 9 2.51 0.46
-2 -6 9 1.77 0.34
-2 6 9 1.82 0.39
-2 6 9 2.32 0.38
-2 -6 10 80.58 2.02
-2 6 10 81.83 2.04
-2 6 10 90.95 1.96
-2 6 10 93.62 2.24
-2 6 11 2.41 0.38
-2 -6 11 2.18 0.37
-2 6 11 2.71 0.38
-2 6 11 2.74 0.46
-2 -6 12 1.1 0.26
-2 6 12 1.71 0.38
-2 6 12 1.22 0.25
-2 6 12 1.25 0.26
-2 -6 13 1.08 0.27
-2 6 13 1.25 0.25
-2 6 13 1.1 0.28
-2 -6 13 0.85 0.23
-2 6 14 37.93 1.24
-2 -6 14 39.91 1.22
-2 6 15 9.47 0.59
-2 -6 15 10.64 0.58
-2 -6 15 9.73 0.55
-2 -7 -7 14.46 0.66
-2 7 -6 15.04 0.66
-2 -7 -6 15.84 0.73
-2 7 -5 4.17 0.39
-2 -7 -5 3.78 0.38
-2 -7 -4 2.99 0.34
-2 7 -4 3.46 0.37
-2 -7 -3 1.26 0.23
-2 -7 -3 0.83 0.21
-2 7 -3 1.61 0.3
-2 -7 -2 19.51 0.87
-2 -7 -2 17.49 0.77
-2 7 -2 20.1 0.91
-2 -7 -1 7.82 0.59
-2 -7 -1 6.14 0.48
-2 7 -1 7.86 0.6
-2 7 0 9.27 0.66
-2 -7 0 7.51 0.55
-2 -7 0 8.3 0.59
-2 -7 1 10.3 0.67
-2 7 1 10.38 0.71
-2 -7 2 32.4 1.14
-2 7 2 34.87 1.24
-2 -7 3 1.25 0.28
-2 7 3 1.49 0.27
-2 7 3 1.44 0.31
-2 -7 4 9.72 0.63
-2 7 4 10.24 0.58
-2 7 4 9.67 0.66
-2 7 5 1.06 0.24
-2 -7 5 0.8 0.25
-2 7 5 0.7 0.25
-2 7 6 35.47 1.07
-2 -7 6 36.05 1.17
-2 7 6 35.01 1.17
-2 7 7 5.86 0.45
-2 -7 7 6.2 0.49
-2 7 7 5.6 0.47
-2 7 8 19.97 0.81
-2 -7 8 21.74 0.85
-2 7 8 21.52 0.8
-2 -7 9 1.63 0.24
-1 0 -26 0.05 0.13
-1 0 -26 0.4 0.2
-1 0 -25 9 0.72
-1 0 -25 8.78 0.68
-1 0 -24 -0.2 0.23
-1 0 -24 0.1 0.2
-1 0 -23 7.64 0.76
-1 0 -23 8.59 0.82
-1 0 -22 -0.31 0.31
-1 0 -22 -0.17 0.26
-1 0 -21 25.16 1.28
-1 0 -21 25.52 1.47
-1 0 -21 24.84 1.47
-1 0 -20 -0.56 0.33
-1 0 -20 -0.41 0.41
-1 0 -20 -0.22 0.38
-1 0 -19 37.92 1.85
-1 0 -19 41.59 1.9
-1 0 -19 37.96 1.64
-1 0 -18 -0.31 0.3
-1 0 -18 0.2 0.31
-1 0 -18 0.52 0.3
-1 0 -18 -0.37 0.43
-1 0 -18 0.14 0.22
-1 0 -17 50.42 2.02
-1 0 -17 53.01 2.72
-1 0 -17 51.74 2.06
-1 0 -17 57.55 2.94
-1 0 -17 48.97 2
-1 0 -16 0.31 0.27
-1 0 -16 0.38 0.3
-1 0 -16 1.32 0.5
-1 0 -16 0.33 0.31
-1 0 -15 607.75 6.48
-1 0 -15 595.75 8.39
-1 0 -15 589.56 6.47
-1 0 -15 593.17 6.45
-1 0 -14 0.1 0.22
-1 0 -14 0.53 0.34
-1 0 -13 236.17 4.71
-1 0 -13 233.5 4.5
-1 0 -12 0.29 0.25
-1 0 -11 253.18 4.34
-1 0 -10 0.37 0.25
-1 0 -9 910.8 7.43
-1 0 -8 0.11 0.17
-1 0 -7 594.25 5.11
-1 0 -6 1.9 0.31
-1 0 -5 1111.93 6.29
-1 0 -4 0.7 0.21
-1 0 -3 5936.41 13.2
-1 0 -2 0.2 0.11
-1 0 -1 4101.29 10.57
-1 0 3 9194.05 17.23
-1 0 3 9455.2 11.76
-1 0 4 1.25 0.28
-1 0 4 1.48 0.17
-1 0 5 5977.83 10.61
-1 0 5 6360.27 17.3
-1 0 6 1.21 0.39
-1 0 6 0.89 0.17
-1 0 7 2432.4 8.42
-1 0 7 2560.21 12.38
-1 0 8 0.19 0.23
-1 0 8 0.16 0.14
-1 0 9 126.26 2.21
-1 0 9 145.26 3.34
-1 0 10 0.36 0.24
-1 0 10 0.23 0.29
-1 0 11 839.15 8.74
-1 0 12 0.25 0.34
-1 0 13 43.8 2.22
-1 0 14 0.06 0.23
-1 0 15 392.51 7.25
-1 0 16 0.95 0.54
-1 0 16 0.31 0.28
-1 0 16 0.32 0.25
-1 0 17 417.29 7.99
-1 0 17 398.65 5.62
-1 0 17 406.07 5.29
-1 0 18 0.15 0.29
-1 0 18 -0.17 0.44
-1 0 18 0.01 0.23
-1 0 19 121.41 3.06
-1 0 19 122.66 3.2
-1 0 20 0.74 0.39
-1 0 20 0.1 0.35
-1 0 21 199.79 4.06
-1 0 21 198.81 3.94
-1 0 22 0.45 0.34
-1 0 22 0.13 0.3
-1 0 23 61.81 2.07
-1 0 23 64.56 2.14
-1 0 24 -0.02 0.17
-1 0 24 0.2 0.2
-1 0 24 0.26 0.24
-1 0 25 63.74 1.76
-1 0 25 71.21 2.02
-1 0 26 0.15 0.19
-1 0 27 7.61 0.52
-1 -1 -26 4.41 0.41
-1 1 -26 5.73 0.51
-1 -1 -26 5.57 0.46
-1 1 -26 4.92 0.44
-1 -1 -25 6.11 0.57
-1 -1 -25 6.68 0.58
-1 1 -25 7.1 0.64
-1 1 -24 26.3 1.24
-1 1 -24 27.08 1.35
-1 -1 -24 25.85 1.26
-1 -1 -24 27.71 1.28
-1 1 -23 1.84 0.4
-1 1 -23 1.54 0.39
-1 -1 -23 2.09 0.43
-1 -1 -23 1.82 0.4
-1 1 -22 76.66 2.51
-1 -1 -22 73.5 2.39
-1 1 -22 71.76 2.34
-1 1 -22 73.67 2.13
-1 -1 -22 76.19 2.38
-1 -1 -21 76.5 2.48
-1 -1 -21 80.6 2.6
-1 1 -21 77.43 2.52
-1 1 -21 75.55 2.57
-1 1 -21 72.29 2.23
-1 -1 -20 146.38 3.55
-1 1 -20 141.89 3.47
-1 1 -20 139.97 3.53
-1 1 -20 137.07 3.16
-1 -1 -20 141.01 3.41
-1 -1 -20 135.79 3.37
-1 -1 -19 190.15 3.97
-1 -1 -19 188.99 3.97
-1 1 -19 197.41 4.09
-1 -1 -19 193.45 4.09
-1 1 -19 184.04 3.75
-1 1 -19 200.84 4.18
-1 -1 -18 6.42 1.08
-1 -1 -18 4.96 0.7
-1 1 -18 5.07 0.69
-1 1 -18 6.48 0.82
-1 -1 -18 5.96 0.74
-1 -1 -18 6.48 0.78
-1 1 -18 5.21 0.98
-1 1 -18 5.88 0.71
-1 -1 -17 100.27 2.86
-1 -1 -17 94.04 2.76
-1 1 -17 91.99 3.69
-1 1 -17 99.4 2.88
-1 1 -17 94.09 2.76
-1 1 -17 94.06 2.67
-1 -1 -17 92.54 2.7
-1 -1 -17 100.04 3.86
-1 -1 -16 55.85 2.02
-1 1 -16 56.38 2.03
-1 -1 -16 59.14 2.11
-1 1 -16 57.35 2.1
-1 1 -16 58.16 2.16
-1 -1 -16 62.27 2.6
-1 -1 -16 61.48 2.92
-1 -1 -16 62.02 2.18
-1 1 -16 57.72 2.76
-1 1 -15 25.9 1.38
-1 -1 -15 25.03 1.31
-1 -1 -15 26.52 1.39
-1 -1 -15 22.23 1.68
-1 -1 -15 27.61 1.87
-1 1 -15 25.48 1.8
-1 1 -15 26.55 1.39
-1 -1 -15 28.31 1.73
-1 1 -14 145.73 3.93
-1 -1 -14 151.98 4.08
-1 1 -14 147.94 3.14
-1 -1 -14 135.85 3.86
-1 -1 -14 148.75 3.76
-1 1 -13 193.74 4.35
-1 -1 -13 207.99 4.54
-1 -1 -13 195.18 4.35
-1 -1 -13 195.19 4.15
-1 -1 -12 15.48 1.15
-1 1 -12 15.67 1.21
-1 -1 -12 15.02 1.15
-1 1 -11 104.78 2.93
-1 -1 -11 103.46 2.79
-1 -1 -11 102.47 2.81
-1 -1 -10 1785.17 10.87
-1 -1 -10 1732.14 11.51
-1 -1 -9 28.67 1.3
-1 1 -9 29.84 1.39
-1 -1 -8 1575.79 9.66
-1 1 -8 1562.74 9.5
-1 -1 -7 370.22 4.52
-1 1 -7 357.94 4.37
-1 1 -6 420.18 4.56
-1 -1 -6 399.45 3.79
-1 1 -5 1198.25 7.44
-1 -1 -5 1222.63 7.5
-1 1 -4 2421 10.3
-1 -1 -4 2391.97 7.67
-1 1 -3 1861.8 8.91
-1 -1 -3 1878.9 8.34
-1 1 -3 1854.86 6.68
-1 -1 -2 5179.83 13.05
-1 1 -2 5211.94 11.31
-1 1 -1 1215.82 4.14
-1 -1 -1 1231.69 3.48
-1 -1 -1 1224.93 6.02
-1 1 -1 1211.09 5.68
-1 1 0 5863.17 10.38
-1 -1 0 5853.59 7.09
-1 1 1 4172.83 11.74
-1 -1 1 4144.64 9.58
-1 -1 2 5254.05 13.73
-1 1 2 5219.85 12.28
-1 -1 3 3710.91 11.68
-1 -1 3 3702.66 7.66
-1 1 4 2349.12 9.76
-1 -1 4 2333.07 9.37
-1 -1 4 2343.02 5.53
-1 -1 5 770.19 5.49
-1 1 5 779.23 6.13
-1 -1 6 333.35 3.78
-1 1 6 349.17 4.35
-1 -1 7 85.73 2
-1 1 7 88 2.34
-1 -1 8 449.75 4.88
-1 1 8 462.55 5.67
-1 -1 9 51.61 2.1
-1 -1 9 50.25 1.77
-1 1 9 52.26 2.03
-1 -1 10 163.51 3.94
-1 1 10 157.54 3.7
-1 -1 11 136.47 3.23
-1 -1 11 146.46 3.88
-1 1 11 139.75 3.71
-1 -1 12 235.56 4.41
-1 -1 12 246.18 5.29
-1 1 12 234.43 4.93
-1 1 13 228.97 5.16
-1 -1 13 232.77 5.3
-1 -1 13 240.7 4.63
-1 -1 14 280.34 5.14
-1 1 14 270.09 5.83
-1 1 15 79.26 3.28
-1 -1 15 84.44 3.44
-1 1 15 83.6 2.3
-1 1 15 79.91 2.38
-1 1 16 172.89 3.43
-1 1 16 166.45 4.94
-1 -1 16 174.57 5.09
-1 -1 16 169.72 3.56
-1 1 16 163.78 3.5
-1 1 17 71.49 2.32
-1 1 17 70.01 3.29
-1 -1 17 67.79 3.33
-1 1 17 69.1 2.35
-1 -1 17 69.78 2.36
-1 1 17 72.11 3.37
-1 1 18 147.81 4.9
-1 -1 18 151.52 3.54
-1 1 18 153.87 3.59
-1 -1 18 158.41 5.12
-1 1 18 157.03 3.49
-1 1 18 149.96 4.96
-1 1 19 133.86 3.39
-1 -1 19 134.64 3.37
-1 1 19 142.03 3.4
-1 -1 20 166.91 3.79
-1 1 20 159.87 3.7
-1 1 20 155.67 3.59
-1 -1 20 153.53 3.58
-1 1 21 46.8 1.98
-1 -1 21 45.55 1.93
-1 -1 21 51.45 2.11
-1 1 21 47.31 2.01
-1 1 22 24.52 1.42
-1 -1 22 28.59 1.55
-1 -1 22 23.26 1.34
-1 1 22 25.29 1.42
-1 -1 23 13.57 1.04
-1 -1 23 11.83 0.9
-1 1 23 12.58 1
-1 1 23 13.11 0.98
-1 -1 24 4.75 0.52
-1 1 24 6.29 0.64
-1 1 24 4.95 0.59
-1 1 24 5.34 0.59
-1 -1 24 6.09 0.66
-1 -1 25 6.06 0.61
-1 1 25 4.6 0.48
-1 1 25 5.26 0.54
-1 1 25 5.16 0.55
-1 -1 26 2.65 0.36
-1 1 26 3.33 0.38
-1 1 26 2.53 0.35
-1 -1 27 32.85 1.05
-1 2 -26 6.46 0.49
-1 -2 -25 10.35 0.67
-1 -2 -25 10.92 0.62
-1 2 -25 11.73 0.75
-1 2 -24 15.68 0.98
-1 -2 -24 14.81 0.84
-1 -2 -24 14.13 0.88
-1 2 -24 15.15 0.78
-1 2 -23 13.47 0.85
-1 -2 -23 13.77 0.95
-1 2 -23 14.2 1
-1 -2 -23 15.15 0.93
-1 -2 -22 10.96 0.87
-1 2 -22 11.15 0.84
-1 -2 -22 10.48 0.89
-1 2 -22 12.34 1
-1 -2 -21 48.96 1.87
-1 2 -21 48.25 1.84
-1 -2 -21 44.46 1.79
-1 -2 -21 48.7 1.97
-1 2 -21 52.41 2.12
-1 2 -20 175.41 3.75
-1 -2 -20 185.01 3.93
-1 2 -20 178.35 4.01
-1 -2 -20 172.23 3.62
-1 2 -20 168.78 3.56
-1 -2 -20 169.92 3.58
-1 2 -19 175.41 4
-1 -2 -19 171.9 3.68
-1 2 -19 167.81 3.73
-1 2 -19 164.62 3.61
-1 -2 -19 176.96 3.88
-1 -2 -19 165 3.56
-1 2 -18 51.32 2.17
-1 -2 -18 50.01 2.09
-1 2 -18 47.81 2.01
-1 -2 -18 47.73 1.91
-1 -2 -18 49.73 2
-1 2 -18 45.73 1.93
-1 2 -17 49.36 1.98
-1 2 -17 50.6 2.14
-1 -2 -17 47.96 1.88
-1 -2 -17 52.02 2.08
-1 -2 -17 50.8 2.01
-1 2 -17 46.61 2.59
-1 2 -17 49.59 2.03
-1 -2 -16 79.14 2.54
-1 -2 -16 74.25 2.29
-1 2 -16 79.18 2.53
-1 2 -16 76.01 2.57
-1 2 -16 74.71 2.46
-1 2 -16 77.8 3.29
-1 -2 -16 81.47 3.17
-1 2 -15 125.17 3.91
-1 2 -15 126.01 3.12
-1 -2 -15 124.25 2.86
-1 -2 -15 128.86 3.12
-1 2 -15 129.81 3.22
-1 -2 -15 131.32 4.02
-1 2 -15 126.24 3.12
-1 -2 -14 17.96 1.15
-1 2 -14 17.51 1.18
-1 -2 -14 16.17 1
-1 -2 -14 15.8 1.36
-1 2 -14 17.02 1.12
-1 2 -14 16.74 1.38
-1 2 -14 15.95 1.08
-1 2 -13 206.57 4.71
-1 2 -13 211.29 3.77
-1 2 -13 220.96 3.93
-1 -2 -13 216.31 4.86
-1 -2 -13 213.92 3.75
-1 2 -12 76.18 2.76
-1 -2 -12 78.6 2.87
-1 -2 -12 81.49 2.73
-1 -2 -11 208.89 4.09
-1 -2 -11 212.58 4.48
-1 -2 -10 74.84 2.29
-1 2 -10 71.23 2.37
-1 2 -9 316.97 4.8
-1 -2 -9 316.03 4.35
-1 -2 -9 321.64 5.08
-1 2 -8 170 3.39
-1 -2 -8 163.46 2.89
-1 -2 -7 136.28 2.37
-1 2 -7 137.92 2.96
-1 -2 -7 140.46 3.15
-1 2 -6 692.54 6.5
-1 -2 -6 687.11 6.66
-1 -2 -5 1003.72 7.82
-1 -2 -5 960.16 4.84
-1 2 -4 1437.87 9.14
-1 -2 -4 1413.74 8.88
-1 2 -3 951.3 6.9
-1 -2 -3 986.03 7.14
-1 2 -2 126.2 2.49
-1 -2 -2 131.14 2.52
-1 2 -1 640.78 5.69
-1 -2 -1 641.44 5.36
-1 -2 0 192.61 3.35
-1 2 0 195.59 2.81
-1 2 0 193.49 3.19
-1 -2 0 191.68 2.82
-1 -2 1 130.33 2.75
-1 -2 1 127.69 2.27
-1 2 1 129.34 2.65
-1 2 1 132.52 2.43
-1 -2 2 869.12 5.78
-1 2 2 864.48 7.03
-1 2 2 872.55 6.54
-1 -2 2 883.88 7.16
-1 -2 3 201.1 2.74
-1 2 3 200.47 3.45
-1 -2 3 209.28 3.51
-1 2 3 211.76 3.31
-1 2 4 408.03 5.14
-1 2 4 394.06 4.77
-1 -2 4 403.55 4.93
-1 -2 4 387.86 3.78
-1 -2 5 120.04 2.76
-1 -2 5 115.34 2.03
-1 2 5 121.11 2.92
-1 2 5 122.45 2.77
-1 2 6 483.52 6.02
-1 -2 6 490.93 5.68
-1 2 6 488.05 5.85
-1 2 7 882.68 8.52
-1 2 7 877.8 8.19
-1 -2 7 862.32 7.76
-1 2 8 1132.61 9.99
-1 -2 8 1125.2 9.29
-1 2 9 623.14 7.55
-1 -2 9 623.17 7.32
-1 2 9 609.37 7.64
-1 -2 10 35.52 1.82
-1 2 10 33.78 1.88
-1 2 10 35.42 1.9
-1 2 11 561.71 7.82
-1 2 11 549.87 7.82
-1 -2 11 573.26 7.59
-1 -2 12 76.51 3.12
-1 -2 12 77.49 2.91
-1 2 12 76.87 3.07
-1 2 12 75.83 3.04
-1 2 13 1.41 0.55
-1 -2 13 1.55 0.51
-1 2 13 1.82 0.54
-1 -2 13 2.25 0.56
-1 2 14 107.75 2.5
-1 -2 14 106.99 3.7
-1 2 14 103.61 3.78
-1 2 14 98.7 3.73
-1 2 14 110.67 2.65
-1 -2 14 109.46 2.79
-1 -2 14 108.44 4.05
-1 -2 15 21.37 1.3
-1 2 15 20.97 1.82
-1 2 15 21.97 1.26
-1 -2 15 21.73 1.72
-1 -2 15 26.03 2.05
-1 2 15 21.68 1.8
-1 2 15 22.51 1.21
-1 -2 15 21.88 1.28
-1 -2 16 51.09 2.04
-1 2 16 48.74 2.77
-1 -2 16 54.13 3.05
-1 2 16 52.33 1.87
-1 2 16 51.05 2.89
-1 2 16 53.43 1.99
-1 -2 16 53.78 2.08
-1 -2 17 113.38 3.08
-1 2 17 104.37 4.1
-1 -2 17 116.5 4.48
-1 2 17 109.78 4.35
-1 2 17 117.9 3.04
-1 -2 17 108.8 2.97
-1 2 17 114.7 2.83
-1 2 18 171.34 3.84
-1 -2 18 161.87 3.64
-1 -2 18 167.68 3.8
-1 2 18 172.14 3.49
-1 2 18 169.49 3.69
-1 2 19 46.13 2
-1 2 19 49.46 2.05
-1 -2 19 47.61 1.97
-1 -2 19 48.06 2.07
-1 2 19 46.89 1.83
-1 -2 20 19.07 1.31
-1 2 20 19.12 1.3
-1 2 20 18.38 1.27
-1 -2 20 18.37 1.21
-1 -2 21 42.17 1.88
-1 -2 21 36.78 1.65
-1 2 21 40.53 1.82
-1 2 21 37.88 1.76
-1 2 22 13.39 1.01
-1 -2 22 13.55 0.95
-1 2 22 15.08 1.1
-1 -2 22 14.79 1.08
-1 -2 23 43.69 1.74
-1 -2 23 41.25 1.51
-1 2 23 43.8 1.75
-1 -2 24 12.25 0.88
-1 2 24 12.75 0.9
-1 2 24 13.1 0.86
-1 2 25 18.71 0.98
-1 -2 25 19.48 0.98
-1 2 25 19.55 0.92
-1 2 25 19.62 0.89
-1 -2 26 14.37 0.73
-1 2 26 13.62 0.73
-1 -3 -24 11.46 0.69
-1 3 -24 11.52 0.61
-1 3 -24 11.86 0.74
-1 3 -23 20.25 0.96
-1 3 -23 19.52 1.05
-1 -3 -23 20.9 1.05
-1 -3 -22 15.49 0.87
-1 3 -22 15.98 0.95
-1 3 -22 15.34 1.01
-1 -3 -22 13.87 0.94
-1 3 -21 52.12 1.82
-1 -3 -21 52.58 1.92
-1 -3 -21 52.07 1.73
-1 3 -21 51.17 1.96
-1 -3 -21 46.53 1.6
-1 3 -20 7.15 0.8
-1 3 -20 6.98 0.75
-1 -3 -20 6.37 0.74
-1 -3 -20 7.18 0.71
-1 -3 -20 6.59 0.65
-1 3 -19 70.66 2.36
-1 -3 -19 73.82 2.47
-1 -3 -19 67.89 2.11
-1 -3 -19 66.87 2.17
-1 3 -19 73.21 2.54
-1 -3 -18 116.7 3.14
-1 -3 -18 107.06 2.81
-1 -3 -18 108.86 2.72
-1 3 -18 108.14 2.97
-1 3 -18 112.6 3.2
-1 -3 -17 102.79 2.95
-1 3 -17 98.86 2.89
-1 -3 -17 95.01 2.54
-1 3 -17 101.15 3.04
-1 3 -16 158.23 3.66
-1 3 -16 162.62 3.82
-1 -3 -16 168.28 3.75
-1 -3 -15 131.33 4.35
-1 3 -15 130.65 3.31
-1 3 -15 127.05 4.04
-1 -3 -15 140.59 3.37
-1 3 -15 134.31 3.43
-1 3 -14 48.18 2.45
-1 -3 -14 50.32 2.67
-1 -3 -14 53.37 2.05
-1 3 -14 50.76 2.04
-1 3 -14 52.33 2.11
-1 -3 -13 45.57 2.48
-1 3 -13 46.47 1.92
-1 3 -13 41.09 2.27
-1 -3 -13 44.72 1.84
-1 3 -13 42.72 1.82
-1 -3 -12 26.2 1.36
-1 3 -12 26.31 1.73
-1 -3 -12 27.36 1.88
-1 3 -12 24.9 1.38
-1 3 -12 26.02 1.4
-1 3 -11 176.94 3.5
-1 3 -11 170.21 4.09
-1 -3 -11 174.69 4.57
-1 -3 -11 175.62 3.37
-1 3 -11 182.68 3.57
-1 -3 -10 119.12 3.73
-1 3 -10 118.62 3.26
-1 -3 -9 248.81 5.11
-1 3 -9 244.74 4.58
-1 3 -8 139.4 3.39
-1 -3 -8 138.91 3.72
-1 -3 -7 312.18 5.47
-1 3 -7 314.18 4.93
-1 -3 -6 333.36 5.44
-1 3 -6 330.48 5.02
-1 3 -5 529.98 6.31
-1 -3 -5 550.75 6.79
-1 -3 -4 462.06 6.13
-1 3 -4 455.02 5.8
-1 3 -3 98.52 2.78
-1 3 -3 99.06 2.72
-1 -3 -3 96.8 2.94
-1 -3 -3 101.94 2.81
-1 -3 -2 64.23 2.16
-1 -3 -2 65.95 2.44
-1 3 -2 63.89 2.19
-1 3 -2 68.77 2.36
-1 -3 -1 260.28 4.73
-1 -3 -1 263.23 4.31
-1 3 -1 269.56 4.56
-1 3 -1 264.14 4.58
-1 3 0 257.81 4.52
-1 -3 0 256.51 4.73
-1 3 0 253.28 4.53
-1 -3 0 243.13 4.11
-1 3 1 1196.21 9.89
-1 -3 1 1166.79 9.99
-1 3 2 268.99 4.79
-1 3 2 256.22 4.4
-1 -3 2 261.59 4.74
-1 -3 3 119.46 2.81
-1 3 3 125.37 3.21
-1 3 3 128.03 3.36
-1 3 4 264.99 4.94
-1 3 4 262.58 4.79
-1 -3 4 262.2 4.83
-1 -3 5 161.68 3.26
-1 -3 5 169.41 3.96
-1 3 5 165.22 4.02
-1 3 5 171.26 4.01
-1 3 6 189.89 4.38
-1 -3 6 187.46 3.47
-1 3 6 203.35 4.48
-1 -3 6 202.62 4.41
-1 3 7 10.46 1.09
-1 3 7 9.69 1.06
-1 -3 7 11.2 1.08
-1 3 8 152.57 4.11
-1 3 8 144.38 4.06
-1 -3 8 146.17 3.97
-1 -3 9 81.65 3.08
-1 3 9 80.98 3.14
-1 3 9 85.74 3.21
-1 3 10 115.68 3.82
-1 -3 10 117.84 3.79
-1 3 10 115.7 3.85
-1 3 11 57.73 2.86
-1 3 11 59.18 1.84
-1 -3 11 58.97 2.82
-1 3 11 54.73 2.74
-1 3 12 133.3 4.37
-1 -3 12 137.04 3.11
-1 3 12 135.53 4.49
-1 3 12 139.33 2.92
-1 -3 12 134.47 4.34
-1 3 13 231.47 3.88
-1 -3 13 224.09 5.78
-1 3 13 221.62 5.98
-1 -3 13 211.69 3.96
-1 -3 13 221.27 4.08
-1 3 13 218.77 5.73
-1 -3 13 226.86 6.05
-1 -3 14 33.44 1.66
-1 3 14 33.69 2.37
-1 -3 14 32.19 2.25
-1 3 14 33.98 1.56
-1 -3 14 32.44 2.41
-1 3 14 31.3 2.26
-1 -3 14 32.28 1.59
-1 3 14 33.99 1.54
-1 -3 15 19.12 1.26
-1 3 15 20.93 1.95
-1 3 15 21.41 1.27
-1 -3 15 21.31 1.99
-1 -3 15 18.68 1.27
-1 3 15 19.7 1.82
-1 -3 15 19.52 1.82
-1 3 15 19.94 1.24
-1 3 16 149.63 3.35
-1 -3 16 144.09 3.38
-1 -3 16 145.31 3.51
-1 3 16 144.07 3.33
-1 -3 17 88.39 2.77
-1 3 17 91.61 2.64
-1 -3 17 86.66 2.63
-1 3 17 91.88 2.7
-1 3 18 86.23 2.65
-1 -3 18 86.14 2.73
-1 3 18 86.24 2.58
-1 -3 18 84.23 2.55
-1 3 19 77.42 2.49
-1 -3 19 78.19 2.56
-1 -3 19 74.56 2.35
-1 3 19 78.56 2.6
-1 3 19 73.65 2.34
-1 3 20 46.32 1.92
-1 3 20 42.64 1.73
-1 -3 20 43.76 1.87
-1 3 20 45.24 1.92
-1 -3 20 40.93 1.67
-1 3 21 1.85 0.43
-1 -3 21 2.09 0.46
-1 3 21 1.62 0.38
-1 3 21 2.24 0.5
-1 -3 21 1.25 0.29
-1 3 22 11.15 0.78
-1 3 22 12.01 0.9
-1 -3 22 11.64 0.88
-1 3 22 12.08 0.93
-1 -3 23 32.6 1.33
-1 3 23 34.31 1.43
-1 -3 23 33.53 1.23
-1 3 23 34.16 1.38
-1 -3 24 27.01 0.93
-1 3 24 26.49 1.06
-1 3 24 27.42 1.17
-1 -3 24 24.77 1.05
-1 -3 25 18.46 0.77
-1 3 25 18.4 0.84
-1 -4 -23 6.23 0.46
-1 -4 -22 1.05 0.25
-1 4 -22 0.74 0.21
-1 4 -22 1.47 0.28
-1 -4 -21 16.19 0.94
-1 4 -21 15.67 0.91
-1 4 -21 15.41 0.92
-1 -4 -20 6.71 0.66
-1 4 -20 6.9 0.68
-1 4 -20 7.32 0.69
-1 -4 -19 10.07 0.86
-1 4 -19 10.06 0.85
-1 4 -19 11.28 0.91
-1 -4 -18 0.73 0.27
-1 4 -18 0.75 0.32
-1 -4 -18 0.44 0.25
-1 4 -18 1.04 0.35
-1 -4 -17 5.96 0.64
-1 4 -17 5.6 0.69
-1 4 -17 6.08 0.74
-1 -4 -17 5.67 0.72
-1 -4 -16 2.98 0.54
-1 4 -16 2.63 0.5
-1 4 -16 2.7 0.51
-1 -4 -15 27.78 1.53
-1 4 -15 28.79 1.58
-1 4 -15 28.16 1.58
-1 -4 -14 33.4 1.69
-1 4 -14 30.82 1.64
-1 4 -14 30.2 1.65
-1 4 -13 513.35 6.62
-1 -4 -13 518.6 6.41
-1 4 -13 502.35 6.46
-1 -4 -12 68.51 3.3
-1 -4 -12 65.81 3.25
-1 4 -12 66.24 2.32
-1 4 -12 60.12 2.66
-1 4 -12 65.33 2.39
-1 -4 -12 67.83 2.3
-1 -4 -11 187.57 3.76
-1 -4 -11 187.3 5.39
-1 4 -11 187.82 3.81
-1 4 -11 174.42 4.41
-1 4 -11 188.78 3.93
-1 -4 -11 191.69 5.42
-1 -4 -10 237.23 5.96
-1 -4 -10 242.77 6.03
-1 4 -10 250.18 4.29
-1 -4 -10 236.74 4.18
-1 4 -10 239.13 4.34
-1 -4 -9 15.83 1.08
-1 -4 -9 15.48 1.51
-1 4 -9 14.98 1.22
-1 4 -9 16.02 1.15
-1 -4 -9 16.3 1.62
-1 -4 -8 452.46 5.18
-1 -4 -8 436.02 7.73
-1 4 -8 451.59 5.71
-1 -4 -8 444.17 5.46
-1 4 -8 438.77 6.44
-1 4 -7 234.25 4.03
-1 -4 -7 239.8 3.74
-1 -4 -7 231.24 5.63
-1 4 -7 226.79 4.58
-1 -4 -7 233.54 5.54
-1 4 -6 77.22 2.28
-1 -4 -6 77.05 3.2
-1 4 -6 76.67 2.61
-1 -4 -6 77.37 3.14
-1 -4 -5 86.78 3.25
-1 -4 -5 83.63 3.27
-1 4 -5 83.5 2.71
-1 -4 -4 36.1 2.13
-1 4 -4 38.4 1.85
-1 -4 -4 38.89 2.17
-1 -4 -3 308.23 5.94
-1 -4 -3 300.24 6
-1 4 -3 294.54 5.14
-1 4 -2 193.12 4.72
-1 -4 -2 184.99 4.72
-1 4 -2 174.35 3.97
-1 -4 -2 184.67 4.55
-1 -4 -1 219.97 4.85
-1 4 -1 215.68 4.97
-1 4 -1 206.31 4.43
-1 -4 -1 211.25 5
-1 -4 0 246.14 5.06
-1 -4 0 246.57 5.4
-1 4 0 243.11 4.88
-1 4 0 257.17 5.5
-1 -4 1 85.56 3.16
-1 4 1 85.19 2.94
-1 -4 1 85.43 3
-1 -4 2 5.47 0.91
-1 -4 2 5.65 0.81
-1 4 2 5.34 0.86
-1 4 3 300.87 6.06
-1 -4 3 298.54 5.53
-1 -4 3 301.06 6.01
-1 4 4 296.6 6.13
-1 -4 4 289.77 5.93
-1 -4 4 297.9 5.51
-1 4 5 13.61 0.87
-1 4 5 15.76 1.43
-1 -4 5 11.64 1.27
-1 -4 5 11.88 1.13
-1 4 5 12.97 1.34
-1 4 6 74.25 3.13
-1 4 6 73.64 3.16
-1 4 6 77.2 2.06
-1 -4 6 78 3.21
-1 4 7 105.16 3.87
-1 -4 7 109.87 3.88
-1 4 7 103.72 2.45
-1 4 7 107.57 2.48
-1 4 7 108.91 3.91
-1 -4 8 24.37 1.88
-1 4 8 24.88 1.92
-1 4 8 23.78 1.89
-1 4 8 23.9 1.2
-1 4 8 24.15 1.22
-1 4 9 43.37 1.66
-1 -4 9 44.35 2.59
-1 4 9 44.8 2.66
-1 4 9 42.84 2.57
-1 4 9 44.75 1.67
-1 4 10 78.9 2.26
-1 4 10 74.41 2.22
-1 -4 10 81.29 3.59
-1 4 10 79.88 3.66
-1 4 10 74.16 3.48
-1 -4 10 73.03 2.28
-1 4 11 84.47 3.82
-1 4 11 78.5 2.33
-1 -4 11 77.54 2.4
-1 4 11 79.05 2.31
-1 -4 11 80.1 3.65
-1 -4 12 120.61 3.02
-1 -4 12 120.28 4.58
-1 4 12 120.81 2.96
-1 4 12 118.92 4.67
-1 4 12 118.81 4.5
-1 4 12 117.78 2.84
-1 -4 12 117.22 2.99
-1 -4 13 46.66 1.92
-1 4 13 47.63 1.84
-1 4 13 49.01 1.94
-1 4 13 45.76 1.83
-1 -4 13 50.7 1.98
-1 4 14 269.72 4.5
-1 -4 14 259.58 4.54
-1 4 14 262.72 4.35
-1 -4 14 253.67 4.41
-1 -4 15 82.88 2.58
-1 4 15 85.06 2.56
-1 4 15 83.98 2.49
-1 -4 15 79.61 2.45
-1 -4 16 147.11 3.41
-1 4 16 151.02 3.43
-1 4 16 149.49 3.32
-1 -4 16 146.02 3.25
-1 -4 17 90.21 2.63
-1 4 17 92.77 2.69
-1 4 17 91.77 2.6
-1 -4 17 86.9 2.44
-1 -4 18 19.78 1.2
-1 4 18 20.6 1.25
-1 -4 18 21.94 1.29
-1 4 18 22.38 1.28
-1 -4 19 2.57 0.46
-1 4 19 2.41 0.45
-1 4 19 2.4 0.44
-1 -4 19 3.18 0.5
-1 -4 20 8.85 0.75
-1 4 20 6.85 0.67
-1 -4 20 7.27 0.67
-1 4 20 8.45 0.76
-1 4 20 7.86 0.74
-1 -4 21 1.56 0.31
-1 4 21 1.24 0.3
-1 4 21 1.21 0.29
-1 -4 21 1.07 0.27
-1 4 21 1.41 0.33
-1 4 22 3.2 0.39
-1 -4 22 4.81 0.46
-1 4 22 4.17 0.46
-1 4 22 4.36 0.48
-1 -4 22 3.83 0.42
-1 4 23 1.65 0.28
-1 5 -20 23.69 0.99
-1 -5 -20 22.77 0.95
-1 -5 -19 6.7 0.58
-1 5 -19 6.76 0.53
-1 5 -19 6.83 0.6
-1 5 -18 2.65 0.42
-1 -5 -18 2.47 0.41
-1 5 -18 2.13 0.32
-1 -5 -17 3.08 0.47
-1 5 -17 3.25 0.5
-1 5 -17 2.74 0.4
-1 5 -16 0.85 0.32
-1 -5 -16 0.28 0.25
-1 5 -16 0.67 0.28
-1 -5 -15 21.12 1.26
-1 5 -15 19.97 1.15
-1 5 -15 20.17 1.28
-1 5 -14 60.59 2.06
-1 -5 -14 66.5 2.26
-1 5 -14 66.27 2.37
-1 -5 -13 34.18 1.65
-1 5 -13 32.85 1.69
-1 -5 -13 32.81 1.4
-1 -5 -12 64.69 2.03
-1 -5 -12 64.73 2.25
-1 5 -12 64.35 2.38
-1 -5 -11 19.78 1.16
-1 -5 -11 18.76 1.25
-1 5 -11 17.78 1.28
-1 -5 -10 71.9 2.4
-1 5 -10 75.06 2.58
-1 -5 -10 72.94 2.23
-1 -5 -9 250.44 4.41
-1 -5 -9 249.53 4.14
-1 5 -9 244.88 4.59
-1 -5 -8 22.48 1.28
-1 -5 -8 21.19 1.31
-1 5 -8 21.54 1.13
-1 5 -8 23.18 1.42
-1 5 -7 171.52 3.19
-1 -5 -7 179.7 3.56
-1 -5 -7 182.85 3.73
-1 -5 -7 180.75 5.32
-1 5 -7 178.83 3.85
-1 5 -7 176.43 4.65
-1 -5 -7 187.12 5.64
-1 5 -6 178.12 3.8
-1 -5 -6 185.51 3.62
-1 -5 -6 183.72 5.36
-1 -5 -6 187.83 5.65
-1 5 -6 174.97 3.24
-1 -5 -5 48.53 2.79
-1 -5 -5 45.72 1.78
-1 5 -5 47.33 1.95
-1 5 -5 47.37 1.72
-1 -5 -5 49.22 1.89
-1 -5 -5 52.87 2.97
-1 -5 -4 202.06 5.69
-1 -5 -4 201.83 5.61
-1 5 -4 197.38 3.88
-1 -5 -4 194.3 3.6
-1 5 -4 190.81 3.43
-1 -5 -4 206.26 3.85
-1 -5 -3 34.45 1.6
-1 -5 -3 34.73 1.54
-1 -5 -3 35.43 2.36
-1 5 -3 36.28 1.66
-1 -5 -3 33.86 2.34
-1 5 -3 35.62 1.51
-1 -5 -2 166.47 5.07
-1 5 -2 165.41 3.2
-1 -5 -2 173.01 3.56
-1 -5 -2 173.13 5.16
-1 5 -2 177.75 3.58
-1 -5 -2 160.97 3.24
-1 -5 -1 63.42 2.17
-1 5 -1 60.59 1.96
-1 -5 -1 63.7 3.13
-1 -5 -1 61.9 3.05
-1 -5 -1 60.43 2
-1 5 0 21.8 1.2
-1 5 0 21.48 1.86
-1 -5 0 21.82 1.21
-1 -5 0 24.15 1.96
-1 -5 0 23.05 1.33
-1 -5 0 19.06 1.7
-1 5 1 92.03 3.84
-1 5 1 84.57 2.32
-1 -5 1 89.47 2.61
-1 -5 1 84.91 3.54
-1 -5 1 89.63 2.49
-1 -5 1 86.43 3.65
-1 -5 1 84.42 2.35
-1 -5 2 143.06 4.71
-1 -5 2 140.07 3.04
-1 -5 2 138.8 4.48
-1 -5 2 150.29 3.29
-1 5 2 139.38 3
-1 5 3 91.09 3.88
-1 5 3 87.26 2.39
-1 -5 3 87.48 2.57
-1 -5 3 86.52 3.67
-1 -5 3 86.41 3.51
-1 -5 3 87.57 2.41
-1 5 4 96.76 2.44
-1 -5 4 93.48 3.86
-1 -5 4 98.37 2.75
-1 -5 4 96.47 2.55
-1 5 4 102.41 4.14
-1 5 4 98.66 2.58
-1 5 5 97.84 2.48
-1 -5 5 97.86 2.78
-1 -5 5 92.34 3.88
-1 -5 5 92.7 2.55
-1 5 5 99.16 2.6
-1 5 5 101.57 4.16
-1 -5 6 142.08 3.39
-1 -5 6 134.59 3.06
-1 -5 6 130.81 4.67
-1 5 6 137.27 4.82
-1 5 6 135.73 3.08
-1 5 6 135.4 2.97
-1 5 7 19.52 1.18
-1 5 7 20.18 1.22
-1 5 7 17.77 1.49
-1 -5 7 20.56 1.91
-1 -5 7 18.84 1.3
-1 5 7 18.2 1.83
-1 -5 7 21.79 1.25
-1 -5 8 114.86 3.11
-1 5 8 111.29 2.78
-1 5 8 114.05 2.89
-1 -5 8 108.56 2.78
-1 -5 9 156.99 3.68
-1 5 9 152.22 3.35
-1 -5 9 148.03 3.28
-1 5 9 150.66 3.28
-1 5 10 16.45 1.16
-1 5 10 16.3 1.12
-1 -5 10 16.79 1.26
-1 -5 10 15.31 1.07
-1 5 11 63.88 2.01
-1 5 11 67.34 2.25
-1 -5 11 69.07 2.44
-1 5 11 66.48 2.21
-1 -5 11 66.44 2.18
-1 5 12 295.86 4.67
-1 5 12 279.29 4.22
-1 5 12 286.56 4.59
-1 -5 12 285.69 4.46
-1 5 13 51.62 1.83
-1 -5 13 55.64 2.21
-1 5 13 56.06 2.07
-1 -5 13 52.54 1.89
-1 5 13 54.76 2.03
-1 5 14 100.82 2.53
-1 -5 14 105.51 2.9
-1 5 14 106.32 2.82
-1 -5 15 34.08 1.62
-1 5 15 29.99 1.37
-1 5 15 31.49 1.39
-1 5 15 33.73 1.59
-1 5 16 20.88 1.2
-1 5 16 19.47 1.08
-1 -5 16 21.57 1.24
-1 5 17 3.7 0.51
-1 -5 17 3.59 0.51
-1 5 17 3 0.43
-1 5 18 4.49 0.5
-1 -5 18 4.46 0.51
-1 5 18 3.29 0.46
-1 5 19 16.02 0.85
-1 5 19 16.57 0.95
-1 5 19 15.79 0.91
-1 -5 19 16.94 0.92
-1 5 20 16.72 0.86
-1 5 20 15.56 0.77
-1 -5 20 18.07 0.85
-1 5 20 16.24 0.84
-1 6 -17 1.32 0.25
-1 -6 -17 1.3 0.23
-1 -6 -16 10.91 0.69
-1 6 -16 10.02 0.69
-1 -6 -15 12.14 0.77
-1 6 -15 12.66 0.84
-1 -6 -14 8.66 0.71
-1 6 -14 8.06 0.72
-1 -6 -13 8.7 0.74
-1 -6 -13 7.64 0.59
-1 6 -13 8.23 0.76
-1 -6 -12 4.99 0.6
-1 -6 -12 4.52 0.5
-1 6 -12 5.32 0.63
-1 -6 -11 2.86 0.49
-1 -6 -11 3.03 0.42
-1 -6 -11 2.69 0.41
-1 6 -11 2.62 0.48
-1 -6 -10 24.07 1.21
-1 -6 -10 22.15 1.26
-1 -6 -10 21.59 1.13
-1 6 -10 22.08 1.31
-1 -6 -9 50.65 1.92
-1 -6 -9 50.71 1.77
-1 6 -9 50.69 2
-1 -6 -8 17.63 1.09
-1 6 -8 17.56 1.2
-1 -6 -8 19.62 1.22
-1 -6 -7 38.76 1.72
-1 6 -7 35.33 1.39
-1 6 -7 38.08 1.75
-1 -6 -7 38.3 1.63
-1 -6 -6 22.81 1.29
-1 -6 -6 23.36 1.36
-1 6 -6 21.01 1.12
-1 6 -6 22.56 1.36
-1 6 -5 107.18 2.56
-1 -6 -5 113.31 2.88
-1 6 -5 112.46 2.98
-1 6 -4 14.47 0.97
-1 -6 -4 15.48 1.1
-1 6 -4 15.46 1.11
-1 -6 -3 15.43 1.12
-1 6 -3 13.38 1.03
-1 6 -3 14.19 0.99
-1 -6 -3 14.33 1.01
-1 6 -2 82.72 2.34
-1 -6 -2 89.87 2.64
-1 -6 -2 88.06 2.42
-1 -6 -1 44.26 1.88
-1 -6 -1 47.27 1.79
-1 6 -1 45.15 1.78
-1 6 0 136.05 3.09
-1 -6 0 146.03 3.43
-1 -6 0 143.38 3.1
-1 -6 1 11.72 1.01
-1 6 1 13.57 1.05
-1 -6 1 11.62 0.91
-1 -6 2 26.97 1.36
-1 6 2 25.25 1.37
-1 -6 2 27.56 1.5
-1 6 2 26.84 1.25
-1 -6 2 25.86 1.36
-1 -6 3 82.6 2.58
-1 -6 3 80.53 2.43
-1 6 3 77.01 2.15
-1 6 3 79.51 2.42
-1 -6 3 78.91 2.28
-1 -6 4 133.62 3.16
-1 -6 4 133.08 2.97
-1 6 4 129.51 2.8
-1 -6 4 141.35 3.4
-1 6 4 133.26 3.12
-1 6 5 142.61 2.98
-1 -6 5 147.59 3.11
-1 -6 5 153.11 3.48
-1 -6 5 155.96 3.45
-1 6 5 147.72 3.33
-1 6 6 218.15 4.05
-1 -6 6 220.53 4.14
-1 -6 6 215.09 3.7
-1 -6 6 222.89 4.16
-1 6 7 91.11 2.43
-1 -6 7 98.64 2.75
-1 -6 7 95.95 2.48
-1 6 7 101.01 2.75
-1 -6 7 100.21 2.79
-1 6 8 43.8 1.69
-1 -6 8 45.33 1.84
-1 -6 8 44.64 1.65
-1 6 8 46.07 1.83
-1 -6 8 46.98 1.91
-1 6 9 14.3 1.03
-1 -6 9 16.11 1.12
-1 6 9 16.08 1.05
-1 -6 9 14.54 1.05
-1 6 10 30 1.45
-1 -6 10 29.33 1.49
-1 6 10 30.58 1.41
-1 -6 10 31.54 1.48
-1 6 11 24.22 1.29
-1 6 11 27.28 1.32
-1 -6 11 25.07 1.28
-1 -6 11 26.66 1.4
-1 -6 12 8.16 0.77
-1 6 12 8.49 0.77
-1 6 12 9.91 0.81
-1 -6 12 9.05 0.75
-1 -6 13 47.39 1.73
-1 6 13 48.13 1.68
-1 6 13 42.99 1.57
-1 -6 13 48.87 1.62
-1 -6 14 10.47 0.81
-1 6 14 9.41 0.7
-1 6 14 11.38 0.82
-1 -6 14 11.09 0.74
-1 -6 15 3.41 0.46
-1 -6 15 3.84 0.42
-1 6 15 3.09 0.38
-1 6 15 3.38 0.45
-1 -6 16 13.47 0.67
-1 6 16 13.7 0.8
-1 -6 16 14.48 0.81
-1 6 17 1.21 0.26
-1 -6 17 1.42 0.27
-1 -7 -12 11.92 0.63
-1 -7 -11 3.9 0.35
-1 -7 -11 4.15 0.42
-1 7 -11 3.51 0.38
-1 -7 -10 29.76 1.02
-1 -7 -10 30.65 1.13
-1 7 -10 27.26 1.06
-1 -7 -9 5.72 0.47
-1 -7 -9 6.9 0.54
-1 -7 -9 6.81 0.57
-1 7 -9 5.76 0.52
-1 -7 -8 26.21 1.05
-1 -7 -8 28.7 1.18
-1 -7 -8 27.97 1.12
-1 7 -8 25.01 1.08
-1 -7 -7 41.82 1.47
-1 7 -7 36.03 1.31
-1 -7 -7 36.81 1.31
-1 -7 -7 41.98 1.42
-1 -7 -6 4.99 0.54
-1 -7 -6 5.59 0.57
-1 7 -6 5.27 0.52
-1 7 -5 22.13 0.96
-1 -7 -5 23.66 1.12
-1 -7 -5 24.78 1.18
-1 -7 -4 8.84 0.71
-1 -7 -4 9.32 0.76
-1 7 -4 8.39 0.64
-1 -7 -3 25.82 1.23
-1 -7 -3 25.78 1.22
-1 7 -3 25.53 1.12
-1 -7 -2 3.49 0.5
-1 7 -2 4.91 0.54
-1 7 -1 12.07 0.83
-1 -7 -1 12.32 0.87
-1 -7 0 3.3 0.51
-1 7 0 4.43 0.54
-1 -7 1 42.47 1.62
-1 7 1 43.85 1.59
-1 -7 2 26.89 1.3
-1 -7 2 28.15 1.15
-1 7 2 28.36 1.3
-1 7 3 30.22 1.34
-1 -7 3 29.64 1.34
-1 -7 4 11.65 0.84
-1 -7 4 11.12 0.74
-1 7 4 11.61 0.84
-1 7 5 0.54 0.27
-1 -7 5 0.26 0.17
-1 -7 5 0.66 0.28
-1 7 6 21.56 1.1
-1 -7 6 22.67 1.12
-1 7 6 21.34 0.93
-1 -7 6 19.77 0.99
-1 -7 7 23.11 1.06
-1 7 7 23.46 0.98
-1 7 7 23.41 1.14
-1 -7 7 26.96 1.19
-1 7 8 8.94 0.62
-1 7 8 9.27 0.71
-1 -7 8 10.37 0.72
-1 -7 8 8.43 0.65
-1 7 9 24.15 0.97
-1 7 9 25.31 1.11
-1 -7 9 24.05 1.03
-1 7 10 11.23 0.72
-1 -7 10 10.86 0.68
-1 -7 10 11.8 0.7
-1 7 10 10.67 0.63
-1 -7 11 5.32 0.46
-1 7 11 5.43 0.48
-1 -7 11 5.96 0.47
-1 7 11 4.7 0.41
-1 -7 12 2.29 0.29
-1 -7 12 2.4 0.28
-1 7 12 1.78 0.26
0 0 -27 -0.09 0.15
0 0 -26 0.07 0.19
0 0 -26 0.11 0.12
0 0 -25 0.01 0.16
0 0 -25 0.01 0.2
0 0 -24 45.31 1.71
0 0 -24 46.03 1.88
0 0 -23 0.67 0.44
0 0 -23 0.72 0.36
0 0 -22 333.99 5.13
0 0 -22 347.81 5.66
0 0 -21 0.19 0.36
0 0 -21 0.05 0.36
0 0 -21 0.44 0.33
0 0 -20 79.39 2.72
0 0 -20 73.79 2.66
0 0 -20 72.77 2.47
0 0 -19 0.11 0.27
0 0 -19 -0.02 0.25
0 0 -19 0.27 0.25
0 0 -19 0.36 0.38
0 0 -18 110.06 3.14
0 0 -18 110.87 4.34
0 0 -18 98.55 2.81
0 0 -18 102.15 3.01
0 0 -17 -0.09 0.29
0 0 -17 0.06 0.19
0 0 -17 0.06 0.19
0 0 -17 0.07 0.24
0 0 -16 49.92 1.94
0 0 -16 48.47 1.83
0 0 -16 54.73 2.79
0 0 -16 53.94 2.02
0 0 -15 -0.48 0.4
0 0 -15 0.28 0.32
0 0 -14 117.5 3.62
0 0 -14 102.85 3.26
0 0 -13 0.09 0.24
0 0 -13 0.44 0.29
0 0 -12 334.82 5.24
0 0 -12 358.79 3.93
0 0 -11 0.04 0.18
0 0 -11 0.23 0.11
0 0 -10 672.03 6.42
0 0 -10 655.51 4.92
0 0 -9 0.04 0.13
0 0 -9 2.19 0.28
0 0 -8 1531.54 8.39
0 0 -8 1466.89 6.56
0 0 -7 0.3 0.15
0 0 -6 303.6 3.12
0 0 -5 0.16 0.14
0 0 -4 4577.95 9.59
0 0 -3 0.73 0.12
0 0 -2 2657.54 5.06
0 0 2 2613.9 5.51
0 0 2 2617.38 5.45
0 0 3 0.11 0.08
0 0 3 0.12 0.08
0 0 3 0.21 0.09
0 0 3 0.18 0.11
0 0 4 4671.26 8.52
0 0 4 4683.67 10.61
0 0 5 9.13 0.54
0 0 5 5.53 0.42
0 0 6 278.64 3.08
0 0 6 279.17 2.85
0 0 6 277.01 2.55
0 0 7 0.2 0.13
0 0 7 0.62 0.22
0 0 7 0.59 0.21
0 0 8 1469.74 7.49
0 0 8 1466.74 8.31
0 0 8 1458.03 6.89
0 0 9 -0.07 0.14
0 0 9 1.34 0.29
0 0 10 642.65 5.54
0 0 10 694.21 6.58
0 0 11 0.34 0.16
0 0 11 0.1 0.21
0 0 12 351.63 4.51
0 0 12 337.51 5.2
0 0 13 7.36 0.81
0 0 14 108.97 3.28
0 0 15 0.2 0.25
0 0 16 52.82 2.04
0 0 16 49.32 2.4
0 0 16 50.26 1.89
0 0 17 0.07 0.23
0 0 17 0.41 0.31
0 0 17 -0.05 0.22
0 0 18 104.6 3.06
0 0 18 96.83 3.6
0 0 18 105.58 2.95
0 0 19 -0.36 0.35
0 0 19 0.23 0.26
0 0 20 78.01 2.74
0 0 20 76.54 2.49
0 0 20 78.15 2.64
0 0 21 0.06 0.34
0 0 21 0.18 0.33
0 0 21 -0.23 0.3
0 0 22 346.75 5.15
0 0 22 356.77 5.57
0 0 22 362.45 5.79
0 0 23 1.1 0.48
0 0 23 0.49 0.38
0 0 23 0.76 0.45
0 0 24 48.4 1.76
0 0 24 48.97 1.96
0 0 24 44.49 1.82
0 0 25 -0.06 0.19
0 0 25 -0.15 0.19
0 0 25 0.2 0.23
0 0 26 0.04 0.16
0 0 26 0 0.15
0 0 26 -0.09 0.18
0 0 27 -0.06 0.12
0 -1 -27 8.29 0.57
0 1 -27 7.55 0.56
0 -1 -26 5.26 0.53
0 1 -26 5.14 0.54
0 1 -26 5.17 0.5
0 1 -25 13.41 0.94
0 -1 -25 13.68 0.94
0 1 -25 13.65 0.89
0 1 -24 8.72 0.83
0 -1 -24 7.8 0.78
0 -1 -24 7.58 0.78
0 1 -24 8.63 0.79
0 -1 -24 7.93 0.67
0 -1 -23 3.36 0.56
0 1 -23 2.96 0.56
0 -1 -23 3.27 0.6
0 -1 -23 3.87 0.51
0 1 -23 2.9 0.51
0 -1 -22 116.3 3.2
0 -1 -22 117.43 3.22
0 1 -22 113.13 3.2
0 1 -22 108.74 3.02
0 -1 -21 163.56 3.87
0 1 -21 165.32 3.91
0 -1 -21 161.28 3.85
0 1 -21 154.27 3.67
0 -1 -21 150.7 3.37
0 -1 -20 44.99 2.06
0 1 -20 41.93 1.96
0 -1 -20 42.16 1.99
0 1 -20 44.77 2.07
0 -1 -20 42.69 1.82
0 1 -19 91.63 2.91
0 -1 -19 92.85 2.89
0 1 -19 87.68 2.76
0 -1 -19 85.97 2.57
0 -1 -19 91.01 2.87
0 -1 -19 92.12 4.15
0 -1 -18 16.83 1.23
0 -1 -18 18.96 1.29
0 -1 -18 18.26 1.81
0 1 -18 17.8 1.28
0 -1 -18 16.74 1.12
0 1 -18 19.5 1.82
0 1 -18 16.16 1.23
0 1 -18 16.92 1.22
0 1 -17 52.02 2.11
0 -1 -17 53.25 2.05
0 1 -17 47.87 1.98
0 1 -17 46.27 2.55
0 1 -17 52.47 2.85
0 -1 -17 51.32 2.05
0 -1 -17 52.71 2.92
0 -1 -17 48.96 1.86
0 1 -17 49.07 2.06
0 1 -16 97.44 2.78
0 -1 -16 102.25 2.72
0 -1 -16 97.89 3.8
0 1 -16 101.46 3.75
0 1 -16 99.86 2.83
0 -1 -16 96.22 2.7
0 -1 -16 91.88 2.45
0 1 -16 90.1 3.36
0 1 -16 93.49 2.68
0 -1 -15 137.23 2.98
0 -1 -15 133.33 3.05
0 1 -15 138.64 3.19
0 1 -15 131.43 3.12
0 1 -15 127.45 3.86
0 -1 -15 140.34 4.32
0 1 -15 127.19 2.96
0 1 -14 155.55 3.96
0 -1 -14 164.33 4.39
0 -1 -13 1046.1 10.53
0 -1 -13 1081.34 8.08
0 -1 -12 5.7 0.76
0 1 -12 5.55 0.69
0 -1 -12 5.9 0.59
0 -1 -11 15.08 1.14
0 1 -11 12.84 0.97
0 -1 -11 14.07 0.86
0 -1 -10 89.86 2.54
0 1 -10 94.96 2.42
0 -1 -10 91.27 2.11
0 1 -9 1728.41 9.52
0 -1 -9 1722.88 8.63
0 -1 -9 1717.35 10.4
0 -1 -8 300.75 4.04
0 -1 -8 293.24 3.43
0 1 -7 742.92 3.45
0 -1 -7 747.07 5.86
0 -1 -6 682.73 5.21
0 -1 -6 671.47 4.66
0 -1 -5 1446.42 6.95
0 -1 -5 1476.49 6.48
0 -1 -4 223.76 2.48
0 1 -4 228.7 2.3
0 -1 -4 228.26 2.41
0 -1 -3 393.78 3
0 -1 -3 392.54 2.97
0 1 -3 391.31 2.69
0 -1 -2 2907.51 7.39
0 -1 -2 2932.51 7.69
0 1 -1 2301.35 7.14
0 -1 -1 2290.77 6.06
0 -1 0 38.51 0.78
0 -1 0 37.28 0.84
0 -1 0 39.14 0.86
0 1 0 37.24 0.9
0 -1 1 2321.5 6.24
0 1 1 2329.96 7.07
0 1 2 2942.51 8.58
0 -1 2 2932.29 8.32
0 1 2 2941.83 8.22
0 -1 2 2930.65 7.2
0 -1 2 2926.92 7.92
0 -1 3 386.66 2.99
0 -1 3 390.13 3.25
0 1 3 394.81 3.33
0 1 3 399.96 3.22
0 -1 3 379.65 2.65
0 1 4 225.91 2.61
0 -1 4 222.1 2.71
0 1 5 1527.41 7.24
0 1 5 1502.96 7.54
0 -1 6 674.56 5.52
0 1 6 685.02 5.41
0 -1 7 731.11 6.1
0 1 7 740.22 3.35
0 -1 8 302.21 3.96
0 1 8 309.47 4.14
0 -1 8 305.24 4.18
0 1 8 311.68 3.87
0 1 9 1719.29 9.73
0 -1 9 1734.74 10.76
0 -1 9 1780.08 10.31
0 1 9 1739.83 10.44
0 1 9 1688.38 9.96
0 1 10 94.91 2.44
0 -1 10 90.28 2.59
0 -1 10 95.07 2.57
0 1 10 93.96 2.61
0 1 10 92.98 2.4
0 1 11 26.22 1.35
0 -1 11 26.48 1.47
0 -1 11 15.37 1.09
0 1 11 14.58 1.09
0 1 11 16.14 1.06
0 1 12 6.07 0.71
0 1 12 4.86 0.6
0 1 12 6 0.76
0 -1 13 988.68 9.89
0 1 13 1001.69 8.96
0 1 13 1008.77 9.35
0 1 13 976.16 9.68
0 -1 13 1004.86 9.56
0 -1 14 151.26 3.88
0 1 14 147.89 4
0 1 14 157.54 3.85
0 -1 15 140.02 3.27
0 1 15 135.01 3.71
0 1 15 143.79 3.06
0 -1 15 131.67 3.78
0 1 15 124.79 3.81
0 1 16 99.51 2.57
0 -1 16 99.39 2.87
0 -1 16 99.56 2.68
0 1 16 99.7 2.68
0 1 16 92.15 3.42
0 -1 16 94.3 3.31
0 1 16 99.92 2.81
0 -1 17 50.53 1.97
0 -1 17 48.48 1.94
0 -1 17 49.35 2.49
0 1 17 49.87 2.61
0 -1 17 52.16 2.15
0 1 17 52.1 2.1
0 1 17 49.43 1.89
0 1 17 50.02 1.98
0 1 18 17.76 1.28
0 1 18 17.38 1.17
0 -1 18 16.84 1.27
0 -1 18 16.81 1.19
0 1 18 16.69 1.59
0 1 18 16.99 1.23
0 -1 18 16.93 1.2
0 -1 19 90.34 2.96
0 1 19 92.25 2.94
0 1 19 89.14 2.81
0 1 19 91.45 2.65
0 -1 19 88.64 2.73
0 1 19 83.95 3.57
0 -1 19 88.94 2.73
0 -1 20 45.37 2.11
0 -1 20 42.6 1.93
0 1 20 43 2.04
0 -1 20 45.72 1.99
0 1 20 44.79 2.04
0 -1 21 162.58 3.94
0 -1 21 156.63 3.63
0 -1 21 156.39 3.63
0 1 21 161.6 3.82
0 1 21 167.03 4.01
0 1 22 109.59 2.77
0 -1 22 111.1 2.99
0 -1 22 115.25 3.02
0 1 22 116.22 3.25
0 1 22 116.5 3.21
0 -1 22 115.67 3.27
0 -1 23 3.25 0.52
0 -1 23 3 0.52
0 1 23 3.27 0.6
0 -1 23 2.89 0.52
0 1 23 3.52 0.51
0 1 23 2.62 0.52
0 1 24 9.16 0.73
0 1 24 9.85 0.89
0 -1 24 8.64 0.78
0 -1 24 8.14 0.71
0 1 24 7.3 0.76
0 -1 24 8.65 0.82
0 -1 25 13.77 0.9
0 1 25 12.89 0.93
0 1 25 13.61 0.8
0 1 25 14.79 0.99
0 -1 25 13.34 0.93
0 1 26 4.74 0.52
0 -1 26 5 0.49
0 -1 26 5.21 0.53
0 1 26 5.41 0.56
0 1 27 7.29 0.54
0 -1 27 7.85 0.51
0 1 27 8.49 0.59
0 -1 27 7.82 0.54
0 2 -26 2.99 0.36
0 2 -26 2.84 0.35
0 -2 -26 3.37 0.39
0 -2 -25 8.91 0.71
0 2 -25 6.93 0.63
0 2 -25 8.04 0.67
0 -2 -24 30.34 1.41
0 2 -24 27.6 1.38
0 2 -24 29.66 1.39
0 -2 -24 28.28 1.35
0 -2 -23 0.35 0.27
0 2 -23 0.69 0.3
0 -2 -23 0.86 0.35
0 2 -22 2.39 0.52
0 -2 -22 2.89 0.56
0 2 -22 3.38 0.61
0 -2 -22 3.29 0.58
0 -2 -21 304.39 5.04
0 -2 -21 297.77 5.14
0 2 -21 311.36 5.31
0 2 -21 291.87 5.13
0 -2 -20 251.25 4.63
0 2 -20 254.22 4.89
0 -2 -20 241.74 4.64
0 -2 -19 117.47 3.14
0 2 -19 116.33 3.33
0 -2 -19 113.1 3.19
0 2 -19 109.79 2.78
0 2 -19 113.62 3.26
0 2 -18 38.14 1.65
0 -2 -18 41.36 1.87
0 2 -18 38.29 1.92
0 2 -18 36.32 2.45
0 -2 -18 38.34 1.85
0 2 -18 32.08 2.17
0 -2 -18 36.37 2.57
0 2 -18 37.45 1.87
0 -2 -17 126.47 3.12
0 -2 -17 125.09 4.64
0 2 -17 119.96 3.31
0 2 -17 125.17 4.41
0 -2 -17 119.33 3.2
0 2 -17 113.67 4.01
0 2 -17 119.67 2.93
0 2 -17 124.15 3.34
0 -2 -16 13.51 1.06
0 2 -16 12.82 1.31
0 2 -16 14.09 1.11
0 2 -16 13.76 0.99
0 -2 -16 13.6 1.01
0 -2 -16 14.56 1.53
0 2 -16 14.15 1.11
0 2 -15 57.26 2.16
0 -2 -15 54.21 2.02
0 -2 -15 59.52 2.98
0 2 -15 55.78 2.11
0 2 -15 51.09 2.46
0 2 -15 53.83 1.9
0 -2 -15 57.06 1.95
0 2 -14 16.57 1.13
0 2 -14 15.86 1.29
0 -2 -14 15.68 1.05
0 -2 -14 16.49 1
0 -2 -14 19.48 1.64
0 2 -14 16.69 1.13
0 -2 -13 318.63 6.11
0 2 -13 311.48 5.41
0 -2 -13 330.92 5.25
0 2 -12 170.76 3.79
0 -2 -12 172.12 3.67
0 -2 -12 176.24 4.31
0 2 -11 284.8 4.56
0 -2 -11 291.43 4.61
0 2 -10 476.18 5.6
0 -2 -10 469.72 5.69
0 -2 -9 473.35 6
0 2 -9 488.62 4.25
0 2 -9 497.03 5.39
0 -2 -9 477.83 5.47
0 -2 -8 331.32 4.72
0 -2 -8 325.83 4.37
0 2 -8 335.99 3.53
0 -2 -7 138.1 2.86
0 2 -7 143.86 2.5
0 -2 -7 137.75 2.78
0 -2 -6 65.17 1.83
0 2 -6 65.51 1.58
0 -2 -6 68.56 1.88
0 2 -5 261.27 2.98
0 -2 -5 260.47 3.53
0 2 -4 989.52 5.49
0 -2 -4 993.71 6.66
0 2 -3 82.33 1.54
0 -2 -3 79.87 1.72
0 -2 -3 84.26 1.92
0 2 -2 374.76 3.2
0 2 -2 378.52 4.27
0 -2 -2 379.02 3.86
0 -2 -1 1559.56 6.99
0 -2 -1 1578.64 7.81
0 2 -1 1572.55 6.59
0 2 0 989.63 6.59
0 -2 0 964.58 6.14
0 -2 0 988.19 6.36
0 -2 0 971.69 6.17
0 -2 1 1619.11 8.22
0 2 1 1633.89 8.52
0 -2 1 1611.28 8.14
0 -2 2 381.69 4.08
0 2 2 384.11 4.33
0 -2 2 377.41 3.81
0 -2 2 388.35 4.06
0 -2 3 85.5 1.98
0 2 3 83.81 2.08
0 2 3 85.13 2.02
0 -2 3 83.29 1.76
0 -2 3 81.69 1.92
0 -2 4 972.32 6.96
0 2 4 986.01 7.46
0 2 4 989.28 7.03
0 2 5 263.11 3.74
0 2 5 268.76 3.98
0 -2 5 264.43 3.81
0 2 6 66.15 2.07
0 -2 6 64.69 1.99
0 2 6 64.61 1.92
0 -2 6 58.7 1.39
0 -2 7 138.51 2.18
0 2 7 142.22 3.14
0 2 7 146.25 3
0 -2 7 140.35 3.08
0 2 8 336.13 4.74
0 2 8 335.82 3.44
0 -2 8 325.34 4.96
0 2 8 341.14 5.12
0 -2 9 486.06 6.35
0 2 9 474.8 4.1
0 2 9 464.32 5.87
0 2 9 484.93 5.93
0 2 9 471.85 6.28
0 2 10 490.99 6.26
0 2 10 496.53 6.74
0 2 10 489.82 6.22
0 2 11 297.18 5.04
0 2 11 288.99 5.38
0 2 11 289.15 5.27
0 -2 11 285.76 5.02
0 2 11 283.05 4.99
0 2 12 173.73 4.37
0 -2 12 181.48 4.5
0 2 12 172.89 4.12
0 2 12 173.3 4
0 -2 12 173.6 4.12
0 2 12 160.09 4.02
0 -2 13 324.4 6.32
0 -2 13 327.24 5.88
0 2 13 314.79 6.13
0 2 13 321.79 5.66
0 2 13 326.07 5.84
0 -2 14 18.78 1.24
0 2 14 14.75 1.32
0 2 14 16.71 1.05
0 2 14 17.93 1.38
0 -2 14 17.45 1.56
0 -2 14 17.38 1.43
0 2 14 17.7 1.51
0 2 14 17.45 1.06
0 -2 14 17.98 1.16
0 2 15 53.1 2.54
0 2 15 62.21 2.06
0 2 15 51.88 1.91
0 2 15 54.77 2.49
0 -2 15 54.7 2.05
0 -2 15 56.66 2.61
0 2 15 50.2 2.64
0 -2 15 55.3 2.18
0 -2 15 50.54 2.65
0 2 16 13.64 1.03
0 2 16 14.17 1.04
0 -2 16 13.73 1.13
0 -2 16 13.75 1.08
0 -2 16 14.12 1.46
0 -2 16 14.76 1.37
0 2 16 15.07 1.51
0 -2 17 124.87 3.28
0 2 17 123.25 3.14
0 2 17 116.52 4.26
0 2 17 124.51 3.12
0 -2 17 123.97 3.42
0 2 18 36.93 1.76
0 2 18 36.72 2.47
0 -2 18 37.23 1.83
0 -2 18 36.81 1.91
0 2 18 37.53 1.8
0 2 18 39.79 1.95
0 -2 19 118.65 3.38
0 2 19 118.04 3.14
0 2 19 120.04 3.37
0 2 19 116.23 3.18
0 -2 19 115.87 3.21
0 2 20 239.69 4.4
0 -2 20 240.44 4.76
0 -2 20 243.84 4.64
0 2 20 236.51 4.57
0 2 20 252.94 4.88
0 2 21 286.92 4.72
0 2 21 318.37 5.35
0 -2 21 298.48 5.05
0 -2 21 308.9 5.3
0 2 21 306.04 5.17
0 -2 22 2.6 0.56
0 2 22 2.34 0.49
0 2 22 2.88 0.46
0 -2 22 2.71 0.56
0 2 22 2.92 0.59
0 2 22 2.28 0.47
0 2 23 0.38 0.26
0 -2 23 1.48 0.41
0 2 23 0.57 0.26
0 -2 23 0.78 0.31
0 2 23 0.69 0.25
0 2 24 30.71 1.46
0 -2 24 28.65 1.37
0 -2 24 31.52 1.41
0 2 24 28.21 1.4
0 -2 25 8.45 0.68
0 2 25 8.08 0.71
0 2 25 8.45 0.72
0 -2 25 7.76 0.66
0 -2 26 2.81 0.35
0 2 26 3.1 0.4
0 -2 26 2.75 0.35
0 2 26 3.15 0.41
0 3 -25 1.99 0.3
0 -3 -25 2.47 0.34
0 -3 -24 12.26 0.8
0 3 -24 10.87 0.69
0 3 -24 12.01 0.81
0 -3 -24 11.21 0.74
0 3 -23 25.21 1.29
0 -3 -23 24.11 1.18
0 -3 -23 26.67 1.3
0 3 -23 24.09 1.17
0 3 -22 22.51 1.31
0 -3 -22 22.54 1.24
0 3 -22 20.99 1.21
0 -3 -22 24.39 1.33
0 -3 -21 92.66 2.6
0 3 -21 96.32 2.83
0 3 -21 89.59 2.62
0 3 -21 92.84 2.39
0 -3 -20 38.86 1.82
0 3 -20 36.41 1.59
0 -3 -20 37.1 1.71
0 3 -20 37.71 1.79
0 3 -20 39.09 1.9
0 3 -19 16.81 1.25
0 -3 -19 16.85 1.24
0 3 -19 14.76 1.06
0 3 -19 16.2 1.26
0 -3 -19 14.9 1.11
0 -3 -18 64.24 2.39
0 -3 -18 65.01 2.26
0 3 -18 59.81 2.17
0 3 -18 67.3 2.49
0 3 -18 64.83 2.51
0 3 -17 221.05 4.21
0 -3 -17 225.37 4.44
0 -3 -17 237.55 4.24
0 3 -17 236.55 4.65
0 3 -17 234.87 4.75
0 3 -16 39.94 1.8
0 -3 -16 45.14 1.82
0 -3 -16 44.36 1.82
0 -3 -16 39.85 1.85
0 3 -16 43.63 1.99
0 3 -16 43.89 2.05
0 -3 -15 93.6 2.45
0 -3 -15 94.09 2.77
0 -3 -15 91.21 2.52
0 3 -15 87.31 2.63
0 3 -15 83.47 3.15
0 -3 -15 93.35 2.58
0 3 -15 92.79 2.91
0 -3 -14 142.51 3.04
0 3 -14 142.91 3.52
0 -3 -14 139.48 3.27
0 3 -14 132.98 3.81
0 -3 -14 140.87 3.12
0 -3 -14 141.28 4.15
0 -3 -14 144.97 2.99
0 3 -14 137.02 3.22
0 3 -13 31.71 1.62
0 -3 -13 30.9 1.37
0 -3 -13 29.5 1.47
0 -3 -13 31.88 1.4
0 3 -13 30.21 1.49
0 3 -13 29.04 1.71
0 -3 -13 29.94 1.89
0 -3 -13 30.78 2.04
0 -3 -13 31.01 1.46
0 -3 -12 316.21 4.2
0 3 -12 303.84 4.58
0 -3 -12 316.01 6.14
0 3 -12 299.93 5.22
0 -3 -12 308.6 5.85
0 3 -12 325.29 5
0 -3 -12 314.16 4.57
0 3 -11 849.74 8.26
0 -3 -11 870.48 9.57
0 -3 -10 130.03 3.6
0 3 -10 124.59 3.01
0 -3 -10 127.81 3.58
0 -3 -9 183.48 4.08
0 3 -9 179.46 3.45
0 -3 -9 180.57 4.12
0 -3 -8 196.09 3.98
0 3 -8 204.49 3.48
0 -3 -8 201.27 4.24
0 -3 -7 244.49 4.28
0 -3 -7 250.72 4.27
0 3 -7 263.14 3.74
0 -3 -7 258.99 4.67
0 -3 -6 246.92 4.01
0 -3 -6 243.73 4.1
0 3 -6 250.21 3.46
0 -3 -6 249.03 4.47
0 -3 -5 330.11 4.69
0 3 -5 332.28 3.84
0 -3 -5 334.7 5.13
0 -3 -4 6.45 0.61
0 -3 -4 5.05 0.58
0 3 -4 5.93 0.5
0 -3 -4 5.89 0.72
0 3 -3 659.49 5.04
0 -3 -3 674.6 6.46
0 -3 -3 671.45 6.99
0 -3 -2 158.36 2.7
0 -3 -2 168.11 3.26
0 -3 -2 161.4 3.41
0 3 -2 157.64 2.44
0 3 -2 159.25 3.5
0 -3 -2 166.65 3.47
0 -3 -1 1437.51 9.49
0 -3 -1 1419.77 9.77
0 3 -1 1425.63 7.38
0 -3 -1 1443.88 10.05
0 -3 0 540 5.9
0 3 0 534.29 4.67
0 -3 0 544.27 6.11
0 -3 1 1459.62 9.7
0 3 1 1408.77 7.81
0 -3 1 1418.29 9.42
0 -3 1 1442.45 10.04
0 3 1 1474.37 10.35
0 -3 2 156.61 3.36
0 -3 2 158.86 3.28
0 -3 2 160.55 3.16
0 -3 3 662.61 6.8
0 3 3 666.54 7.38
0 -3 3 653.55 6.91
0 3 3 669.17 7.03
0 3 4 5.85 0.74
0 -3 4 6.24 0.73
0 -3 4 5.38 0.58
0 -3 4 6.03 0.72
0 -3 5 344.73 4.29
0 -3 5 329.44 5.14
0 3 5 335.15 5.24
0 -3 6 245.17 4.58
0 3 6 260.3 5.01
0 3 6 254.53 4.65
0 3 7 264.7 3.96
0 -3 7 254.25 4.85
0 3 7 258.48 5.13
0 3 7 257.33 4.78
0 3 8 205.25 3.52
0 3 8 207.44 4.76
0 3 8 210.39 4.46
0 -3 8 208.78 4.57
0 3 9 179.48 3.35
0 -3 9 193.63 4.57
0 3 9 185.54 4.66
0 3 9 180.41 4.25
0 3 10 127.62 3.73
0 -3 10 139.65 4.06
0 3 10 132.4 3.75
0 3 10 130.81 4.03
0 -3 11 912.8 10.83
0 3 11 912.91 10.95
0 3 11 900.93 10.08
0 3 12 316.25 6.73
0 -3 12 317.31 6.64
0 -3 12 335.92 5
0 3 12 333.1 4.55
0 -3 12 307.9 6.04
0 3 12 313.58 6.06
0 -3 12 320.72 5.04
0 3 12 302.28 4.23
0 3 12 303.31 6.16
0 3 12 281.98 6.2
0 -3 13 33.06 2.24
0 3 13 32.46 1.49
0 -3 13 32.22 1.67
0 3 13 30.28 2.06
0 -3 13 31.75 1.59
0 -3 13 31.22 1.98
0 3 13 28.67 2.11
0 3 13 32.76 1.48
0 3 13 32.07 2
0 3 13 30.33 2.1
0 3 13 31.29 1.43
0 3 14 143.64 3.24
0 -3 14 144.46 3.48
0 3 14 125.59 4.3
0 -3 14 139.78 4.7
0 -3 14 152.73 4.49
0 3 14 138.08 4.69
0 3 14 141.46 4.26
0 3 14 139.39 4.49
0 -3 14 140 3.54
0 3 14 142.31 3.17
0 3 14 135.02 3.07
0 -3 15 92.66 2.93
0 3 15 94.55 2.71
0 -3 15 93.35 3.97
0 -3 15 93.79 2.87
0 3 15 97.1 2.64
0 3 15 89.2 3.89
0 3 15 88.81 2.56
0 3 15 82.45 3.52
0 3 16 37.6 2.52
0 -3 16 41.23 1.99
0 3 16 43.78 1.88
0 -3 16 44.4 2
0 3 16 42.21 1.81
0 -3 16 39.69 2.61
0 3 16 40.31 2.66
0 3 17 232.49 4.41
0 -3 17 243.42 4.72
0 -3 17 239.04 4.76
0 3 18 65.68 2.34
0 -3 18 65.62 2.46
0 -3 18 67.66 2.53
0 3 18 64.72 2.31
0 3 19 15.88 1.19
0 -3 19 17.05 1.3
0 -3 19 17.92 1.12
0 -3 19 17.7 1.28
0 3 19 15.6 1.16
0 3 19 17.88 1.31
0 -3 20 38.22 1.85
0 -3 20 41.71 1.91
0 -3 20 37.56 1.53
0 3 20 38.61 1.78
0 3 20 41.73 1.95
0 3 20 37.67 1.76
0 -3 21 96.07 2.77
0 -3 21 95.66 2.76
0 3 21 95.72 2.76
0 3 21 89.42 2.6
0 3 21 99.85 2.9
0 3 22 24.65 1.39
0 3 22 21.86 1.23
0 -3 22 22.79 1.28
0 -3 22 22.8 1.3
0 3 22 23.96 1.32
0 3 23 24.53 1.26
0 -3 23 25.87 1.27
0 3 23 23.03 1.15
0 -3 23 24.5 1.23
0 3 23 26.07 1.33
0 -3 24 12.42 0.81
0 3 24 11.89 0.82
0 3 24 12.17 0.83
0 3 24 11.24 0.71
0 -3 24 11.6 0.76
0 3 25 2.21 0.33
0 -3 25 2.13 0.31
0 -3 25 2.08 0.28
0 3 25 2.54 0.36
0 -4 -23 1.51 0.24
0 -4 -23 1.6 0.29
0 4 -23 1.4 0.28
0 4 -22 8.92 0.72
0 -4 -22 8.81 0.64
0 -4 -22 8.61 0.69
0 4 -22 8.35 0.58
0 -4 -21 25.58 1.16
0 -4 -21 28.17 1.33
0 4 -21 25.37 1.15
0 4 -21 25.7 1.31
0 -4 -20 4.98 0.56
0 -4 -20 6.33 0.69
0 4 -20 5.55 0.63
0 4 -20 4.93 0.63
0 -4 -19 3.73 0.51
0 -4 -19 4.41 0.62
0 4 -19 4.74 0.6
0 4 -19 4.12 0.61
0 -4 -18 5.95 0.65
0 -4 -18 6.23 0.74
0 4 -18 7.4 0.83
0 4 -18 6.62 0.73
0 -4 -17 31.87 1.5
0 4 -17 29.95 1.58
0 -4 -17 31.44 1.66
0 4 -17 32.01 1.75
0 -4 -17 31.23 1.47
0 -4 -16 3.03 0.59
0 -4 -16 2.96 0.52
0 -4 -16 2.51 0.46
0 -4 -16 2.55 0.51
0 4 -16 3.03 0.56
0 4 -16 3.43 0.63
0 -4 -15 247.56 4.17
0 -4 -15 240.74 4.26
0 -4 -15 241.65 4.08
0 4 -15 233.51 4.51
0 4 -15 243.4 4.85
0 -4 -15 239.94 4.5
0 -4 -14 310.55 4.88
0 4 -14 296.55 5.09
0 -4 -14 297.84 4.48
0 -4 -14 299.98 5
0 4 -14 304.04 5.34
0 -4 -14 307.64 4.67
0 4 -14 288.03 4.18
0 -4 -13 15.12 1.1
0 4 -13 13.42 1.09
0 -4 -13 14.22 0.97
0 -4 -13 14.56 1.12
0 4 -13 13.78 1.15
0 -4 -13 14.99 1.07
0 -4 -13 12.78 1.44
0 4 -13 13.65 0.94
0 -4 -12 13.47 0.93
0 -4 -12 13.66 1
0 4 -12 12.8 1.06
0 4 -12 12.8 0.91
0 -4 -12 12.92 1.02
0 -4 -12 11.79 1.38
0 -4 -12 14.55 1.08
0 4 -12 12.25 1.06
0 -4 -11 31.25 1.37
0 -4 -11 34.62 1.55
0 4 -11 30.79 1.41
0 -4 -11 33.13 1.59
0 4 -11 30.23 1.59
0 -4 -11 32.65 1.55
0 -4 -11 29.32 2.07
0 4 -11 33.38 1.7
0 -4 -10 248.57 4.19
0 -4 -10 241.91 3.68
0 4 -10 241.46 3.84
0 4 -10 255.79 4.56
0 4 -10 245.94 4.41
0 -4 -10 239.49 5.76
0 -4 -10 258.24 4.26
0 4 -9 26.42 1.27
0 4 -9 29.72 1.68
0 -4 -9 27.06 1.36
0 4 -9 25.34 1.41
0 -4 -9 25.95 1.18
0 -4 -9 25.43 1.31
0 -4 -9 27.96 1.96
0 4 -9 26.93 1.46
0 4 -8 149.08 3.3
0 4 -8 152.94 3.79
0 4 -8 139.44 2.88
0 -4 -8 145.07 3.07
0 -4 -8 137.47 2.98
0 -4 -8 142.75 4.59
0 4 -8 145.34 3.28
0 -4 -8 133.06 4.13
0 -4 -8 142.06 3.09
0 -4 -7 231.42 3.89
0 -4 -7 234.25 4.68
0 4 -7 244.46 4.78
0 -4 -7 233.41 5.66
0 -4 -7 223.39 5.25
0 4 -7 239.81 4.09
0 -4 -6 355.83 5.74
0 4 -6 374.64 5.88
0 -4 -6 357.89 6.77
0 -4 -6 348.9 6.49
0 -4 -5 230.73 4.59
0 -4 -5 234.55 5.33
0 -4 -5 222.63 5.06
0 -4 -4 150.61 3.72
0 -4 -4 151 4.19
0 -4 -4 150.34 4.14
0 -4 -3 2.32 0.61
0 -4 -3 2.02 0.59
0 -4 -3 1.8 0.45
0 4 -3 1.99 0.56
0 -4 -2 48.18 2.13
0 -4 -2 47.16 2.3
0 -4 -2 47.86 2.38
0 -4 -1 907.66 9.05
0 -4 -1 932.02 9.59
0 4 0 16.88 1.49
0 -4 0 15.61 1.3
0 -4 0 12.68 1.22
0 -4 0 13.92 1.39
0 -4 1 954.01 9.48
0 4 1 938.64 10.1
0 -4 1 960.04 10.15
0 -4 2 37.03 1.91
0 -4 2 39.47 1.9
0 -4 2 37.72 2.06
0 4 2 42.6 2.23
0 4 3 0.96 0.42
0 -4 3 1.38 0.5
0 -4 3 1.62 0.44
0 4 3 1.93 0.52
0 -4 4 147.97 4.07
0 -4 4 145.02 3.93
0 4 4 153.94 4.15
0 4 4 152.34 3.73
0 4 5 233.16 4.61
0 4 5 231.1 5.14
0 -4 5 223.1 4.98
0 4 6 351.19 6.42
0 -4 6 350.38 6.45
0 4 6 355.62 5.68
0 4 7 222.82 4.52
0 4 7 226.58 5.27
0 4 7 235.93 3.76
0 -4 7 215.75 5.2
0 4 7 239.67 5.73
0 -4 7 239.29 4.04
0 4 8 140.15 3.6
0 -4 8 144.39 3.22
0 4 8 137.23 2.83
0 4 8 146.51 3.05
0 -4 8 137.46 4.3
0 4 8 145.28 4.6
0 4 8 141.09 4.22
0 -4 8 142.33 3.18
0 -4 8 143.22 3.33
0 -4 9 27.05 1.43
0 4 9 26.74 1.35
0 4 9 25.73 2.03
0 -4 9 27.12 1.44
0 4 9 25.05 1.9
0 4 9 26.74 1.31
0 -4 9 26.55 1.98
0 4 9 24.67 1.81
0 -4 9 27.11 1.49
0 4 9 24.81 1.53
0 -4 10 256.32 4.51
0 -4 10 249.91 6.18
0 4 10 249.29 4.07
0 4 10 259.31 4.26
0 4 10 237.22 5.86
0 -4 10 253.09 4.4
0 4 10 236.53 5.65
0 4 10 246.92 6.28
0 -4 10 251.48 4.59
0 4 11 32.91 1.56
0 4 11 31.15 1.38
0 4 11 30.44 1.53
0 -4 11 34.13 1.7
0 -4 11 32.52 1.6
0 4 11 29.78 2.18
0 -4 11 30.23 2.24
0 4 11 31.87 2.35
0 4 11 28.66 2.18
0 4 11 32.42 2.14
0 -4 11 33.55 1.73
0 4 12 13 1.02
0 4 12 12.81 1.02
0 -4 12 13.13 1.07
0 4 12 11.98 1.49
0 -4 12 12.05 1
0 -4 12 13.53 1.52
0 4 12 13.75 1.58
0 4 12 12.36 0.92
0 4 12 11.8 1.33
0 4 12 12.63 1.51
0 -4 12 12.68 1.09
0 4 13 14.63 1.1
0 4 13 14.37 1.6
0 4 13 15.02 1.09
0 -4 13 16.3 1.23
0 -4 13 14.65 1.11
0 -4 13 13.47 1.62
0 4 13 14.08 1.62
0 4 13 14.79 1.02
0 4 13 12.08 1.53
0 -4 13 13.84 1.17
0 -4 14 303.03 4.94
0 4 14 301.65 4.91
0 -4 14 312.65 5.31
0 4 14 309.93 4.95
0 -4 14 306.57 5.37
0 -4 15 235.43 4.35
0 4 15 250.1 4.51
0 4 15 242.57 4.37
0 -4 15 250.12 4.77
0 4 15 230.78 4.15
0 -4 15 246.76 4.8
0 4 16 1.87 0.44
0 -4 16 3.05 0.54
0 4 16 2.46 0.51
0 4 16 1.9 0.44
0 -4 16 2.76 0.6
0 -4 16 3.68 0.66
0 -4 17 30.49 1.52
0 -4 17 33.34 1.71
0 4 17 31.69 1.56
0 4 17 31.09 1.54
0 4 17 33.95 1.68
0 -4 17 31.94 1.71
0 -4 18 7.22 0.73
0 -4 18 7.09 0.79
0 4 18 6.6 0.72
0 4 18 7.49 0.8
0 -4 18 5.9 0.73
0 4 19 5.17 0.68
0 -4 19 4.75 0.63
0 -4 19 4.65 0.57
0 -4 19 4.21 0.59
0 4 19 5.35 0.65
0 -4 20 5.11 0.55
0 -4 20 5.43 0.65
0 4 20 5.69 0.66
0 -4 20 4.98 0.61
0 4 20 5.73 0.68
0 4 20 6.43 0.66
0 4 21 26.46 1.3
0 -4 21 26.53 1.29
0 -4 21 26.55 1.09
0 4 21 29.28 1.41
0 4 21 25.94 1.24
0 -4 21 25.93 1.25
0 4 22 9.01 0.73
0 4 22 8.6 0.69
0 -4 22 9.39 0.71
0 4 22 8.6 0.67
0 -4 22 9.12 0.68
0 -4 23 1.57 0.26
0 -4 23 1.05 0.24
0 4 23 1.54 0.31
0 4 23 1.14 0.25
0 4 23 1.45 0.27
0 5 -21 0.18 0.12
0 -5 -21 0.38 0.16
0 -5 -20 26.59 1.12
0 5 -20 24.38 1.1
0 5 -20 25.02 1.05
0 5 -19 1.34 0.31
0 -5 -19 2 0.37
0 -5 -19 1.66 0.28
0 5 -19 1.9 0.36
0 -5 -18 3.9 0.44
0 -5 -18 3.84 0.53
0 5 -18 4.26 0.55
0 5 -18 3.26 0.49
0 -5 -17 5.57 0.55
0 -5 -17 5.98 0.68
0 -5 -17 5.25 0.55
0 5 -17 6.21 0.69
0 5 -17 5.86 0.68
0 -5 -16 60.24 1.95
0 -5 -16 66.57 2.22
0 5 -16 63.78 2.23
0 -5 -16 61.55 1.92
0 5 -16 59.31 2.19
0 -5 -16 58.08 1.79
0 -5 -15 64.71 2.09
0 -5 -15 65 1.94
0 -5 -15 62.82 2.08
0 5 -15 68.86 2.42
0 5 -15 67.4 2.39
0 -5 -14 138.41 3.21
0 -5 -14 141.3 3.37
0 -5 -14 140.4 3.15
0 5 -14 132.7 3.42
0 -5 -14 136.85 2.87
0 5 -14 136.93 3.48
0 -5 -13 177.37 3.27
0 -5 -13 173.22 3.74
0 -5 -13 176.09 3.6
0 5 -13 174.58 3.97
0 5 -13 169.71 3.93
0 -5 -13 172.68 3.65
0 5 -12 70.05 2.53
0 -5 -12 70.72 2.07
0 -5 -12 68.89 2.37
0 -5 -12 70.88 2.41
0 5 -12 67.13 2.51
0 -5 -12 71.53 2.33
0 -5 -11 14.83 1.08
0 -5 -11 13.48 0.91
0 -5 -11 12.54 1.04
0 5 -11 13.31 1.14
0 -5 -11 13.25 1.08
0 5 -11 13.12 1.11
0 -5 -10 34.89 1.69
0 -5 -10 33.87 1.42
0 -5 -10 35.1 1.71
0 5 -10 34.99 1.79
0 5 -10 34.9 1.83
0 -5 -9 246.85 4.46
0 -5 -9 220.89 6.47
0 -5 -9 239.37 3.71
0 -5 -9 237.98 4.3
0 5 -9 247.59 4.74
0 -5 -9 214.29 6.11
0 5 -9 242.35 4.63
0 -5 -8 124.24 3.14
0 -5 -8 121.93 2.64
0 -5 -8 120.13 3.03
0 -5 -8 114.05 4.56
0 5 -8 119.89 3.2
0 5 -8 122.51 3.34
0 -5 -8 112.65 4.4
0 5 -8 119.73 3.87
0 -5 -7 49.33 1.99
0 -5 -7 47.86 1.91
0 -5 -7 48.67 1.99
0 5 -7 44.55 2.39
0 -5 -7 47.68 2.93
0 5 -7 47.65 2.08
0 -5 -7 45.64 2.82
0 5 -7 47.42 1.98
0 -5 -6 182.12 3.51
0 -5 -6 180.29 3.72
0 -5 -6 172.18 3.66
0 5 -6 182.04 3.84
0 5 -6 171.58 4.72
0 -5 -6 160.74 5.23
0 5 -6 175.87 3.9
0 -5 -6 164.49 5.21
0 -5 -5 29.12 1.44
0 -5 -5 27.83 1.48
0 5 -5 28.92 1.95
0 -5 -5 28.71 1.51
0 -5 -5 24.32 1.98
0 5 -5 29.82 1.61
0 -5 -5 25.35 2.07
0 5 -5 29.25 1.52
0 5 -4 30.89 1.33
0 -5 -4 34.32 1.62
0 5 -4 34.12 2.13
0 -5 -4 32.11 2.26
0 5 -4 34.42 1.72
0 -5 -4 32.02 2.28
0 -5 -4 33.73 1.56
0 -5 -4 33.61 1.6
0 5 -4 35.59 1.64
0 5 -3 52.45 1.76
0 -5 -3 56.17 2.05
0 -5 -3 52.26 2.5
0 -5 -3 53.37 2.82
0 5 -3 53.47 2.64
0 5 -3 52.32 2.07
0 -5 -3 52.56 2.89
0 -5 -3 54.5 1.99
0 -5 -3 52.19 1.99
0 5 -2 40.46 1.57
0 -5 -2 40.28 1.73
0 -5 -2 41.06 1.76
0 -5 -2 38.49 2.16
0 5 -2 42.83 2.36
0 5 -2 39.68 1.8
0 -5 -2 40.27 2.52
0 -5 -2 39.35 1.71
0 5 -1 41.03 1.58
0 -5 -1 41.2 1.77
0 -5 -1 40.39 2.23
0 5 -1 42.79 2.37
0 5 -1 42.12 1.83
0 -5 -1 39.7 2.49
0 -5 -1 42.52 1.79
0 -5 -1 43.41 1.8
0 5 0 6.93 0.99
0 5 0 6.07 0.65
0 -5 0 7.78 1.04
0 5 0 6.4 0.72
0 -5 0 6.11 1.02
0 -5 0 6.19 0.72
0 -5 0 5.69 0.68
0 -5 0 6.51 0.72
0 -5 1 42.03 1.79
0 5 1 43.3 2.37
0 5 1 42.47 1.65
0 -5 1 40.06 2.27
0 5 1 40.74 1.78
0 -5 1 40.42 2.51
0 -5 1 42.41 1.77
0 -5 1 40.68 1.77
0 5 2 40.2 2.28
0 5 2 40.22 1.63
0 5 2 38.6 2.42
0 -5 2 35.54 2.34
0 -5 2 38.59 2.27
0 -5 2 42.23 1.82
0 5 2 42.62 1.82
0 -5 2 38.6 1.7
0 -5 2 39.71 1.76
0 -5 3 55.21 2.09
0 5 3 50.94 2.56
0 5 3 50.71 1.85
0 5 3 52.14 2.82
0 -5 3 49.57 2.61
0 5 3 56 2.06
0 -5 3 51.92 1.96
0 -5 3 51.18 2.01
0 -5 4 35.01 1.69
0 5 4 32.48 1.39
0 5 4 33.4 1.54
0 5 4 34.13 2.31
0 5 4 34.24 2.12
0 -5 4 31.52 2.12
0 -5 4 31.81 1.55
0 -5 4 33.43 1.65
0 5 5 28.21 1.33
0 5 5 28.66 1.46
0 -5 5 29.21 1.44
0 -5 5 30.88 1.62
0 5 5 28.02 1.91
0 -5 5 27.6 2.04
0 5 5 26.3 2.05
0 -5 5 27.71 1.53
0 -5 6 179.52 3.89
0 5 6 171.25 5.2
0 5 6 166.48 3.25
0 5 6 171.01 3.53
0 -5 6 177.21 3.59
0 -5 6 168.08 5.1
0 5 6 164.87 4.59
0 -5 6 172.81 3.82
0 -5 7 53.49 2.17
0 5 7 50.36 1.97
0 -5 7 49.79 1.96
0 -5 7 47.95 2.79
0 5 7 47.71 2.8
0 5 7 47.31 1.78
0 -5 7 49.21 2.07
0 -5 8 123.14 3.28
0 5 8 115.42 4.35
0 5 8 114.83 2.81
0 5 8 122.8 3.08
0 5 8 115 4.43
0 -5 8 117.49 4.43
0 5 8 109.55 3.67
0 -5 8 119.21 3.06
0 5 8 115.49 4.64
0 -5 8 118.58 3.23
0 -5 9 236.39 4.54
0 5 9 238.3 4.13
0 5 9 246.55 4.43
0 -5 9 240.6 4.42
0 5 9 230.51 6.13
0 -5 9 232.2 6.33
0 -5 9 244.24 4.63
0 5 10 34.8 1.61
0 5 10 37.15 1.77
0 -5 10 34.87 1.77
0 -5 10 34.61 1.79
0 -5 10 34.91 1.71
0 -5 11 13 1.11
0 5 11 13.09 1.07
0 -5 11 12.37 1.04
0 5 11 13.1 1.04
0 -5 11 13.88 1.14
0 -5 12 68.32 2.44
0 -5 12 68.8 2.43
0 5 12 68.58 2.33
0 5 12 71.58 2.44
0 -5 12 71.3 2.54
0 -5 13 174.75 3.8
0 5 13 170.16 3.66
0 5 13 171.58 3.76
0 -5 13 177.57 3.95
0 -5 13 169.32 3.77
0 -5 14 138.86 3.35
0 5 14 136.65 3.32
0 5 14 134.86 3.27
0 -5 14 135.96 3.33
0 -5 14 138.24 3.44
0 -5 15 68.67 2.28
0 5 15 64.51 2.21
0 -5 15 64.92 2.26
0 5 15 65.66 2.26
0 -5 15 67.68 2.34
0 5 16 63.84 2.18
0 -5 16 66.39 2.16
0 -5 16 60.29 2.1
0 -5 16 63.22 2.18
0 5 17 6.04 0.64
0 -5 17 5.75 0.64
0 5 17 5.66 0.68
0 -5 17 5.99 0.66
0 -5 17 6.38 0.67
0 -5 18 4.05 0.5
0 5 18 4.97 0.61
0 -5 18 4.04 0.52
0 5 18 3.28 0.43
0 -5 18 3.28 0.46
0 5 19 1.87 0.39
0 -5 19 1.7 0.31
0 5 19 1.83 0.38
0 -5 19 1.5 0.3
0 -5 19 1.54 0.3
0 -5 20 24.54 0.94
0 5 20 25.24 1.13
0 -5 20 23.51 1.02
0 5 20 26.93 1.17
0 -5 20 25.81 1.04
0 5 21 0.32 0.18
0 -5 21 0.26 0.12
0 5 21 0.33 0.18
0 -5 21 0.44 0.15
0 -6 -18 10.34 0.6
0 6 -18 9.27 0.59
0 -6 -17 2.58 0.35
0 6 -17 2.6 0.33
0 6 -17 2.43 0.35
0 -6 -16 1.33 0.25
0 -6 -16 1.7 0.34
0 6 -16 1.4 0.32
0 6 -16 1.51 0.3
0 -6 -15 43.51 1.42
0 6 -15 48.4 1.72
0 6 -15 44.87 1.54
0 -6 -14 13.81 0.88
0 -6 -14 14.83 0.98
0 -6 -14 14.18 0.89
0 6 -14 15.24 1.04
0 6 -14 13.73 0.91
0 -6 -13 1.34 0.33
0 -6 -13 1.28 0.39
0 -6 -13 1.12 0.33
0 6 -13 1.38 0.36
0 6 -13 1.88 0.44
0 -6 -12 60.26 2.01
0 -6 -12 61.5 1.99
0 -6 -12 64.2 2.1
0 6 -12 60.02 2.2
0 6 -12 59.15 2.02
0 6 -11 3.26 0.51
0 -6 -11 3.47 0.54
0 -6 -11 3.99 0.58
0 -6 -11 3.7 0.55
0 6 -11 3.59 0.62
0 -6 -10 86.54 2.56
0 -6 -10 91.31 2.57
0 -6 -10 90.72 2.58
0 6 -10 83.15 2.47
0 6 -10 85.13 2.75
0 -6 -9 37.11 1.73
0 -6 -9 36.79 1.7
0 6 -9 32.96 1.58
0 -6 -9 34.36 1.62
0 6 -9 38.16 1.87
0 -6 -8 66.28 2.25
0 6 -8 68.55 2.28
0 6 -8 66.72 2.48
0 -6 -8 68.33 2.38
0 -6 -7 219.97 4.11
0 -6 -7 230.25 4.34
0 6 -7 226.42 4.57
0 -6 -6 303.11 4.96
0 -6 -6 292.85 4.72
0 6 -6 297.2 5.21
0 -6 -5 36.4 1.75
0 -6 -5 35.53 1.58
0 6 -5 35.1 1.83
0 -6 -5 35.45 1.74
0 6 -4 9.68 0.8
0 6 -4 10.98 1.03
0 -6 -4 9.3 0.92
0 -6 -4 9.72 0.92
0 -6 -4 9.78 0.86
0 -6 -3 50.41 1.96
0 -6 -3 53.2 2.08
0 -6 -3 53.52 2.13
0 6 -3 52.46 2.16
0 6 -3 48.51 1.77
0 -6 -2 85.43 2.6
0 -6 -2 85.39 2.67
0 6 -2 78.33 2.3
0 6 -2 83.82 2.72
0 -6 -2 85.89 2.64
0 6 -1 98.68 2.63
0 -6 -1 107.45 2.96
0 -6 -1 108.41 2.97
0 6 -1 104.5 3.01
0 -6 -1 105.73 2.97
0 -6 0 59.76 2.28
0 6 0 56.63 2.21
0 -6 0 55.33 2.14
0 -6 0 56.3 2.17
0 6 0 56.94 2.03
0 6 1 101.13 2.73
0 -6 1 108.85 3.01
0 6 1 105.87 2.97
0 -6 1 107.29 3.02
0 -6 1 105.85 2.94
0 -6 2 84.83 2.68
0 6 2 83.41 2.51
0 -6 2 86.18 2.69
0 6 2 87.88 2.67
0 -6 2 82.19 2.58
0 6 3 48.55 1.94
0 -6 3 52.04 2.09
0 -6 3 52.08 2.12
0 -6 3 51.63 2.03
0 6 4 10.97 0.96
0 -6 4 11.39 1.01
0 -6 4 11.04 0.96
0 -6 4 9.34 0.92
0 -6 5 34.83 1.78
0 6 5 34.93 1.69
0 -6 5 34.89 1.76
0 -6 5 35.44 1.68
0 6 6 271.72 4.14
0 6 6 285.27 4.77
0 -6 6 308.69 5.13
0 -6 6 289.3 4.67
0 -6 6 295.91 4.94
0 6 7 205.24 3.67
0 6 7 208.53 4.12
0 -6 7 226.85 4.34
0 -6 7 228.63 4.43
0 -6 7 214.65 3.98
0 -6 8 67.41 2.36
0 6 8 60.25 2.02
0 -6 8 68.17 2.41
0 6 8 63.2 2.28
0 -6 8 62.59 2.12
0 6 9 35.61 1.72
0 6 9 31.61 1.48
0 -6 9 35.19 1.76
0 -6 9 33.15 1.51
0 -6 9 32.32 1.45
0 -6 9 34.78 1.71
0 6 10 87.95 2.62
0 -6 10 90.04 2.69
0 6 10 83 2.35
0 -6 10 83.38 2.31
0 -6 10 82.46 2.52
0 -6 10 86.7 2.33
0 -6 11 4.63 0.62
0 6 11 3.61 0.58
0 -6 11 3.45 0.48
0 -6 11 3.68 0.49
0 6 11 3.95 0.56
0 -6 11 4.07 0.63
0 6 12 60.44 1.99
0 6 12 57.7 2.03
0 -6 12 59.1 2.01
0 -6 12 60.55 1.79
0 -6 12 55.82 1.83
0 -6 13 1.73 0.43
0 6 13 2.11 0.44
0 6 13 1.05 0.33
0 -6 13 1.41 0.32
0 -6 13 1.75 0.37
0 -6 13 1.19 0.27
0 6 14 13.94 0.92
0 6 14 13.36 0.92
0 -6 14 15.58 0.99
0 -6 14 13.51 0.84
0 -6 14 14.49 0.92
0 -6 15 47.43 1.6
0 -6 15 43.01 1.39
0 6 15 46.5 1.6
0 6 15 41.25 1.52
0 -6 15 46.56 1.54
0 6 16 1.91 0.38
0 6 16 1.45 0.31
0 -6 16 1.44 0.26
0 -6 16 1.62 0.31
0 -6 16 1.15 0.28
0 -6 17 2.16 0.27
0 -6 17 2.8 0.35
0 -6 17 2.81 0.33
0 6 17 1.93 0.28
0 6 17 2.68 0.36
0 6 18 10.21 0.63
0 6 18 8.85 0.58
0 -7 -13 9.59 0.57
0 7 -13 8.73 0.6
0 -7 -12 6.55 0.5
0 7 -12 6.98 0.57
0 -7 -12 6.74 0.5
0 -7 -12 8.18 0.56
0 -7 -11 5.7 0.5
0 -7 -11 5.32 0.48
0 -7 -11 5.14 0.47
0 7 -11 5.2 0.53
0 -7 -10 0.13 0.14
0 -7 -10 0.63 0.22
0 7 -10 0.66 0.22
0 -7 -10 0.14 0.14
0 -7 -9 4.73 0.52
0 -7 -9 4.45 0.5
0 -7 -9 4.62 0.5
0 7 -9 4.34 0.53
0 -7 -8 20.9 1.07
0 -7 -8 22.17 1.09
0 7 -8 18.42 0.94
0 7 -8 19.78 1.12
0 -7 -8 19.96 1.07
0 -7 -7 19.89 1.06
0 7 -7 17.5 1.07
0 -7 -7 19.2 1.09
0 -7 -7 20.26 1.08
0 -7 -6 21.78 1.13
0 7 -6 19.12 1.13
0 -7 -6 22.02 1.15
0 -7 -6 20.87 1.16
0 -7 -5 40.78 1.58
0 -7 -5 37.17 1.57
0 -7 -5 41.27 1.56
0 7 -5 35.06 1.54
0 -7 -4 52.65 1.79
0 -7 -4 49.07 1.82
0 -7 -3 91.01 2.47
0 -7 -3 78.02 2.03
0 -7 -3 92.46 2.37
0 7 -3 79.19 2.31
0 7 -2 4.76 0.54
0 -7 -2 5.23 0.57
0 -7 -2 5.96 0.69
0 7 -2 5.75 0.66
0 -7 -2 7.25 0.87
0 -7 -1 1.58 0.34
0 7 -1 1.3 0.35
0 7 -1 1.83 0.38
0 -7 -1 1.09 0.32
0 -7 -1 1.5 0.38
0 -7 0 1.32 0.33
0 -7 0 1.09 0.29
0 7 0 1.45 0.32
0 -7 0 1.53 0.36
0 7 0 1.8 0.37
0 -7 1 1.67 0.37
0 7 1 2.75 0.45
0 -7 1 1.58 0.36
0 -7 1 1.89 0.43
0 -7 2 6.84 0.71
0 7 2 7.38 0.74
0 -7 2 7 0.75
0 -7 2 9.03 0.88
0 -7 3 92.69 2.42
0 7 3 88.6 2.36
0 -7 3 84.95 2.34
0 -7 3 91.54 2.38
0 7 4 47.92 1.75
0 -7 4 49.38 1.74
0 -7 4 50.53 1.78
0 -7 4 47.88 1.77
0 -7 5 38.1 1.51
0 -7 5 36.48 1.54
0 -7 5 39.25 1.51
0 7 5 37.54 1.55
0 7 6 19.39 1.11
0 -7 6 19.64 1.07
0 -7 6 19.6 1.04
0 -7 6 19.14 1.11
0 -7 7 19.13 1
0 -7 7 19.01 1.09
0 7 7 18.92 1.09
0 -7 7 18.8 1.03
0 7 8 20.09 1.1
0 -7 8 20.77 1.11
0 -7 8 20.7 1.04
0 -7 8 20.9 1
0 7 9 3.49 0.47
0 -7 9 4.95 0.46
0 -7 9 4.41 0.47
0 -7 9 4.61 0.53
0 7 9 3.52 0.4
0 7 10 0.3 0.19
0 -7 10 0.28 0.19
0 -7 10 0.14 0.15
0 -7 10 0.31 0.15
0 7 11 4.92 0.5
0 -7 11 6.02 0.55
0 -7 11 6.04 0.49
0 -7 12 6.69 0.47
0 -7 12 7.55 0.57
0 7 12 5.89 0.52
0 -7 13 9.34 0.58
0 7 13 8.03 0.55
0 -8 -3 3.96 0.37
0 8 -2 5.09 0.43
0 -8 -2 6.4 0.47
0 8 -1 2.44 0.32
0 -8 -1 2.84 0.32
0 -8 0 0.83 0.19
0 8 0 0.99 0.23
0 8 1 2.52 0.32
0 -8 1 2.92 0.32
0 8 2 5.03 0.43
0 -8 2 5.64 0.42
1 0 -27 7.24 0.54
1 0 -26 0.11 0.17
1 0 -26 0.25 0.21
1 0 -25 64.42 1.92
1 0 -25 66.47 2.1
1 0 -24 0.29 0.23
1 0 -23 68.56 2.31
1 0 -23 67.47 2.31
1 0 -22 0.41 0.38
1 0 -22 0.34 0.39
1 0 -21 196.25 4.22
1 0 -21 193.21 4.11
1 0 -20 0.38 0.39
1 0 -20 0.7 0.41
1 0 -19 118.46 3.25
1 0 -19 121.83 3.3
1 0 -18 -0.02 0.29
1 0 -18 0.61 0.32
1 0 -18 0.77 0.45
1 0 -17 404.02 5.68
1 0 -17 389.77 5.64
1 0 -17 406.13 8.42
1 0 -16 1.18 0.35
1 0 -16 0.98 0.41
1 0 -16 1.53 0.66
1 0 -15 392.16 7.54
1 0 -15 385.24 5.1
1 0 -14 -0.16 0.31
1 0 -13 37.06 2.11
1 0 -12 0.67 0.33
1 0 -11 809.37 8.7
1 0 -10 0.83 0.38
1 0 -9 143.32 3.24
1 0 -8 0.52 0.3
1 0 -7 2552.42 11.97
1 0 -7 2517.46 9.83
1 0 -6 2.55 0.44
1 0 -6 0.8 0.24
1 0 -5 6437.77 13.99
1 0 -5 6485.05 16.92
1 0 -4 1.48 0.25
1 0 -4 1.51 0.36
1 0 -3 9613.69 17.91
1 0 -3 9999 16.43
1 0 -2 0.23 0.13
1 0 -2 0 0.13
1 0 -2 0.2 0.11
1 0 -1 4742.88 10.91
1 0 -1 4754.32 11.83
1 0 0 0.34 0.21
1 0 0 7.96 0.66
1 0 1 4333.63 12.34
1 0 1 4364.47 11.51
1 0 2 0.64 0.2
1 0 3 6045.57 14.77
1 0 4 2.03 0.37
1 0 4 1.69 0.16
1 0 5 1190.71 7.4
1 0 5 1233.49 8.2
1 0 6 0.61 0.32
1 0 6 4.99 0.34
1 0 7 636.58 6.49
1 0 7 581.95 4.08
1 0 8 0.31 0.23
1 0 8 0.29 0.15
1 0 9 951.15 8.7
1 0 9 897.72 6.07
1 0 10 0.03 0.26
1 0 10 0.25 0.15
1 0 11 251.23 4.88
1 0 11 262.13 3.8
1 0 12 0.16 0.31
1 0 13 223.81 4.93
1 0 14 -0.32 0.4
1 0 15 581.5 6.75
1 0 15 576.6 6.45
1 0 15 598.1 8.52
1 0 15 607.74 6.9
1 0 16 0.31 0.28
1 0 16 0.24 0.27
1 0 16 0.69 0.3
1 0 16 0.54 0.37
1 0 17 49.55 2.11
1 0 17 53.17 2.06
1 0 17 48.95 1.84
1 0 17 55.18 2.23
1 0 18 -0.12 0.32
1 0 18 0.06 0.23
1 0 18 0.2 0.27
1 0 19 39.09 1.94
1 0 19 38.75 1.68
1 0 19 39.02 1.95
1 0 19 40.6 1.84
1 0 20 -0.24 0.4
1 0 20 0.68 0.34
1 0 20 -0.07 0.23
1 0 20 -0.08 0.34
1 0 21 26.62 1.62
1 0 21 23.21 1.26
1 0 21 25.12 1.55
1 0 22 -0.14 0.32
1 0 22 -0.17 0.27
1 0 23 8.03 0.83
1 0 23 7.38 0.81
1 0 24 0.18 0.25
1 0 24 0.03 0.25
1 0 25 9.8 0.78
1 0 25 8.34 0.72
1 0 26 0.19 0.18
1 0 26 0.33 0.19
1 0 27 36.14 1.11
1 1 -27 30.84 1.08
1 1 -26 2.99 0.43
1 -1 -26 2.81 0.38
1 -1 -26 2.83 0.36
1 -1 -25 4.95 0.54
1 1 -25 5.51 0.63
1 -1 -25 4.96 0.57
1 -1 -24 5.31 0.66
1 1 -24 4.73 0.59
1 -1 -24 5.88 0.64
1 1 -24 5.47 0.69
1 1 -24 5.18 0.55
1 -1 -23 12.76 0.98
1 -1 -23 13.24 1.04
1 1 -23 13.49 1.03
1 1 -23 12.36 0.9
1 -1 -22 26.24 1.5
1 1 -22 25.03 1.46
1 -1 -22 24.78 1.42
1 1 -22 24.85 1.36
1 -1 -21 49.5 2.09
1 1 -21 46.21 2.05
1 -1 -21 46.08 1.99
1 1 -21 45.22 1.91
1 1 -20 144.47 3.57
1 -1 -20 155.77 3.73
1 1 -20 152.72 3.74
1 -1 -20 149.14 3.6
1 1 -20 147.02 3.52
1 -1 -19 134.85 3.46
1 1 -19 130.89 3.46
1 -1 -19 129.31 3.35
1 1 -19 128.53 3.37
1 -1 -19 136.86 3.39
1 1 -19 129.24 3.33
1 1 -18 144.14 3.54
1 -1 -18 153.95 3.58
1 1 -18 148.82 3.63
1 -1 -18 145.42 3.49
1 -1 -18 158.9 3.58
1 1 -18 154.63 5.29
1 -1 -18 154.12 5.52
1 1 -18 144.84 3.5
1 1 -17 67.28 3.39
1 -1 -17 69.31 2.35
1 1 -17 67.06 2.36
1 -1 -17 69.42 3.59
1 -1 -17 65.22 2.3
1 1 -17 64.76 2.39
1 -1 -17 65.37 2.3
1 1 -17 65.61 2.33
1 -1 -16 179.9 5.57
1 1 -16 164.66 3.56
1 -1 -16 171.51 3.54
1 1 -16 165.54 3.65
1 -1 -16 166.14 3.57
1 -1 -16 178.7 3.68
1 1 -16 165.62 5.04
1 1 -16 164.79 3.59
1 -1 -15 79.64 2.33
1 -1 -15 82.39 3.63
1 1 -15 79.2 2.36
1 1 -15 78.19 2.44
1 -1 -15 76.29 2.33
1 -1 -15 82.6 2.43
1 1 -15 80.99 3.36
1 1 -15 77.51 2.41
1 -1 -14 281.06 6.38
1 1 -14 275.24 5.88
1 -1 -13 232.09 5.5
1 1 -13 227.01 5.1
1 -1 -12 236.27 5.32
1 1 -12 229.52 4.83
1 1 -11 138.92 3.56
1 -1 -11 148.92 4
1 1 -10 151.75 3.49
1 -1 -10 153.43 3.86
1 1 -9 52.2 1.9
1 -1 -9 51.32 2.12
1 -1 -8 451.61 5.93
1 -1 -8 453.55 3.88
1 1 -8 444.29 4.2
1 -1 -7 90.9 2.54
1 1 -7 94.25 2.21
1 1 -7 89.97 1.91
1 -1 -7 90.36 1.74
1 -1 -6 338.01 4.54
1 1 -6 345.85 3.93
1 -1 -6 345.17 3.35
1 1 -6 350.93 3.7
1 -1 -5 809.33 6.46
1 -1 -5 792.71 6.72
1 1 -5 787.11 5.42
1 -1 -5 795.08 5.08
1 1 -5 775.89 5.47
1 1 -4 2375.75 9.45
1 1 -4 2375.11 8.54
1 -1 -4 2363.84 11.33
1 1 -3 3736.85 8.91
1 -1 -3 3906.68 11.52
1 -1 -3 3839.34 13.24
1 1 -3 3670.96 11.96
1 -1 -3 3818.08 13.64
1 1 -3 3794.83 9.63
1 1 -2 5354.15 11.71
1 1 -2 5340.43 10.08
1 1 -1 4166.42 11.2
1 1 -1 4211.49 12.19
1 1 0 5929.73 14.13
1 -1 0 6146.05 16.94
1 -1 0 5984.57 10.85
1 -1 0 6269.62 17.01
1 1 0 6120.56 14.61
1 1 1 1278.26 7.09
1 -1 1 1278.93 5.74
1 -1 1 1260.58 7.6
1 1 2 5237.93 15.19
1 -1 2 5274.69 15.86
1 -1 3 1937.56 8.77
1 1 3 1901.01 8.3
1 1 4 2434.01 11.44
1 1 4 2444.03 6.54
1 1 4 2517.99 11.73
1 -1 4 2412.91 4.35
1 1 4 2464.27 9.4
1 -1 4 2457.59 10.48
1 1 4 2472.8 9.4
1 -1 4 2394.14 11.19
1 -1 4 2468.64 11.48
1 1 5 1271.26 8.82
1 1 5 1253.21 8.44
1 -1 5 1227.58 7.96
1 -1 5 1172.02 3.84
1 1 5 1244.21 6.98
1 -1 5 1203.96 8.41
1 -1 5 1200.02 7.93
1 1 5 1212.96 6.73
1 1 5 1194.8 4.67
1 1 6 460.35 5.49
1 -1 6 438.46 5.26
1 -1 6 435.02 5
1 -1 6 409.75 2.73
1 1 6 441.93 4.39
1 1 6 417 2.88
1 1 6 431.37 4
1 -1 6 408.76 4.71
1 -1 7 363.26 4.96
1 -1 7 366.25 4.71
1 1 7 372.3 5.24
1 -1 7 366.4 4.91
1 -1 7 341.46 2.85
1 1 7 360.94 4.19
1 1 7 348.41 2.84
1 1 7 353.66 3.63
1 -1 8 1590.76 10.31
1 1 8 1610.61 11.41
1 -1 8 1564.82 10.74
1 -1 8 1570.55 10.74
1 -1 8 1535.48 6.77
1 1 8 1567.34 9.24
1 1 8 1531.6 6.46
1 1 9 32.31 1.74
1 -1 9 28.71 1.55
1 1 9 29.46 1.34
1 1 10 1805.83 13.12
1 1 10 1844.34 11.06
1 1 11 98.21 3.21
1 1 11 100.14 2.72
1 -1 11 97.03 2.99
1 1 12 13.86 1.29
1 1 12 16.41 1.17
1 -1 12 13.99 1.2
1 1 13 190.02 4.79
1 1 13 193.74 4.15
1 -1 13 191.39 4.48
1 -1 14 133.63 3.21
1 1 14 135.68 4.17
1 1 14 138.74 3.17
1 1 15 26.15 1.93
1 1 15 26.93 1.46
1 -1 15 25.82 1.35
1 1 15 25.43 1.44
1 -1 15 25.68 1.48
1 1 15 24.8 1.39
1 -1 15 26.96 1.53
1 -1 16 56 2.23
1 1 16 59.28 2.95
1 1 16 57.27 2.15
1 -1 16 60.83 2.14
1 -1 16 60.93 2.32
1 1 16 59.56 2.25
1 1 16 57.37 2.17
1 -1 17 90.67 2.9
1 1 17 92.61 2.84
1 -1 17 89.65 2.65
1 1 17 97.76 2.9
1 -1 17 92.21 2.95
1 1 17 94.81 2.92
1 -1 18 5.28 0.76
1 1 18 4.55 0.72
1 1 18 4.58 0.68
1 -1 18 4.48 0.65
1 -1 18 4.58 0.71
1 1 18 4.95 0.73
1 -1 19 189.43 4.33
1 1 19 188.73 4.18
1 -1 19 182.9 3.84
1 1 19 187.57 4.06
1 1 19 184.12 4.19
1 -1 19 196.16 4.31
1 1 20 142.4 3.64
1 1 20 141.05 3.48
1 -1 20 140.69 3.62
1 -1 20 130.32 3.21
1 -1 20 144.98 3.78
1 1 20 137.75 3.63
1 -1 21 78.77 2.75
1 1 21 77.97 2.66
1 -1 21 74.74 2.63
1 -1 21 72.52 2.33
1 1 21 78.26 2.74
1 1 21 77.16 2.51
1 1 22 78.47 2.61
1 -1 22 71.59 2.23
1 1 22 75.7 2.62
1 1 22 68.94 2.26
1 -1 22 79.23 2.66
1 -1 22 69.87 2.42
1 -1 23 1.68 0.44
1 1 23 2.18 0.45
1 1 23 1.38 0.34
1 -1 23 1.61 0.37
1 -1 23 1.46 0.37
1 1 23 1.59 0.43
1 1 24 27.3 1.41
1 -1 24 26.05 1.15
1 -1 24 24.65 1.24
1 -1 24 28.91 1.42
1 1 24 28.66 1.4
1 1 25 6.64 0.63
1 -1 25 6.11 0.49
1 -1 25 7.28 0.67
1 -1 25 5.36 0.54
1 1 25 5.71 0.6
1 -1 26 5.43 0.51
1 1 26 6.27 0.55
1 -1 26 4.84 0.42
1 1 26 5.4 0.51
1 2 -26 14.2 0.77
1 -2 -25 20.27 1.02
1 -2 -25 18.8 0.92
1 2 -25 18.69 1.03
1 2 -25 18.51 0.87
1 -2 -24 13.71 0.94
1 -2 -24 12.18 0.83
1 2 -24 12.15 0.93
1 2 -24 11.42 0.8
1 -2 -23 46.71 1.82
1 -2 -23 44.65 1.71
1 2 -23 42.95 1.88
1 2 -23 41.82 1.65
1 -2 -22 15.6 1.14
1 -2 -22 13.99 1.03
1 2 -22 14.18 1.15
1 2 -22 14.7 1.06
1 -2 -21 39.52 1.82
1 -2 -21 37.78 1.75
1 2 -21 41 2.02
1 2 -21 37.1 1.76
1 -2 -20 19.78 1.25
1 -2 -20 18.93 1.29
1 2 -20 17.51 1.28
1 -2 -20 18.37 1.26
1 2 -20 18.7 1.43
1 2 -20 18.27 1.27
1 -2 -19 48.89 2.01
1 -2 -19 47.47 2.04
1 2 -19 46.46 2.1
1 -2 -19 42.51 1.91
1 2 -19 47.47 2.09
1 -2 -18 169.09 3.75
1 -2 -18 161.96 3.66
1 2 -18 158.09 3.85
1 -2 -18 156.15 3.6
1 -2 -18 167.79 3.5
1 2 -18 157.51 3.81
1 2 -17 115.84 2.66
1 -2 -17 113.54 3.07
1 -2 -17 113.95 3.01
1 2 -17 110.27 3.18
1 -2 -17 106.92 2.96
1 2 -17 102.07 4.09
1 -2 -17 110.74 4.64
1 2 -17 107.16 3.12
1 2 -16 53.09 1.83
1 -2 -16 51.14 2
1 2 -16 47.72 2.09
1 -2 -16 49.13 1.97
1 -2 -16 45.28 2.72
1 -2 -16 51.32 3.07
1 2 -16 49.79 2.77
1 -2 -16 52.95 2.08
1 2 -16 49.61 2.11
1 -2 -15 20.25 1.24
1 -2 -15 24.05 1.36
1 2 -15 20.09 1.3
1 -2 -15 19.65 1.21
1 -2 -15 21.79 1.87
1 -2 -15 21.01 1.91
1 2 -15 21.06 1.13
1 2 -15 20.6 1.71
1 2 -15 21.09 1.37
1 2 -14 100.37 2.39
1 -2 -14 105.88 2.79
1 2 -14 99.71 3.58
1 -2 -14 94.17 2.47
1 2 -14 96.38 2.77
1 -2 -14 91.21 2.51
1 -2 -14 95.76 3.88
1 -2 -14 93.65 3.73
1 2 -14 94.39 2.77
1 2 -13 1.78 0.55
1 -2 -13 1.41 0.58
1 2 -13 1.61 0.38
1 -2 -13 2.13 0.37
1 -2 -13 1.56 0.37
1 2 -12 75.69 2.78
1 -2 -12 73.49 3.12
1 2 -11 547.95 7.11
1 -2 -11 567.2 8.26
1 2 -10 34.58 1.67
1 -2 -10 35.44 1.99
1 -2 -10 37.4 2.05
1 -2 -10 37.64 1.6
1 2 -9 616.58 6.56
1 -2 -9 588.46 7.74
1 -2 -9 595.73 7.78
1 -2 -9 611.64 6.3
1 2 -9 594.21 5.77
1 -2 -8 1115.42 10.23
1 2 -8 1136.85 8.22
1 -2 -8 1093.32 10.12
1 -2 -8 1116.92 8.4
1 2 -8 1092.44 7.85
1 -2 -7 919.27 8.89
1 2 -7 893.12 6.71
1 -2 -7 871.45 8.68
1 -2 -7 881.68 7.4
1 2 -7 847.17 6.81
1 -2 -6 484.32 6.2
1 2 -6 494.64 4.59
1 -2 -6 514.34 6.46
1 -2 -6 501.46 5.51
1 2 -6 501.34 5.21
1 2 -5 123.07 2.09
1 -2 -5 130.66 3.12
1 -2 -5 130.34 3.16
1 -2 -5 127.26 2.75
1 2 -5 126.83 2.63
1 -2 -4 393.47 5.27
1 -2 -4 405.09 5.37
1 -2 -4 404.65 4.87
1 2 -4 407.41 4.65
1 -2 -3 209.82 2.05
1 -2 -3 213.14 3.87
1 -2 -3 216.61 3.53
1 2 -3 213.6 3.35
1 2 -2 893.31 6.81
1 2 -2 926.64 6.16
1 -2 -2 859.45 7.65
1 -2 -2 887.58 4.74
1 -2 -2 869.01 7.76
1 -2 -2 921.06 7.3
1 -2 -1 140.94 2.88
1 -2 -1 152.26 3.13
1 -2 -1 132.07 3.01
1 -2 -1 136.78 2.04
1 2 -1 144.8 2.57
1 2 -1 139.69 2.68
1 -2 0 201.42 3.57
1 -2 0 206.13 2.71
1 -2 0 200.2 3.71
1 2 0 207.89 3.28
1 2 0 212.46 3.26
1 -2 1 675.29 6.52
1 -2 1 675.42 5.3
1 -2 1 666.64 6.77
1 2 1 686.04 5.91
1 2 1 696.25 6.12
1 2 2 145.17 2.72
1 2 2 136.51 2.82
1 -2 2 132.38 3.01
1 -2 2 144.24 2.6
1 2 2 142.32 2.92
1 2 3 1003.79 6.7
1 2 3 976.39 7.81
1 2 3 981.78 7.12
1 -2 3 1004.82 7.33
1 -2 3 966.29 8.11
1 2 3 1007.94 8.05
1 2 4 1429.97 7.9
1 2 4 1418.13 9.92
1 2 4 1420.98 9.75
1 -2 4 1408.79 9.97
1 2 4 1446.66 8.59
1 2 5 1003.38 7.24
1 2 5 1014.18 8.61
1 -2 5 1043.09 8.29
1 2 5 1018.67 8.11
1 2 5 1014.32 6.82
1 2 5 1017.87 8.73
1 -2 5 1015.53 8.38
1 2 6 668.03 7.29
1 -2 6 708.27 7.31
1 2 6 684.35 6.89
1 2 6 663.78 5.86
1 -2 6 673.29 6.95
1 2 6 695.95 7.51
1 2 6 667.58 5.55
1 -2 7 143.39 3.25
1 2 7 139.37 3.49
1 -2 7 142.14 3.44
1 2 7 139.1 2.57
1 2 7 144.28 3.3
1 2 7 134.48 2.63
1 2 7 133.51 3.49
1 2 8 179.6 4.14
1 -2 8 176.41 3.65
1 -2 8 178.15 4.01
1 2 8 184.74 3.86
1 2 8 169.71 2.99
1 2 8 176.07 2.97
1 2 8 172.99 4.02
1 2 9 319.7 5.82
1 -2 9 326.27 5.62
1 2 9 319.48 5.29
1 2 9 308.16 4.03
1 2 9 317.86 5.62
1 2 10 71.76 2.77
1 2 10 70.04 2.9
1 -2 10 74.41 2.8
1 2 10 69.86 2.57
1 2 11 193.56 4.83
1 -2 11 184.91 4.58
1 2 11 197.58 4.49
1 2 11 188.54 4.67
1 2 12 76.28 3.2
1 -2 12 73.27 3
1 2 12 75.43 2.9
1 -2 13 211.88 4.16
1 2 13 213.53 3.89
1 2 13 202.42 5.32
1 -2 13 198.84 3.77
1 2 13 207.98 4.97
1 2 13 201.77 3.75
1 -2 14 17.38 1.19
1 2 14 16.8 1.66
1 -2 14 15.99 1.12
1 2 14 17.43 1.49
1 -2 14 17.03 1.24
1 2 14 16.73 1.15
1 2 14 15.68 1.11
1 2 14 17.19 1.13
1 2 15 133.12 3.29
1 -2 15 128.09 3.43
1 2 15 122.31 4.43
1 2 15 127.26 3.19
1 -2 15 125.36 3.17
1 -2 15 126.55 3.31
1 2 15 126.56 3.21
1 2 16 77.96 2.63
1 2 16 79.72 3.61
1 -2 16 77.77 2.55
1 2 16 76.63 2.53
1 -2 16 78.32 2.63
1 2 16 79.6 2.63
1 2 16 80.63 2.53
1 -2 16 77.72 2.71
1 2 17 50.73 2.14
1 2 17 48.3 2.06
1 -2 17 46 1.99
1 -2 17 48.06 2.18
1 -2 17 48.12 2.09
1 2 17 49.25 2.11
1 2 17 50.46 2.02
1 2 18 49.74 2.02
1 -2 18 47 2.18
1 2 18 47.59 2.07
1 2 18 48.02 2.1
1 -2 18 44.66 2.01
1 -2 18 46.87 2.02
1 2 18 45.71 2.05
1 -2 19 176.05 4.16
1 2 19 167.62 3.88
1 2 19 176.73 4
1 -2 19 166.5 3.76
1 -2 19 169.07 3.83
1 2 19 167.79 3.94
1 2 20 176.71 3.93
1 -2 20 181.42 4.18
1 -2 20 165.83 3.69
1 2 20 176.01 3.95
1 -2 20 175.05 3.81
1 2 20 168.08 3.93
1 -2 21 48.58 2.11
1 2 21 48.69 2.04
1 2 21 44.93 1.95
1 -2 21 49.14 1.94
1 -2 21 44.11 1.84
1 2 21 47.69 2.07
1 2 22 11.52 0.96
1 -2 22 11.81 0.92
1 2 22 10.49 0.9
1 -2 22 12.29 1.04
1 -2 22 10.36 0.85
1 2 22 11.85 1.01
1 2 23 12.56 0.91
1 2 23 15.36 1.05
1 -2 23 15.04 1.06
1 -2 23 14.07 0.91
1 2 23 14.57 1.05
1 -2 23 13.02 0.86
1 2 24 13.5 0.84
1 -2 24 14.58 0.85
1 2 24 14.52 0.96
1 2 24 15.53 0.98
1 -2 24 16 0.99
1 2 25 12.46 0.79
1 -2 25 10.24 0.62
1 -2 25 12.19 0.78
1 2 25 10.26 0.62
1 2 25 11.02 0.76
1 2 26 6.94 0.52
1 -2 26 7.31 0.52
1 2 26 7.11 0.51
1 -3 -25 18.9 0.83
1 3 -24 25.95 1.08
1 -3 -24 27.93 1.16
1 -3 -24 26.34 1.03
1 3 -24 25.05 1.12
1 -3 -23 35.43 1.42
1 -3 -23 33.53 1.31
1 3 -23 32.49 1.41
1 3 -23 34.01 1.4
1 3 -22 12.23 0.93
1 -3 -22 12.52 0.93
1 -3 -22 12.61 0.89
1 3 -22 11.36 0.94
1 -3 -21 1.97 0.44
1 3 -21 1.53 0.4
1 -3 -21 2.01 0.48
1 -3 -21 1.75 0.39
1 3 -21 1.58 0.4
1 -3 -20 43.78 1.78
1 -3 -20 46.91 1.92
1 -3 -20 44.81 1.85
1 3 -20 43.52 2.01
1 3 -20 44.92 1.97
1 -3 -20 43.64 1.7
1 3 -19 73.76 2.61
1 -3 -19 78.54 2.52
1 -3 -19 72.89 2.41
1 3 -19 71.8 2.72
1 -3 -19 77.8 2.48
1 -3 -18 87.71 2.65
1 -3 -18 82.24 2.6
1 3 -18 80.8 2.93
1 -3 -18 85.41 2.65
1 3 -18 80.88 2.78
1 3 -18 82.78 2.27
1 -3 -17 93.13 2.72
1 -3 -17 84.22 2.62
1 3 -17 86.5 3.03
1 3 -17 87.41 2.91
1 -3 -17 90.67 2.77
1 3 -17 86.04 2.38
1 -3 -16 148.18 3.39
1 -3 -16 138.89 3.35
1 3 -16 141.92 3.86
1 -3 -16 149.36 3.55
1 3 -16 137.19 3.64
1 3 -16 143.06 3.1
1 3 -15 19.99 1.4
1 -3 -15 19.24 1.29
1 -3 -15 20.07 1.24
1 -3 -15 18.69 1.85
1 -3 -15 19.79 1.26
1 3 -15 19.31 1.44
1 -3 -15 16.07 1.77
1 3 -15 19.45 1.25
1 3 -15 20.93 1.2
1 -3 -14 30 2.29
1 -3 -14 32.9 1.66
1 -3 -14 34.03 1.57
1 -3 -14 30.74 1.53
1 3 -14 33.31 1.83
1 -3 -14 31.03 2.4
1 3 -14 32.71 1.5
1 3 -14 32.29 1.58
1 -3 -14 33.2 1.56
1 3 -14 31.5 1.72
1 -3 -14 32.8 1.48
1 -3 -13 224.53 3.84
1 3 -13 222.22 3.79
1 -3 -13 221.79 3.96
1 -3 -13 229.18 4.2
1 -3 -13 225.75 3.9
1 -3 -13 209.31 5.83
1 -3 -13 206.45 3.82
1 3 -13 225.03 4.64
1 -3 -13 199.97 5.84
1 3 -13 211.26 3.99
1 3 -13 216.69 4.4
1 -3 -12 136.32 3.02
1 -3 -12 137.39 3.19
1 -3 -12 136.7 2.94
1 -3 -12 124.48 2.85
1 -3 -12 131.71 4.51
1 3 -12 141.05 3.53
1 3 -12 135.96 2.91
1 -3 -12 133.48 2.95
1 -3 -12 121.98 4.48
1 3 -12 126.49 3.04
1 3 -12 129.76 3.32
1 3 -11 57.92 1.87
1 -3 -11 58.21 2.02
1 -3 -11 57.49 1.86
1 3 -11 59.87 2.23
1 -3 -11 54.16 2.83
1 -3 -11 50.83 2.8
1 -3 -11 56.92 1.88
1 -3 -11 58.78 1.93
1 3 -11 55.34 2.09
1 -3 -10 119.97 4.01
1 -3 -10 108.49 3.92
1 -3 -10 113.14 3.41
1 -3 -9 73.13 3.16
1 -3 -9 76.46 2.77
1 -3 -9 80.62 3.16
1 -3 -8 132.51 4.09
1 -3 -8 137.34 3.64
1 -3 -8 145.06 4.08
1 3 -8 149.37 3.48
1 -3 -7 9.31 1.1
1 -3 -7 10.43 1.03
1 3 -7 10.75 0.94
1 -3 -6 176.89 4.46
1 -3 -6 183.07 4.11
1 3 -5 172.25 3.66
1 -3 -5 165.52 4.24
1 -3 -4 255.1 4.87
1 -3 -4 253.29 5.1
1 3 -4 268.18 4.55
1 3 -3 126.97 3.15
1 -3 -3 125.09 3.36
1 -3 -3 121.05 3.5
1 -3 -3 115.32 3.21
1 3 -3 122.65 2.62
1 -3 -2 275.83 4.91
1 -3 -2 266.28 3.55
1 -3 -2 266.41 5.15
1 -3 -2 262.75 4.81
1 3 -2 275.46 4.62
1 3 -2 264.27 4.05
1 3 -1 1164.16 8.96
1 -3 -1 1119.77 9.98
1 -3 -1 1201.87 10.02
1 -3 -1 1163.4 7.73
1 -3 -1 1161.3 10.68
1 3 -1 1218.45 9.64
1 -3 0 240.53 4.67
1 -3 0 246.3 3.74
1 3 0 263 4.52
1 -3 0 255.38 4.99
1 3 0 265.58 4.52
1 -3 1 264.81 4.06
1 3 1 276.84 4.74
1 -3 1 264.17 5.02
1 3 1 275.02 4.56
1 -3 2 61.69 2.41
1 -3 2 62.17 2.05
1 3 2 61.95 2.19
1 3 2 66.18 2.41
1 3 3 104.95 2.78
1 -3 3 104.31 2.78
1 3 3 99.51 2.76
1 -3 3 97.07 3.02
1 3 3 110.25 3.2
1 3 4 481.36 5.97
1 3 4 478.48 6.68
1 -3 4 483.3 6.64
1 3 4 489.95 6.94
1 3 5 545.88 7.39
1 3 5 545.15 6.39
1 -3 5 524.93 6.75
1 3 5 528.21 6.28
1 3 5 551.59 7.52
1 -3 5 565.85 7.2
1 3 6 340.04 6.1
1 3 6 333.3 5.03
1 3 6 334.86 5.91
1 -3 6 314.54 5.47
1 3 6 311.92 4.86
1 -3 6 336.82 5.52
1 3 7 334.13 5.09
1 -3 7 308.59 5.67
1 3 7 312.63 4.87
1 -3 7 329.19 5.47
1 3 7 327.47 6.1
1 3 7 318.51 5.96
1 3 8 144.99 3.4
1 -3 8 143.9 3.64
1 3 8 140.87 4.13
1 3 8 143.78 4.18
1 -3 8 142.96 4.04
1 3 8 135.9 3.2
1 3 9 250.48 5.66
1 3 9 241.7 5.61
1 -3 9 248.2 5.5
1 3 9 245.19 5.41
1 3 9 238.48 4.24
1 3 10 119.35 4.09
1 3 10 115.89 4.01
1 -3 10 119.71 3.95
1 3 10 118.49 3.9
1 3 11 174.74 3.51
1 3 11 183.9 3.62
1 3 11 173.65 5.09
1 -3 11 175.95 3.69
1 -3 11 167.84 4.83
1 -3 11 174.81 3.85
1 3 11 168.9 4.76
1 3 11 162.13 4.87
1 -3 12 25.94 1.54
1 -3 12 23.65 1.24
1 3 12 24.85 1.37
1 3 12 27.59 1.46
1 3 12 27.7 2.16
1 -3 12 25.89 1.47
1 3 12 24.91 2.01
1 -3 12 24.69 1.89
1 3 12 23.18 1.82
1 3 12 23.81 1.31
1 3 13 43.02 1.86
1 -3 13 41.87 1.89
1 -3 13 42.21 2.57
1 3 13 40.69 2.46
1 3 13 43.37 1.87
1 -3 13 42.31 1.99
1 3 13 43.99 2.76
1 3 13 42.82 1.79
1 -3 14 51.15 2.22
1 3 14 48.58 2.98
1 3 14 52.1 2.11
1 3 14 51.01 2.09
1 -3 14 47.78 2.05
1 -3 14 47.98 2.81
1 3 14 49.47 2.78
1 3 14 49.77 1.99
1 -3 15 133.69 3.65
1 3 15 131.95 3.42
1 3 15 127.25 4.82
1 3 15 131.41 3.33
1 -3 15 126.35 3.37
1 3 15 129.79 3.27
1 3 16 165.61 3.86
1 3 16 159.93 3.72
1 -3 16 153.24 3.72
1 -3 16 160.28 3.98
1 3 16 148.98 3.58
1 3 17 99.85 3.07
1 3 17 99.71 2.92
1 -3 17 99.19 2.98
1 -3 17 99.42 3.15
1 3 17 96.3 2.91
1 3 18 114.26 3.26
1 -3 18 112.69 3.32
1 -3 18 110.84 3.12
1 3 18 105.78 3.03
1 3 18 102.92 2.93
1 3 18 110 3.07
1 -3 19 73.1 2.61
1 3 19 67.78 2.42
1 3 19 73.3 2.35
1 -3 19 67.84 2.38
1 3 19 68.04 2.4
1 3 19 75.69 2.59
1 -3 20 6.73 0.82
1 3 20 6.54 0.77
1 3 20 6.44 0.78
1 -3 20 5.86 0.72
1 3 20 6.42 0.75
1 3 21 50.53 1.97
1 -3 21 55.7 2.09
1 -3 21 51.16 1.9
1 3 21 52.96 1.98
1 3 21 51.19 1.93
1 3 22 14.01 0.98
1 -3 22 15.31 0.98
1 3 22 15.4 1.02
1 3 22 14.25 0.98
1 -3 22 15.77 1.05
1 3 23 22.22 1.12
1 3 23 20.41 1.06
1 -3 23 20.88 1.03
1 3 23 20.75 1.07
1 -3 23 22.48 1.14
1 3 24 12.27 0.75
1 3 24 11.14 0.7
1 -3 24 11.48 0.68
1 3 24 10.56 0.69
1 -3 24 11.8 0.75
1 -3 25 28.06 0.96
1 -4 -23 2.1 0.3
1 4 -23 1.69 0.28
1 -4 -22 4.2 0.46
1 -4 -22 3.89 0.41
1 4 -22 4.37 0.48
1 -4 -21 1.2 0.28
1 4 -21 0.87 0.25
1 -4 -21 1.15 0.31
1 -4 -21 0.92 0.23
1 -4 -21 1.27 0.26
1 4 -21 1.57 0.36
1 -4 -20 6.71 0.65
1 4 -20 7.22 0.74
1 -4 -20 6.58 0.68
1 -4 -20 7.31 0.67
1 4 -20 6.77 0.68
1 -4 -20 6.77 0.65
1 4 -19 3.02 0.41
1 -4 -19 2.71 0.47
1 4 -19 2.41 0.46
1 -4 -19 2.49 0.44
1 -4 -19 2.33 0.42
1 4 -19 3.98 0.59
1 4 -18 20.98 1.37
1 -4 -18 20.68 1.22
1 -4 -18 21.1 1.24
1 4 -18 20.31 1.31
1 4 -18 20.95 1.19
1 -4 -18 21.06 1.27
1 4 -18 19.65 1.06
1 4 -17 91.07 2.92
1 -4 -17 92.96 2.63
1 -4 -17 88.73 2.59
1 4 -17 88.88 2.83
1 4 -17 84.62 2.54
1 -4 -17 95.28 2.76
1 4 -17 88.71 2.37
1 4 -16 141.62 3.74
1 -4 -16 154.87 3.43
1 -4 -16 144.17 3.34
1 4 -16 152.51 3.79
1 -4 -16 147.2 3.5
1 4 -16 138.17 3.37
1 4 -16 148.01 3.18
1 -4 -15 84.23 2.7
1 -4 -15 85.31 2.54
1 -4 -15 77.73 2.46
1 4 -15 85.88 2.86
1 4 -15 81.25 2.86
1 4 -15 75.36 2.55
1 4 -15 82.44 2.42
1 -4 -14 261.31 4.39
1 -4 -14 249.79 4.38
1 4 -14 262.26 4.99
1 -4 -14 265.71 4.82
1 -4 -14 273.09 4.27
1 -4 -14 262.07 4.54
1 4 -14 251.34 4.71
1 4 -14 256.54 5.06
1 4 -14 257.79 4.37
1 -4 -13 49.2 2.01
1 -4 -13 47.2 1.86
1 -4 -13 47.3 1.91
1 4 -13 49.26 2.19
1 -4 -13 47.24 2.06
1 -4 -13 49.53 1.88
1 4 -13 46.86 2.07
1 4 -13 47.53 2.18
1 4 -13 50.48 1.96
1 -4 -12 116.58 2.91
1 -4 -12 117.47 2.87
1 -4 -12 113.59 2.87
1 4 -12 118.68 3.31
1 -4 -12 115.92 3.06
1 -4 -12 106.01 4.6
1 4 -12 112.12 3.18
1 -4 -12 119.62 3.17
1 4 -12 120.82 3.44
1 4 -12 116.87 2.94
1 -4 -11 77.31 2.36
1 -4 -11 77.97 3.55
1 -4 -11 78.3 2.32
1 4 -11 81.24 2.71
1 -4 -11 75.31 2.3
1 -4 -11 80.82 2.49
1 -4 -11 73.13 3.76
1 4 -11 77.13 2.63
1 -4 -11 78.67 2.58
1 4 -11 83.46 2.81
1 4 -11 78.86 2.41
1 -4 -10 77.23 2.39
1 -4 -10 79.38 2.42
1 -4 -10 75.68 3.42
1 -4 -10 73.11 2.22
1 4 -10 74.59 2.56
1 -4 -10 71.83 2.2
1 4 -10 80.12 2.69
1 -4 -10 70.67 3.62
1 4 -10 75.04 2.54
1 -4 -10 69.95 3.16
1 -4 -10 79.41 2.52
1 4 -10 75.9 2.34
1 -4 -9 42.52 1.75
1 -4 -9 44.38 2.54
1 4 -9 44.59 1.95
1 -4 -9 41.5 1.68
1 -4 -9 38.09 1.57
1 -4 -9 43.15 1.75
1 -4 -9 41.87 2.73
1 4 -9 41.96 1.89
1 -4 -9 37.63 2.3
1 4 -9 42.83 2.17
1 -4 -9 43.81 1.86
1 4 -9 42.66 1.74
1 4 -9 43.37 1.96
1 -4 -8 23.53 1.83
1 -4 -8 23.72 1.32
1 4 -8 24.38 1.42
1 -4 -8 21.56 1.16
1 -4 -8 24.34 1.26
1 4 -8 23.73 1.44
1 -4 -8 21.42 1.9
1 4 -8 24.62 1.43
1 -4 -8 21.4 1.72
1 4 -8 24.62 1.67
1 -4 -8 22.55 1.25
1 -4 -8 24.35 1.35
1 -4 -8 22.26 1.29
1 4 -8 24.52 1.31
1 -4 -7 109.68 2.78
1 -4 -7 109.94 3.82
1 -4 -7 98.81 2.41
1 -4 -7 97.54 3.92
1 4 -7 104.06 2.87
1 -4 -7 96.5 3.61
1 4 -7 108.02 3.46
1 -4 -7 103.57 2.7
1 -4 -7 100.57 2.64
1 4 -7 109.39 3.01
1 4 -7 108.58 2.67
1 -4 -6 78.74 2.32
1 4 -6 78.81 2.48
1 -4 -6 80.26 3.17
1 -4 -6 75.19 3.37
1 4 -6 74.79 2.41
1 -4 -6 68.73 3.03
1 4 -6 77.57 2.93
1 -4 -6 69.24 2.16
1 -4 -6 73.7 2.24
1 4 -6 75.44 2.18
1 4 -5 13.74 1.05
1 -4 -5 13.74 1.31
1 -4 -5 12.27 1.41
1 4 -5 13.76 1.03
1 -4 -5 12.13 1.28
1 4 -5 13 1.24
1 -4 -5 11.73 0.89
1 4 -5 12.79 0.91
1 -4 -4 288.28 6.45
1 -4 -4 278.94 5.95
1 4 -4 298.45 5.75
1 -4 -3 313.39 5.83
1 -4 -3 298.68 6.45
1 4 -3 305.24 5.79
1 -4 -2 6.25 0.99
1 -4 -2 6.05 1.01
1 4 -2 8.36 1.05
1 -4 -1 83.5 3.28
1 4 -1 89.05 3.14
1 -4 -1 88.49 3.44
1 4 -1 89.5 2.97
1 4 0 255.32 5.16
1 -4 0 245.82 5.65
1 4 0 243.59 5.17
1 -4 1 207.33 5.11
1 4 1 209.49 4.79
1 4 1 217.38 4.94
1 -4 1 202.8 4.25
1 4 2 183.69 4.46
1 -4 2 193.67 4.89
1 4 2 191.86 4.73
1 4 3 308.64 6.17
1 4 3 296.5 5.64
1 -4 3 300.27 6.06
1 -4 4 39.37 2.19
1 4 4 37.57 2.21
1 -4 4 37.91 2.04
1 4 4 36.87 1.99
1 4 4 39.32 2.29
1 -4 5 81.53 2.39
1 4 5 82.57 2.33
1 -4 5 84.74 2.49
1 4 5 87.03 3.42
1 -4 5 80.13 3.04
1 4 5 80.81 2.93
1 4 5 86.7 3.45
1 -4 5 85.27 3.18
1 -4 5 79.41 2.48
1 -4 6 74.49 2.31
1 4 6 83.09 3.48
1 4 6 75.87 2.29
1 4 6 76.25 2.92
1 -4 6 80.59 2.48
1 4 6 76.53 3.28
1 -4 6 72.63 2.99
1 4 6 72.05 2.79
1 -4 6 79.66 3.01
1 -4 6 76.49 2.47
1 4 7 221.82 3.79
1 4 7 228.15 4.04
1 -4 7 221.56 4.01
1 4 7 238.57 5.17
1 4 7 233.59 5.87
1 -4 7 239.42 4.34
1 -4 7 213.64 5.29
1 4 7 206.89 4.72
1 4 7 233.39 5.93
1 -4 7 229.57 4.36
1 -4 8 431.36 5.64
1 4 8 429.1 5.47
1 4 8 448.54 5.78
1 4 8 440.24 8.3
1 -4 8 463.46 6.16
1 -4 8 440.1 7.92
1 4 8 405.58 6.56
1 4 8 441.47 8.27
1 -4 8 440.42 6.17
1 -4 9 15.35 1.12
1 4 9 16.89 1.15
1 4 9 18.42 1.25
1 4 9 17.54 1.74
1 -4 9 15.88 1.22
1 -4 9 15.92 1.59
1 4 9 17.08 1.71
1 -4 9 17.14 1.29
1 -4 10 230.08 4.19
1 4 10 240.69 4.3
1 4 10 251.32 4.49
1 4 10 234.98 6.31
1 -4 10 244.61 4.66
1 -4 10 221.38 5.9
1 4 10 253.62 6.57
1 -4 10 243.25 4.72
1 -4 11 173.48 3.66
1 4 11 185.58 3.86
1 4 11 190.32 4.01
1 4 11 187.44 5.81
1 -4 11 186.19 4.09
1 -4 11 178.18 5.39
1 4 11 183.16 5.73
1 -4 11 184.86 4.19
1 -4 12 61.3 2.18
1 -4 12 67.35 2.5
1 4 12 66.75 2.38
1 4 12 63.18 3.51
1 -4 12 64 3.25
1 4 12 63.13 3.47
1 4 12 67.7 2.44
1 -4 12 65.68 2.55
1 4 13 489.81 6.5
1 4 13 505.9 6.67
1 -4 13 505.9 6.83
1 -4 13 486.3 6.98
1 -4 14 30.4 1.51
1 4 14 32.75 1.73
1 4 14 30.81 1.71
1 -4 14 32.41 1.77
1 -4 14 31.62 1.83
1 -4 15 25.94 1.36
1 4 15 28.76 1.62
1 -4 15 28.17 1.62
1 4 15 28.51 1.59
1 -4 15 28.71 1.68
1 -4 16 2.48 0.44
1 4 16 2.7 0.57
1 -4 16 2.99 0.56
1 4 16 2.59 0.56
1 -4 16 3.25 0.58
1 -4 17 5.21 0.69
1 4 17 6.42 0.8
1 4 17 5.3 0.71
1 -4 17 6.08 0.74
1 4 17 4.84 0.61
1 -4 18 0.41 0.28
1 4 18 0.82 0.32
1 4 18 0.73 0.28
1 -4 18 0.01 0.3
1 4 18 0.25 0.23
1 4 18 0.77 0.35
1 4 19 10.11 0.87
1 4 19 10.29 0.91
1 4 19 8.62 0.78
1 -4 19 10.25 0.88
1 4 19 9.16 0.77
1 -4 19 10.48 0.92
1 4 20 6.5 0.61
1 -4 20 6.98 0.69
1 4 20 7.35 0.73
1 4 20 5.74 0.59
1 4 20 6.47 0.65
1 -4 20 6.99 0.71
1 4 21 16.29 0.96
1 4 21 14.42 0.94
1 -4 21 16.49 0.95
1 4 21 14.54 0.83
1 -4 21 16.91 1
1 -4 22 0.92 0.23
1 4 22 1.07 0.25
1 4 22 0.87 0.25
1 -4 22 1.18 0.26
1 4 23 6.74 0.48
1 4 23 6.25 0.49
1 -4 23 6.53 0.48
1 -4 23 6.86 0.5
1 5 -21 16.66 0.78
1 -5 -20 16.01 0.75
1 -5 -20 17.2 0.82
1 -5 -20 16.15 0.8
1 5 -20 17.48 0.91
1 -5 -19 16.36 0.87
1 -5 -19 17.06 0.84
1 5 -19 15.84 0.96
1 -5 -19 16.12 0.93
1 -5 -19 15.9 0.87
1 -5 -18 4.36 0.5
1 -5 -18 4.22 0.48
1 5 -18 3.84 0.46
1 -5 -18 3.87 0.48
1 5 -18 4.86 0.59
1 -5 -17 3.77 0.49
1 -5 -17 2.91 0.44
1 5 -17 3.27 0.48
1 -5 -17 3.69 0.53
1 5 -17 3.63 0.55
1 5 -16 22.1 1.35
1 -5 -16 21.81 1.17
1 -5 -16 21.28 1.16
1 -5 -16 21.02 1.24
1 5 -16 20.42 1.2
1 5 -15 30.82 1.67
1 -5 -15 31.99 1.58
1 -5 -15 31.78 1.45
1 -5 -15 32.47 1.49
1 5 -15 30.99 1.57
1 5 -15 30.9 1.4
1 -5 -14 105.37 2.67
1 -5 -14 102.7 2.7
1 5 -14 97.37 2.89
1 -5 -14 103.36 2.83
1 -5 -14 105.76 2.94
1 5 -14 103.46 2.66
1 5 -14 103.6 3.1
1 -5 -13 56.72 2.13
1 -5 -13 56.69 1.89
1 -5 -13 55.99 1.98
1 -5 -13 54.36 1.99
1 5 -13 55.7 2.34
1 5 -13 52.32 2.19
1 -5 -13 57.42 2.26
1 5 -13 57.07 2.04
1 -5 -12 295.81 4.48
1 5 -12 300.81 4.73
1 -5 -12 304.24 4.94
1 -5 -12 302.67 4.56
1 -5 -12 284.09 4.54
1 5 -12 279.94 5.11
1 -5 -12 307.23 5.14
1 5 -12 296.03 5.39
1 5 -11 69.41 2.33
1 -5 -11 67.4 2.18
1 -5 -11 66.89 2.22
1 -5 -11 70.79 2.41
1 5 -11 67.11 2.53
1 -5 -11 69.86 2.52
1 -5 -11 64.88 2.18
1 5 -11 68.92 2.61
1 -5 -10 17.12 1.13
1 -5 -10 16.4 1.11
1 -5 -10 16.13 1.15
1 -5 -10 17.34 1.21
1 5 -10 17.31 1.33
1 5 -10 16.82 1.33
1 -5 -10 18.76 1.34
1 5 -10 18.87 1.25
1 -5 -9 151.53 3.44
1 -5 -9 150.61 3.47
1 5 -9 154 3.87
1 -5 -9 154.62 3.29
1 -5 -9 148.16 3.24
1 5 -9 144.39 3.75
1 -5 -9 153.71 3.66
1 5 -9 156.67 3.51
1 -5 -8 113.42 3
1 -5 -8 108.75 2.78
1 -5 -8 108.59 2.76
1 5 -8 114.33 3
1 5 -8 107.64 3.25
1 -5 -8 114.29 3.02
1 -5 -8 113.38 3.13
1 5 -8 115.96 3.35
1 -5 -7 17.96 1.14
1 -5 -7 17.97 1.13
1 -5 -7 18.07 1.21
1 -5 -7 18.59 1.24
1 -5 -7 17.15 1.93
1 5 -7 19.1 1.4
1 -5 -7 14.94 1.65
1 5 -7 17.87 1.63
1 -5 -7 17.57 1.25
1 -5 -7 18.15 1.26
1 5 -7 18.14 1.35
1 5 -7 18.17 1.22
1 -5 -6 117.95 4.53
1 -5 -6 132.96 3.31
1 -5 -6 132.51 3.29
1 -5 -6 130.74 2.97
1 5 -6 139.48 3.58
1 -5 -6 120.22 4.87
1 5 -6 129.57 3.5
1 5 -6 127.09 4.3
1 -5 -6 130.44 3.28
1 5 -6 134.93 3.22
1 -5 -5 93.86 2.75
1 5 -5 99.01 2.75
1 -5 -5 86.53 3.88
1 -5 -5 96.21 2.52
1 -5 -5 97.84 2.86
1 -5 -5 92.6 4.19
1 5 -5 99.07 3.04
1 5 -5 94.12 3.69
1 -5 -5 96.35 2.8
1 5 -5 98.99 3.02
1 -5 -4 100.06 2.88
1 -5 -4 100.22 2.66
1 -5 -4 93.97 2.75
1 -5 -4 93.11 4.01
1 5 -4 101.81 3.01
1 5 -4 101.14 3.06
1 -5 -4 95.13 4.2
1 5 -4 96.66 3.76
1 -5 -4 93.98 2.74
1 5 -4 98.37 2.75
1 -5 -3 88.16 2.71
1 -5 -3 85.88 2.47
1 5 -3 89.18 2.86
1 -5 -3 86.21 3.96
1 5 -3 85.01 3.52
1 -5 -3 84.45 2.57
1 -5 -3 87.32 2.66
1 -5 -2 150.53 3.53
1 -5 -2 148.34 3.27
1 5 -2 151.77 3.68
1 -5 -2 138.16 4.91
1 5 -2 144.74 4.59
1 -5 -2 137.1 3.21
1 -5 -2 140.32 3.38
1 -5 -1 79.73 2.42
1 5 -1 83.67 2.77
1 -5 -1 80.81 3.69
1 5 -1 83.65 3.48
1 -5 -1 83.49 2.49
1 -5 -1 89.04 2.74
1 -5 -1 83.48 2.61
1 -5 0 22.27 1.39
1 5 0 21.53 1.23
1 -5 0 19.99 1.26
1 5 0 22.42 1.44
1 -5 0 20.72 1.86
1 5 0 20.54 1.75
1 -5 0 20.41 1.23
1 -5 0 21.63 1.36
1 -5 1 65.34 2.36
1 5 1 60.33 2.1
1 -5 1 58.91 2.15
1 5 1 64.05 2.38
1 5 1 59.37 2.94
1 -5 1 58.23 3.03
1 -5 1 67.18 2.2
1 -5 1 61.64 2.26
1 -5 2 172.82 3.8
1 5 2 164.8 3.51
1 -5 2 166.68 3.65
1 5 2 166.89 5.23
1 5 2 171.15 3.89
1 5 2 163.93 4.86
1 -5 2 161.63 4.97
1 5 2 164.21 4.96
1 -5 2 158.55 3.35
1 -5 2 165.44 3.72
1 -5 3 33.23 1.72
1 5 3 34.12 1.65
1 -5 3 34.52 1.71
1 5 3 34.13 2.39
1 5 3 32.96 2.27
1 5 3 35.82 1.8
1 5 3 34.17 2.23
1 -5 3 31.65 1.5
1 -5 3 34.46 1.77
1 -5 4 198.88 4.1
1 5 4 192.22 3.92
1 5 4 192.61 5.62
1 -5 4 195.8 4.02
1 5 4 198.87 5.81
1 5 4 202.89 4.24
1 5 4 185.88 5.15
1 -5 4 188.19 3.58
1 -5 4 195.49 4.16
1 -5 5 47.15 2.02
1 5 5 47.24 1.98
1 -5 5 48.29 2.05
1 5 5 50.49 2.98
1 5 5 44.34 2.54
1 5 5 44.62 2.78
1 -5 5 46.52 1.77
1 -5 5 47.46 2.08
1 -5 6 184.12 3.95
1 5 6 178.27 3.87
1 5 6 179.07 5.66
1 -5 6 183.71 4.01
1 -5 6 168.21 5.07
1 5 6 162.21 4.77
1 -5 6 172.44 3.35
1 5 6 175.73 5.62
1 -5 6 180.93 4.05
1 -5 7 170.3 3.81
1 5 7 176.08 3.86
1 -5 7 185.68 4.05
1 -5 7 165.98 5.13
1 5 7 155.99 4.64
1 -5 7 180.22 4.09
1 -5 8 22.61 1.42
1 5 8 20.81 1.27
1 5 8 22.41 1.46
1 -5 8 21.39 1.43
1 -5 8 21.48 1.49
1 -5 9 240.18 4.49
1 5 9 235.37 4.29
1 5 9 243.62 4.64
1 -5 9 250.62 4.77
1 -5 9 249.15 4.85
1 -5 10 69.3 2.39
1 5 10 68.49 2.33
1 5 10 70.46 2.51
1 -5 10 72.79 2.6
1 -5 10 75.43 2.69
1 -5 11 17.71 1.21
1 5 11 18.05 1.23
1 5 11 19.74 1.36
1 -5 11 18.88 1.33
1 -5 11 18.83 1.36
1 -5 12 58.09 2.12
1 5 12 58.89 2.2
1 5 12 61.64 2.35
1 -5 12 63.7 2.4
1 -5 12 61.32 2.4
1 -5 13 30.9 1.52
1 5 13 31.09 1.61
1 5 13 31.59 1.67
1 -5 13 32.43 1.7
1 -5 13 32.03 1.72
1 -5 14 60.52 2.04
1 5 14 62.87 2.24
1 5 14 63.18 2.33
1 -5 14 65.61 2.34
1 -5 14 65.34 2.38
1 -5 15 20.51 1.14
1 5 15 21.61 1.3
1 5 15 20.38 1.29
1 -5 15 20.99 1.29
1 -5 15 22.68 1.38
1 -5 16 0.68 0.25
1 5 16 1.11 0.37
1 5 16 0.87 0.34
1 -5 16 0.67 0.27
1 -5 16 0.68 0.3
1 -5 17 3.04 0.4
1 5 17 2.81 0.47
1 5 17 2.88 0.45
1 -5 17 3.6 0.5
1 -5 17 3.44 0.49
1 -5 18 2.67 0.43
1 5 18 2.69 0.4
1 5 18 2.81 0.45
1 5 18 2.72 0.41
1 -5 18 2.78 0.42
1 5 19 6.76 0.57
1 5 19 5.82 0.53
1 -5 19 6.74 0.59
1 5 19 7.08 0.63
1 -5 19 6.84 0.61
1 -5 20 21.41 0.93
1 5 20 22.82 0.92
1 5 20 22.05 0.99
1 -5 20 22.52 0.96
1 -6 -17 1.23 0.24
1 -6 -17 1.75 0.3
1 -6 -16 14.12 0.71
1 -6 -16 13.46 0.78
1 6 -16 13.5 0.78
1 -6 -16 12.87 0.81
1 -6 -15 3.33 0.39
1 -6 -15 3.98 0.41
1 -6 -15 3.34 0.45
1 6 -15 3.43 0.46
1 6 -14 11.59 0.87
1 -6 -14 11.37 0.83
1 -6 -14 11.45 0.74
1 -6 -14 11.68 0.74
1 6 -14 11.39 0.86
1 -6 -13 48.65 1.54
1 -6 -13 48.35 1.56
1 6 -13 47.1 1.81
1 -6 -13 47.27 1.7
1 6 -13 46.95 1.8
1 -6 -13 48.97 1.78
1 -6 -12 8.63 0.69
1 -6 -12 8.79 0.72
1 -6 -12 8.61 0.79
1 6 -12 9.6 0.87
1 -6 -12 7.89 0.78
1 6 -12 8.84 0.85
1 -6 -11 26.85 1.4
1 -6 -11 26.36 1.22
1 -6 -11 28.18 1.28
1 6 -11 26.95 1.5
1 -6 -11 26.77 1.42
1 -6 -11 23.99 1.13
1 -6 -10 29.67 1.33
1 -6 -10 31.5 1.57
1 -6 -10 32.48 1.38
1 -6 -10 31.95 1.4
1 6 -10 31.2 1.66
1 -6 -10 32.78 1.56
1 -6 -9 14.44 0.99
1 -6 -9 14.88 0.97
1 -6 -9 15.06 0.99
1 6 -9 14.72 1
1 6 -9 14.61 1.18
1 -6 -9 15.53 1.09
1 -6 -9 15.09 1.15
1 -6 -8 45.14 1.8
1 -6 -8 45.55 1.69
1 -6 -8 47.95 1.76
1 6 -8 41.28 1.76
1 6 -8 45.94 2.08
1 -6 -8 45.88 1.88
1 -6 -8 47.03 2
1 -6 -7 99.34 2.51
1 -6 -7 98.35 2.54
1 6 -7 88.87 2.68
1 -6 -7 95.6 2.68
1 6 -7 97.68 3.04
1 -6 -7 96.43 2.72
1 -6 -7 96.26 2.84
1 -6 -6 223.85 4.18
1 -6 -6 215.66 3.72
1 -6 -6 219.59 3.78
1 6 -6 225.98 4.64
1 -6 -6 218.29 4.06
1 -6 -6 216.63 4.27
1 -6 -6 223.53 4.26
1 -6 -5 151.11 3.5
1 -6 -5 155.57 3.2
1 -6 -5 153.41 3.21
1 6 -5 154.1 3.85
1 -6 -5 149.06 3.34
1 -6 -5 151.78 3.56
1 -6 -5 156.15 3.57
1 -6 -4 141.68 3.44
1 -6 -4 139.6 3.04
1 6 -4 134.47 3.62
1 -6 -4 130.78 3.1
1 -6 -4 131.42 3.3
1 -6 -4 139.48 3.38
1 -6 -3 81.37 2.64
1 -6 -3 79.02 2.28
1 6 -3 81.74 2.83
1 -6 -3 76.31 2.49
1 -6 -3 80.2 2.59
1 -6 -2 25.45 1.5
1 6 -2 25.59 1.6
1 -6 -2 24.45 1.42
1 -6 -2 28.35 1.57
1 -6 -1 13.73 1.15
1 -6 -1 16.03 1.23
1 -6 -1 14.2 1.05
1 6 -1 12.83 1.18
1 -6 -1 14.72 1.13
1 -6 0 146.54 3.61
1 6 0 127.39 3.04
1 -6 0 144.1 3.21
1 6 0 148.64 3.72
1 -6 0 130.9 3.19
1 -6 0 144.71 3.5
1 -6 1 44.39 2.01
1 6 1 41.4 1.78
1 -6 1 45.55 1.85
1 6 1 42.89 2
1 -6 1 38.53 1.73
1 -6 1 46.11 2.12
1 -6 2 91.08 2.85
1 6 2 79.85 2.5
1 -6 2 85.2 2.52
1 6 2 88.83 2.83
1 -6 2 80.54 2.42
1 -6 2 88.84 2.77
1 -6 3 14.7 1.19
1 6 3 14.63 1.11
1 -6 3 12.78 1.02
1 -6 3 12.9 0.98
1 -6 3 13.84 1.19
1 -6 4 15.04 1.22
1 6 4 15.13 1.13
1 -6 4 14.88 1.1
1 -6 4 14.72 1.03
1 -6 4 15.04 1.19
1 6 5 111.12 3.03
1 -6 5 115.8 3
1 -6 5 113.67 3.16
1 -6 5 105.58 2.62
1 -6 5 112.93 3.14
1 -6 6 22.79 1.43
1 6 6 22.12 1.39
1 -6 6 23.63 1.39
1 -6 6 20.99 1.16
1 -6 6 24.97 1.51
1 -6 7 36.93 1.77
1 6 7 35.15 1.71
1 -6 7 36.99 1.71
1 -6 7 38.22 1.84
1 -6 8 18.3 1.24
1 6 8 19.1 1.26
1 -6 8 19.08 1.23
1 6 8 17.02 1.13
1 -6 8 19.73 1.32
1 -6 9 53.75 2.02
1 6 9 52.76 2.07
1 -6 9 52 1.98
1 6 9 46.4 1.76
1 -6 9 55.22 2.12
1 -6 10 22.61 1.29
1 -6 10 20.47 1.23
1 6 10 21.66 1.31
1 -6 10 23.55 1.38
1 -6 11 2.72 0.47
1 6 11 2.48 0.44
1 -6 11 2.78 0.52
1 -6 11 2.8 0.49
1 -6 12 4.92 0.57
1 6 12 5.35 0.58
1 6 12 4.63 0.6
1 -6 12 4.93 0.59
1 -6 12 5.19 0.63
1 6 13 7.31 0.66
1 6 13 7.64 0.75
1 -6 13 8.02 0.71
1 -6 13 8.15 0.69
1 -6 13 8.95 0.77
1 -6 14 7.69 0.62
1 6 14 7.89 0.66
1 6 14 7.86 0.72
1 -6 14 7.63 0.66
1 -6 14 8.42 0.72
1 -6 15 11.4 0.69
1 -6 15 11.15 0.74
1 6 15 11.77 0.8
1 6 15 11.1 0.74
1 -6 15 12.55 0.81
1 -6 16 9.66 0.56
1 6 16 10.98 0.65
1 6 16 9.15 0.65
1 -6 16 9.99 0.64
1 6 16 9.68 0.64
1 -6 16 10.93 0.7
1 -6 17 1.29 0.23
1 6 17 0.9 0.2
1 -6 17 1.35 0.22
1 -7 -12 1.9 0.27
1 -7 -12 2.23 0.3
1 7 -12 2.29 0.32
1 7 -11 5.91 0.54
1 -7 -11 5.57 0.46
1 -7 -11 5.55 0.5
1 7 -10 11.69 0.79
1 -7 -10 10.08 0.65
1 -7 -10 11.98 0.73
1 -7 -10 11.63 0.76
1 -7 -9 26.97 0.93
1 -7 -9 27.2 1.12
1 7 -9 25.39 1.2
1 -7 -9 27.09 1.18
1 -7 -8 9.22 0.74
1 -7 -8 9.21 0.57
1 -7 -8 8.01 0.56
1 7 -8 7.78 0.59
1 7 -8 9.13 0.78
1 -7 -8 9.99 0.72
1 -7 -7 23.33 1.02
1 -7 -7 25.4 1.14
1 -7 -7 25.8 0.98
1 7 -7 25.46 1.27
1 -7 -7 25.76 1.24
1 -7 -6 19.84 1
1 -7 -6 22.8 0.95
1 -7 -6 21.89 1.07
1 7 -6 20.38 1.08
1 7 -6 21.72 1.21
1 -7 -6 23.16 1.18
1 -7 -5 0.18 0.19
1 -7 -5 0.46 0.18
1 7 -5 0.81 0.32
1 -7 -5 0.57 0.26
1 7 -5 0.45 0.27
1 -7 -5 0.82 0.3
1 -7 -4 11.86 0.72
1 -7 -4 11.71 0.83
1 7 -4 12.23 0.92
1 7 -4 11.7 0.92
1 -7 -4 13.07 0.84
1 -7 -4 12.41 0.9
1 -7 -3 27.2 1.29
1 -7 -3 29.03 1.12
1 7 -3 28.88 1.43
1 7 -3 26.26 1.36
1 -7 -3 29.11 1.23
1 -7 -3 30 1.38
1 -7 -3 32.46 1.42
1 -7 -2 26.87 1.32
1 -7 -2 29.89 1.17
1 7 -2 29.84 1.49
1 7 -2 25.87 1.36
1 -7 -2 26.84 1.16
1 -7 -2 27.96 1.33
1 -7 -2 31.24 1.43
1 -7 -1 40.22 1.61
1 -7 -1 43.73 1.42
1 7 -1 41.35 1.75
1 -7 -1 39.27 1.38
1 -7 -1 41.45 1.58
1 -7 -1 44.87 1.72
1 -7 0 5.53 0.72
1 -7 0 3.34 0.54
1 -7 0 6.84 0.61
1 7 0 5.91 0.75
1 -7 0 3.4 0.42
1 -7 0 3.04 0.47
1 -7 1 10.97 0.88
1 7 1 11.19 0.78
1 7 1 12.38 0.98
1 -7 1 12.88 0.91
1 -7 1 11.41 0.81
1 7 2 3.15 0.46
1 -7 2 4.3 0.59
1 7 2 4.85 0.66
1 -7 2 3.71 0.47
1 -7 2 4.98 0.67
1 7 3 21.99 1.12
1 -7 3 25.43 1.29
1 7 3 26.33 1.36
1 -7 3 24.55 1.13
1 7 4 8.06 0.7
1 -7 4 10.43 0.85
1 -7 4 8.33 0.63
1 -7 4 8.84 0.77
1 7 4 7.91 0.75
1 -7 4 8.63 0.65
1 -7 5 23.37 1.22
1 7 5 22.65 1.14
1 -7 5 23.08 1.02
1 -7 5 26.32 1.26
1 7 5 23.1 1.21
1 -7 5 24.05 1.02
1 7 6 5.34 0.59
1 -7 6 5.93 0.63
1 -7 6 5.29 0.5
1 7 6 5.37 0.59
1 -7 6 6.64 0.65
1 -7 7 39.84 1.5
1 7 7 37.49 1.44
1 -7 7 36.81 1.24
1 7 7 34.9 1.34
1 -7 8 28.25 1.22
1 7 8 27.12 1.21
1 -7 8 24.27 0.98
1 7 8 24.8 1.05
1 -7 8 29.1 1.24
1 -7 9 6.6 0.58
1 7 9 7.27 0.63
1 -7 9 5.52 0.46
1 -7 9 6.63 0.59
1 -7 10 29.73 1.13
1 7 10 29.19 1.17
1 -7 10 31.02 1.16
1 -7 11 3.95 0.41
1 7 11 3.51 0.41
1 -7 11 3.87 0.41
1 7 12 10.56 0.63
1 -7 12 10.72 0.58
1 -7 12 11.9 0.64
2 0 -25 0.12 0.13
2 0 -24 12.1 0.83
2 0 -23 0.03 0.19
2 0 -22 9.51 0.77
2 0 -22 10.05 0.78
2 0 -22 10.17 0.93
2 0 -21 0.48 0.24
2 0 -21 0.26 0.26
2 0 -21 0.31 0.28
2 0 -21 0.23 0.35
2 0 -20 260.79 4.34
2 0 -20 265.32 4.4
2 0 -20 270.45 5.11
2 0 -19 0.76 0.38
2 0 -19 0.63 0.35
2 0 -19 0.71 0.38
2 0 -19 0.75 0.4
2 0 -18 40.09 1.69
2 0 -18 36.27 1.66
2 0 -18 36.58 1.69
2 0 -17 0.19 0.23
2 0 -17 1.34 0.39
2 0 -16 438.24 5.48
2 0 -16 442.52 5.18
2 0 -16 428.81 5.5
2 0 -15 0.74 0.35
2 0 -15 1.32 0.44
2 0 -15 0.99 0.69
2 0 -14 396.97 5.14
2 0 -14 397.93 4.72
2 0 -13 0.49 0.29
2 0 -13 0.88 0.5
2 0 -13 0.26 0.23
2 0 -13 0.64 0.33
2 0 -13 0.23 0.33
2 0 -12 299.67 4.73
2 0 -12 293.71 6.35
2 0 -11 -0.16 0.27
2 0 -10 252.91 5.43
2 0 -9 -0.14 0.29
2 0 -8 1343.36 11.41
2 0 -7 0.88 0.48
2 0 -6 906.19 8.62
2 0 -6 891.64 7.01
2 0 -5 0.41 0.26
2 0 -5 0.28 0.24
2 0 -4 11.49 0.92
2 0 -4 7.96 0.67
2 0 -3 0.25 0.21
2 0 -2 1433.99 9.66
2 0 -2 1429.13 8.86
2 0 -2 1425.86 8.58
2 0 -1 2.2 0.55
2 0 -1 1.5 0.46
2 0 0 247.62 4.03
2 0 0 248.12 3.84
2 0 0 247.82 3.86
2 0 1 1.79 0.52
2 0 1 1.03 0.4
2 0 2 1170.75 8.49
2 0 2 1165.99 9.52
2 0 3 0 0.26
2 0 3 0.28 0.33
2 0 4 56.42 2.27
2 0 4 59.23 2.08
2 0 5 2.27 0.47
2 0 5 0.48 0.36
2 0 6 892.29 9.59
2 0 7 0.91 0.48
2 0 8 541.58 7.98
2 0 9 0 0.41
2 0 10 300.67 6.31
2 0 11 -0.4 0.5
2 0 12 45.85 1.94
2 0 12 42.67 2.53
2 0 12 43.99 1.93
2 0 13 1.36 0.42
2 0 13 0.5 0.34
2 0 13 0.54 0.46
2 0 14 55.02 2.06
2 0 14 61.5 2.33
2 0 14 59.43 3.1
2 0 14 60.6 2.38
2 0 15 -0.17 0.33
2 0 15 -0.21 0.35
2 0 15 0.11 0.53
2 0 15 0.56 0.37
2 0 16 266.92 6.84
2 0 16 255.36 4.58
2 0 16 269.08 4.96
2 0 16 265.48 5.14
2 0 17 0.23 0.27
2 0 17 0.18 0.36
2 0 17 0.5 0.43
2 0 18 63.35 2.33
2 0 18 65.61 2.48
2 0 18 67.17 2.59
2 0 19 -0.09 0.27
2 0 19 -0.43 0.35
2 0 19 -0.11 0.34
2 0 20 38.67 1.74
2 0 20 39.48 1.8
2 0 20 39.97 1.94
2 0 21 -0.23 0.27
2 0 21 0.19 0.19
2 0 21 -0.25 0.34
2 0 22 20.22 1.15
2 0 22 17.8 1.17
2 0 23 0.62 0.26
2 0 23 -0.14 0.21
2 0 24 61.81 1.62
2 0 24 60.35 1.78
2 0 25 0 0.13
2 1 -25 4.6 0.47
2 -1 -24 6.8 0.55
2 1 -24 7.34 0.68
2 -1 -23 2.28 0.38
2 1 -23 2.88 0.48
2 -1 -23 2.36 0.38
2 -1 -22 1.06 0.33
2 1 -22 0.57 0.3
2 -1 -22 0.87 0.3
2 1 -21 15.55 0.93
2 -1 -21 17.12 1.12
2 1 -21 15.81 1.25
2 -1 -21 16.18 1.13
2 1 -20 73.39 2.12
2 -1 -20 73.8 2.07
2 -1 -20 69.26 2.27
2 1 -20 65.69 2.61
2 -1 -20 68.77 2.4
2 1 -19 17.98 1.11
2 -1 -19 16.37 1.03
2 -1 -19 14.32 1.06
2 1 -19 14.43 1.08
2 1 -19 15.82 1.32
2 1 -18 18.2 1.14
2 -1 -18 18.31 1.12
2 -1 -18 16.9 1.17
2 1 -18 17.25 1.19
2 1 -18 17.28 1.39
2 1 -17 60.99 2.08
2 -1 -17 58.72 2.01
2 -1 -17 54.95 2.06
2 -1 -17 62.1 2.35
2 1 -17 55.91 2.12
2 1 -17 58.4 2.52
2 -1 -17 59.5 2.14
2 1 -16 59.21 2.05
2 -1 -16 57.52 2.04
2 -1 -16 55.53 2.03
2 1 -16 53.71 2.07
2 1 -16 56.4 2.45
2 1 -16 48.17 2.89
2 -1 -16 56.16 2.13
2 -1 -16 56.86 2.28
2 -1 -16 50.94 3.23
2 1 -15 131.74 3.11
2 -1 -15 133.04 2.67
2 -1 -15 125.52 2.97
2 1 -15 127.02 3.11
2 1 -15 118.35 4.38
2 1 -15 129.91 3.68
2 -1 -15 132.26 3.23
2 -1 -15 134.69 3.37
2 -1 -15 118.9 4.77
2 1 -14 88.41 2.47
2 1 -14 83.61 2.3
2 -1 -14 90.47 2.18
2 -1 -14 77.77 2.26
2 1 -14 73.46 3.35
2 1 -14 84.51 2.9
2 -1 -14 84.5 2.57
2 -1 -14 82.63 2.64
2 -1 -14 80.77 3.81
2 -1 -13 33.25 1.62
2 1 -13 34.88 1.45
2 -1 -13 36 1.37
2 -1 -13 31.29 1.39
2 1 -13 32.06 2.11
2 1 -13 37.38 1.87
2 -1 -13 35.77 1.68
2 1 -13 36.2 1.55
2 -1 -13 35.73 2.43
2 -1 -12 34.63 2.34
2 1 -12 39.58 1.6
2 1 -12 38.14 1.47
2 1 -12 35.03 2.11
2 1 -12 37.09 1.8
2 -1 -12 36.98 1.64
2 -1 -12 41.82 1.74
2 -1 -11 245.11 5.89
2 1 -11 249.68 5.34
2 -1 -10 232.05 5.52
2 1 -10 233.34 4.97
2 -1 -10 238.13 4.99
2 -1 -9 272.4 5.78
2 1 -9 273.95 5.08
2 -1 -9 284.73 5.36
2 -1 -8 525.52 7.7
2 -1 -8 542.44 7.25
2 1 -8 541.15 6.82
2 -1 -7 2894.9 16.6
2 -1 -7 2904.69 17.39
2 1 -6 829.54 7.5
2 -1 -6 847.53 8.72
2 -1 -5 68.78 2.55
2 1 -5 69.66 2.05
2 -1 -5 70.48 2.47
2 -1 -4 876.8 8.53
2 1 -3 444.48 4.6
2 1 -3 446.82 4.69
2 -1 -3 444.28 6.29
2 -1 -3 453.91 6.12
2 1 -2 46.29 1.6
2 -1 -2 43.42 1.92
2 1 -2 48.27 1.45
2 -1 -2 48.67 1.96
2 1 -1 253.22 3.96
2 -1 -1 264.34 4.67
2 -1 -1 265.19 4.56
2 1 0 83.99 2.42
2 -1 0 86.49 2.64
2 -1 0 85.21 2.61
2 1 1 934.3 8.37
2 -1 1 997.93 8.81
2 1 2 714.98 7.68
2 -1 2 750.49 7.75
2 -1 3 581.94 6.93
2 1 3 591.39 7.19
2 -1 3 604.12 7.33
2 -1 4 453.71 6.22
2 1 4 465.22 6.67
2 1 5 17.53 1.36
2 -1 5 16.66 1.25
2 -1 5 17.08 1.32
2 1 6 32.58 1.88
2 -1 6 33.82 1.79
2 -1 6 35.18 1.95
2 -1 7 278.06 5.19
2 -1 7 266.9 5.47
2 -1 8 306.06 6.09
2 1 8 330.41 6.32
2 1 9 30.75 2.04
2 -1 9 32.49 2.05
2 -1 10 1.49 0.58
2 1 10 1.44 0.54
2 -1 11 79.99 2.46
2 1 11 77.72 3.4
2 1 11 78.09 2.46
2 1 11 80.79 2.48
2 -1 11 79.46 2.56
2 -1 11 75.54 3.27
2 1 12 131.31 4.53
2 -1 12 129.57 3.24
2 1 12 127.23 3.24
2 1 12 133.12 3.23
2 1 12 127.65 3.28
2 -1 12 125.44 4.32
2 -1 12 127.77 3.39
2 -1 13 281.58 4.71
2 1 13 289.33 6.98
2 -1 13 297.35 5.02
2 1 13 300.98 5.11
2 1 13 302.97 5
2 -1 13 304.56 5.27
2 1 13 289.2 5.07
2 -1 13 282.69 6.6
2 -1 14 460.52 6.15
2 1 14 483.36 9.09
2 -1 14 508.42 6.65
2 1 14 498.4 6.68
2 1 14 461.71 5.84
2 -1 14 500.8 6.87
2 1 14 471.94 6.63
2 -1 15 48.76 2.05
2 1 15 48.84 3.01
2 1 15 49.75 1.96
2 -1 15 52.87 2.18
2 1 15 52.58 2.25
2 -1 15 52.2 2.28
2 1 15 50.3 2.25
2 -1 16 0.94 0.34
2 1 16 0.45 0.26
2 -1 16 1.08 0.44
2 1 16 1.08 0.46
2 -1 16 0.76 0.37
2 1 16 1.38 0.5
2 -1 17 37.72 1.83
2 1 17 38.14 1.76
2 -1 17 40.99 1.92
2 1 17 38.28 1.95
2 -1 17 39.38 2
2 1 17 38.93 1.99
2 -1 18 151.55 3.63
2 1 18 151.27 3.47
2 1 18 155.42 3.84
2 -1 18 157.09 3.93
2 1 18 151.17 3.85
2 -1 19 22.07 1.37
2 1 19 21.89 1.33
2 1 19 24.32 1.5
2 -1 19 23.34 1.51
2 1 19 22.17 1.49
2 1 20 14.36 1.05
2 1 20 14.27 1.14
2 -1 20 15.06 1.1
2 -1 20 14.55 1.16
2 1 20 14.32 1.17
2 1 21 20.09 1.17
2 1 21 17.24 1.16
2 -1 21 19.99 1.21
2 -1 21 18.31 1.23
2 1 21 20 1.31
2 1 22 12.27 0.87
2 1 22 12.75 0.93
2 -1 22 12.88 0.91
2 -1 22 12.08 0.94
2 1 22 12.21 0.97
2 -1 23 7.57 0.64
2 1 23 7.36 0.64
2 -1 23 7.98 0.7
2 1 23 8.31 0.65
2 1 23 7.35 0.7
2 -1 24 4.11 0.42
2 1 24 3.96 0.4
2 -1 24 3.92 0.45
2 1 24 3.59 0.45
2 -1 25 2.04 0.28
2 1 25 1.94 0.29
2 -2 -24 27.45 1.05
2 2 -24 26.52 1.16
2 -2 -23 5.9 0.57
2 2 -23 6.92 0.68
2 -2 -22 10 0.79
2 2 -22 10.71 0.92
2 2 -21 60.34 1.75
2 -2 -21 62.1 2.03
2 2 -21 60.15 2.28
2 2 -20 3.7 0.49
2 -2 -20 3.63 0.45
2 -2 -20 4.16 0.6
2 2 -20 4.2 0.71
2 -2 -20 2.97 0.45
2 2 -19 42.94 1.68
2 -2 -19 40.84 1.57
2 -2 -19 40.81 1.77
2 2 -19 42.33 2.11
2 -2 -19 40.22 1.71
2 -2 -19 42.81 1.94
2 2 -19 42.37 1.79
2 2 -18 34.77 1.57
2 -2 -18 36.39 1.55
2 -2 -18 33.95 1.64
2 -2 -18 36.35 1.82
2 2 -18 32.65 1.9
2 -2 -18 34.43 1.69
2 2 -18 34.06 1.67
2 2 -17 98.77 2.69
2 -2 -17 89.83 2.63
2 2 -17 90.73 3.16
2 -2 -17 91.14 2.79
2 -2 -17 95.35 2.92
2 2 -17 89.24 2.76
2 2 -16 74.4 2.35
2 -2 -16 72.78 2.56
2 -2 -16 69.96 2.31
2 2 -16 66.85 2.76
2 -2 -16 69.3 2.46
2 2 -16 69.07 2.45
2 2 -15 60.53 2.12
2 -2 -15 57.03 2.05
2 2 -15 56.64 2.5
2 -2 -15 55.12 3.35
2 -2 -15 61.44 2.36
2 -2 -15 58.14 2.29
2 2 -15 55.88 2.22
2 2 -14 73.26 2.3
2 -2 -14 69.05 2.21
2 2 -14 70.77 2.75
2 -2 -14 67.61 3.6
2 -2 -14 72.95 2.55
2 -2 -14 68.06 2.45
2 2 -14 68.97 2.44
2 2 -13 17.84 1.14
2 -2 -13 14.52 0.99
2 2 -13 15.25 1.29
2 -2 -13 14.46 1.63
2 -2 -13 17.31 1.23
2 2 -13 14.65 1.12
2 2 -12 13.8 0.97
2 -2 -12 13.58 0.93
2 2 -12 12.97 1.15
2 -2 -12 12.75 1.43
2 -2 -12 14.19 1.1
2 -2 -12 13.74 1.07
2 2 -12 13.57 1.05
2 -2 -12 14.53 1.04
2 -2 -11 44.38 2.72
2 2 -11 51.85 1.83
2 2 -11 46.81 1.7
2 -2 -11 46.97 1.67
2 2 -11 50.98 2.16
2 -2 -11 43.38 2.58
2 -2 -11 49.33 1.98
2 -2 -11 49.01 1.92
2 2 -11 49.09 1.93
2 -2 -11 49.31 1.84
2 2 -10 25.01 1.24
2 2 -10 22.27 1.14
2 2 -10 24.21 1.46
2 -2 -10 21.13 1.79
2 -2 -10 22.11 1.28
2 -2 -10 21.72 1.86
2 -2 -9 218.68 5.51
2 -2 -9 215.19 5.51
2 -2 -8 69.15 3.05
2 -2 -8 71.16 3.05
2 -2 -7 35.11 2.11
2 2 -7 37.12 1.9
2 -2 -6 212.91 5.06
2 2 -6 231.79 4.74
2 -2 -5 574.93 8.14
2 2 -5 578.06 7.45
2 2 -4 41.93 1.98
2 -2 -4 44.26 2.26
2 -2 -3 505.02 7.38
2 2 -3 520.15 6.9
2 2 -2 122.12 2.97
2 -2 -2 119.92 3.59
2 -2 -2 121.77 3.6
2 2 -2 129.26 3.43
2 2 -1 314.89 4.98
2 -2 -1 326.53 5.78
2 -2 -1 316.47 5.77
2 2 0 410.74 5.89
2 -2 0 427.93 6.59
2 2 0 414.87 6.09
2 -2 0 417.4 6.6
2 2 1 731.41 8.08
2 2 1 729.65 8.03
2 -2 1 740.27 8.75
2 2 2 336.9 5.7
2 2 2 342.19 5.49
2 -2 2 333.87 5.91
2 2 3 156.61 4.01
2 2 3 165.3 3.83
2 -2 3 167.63 4.17
2 2 4 719.61 8.81
2 -2 4 730.86 8.8
2 -2 5 1704.65 13.46
2 2 5 1684.5 13.95
2 2 5 1703.02 12.35
2 2 6 1159.26 11.91
2 2 6 1130.83 10.18
2 -2 7 1176.26 11.46
2 2 7 1174.14 10.27
2 -2 8 440.32 7.24
2 2 8 429.46 7.74
2 2 9 15.83 1.56
2 -2 9 17.81 1.54
2 2 10 39.4 1.77
2 2 10 38.93 2.51
2 2 10 40.27 1.77
2 -2 10 46 2.41
2 -2 10 38.7 1.65
2 -2 10 41.64 1.87
2 -2 11 80.34 2.5
2 2 11 83.93 2.65
2 2 11 85.68 3.79
2 2 11 86.78 2.69
2 -2 11 79.82 2.42
2 -2 11 84.16 2.72
2 2 12 18.75 1.29
2 2 12 17.97 1.81
2 2 12 19.83 1.34
2 -2 12 18.66 1.35
2 -2 12 18.96 1.22
2 -2 12 17.94 1.22
2 2 12 18.74 1.27
2 -2 13 107.82 3.01
2 2 13 114.94 4.56
2 2 13 116.38 3.27
2 -2 13 114.08 3.26
2 2 13 119.3 3.24
2 -2 13 109.46 2.93
2 2 13 111.69 3.14
2 -2 14 100.59 2.95
2 2 14 105.14 4.43
2 2 14 104.08 3.17
2 2 14 111.38 3.18
2 -2 14 99.23 2.82
2 -2 14 103.15 3.13
2 2 14 102.47 3.07
2 -2 15 107.6 3.1
2 2 15 107.16 2.81
2 2 15 108.96 3.23
2 2 15 112.87 3.21
2 -2 15 103.65 2.89
2 -2 15 111.71 3.29
2 2 15 106.6 3.18
2 2 16 110.33 2.88
2 2 16 110.81 3.3
2 2 16 113.16 3.29
2 -2 16 111.06 3.15
2 -2 16 108.97 2.96
2 -2 16 116.21 3.37
2 2 16 107.53 3.22
2 -2 17 30.64 1.67
2 2 17 31.17 1.55
2 2 17 32.95 1.83
2 -2 17 30.13 1.53
2 -2 17 31.62 1.78
2 2 17 30.42 1.71
2 -2 18 18.18 1.26
2 2 18 18.51 1.18
2 2 18 20.15 1.39
2 -2 18 18.22 1.34
2 -2 18 16.48 1.11
2 2 18 18.49 1.33
2 -2 19 137.83 3.32
2 2 19 137.81 3.1
2 2 19 136.45 3.48
2 -2 19 131.35 3.34
2 -2 19 130.07 2.94
2 2 19 131.52 3.37
2 -2 20 25.2 1.38
2 2 20 24.83 1.28
2 2 20 24.62 1.43
2 -2 20 23.35 1.17
2 -2 20 24.6 1.39
2 2 20 24.96 1.41
2 -2 21 15.63 1.03
2 2 21 15.16 0.94
2 2 21 14.64 1.04
2 -2 21 14.36 0.99
2 2 21 14.18 1.02
2 2 22 12.52 0.79
2 2 22 10.48 0.81
2 -2 22 10.9 0.8
2 2 22 11.31 0.83
2 -2 22 12.33 0.84
2 2 23 4.25 0.41
2 2 23 4.52 0.49
2 -2 23 3.58 0.36
2 -2 23 4.4 0.48
2 2 23 3.4 0.36
2 2 23 4.19 0.47
2 -2 23 4.48 0.46
2 2 24 4.48 0.41
2 2 24 4.81 0.44
2 -2 24 5.28 0.43
2 -3 -23 8.99 0.6
2 -3 -22 7.23 0.62
2 3 -22 6.88 0.65
2 3 -22 6.3 0.51
2 -3 -21 41.09 1.54
2 3 -21 38.06 1.65
2 -3 -21 37.35 1.34
2 3 -21 38.74 1.43
2 3 -21 39.1 1.28
2 -3 -20 32.77 1.45
2 3 -20 30.25 1.6
2 -3 -20 29.79 1.34
2 -3 -20 30.34 1.45
2 3 -20 28.51 1.36
2 3 -20 30.21 1.26
2 -3 -19 13.78 0.84
2 -3 -19 14.53 1.03
2 3 -19 15.27 1.2
2 -3 -19 14.52 1.03
2 -3 -19 14.57 1.07
2 3 -19 14.04 1.04
2 3 -19 14.63 0.95
2 -3 -18 41.14 1.76
2 3 -18 39.62 2
2 -3 -18 38.57 1.77
2 -3 -18 41.31 1.85
2 3 -18 39.09 1.8
2 3 -18 39.32 1.61
2 3 -17 101.63 2.69
2 -3 -17 96.92 2.72
2 3 -17 98 3.19
2 3 -17 92.6 2.86
2 -3 -17 97.19 2.89
2 -3 -17 97.58 2.93
2 3 -16 5.09 0.68
2 3 -16 2.74 0.63
2 -3 -16 3.22 0.57
2 -3 -16 2.93 0.6
2 -3 -16 3.24 0.61
2 3 -16 5.87 0.77
2 3 -15 8.11 0.82
2 -3 -15 6.45 0.74
2 3 -15 7.46 0.94
2 3 -15 7.6 0.88
2 -3 -15 7.79 0.89
2 -3 -15 6.65 0.81
2 3 -14 62.32 2.18
2 -3 -14 57.48 2.08
2 3 -14 58.82 2.56
2 -3 -14 59.86 2.38
2 -3 -14 57.05 2.29
2 3 -14 55.8 2.32
2 -3 -13 16.21 1.11
2 3 -13 16 1.35
2 -3 -13 14.34 1.7
2 3 -13 16.43 1.15
2 -3 -13 15.82 1.22
2 3 -13 16.5 1.26
2 -3 -13 16.84 1.16
2 3 -12 14.11 1.05
2 -3 -12 14.66 1.04
2 3 -12 12.9 1.18
2 -3 -12 14.08 1.06
2 -3 -12 12.26 1.61
2 -3 -12 14.57 1.14
2 3 -12 14.56 1.18
2 3 -11 71.09 2.28
2 -3 -11 65.14 2.15
2 3 -11 70.25 2.68
2 -3 -11 65.06 3.5
2 -3 -11 66.67 2.36
2 3 -11 67.48 2.48
2 -3 -11 66.61 2.28
2 -3 -10 28.99 1.49
2 3 -10 27.45 1.42
2 -3 -10 27.25 1.37
2 3 -10 28.69 1.7
2 -3 -10 25.09 2.16
2 -3 -10 26.26 1.49
2 3 -10 26.91 1.56
2 -3 -9 200.02 3.9
2 3 -9 193.09 3.65
2 -3 -9 188.91 3.49
2 -3 -9 184.6 5.66
2 -3 -9 192.91 3.74
2 -3 -9 192.19 3.84
2 3 -9 193.93 4.09
2 -3 -8 187.49 3.67
2 3 -8 174.38 3.39
2 -3 -8 179.7 5.38
2 3 -8 185.26 4.1
2 -3 -8 161.6 3.17
2 -3 -8 167.78 5.31
2 3 -8 187.94 4.74
2 -3 -8 178.08 3.51
2 -3 -8 167.86 3.51
2 3 -8 179.78 3.85
2 -3 -7 325.95 4.79
2 3 -7 335.12 4.59
2 -3 -7 325.56 4.64
2 -3 -7 337.61 7.18
2 -3 -7 319.11 7.18
2 3 -7 341.84 6.42
2 -3 -7 325.65 4.74
2 3 -7 331.39 5.1
2 -3 -6 44.35 1.75
2 3 -6 41.94 1.61
2 -3 -6 44.16 2.58
2 -3 -6 43.6 2.63
2 3 -6 45.89 2.35
2 3 -6 45.4 1.86
2 -3 -5 51.03 2.71
2 -3 -5 51.72 2.8
2 3 -5 54.96 2.58
2 -3 -4 95.05 3.63
2 -3 -4 90.14 3.63
2 3 -4 95.16 3.33
2 -3 -3 158.62 4.65
2 -3 -3 150.99 4.61
2 3 -3 167.43 4.41
2 3 -2 149.2 3.81
2 -3 -2 153.03 4.43
2 -3 -2 140.46 4.42
2 3 -2 144.84 4.08
2 3 -1 303.27 5.64
2 -3 -1 294.76 6.36
2 3 -1 287.34 5.68
2 3 0 115.35 3.57
2 3 0 105.53 3.46
2 -3 0 110.43 3.88
2 3 1 217.75 5.05
2 -3 1 218.33 5.42
2 3 1 212.58 4.93
2 3 2 34.84 2.1
2 3 2 32.14 1.93
2 -3 2 32.25 2.1
2 3 3 108.77 3.74
2 3 3 105.66 3.47
2 -3 3 110.49 3.83
2 3 4 352 6.9
2 3 4 341.9 6.18
2 -3 4 364.37 6.88
2 3 5 83.64 3.46
2 3 5 80.47 3.02
2 -3 5 87.61 3.4
2 -3 6 68.71 3
2 3 6 68.05 3.2
2 3 6 66.58 2.22
2 -3 6 63.48 2.15
2 -3 6 72.63 2.35
2 3 6 68.04 2.77
2 -3 7 10.41 1.21
2 3 7 9.24 1.26
2 3 7 9.23 0.87
2 3 7 10.04 0.86
2 -3 7 11.23 0.99
2 3 7 8.09 1
2 -3 7 9.31 0.85
2 -3 8 79.47 3.21
2 3 8 74.8 2.42
2 3 8 81.07 3.66
2 3 8 76.16 2.49
2 -3 8 74.68 2.41
2 -3 8 80.25 2.59
2 3 8 78.82 3
2 -3 8 75.69 2.41
2 3 9 36.28 1.75
2 -3 9 38.16 2.37
2 3 9 41.6 2.71
2 3 9 37.94 1.79
2 -3 9 37.5 1.74
2 -3 9 41.75 1.88
2 -3 9 36.75 1.73
2 -3 10 2.65 0.5
2 3 10 2.16 0.48
2 -3 10 1.98 0.59
2 3 10 2.31 0.51
2 -3 10 1.73 0.42
2 3 10 3.45 0.8
2 -3 10 1.87 0.46
2 3 11 30.63 1.67
2 3 11 29.93 2.42
2 3 11 29.93 1.67
2 -3 11 29.82 1.6
2 -3 11 31.06 1.67
2 -3 11 31.42 1.65
2 3 12 45.93 2.08
2 3 12 48.44 3.17
2 -3 12 49 2.13
2 3 12 47.03 2.1
2 -3 12 43.51 1.95
2 -3 12 42.61 1.94
2 3 13 222.61 4.61
2 -3 13 219.27 4.45
2 3 13 230.67 4.62
2 -3 13 217.3 4.43
2 3 14 73.28 2.67
2 3 14 75.15 2.69
2 -3 14 68.19 2.42
2 -3 14 71.41 2.54
2 -3 14 72.08 2.56
2 3 15 50.7 2.22
2 3 15 53.09 2.24
2 -3 15 48.23 2.02
2 -3 15 52.99 2.17
2 -3 15 51.69 2.17
2 3 16 12.62 0.95
2 3 16 11.13 1.07
2 3 16 13.38 1.13
2 -3 16 11.62 0.99
2 -3 16 11.85 1.03
2 3 16 12.85 1.03
2 -3 16 11.57 1.03
2 3 17 6.42 0.68
2 3 17 6.33 0.82
2 3 17 6 0.76
2 -3 17 5.43 0.69
2 -3 17 5.77 0.69
2 3 17 5.95 0.71
2 -3 17 6.26 0.73
2 -3 18 3.01 0.51
2 3 18 2.79 0.44
2 3 18 2.82 0.52
2 -3 18 2.64 0.47
2 -3 18 3.29 0.53
2 3 18 3.45 0.53
2 3 19 11.28 0.82
2 3 19 10.62 0.96
2 -3 19 11.2 0.85
2 -3 19 10.22 0.83
2 3 19 10.1 0.84
2 -3 19 10.57 0.88
2 3 20 5.62 0.55
2 3 20 5.39 0.65
2 -3 20 5.93 0.58
2 -3 20 4.07 0.48
2 3 20 4.8 0.55
2 -3 20 5.33 0.6
2 3 21 17.6 1.03
2 -3 21 17.28 0.87
2 3 21 16.21 0.88
2 -3 21 19.15 1.01
2 3 22 10.43 0.73
2 -3 22 10.76 0.59
2 -3 22 11.1 0.69
2 3 23 8.49 0.57
2 -4 -21 0.96 0.23
2 4 -21 0.68 0.18
2 -4 -20 3.7 0.45
2 -4 -20 3.56 0.42
2 -4 -20 3.51 0.45
2 4 -20 3.48 0.43
2 4 -20 3.27 0.37
2 -4 -19 11.34 0.81
2 -4 -19 10.13 0.77
2 -4 -19 11.72 0.85
2 4 -19 11.38 0.84
2 4 -19 10.43 0.71
2 -4 -18 25.74 1.33
2 -4 -18 25.86 1.29
2 -4 -18 24.6 1.32
2 4 -18 24.6 1.32
2 4 -18 25.18 1.19
2 -4 -17 7.03 0.72
2 -4 -17 8.73 0.86
2 -4 -17 6.43 0.73
2 4 -17 6.35 0.74
2 4 -17 7.71 0.73
2 -4 -16 10.56 0.9
2 -4 -16 9.24 0.9
2 -4 -16 9.8 0.94
2 4 -16 9.89 0.87
2 4 -16 9.22 0.91
2 -4 -15 150.26 3.28
2 -4 -15 148.38 3.65
2 -4 -15 144.01 3.54
2 4 -15 140.49 3.59
2 4 -15 153.85 3.35
2 -4 -14 49.53 1.93
2 -4 -14 48.55 2.16
2 -4 -14 46.67 2.07
2 4 -14 43.55 2.05
2 4 -14 48.79 1.96
2 -4 -14 47.83 1.93
2 -4 -13 188.7 3.73
2 -4 -13 174.42 3.98
2 4 -13 177.82 4.17
2 4 -13 187.87 3.85
2 -4 -13 190.03 3.86
2 -4 -12 16.74 1.15
2 4 -12 15.49 1.17
2 -4 -12 15.55 1.22
2 4 -12 16.08 1.31
2 4 -12 17 1.19
2 -4 -12 16.83 1.2
2 -4 -11 22.99 1.38
2 -4 -11 21.85 1.3
2 4 -11 20.67 1.35
2 -4 -11 21.28 1.39
2 4 -11 21.82 1.48
2 4 -11 21.93 1.34
2 -4 -10 52.73 2.11
2 -4 -10 51.68 1.98
2 4 -10 48.55 2.09
2 -4 -10 50.77 2.05
2 -4 -10 51.65 2.12
2 4 -10 51.72 2.26
2 4 -10 49.6 2.01
2 -4 -9 3.06 0.58
2 4 -9 2.64 0.58
2 -4 -9 3.14 0.9
2 -4 -9 3.34 0.56
2 -4 -9 2.59 0.8
2 -4 -9 4.07 0.67
2 -4 -9 3.16 0.57
2 4 -9 2.89 0.56
2 4 -9 3.77 0.68
2 -4 -8 152.22 3.58
2 -4 -8 140.16 3.2
2 -4 -8 145.83 5.08
2 4 -8 140.21 3.41
2 4 -8 142.24 3.59
2 -4 -8 131.97 5.2
2 4 -8 145.26 4.59
2 -4 -8 141.86 3.35
2 -4 -8 145.19 3.5
2 4 -8 144.18 3.73
2 4 -8 142.23 3.3
2 -4 -7 43.45 1.92
2 -4 -7 40.73 2.66
2 4 -7 41.53 1.9
2 4 -7 42.38 1.96
2 -4 -7 40.66 2.87
2 4 -7 39.69 2.41
2 -4 -7 41.63 1.79
2 -4 -7 41.63 1.85
2 4 -7 43 2.01
2 4 -7 42.31 1.79
2 -4 -6 74.57 2.47
2 -4 -6 72.65 3.48
2 4 -6 67.13 2.44
2 4 -6 71.46 2.53
2 -4 -6 67.7 3.64
2 4 -6 71.36 3.25
2 -4 -6 68.29 2.25
2 -4 -6 71.61 2.38
2 -4 -6 71.07 2.21
2 4 -6 75.43 2.63
2 4 -6 68.92 2.24
2 -4 -5 15.72 1.14
2 -4 -5 16.51 1.08
2 -4 -5 16.18 1.64
2 4 -5 16.19 1.23
2 4 -5 17.99 1.28
2 -4 -5 15.02 1.69
2 4 -5 16.99 1.6
2 -4 -5 15.55 1.07
2 -4 -5 15.56 1.1
2 -4 -5 16.6 1.06
2 4 -5 16.1 1.21
2 4 -5 14.9 1.05
2 -4 -4 100.62 2.86
2 -4 -4 102.06 2.67
2 -4 -4 107.81 2.86
2 -4 -4 109.11 4.16
2 4 -4 99.07 3
2 4 -4 102.02 3.01
2 -4 -4 100.27 4.28
2 4 -4 103.45 3.95
2 -4 -4 99.46 2.71
2 -4 -4 94.61 2.55
2 -4 -4 96.13 2.52
2 4 -4 101.39 2.63
2 -4 -3 132.1 3.26
2 -4 -3 127.42 4.76
2 -4 -3 125.37 3.03
2 -4 -3 127.38 3.15
2 4 -3 127.48 3.4
2 4 -3 128.62 3.38
2 -4 -3 120.27 2.77
2 4 -3 128.6 4.36
2 -4 -3 121.71 2.94
2 -4 -3 123.31 2.91
2 4 -3 122.63 2.86
2 -4 -2 333.47 5.13
2 -4 -2 337.8 5.03
2 -4 -2 338 5.04
2 4 -2 328.21 5.43
2 4 -2 321.82 5.32
2 -4 -2 317.95 7.39
2 4 -2 326.04 6.92
2 -4 -2 317.9 4.65
2 -4 -2 321.11 4.67
2 4 -2 326.56 4.58
2 -4 -1 39.96 1.81
2 -4 -1 42.81 1.83
2 4 -1 49.36 2.14
2 4 -1 48.53 2.09
2 4 -1 46.48 2.64
2 -4 -1 43.54 2.72
2 -4 -1 40.71 1.67
2 4 -1 43.62 1.66
2 -4 0 28.39 1.49
2 -4 0 31.83 2.32
2 4 0 30.59 2.13
2 -4 0 29.77 1.56
2 4 0 34.71 1.8
2 4 0 31.75 1.69
2 4 0 28.89 2.09
2 -4 0 27.8 1.39
2 -4 1 87 2.61
2 4 1 87.48 3.61
2 -4 1 88 2.66
2 4 1 93.85 2.9
2 4 1 91.56 2.82
2 4 1 86.55 3.56
2 -4 1 92.42 3.88
2 -4 1 83.75 2.45
2 -4 2 71.8 2.38
2 4 2 74.74 2.35
2 4 2 70.99 3.4
2 -4 2 70.89 2.41
2 4 2 79.84 2.69
2 4 2 72.59 2.56
2 4 2 71.21 3.21
2 -4 2 72 3.43
2 -4 2 68.19 2.27
2 -4 3 49.71 1.98
2 4 3 54.81 2.08
2 4 3 53.94 3.01
2 -4 3 54.93 2.14
2 4 3 55.31 2.23
2 4 3 51.72 2.74
2 -4 3 51.87 2.89
2 -4 3 51.45 1.97
2 -4 4 33.66 1.63
2 4 4 34.39 1.68
2 4 4 36.37 2.51
2 -4 4 33.94 1.69
2 4 4 35.43 1.79
2 4 4 33.63 2.21
2 -4 4 36.75 2.42
2 -4 4 33.52 1.62
2 -4 5 16.15 1.12
2 4 5 16.76 1.2
2 4 5 17.2 1.74
2 -4 5 18.53 1.28
2 4 5 17.17 1.24
2 4 5 19.58 1.7
2 -4 5 17.47 1.2
2 -4 5 18.36 1.71
2 -4 6 4.76 0.67
2 4 6 4.63 0.68
2 4 6 6.46 1.16
2 -4 6 4.22 0.8
2 -4 6 5.34 0.76
2 4 6 4.91 0.71
2 4 6 3.62 0.77
2 -4 6 4.29 0.64
2 -4 7 415.88 5.6
2 -4 7 439.68 8.18
2 4 7 424.43 6.15
2 4 7 446.08 9.17
2 -4 7 419.97 6.07
2 4 7 420.14 5.91
2 4 7 413.02 7.58
2 -4 7 420.29 5.97
2 -4 8 29.01 1.47
2 -4 8 24.47 1.95
2 4 8 27.06 2.34
2 4 8 25.62 1.58
2 -4 8 26.57 1.58
2 4 8 24.56 1.86
2 4 8 25 1.44
2 -4 8 26.22 1.52
2 -4 9 119.37 2.93
2 4 9 123.89 3.26
2 4 9 128.38 3.46
2 -4 9 119.37 3.28
2 4 9 124.78 3.08
2 -4 9 125.07 3.31
2 4 10 103.62 3.01
2 4 10 106.86 3.17
2 -4 10 102.34 3.05
2 -4 10 107.38 3.09
2 4 11 22.17 1.43
2 4 11 25.2 1.56
2 -4 11 22.3 1.43
2 -4 11 22.01 1.43
2 4 12 156.42 3.79
2 4 12 164.76 3.94
2 -4 12 158.69 3.74
2 -4 12 159.05 3.77
2 4 13 5.37 0.74
2 4 13 6.26 0.88
2 -4 13 6.18 0.78
2 -4 13 5.79 0.75
2 4 14 65.88 2.44
2 4 14 70.32 2.53
2 -4 14 65.14 2.33
2 -4 14 67.76 2.4
2 -4 15 2.85 0.53
2 4 15 3.11 0.54
2 4 15 2.84 0.57
2 -4 15 2.65 0.51
2 -4 16 1.22 0.36
2 4 16 0.84 0.33
2 -4 16 1.14 0.32
2 4 17 7 0.76
2 4 17 6.77 0.73
2 -4 17 6.64 0.68
2 -4 17 7.58 0.73
2 4 18 21.27 1.21
2 4 18 20 1.14
2 -4 18 20.24 1.09
2 -4 18 21.17 1.14
2 -4 19 2.64 0.39
2 4 19 3.03 0.46
2 -4 19 2.68 0.39
2 4 20 5.89 0.56
2 -4 20 5.69 0.49
2 -4 20 5.95 0.51
2 4 21 15.25 0.78
2 -4 21 14.22 0.7
2 -4 21 15 0.7
2 -5 -19 20.8 0.86
2 -5 -19 22.01 0.89
2 -5 -18 2.43 0.34
2 -5 -18 2.29 0.35
2 -5 -18 2.57 0.37
2 -5 -17 6.63 0.58
2 -5 -17 6.11 0.62
2 -5 -17 7.11 0.64
2 5 -17 6.51 0.55
2 -5 -16 27.89 1.23
2 -5 -16 26.03 1.31
2 -5 -16 27.75 1.31
2 5 -16 27.36 1.33
2 5 -16 25.74 1.16
2 5 -15 3.15 0.48
2 -5 -15 2.77 0.47
2 -5 -15 2.91 0.52
2 -5 -15 3.51 0.55
2 5 -15 2.79 0.5
2 -5 -14 48.93 1.75
2 5 -14 44.59 1.69
2 -5 -14 47.41 1.91
2 -5 -14 49.11 1.89
2 5 -14 48.92 1.98
2 5 -14 48.95 1.76
2 -5 -13 27.97 1.39
2 5 -13 24.2 1.33
2 -5 -13 25.39 1.47
2 -5 -13 27.8 1.5
2 5 -13 27.64 1.55
2 5 -13 26.06 1.35
2 -5 -13 26.04 1.33
2 -5 -12 37.17 1.6
2 5 -12 33.41 1.67
2 -5 -12 34.53 1.72
2 -5 -12 35.14 1.72
2 5 -12 36.15 1.81
2 5 -12 37.51 1.67
2 -5 -12 34.28 1.58
2 -5 -11 9.94 0.88
2 5 -11 9.44 0.92
2 -5 -11 8.89 0.89
2 5 -11 9.26 0.95
2 5 -11 9.37 0.89
2 -5 -11 9.18 0.88
2 -5 -10 0.38 0.29
2 5 -10 0.5 0.38
2 -5 -10 0.21 0.3
2 5 -10 0.38 0.3
2 -5 -10 0.31 0.29
2 5 -10 0.16 0.3
2 -5 -9 41.32 1.89
2 -5 -9 43.28 1.8
2 5 -9 36.19 1.67
2 5 -9 39.31 1.92
2 -5 -9 38.83 1.76
2 -5 -9 37.76 1.83
2 5 -9 42.72 1.84
2 -5 -8 158.53 3.65
2 -5 -8 151.19 3.37
2 5 -8 133.03 3.33
2 5 -8 140.08 3.67
2 -5 -8 139.21 3.29
2 -5 -8 143.37 3.5
2 5 -8 145.46 3.38
2 -5 -7 51.53 2.12
2 -5 -7 51.51 1.99
2 5 -7 47.02 2.11
2 5 -7 46.99 2.17
2 -5 -7 44.82 1.88
2 -5 -7 48.5 2.06
2 5 -7 50.93 2.01
2 -5 -6 243.39 4.62
2 5 -6 226.71 4.58
2 5 -6 232.96 4.79
2 -5 -6 217.15 4.04
2 -5 -6 222.16 4.3
2 -5 -6 233.97 4.16
2 5 -6 235.11 4.26
2 -5 -5 126.49 3.35
2 5 -5 118.36 3.39
2 5 -5 121.93 3.49
2 -5 -5 110.99 2.84
2 -5 -5 115.26 3.07
2 -5 -5 120.71 3
2 5 -5 120.15 3.05
2 -5 -4 26.56 1.39
2 -5 -4 29.8 1.65
2 5 -4 30.22 1.75
2 5 -4 28.73 1.72
2 -5 -4 27.92 1.5
2 -5 -4 29.93 1.51
2 5 -4 29.9 1.52
2 -5 -3 22.19 1.46
2 -5 -3 24.41 1.46
2 5 -3 24.79 1.61
2 5 -3 22.89 1.52
2 -5 -3 22.58 1.26
2 -5 -3 21.15 1.31
2 -5 -3 22.03 1.31
2 5 -3 21.95 1.3
2 -5 -2 127.12 3.36
2 -5 -2 120.63 3.05
2 -5 -2 132.68 3.33
2 5 -2 126.11 3.59
2 5 -2 120.55 3.46
2 -5 -2 112.96 2.95
2 5 -2 120.48 2.95
2 -5 -2 124.77 3.1
2 -5 -1 342.36 5.52
2 -5 -1 326.73 5.11
2 5 -1 345.62 5.91
2 5 -1 343.52 5.82
2 -5 -1 325.69 4.87
2 -5 -1 343.59 5.2
2 -5 0 133.75 3.46
2 -5 0 147.58 3.55
2 5 0 146.64 3.88
2 5 0 146.47 3.82
2 -5 0 142.45 3.37
2 -5 1 53.49 2.2
2 -5 1 55.61 2.21
2 -5 1 55.64 2.12
2 -5 2 29.86 1.65
2 5 2 30.85 1.6
2 -5 2 30.09 1.69
2 5 2 35.35 1.93
2 -5 2 29.84 1.59
2 -5 3 133.23 3.4
2 5 3 128.63 3.31
2 -5 3 141.69 3.55
2 5 3 143.08 3.75
2 -5 3 138.58 3.4
2 -5 4 135.55 3.41
2 5 4 125.3 3.32
2 -5 4 140.49 3.57
2 5 4 136.95 3.64
2 -5 4 135.81 3.37
2 -5 5 42.55 1.9
2 5 5 44.31 2
2 -5 5 47.77 2.1
2 5 5 46.93 2.12
2 -5 5 43.98 1.95
2 -5 6 7.32 0.82
2 5 6 7.82 0.89
2 -5 6 8.31 0.94
2 5 6 8.54 0.97
2 -5 6 9.03 0.94
2 -5 7 178.2 3.77
2 5 7 183.1 4.09
2 -5 7 194.15 4.18
2 5 7 184.63 4.02
2 -5 7 188.13 4
2 -5 8 103.67 2.83
2 5 8 112.52 3.21
2 -5 8 111.36 3.16
2 5 8 114.91 3.03
2 -5 8 117.26 3.18
2 -5 9 12.94 0.99
2 5 9 15.09 1.22
2 -5 9 14.72 1.17
2 5 9 14.16 1.03
2 -5 9 14.37 1.12
2 -5 10 45.93 1.76
2 5 10 47.3 2.09
2 -5 10 50.47 2.08
2 -5 10 50.49 2.03
2 -5 11 3.01 0.46
2 -5 11 3.05 0.53
2 5 11 2.81 0.5
2 5 11 3.32 0.59
2 -5 11 3.71 0.63
2 5 12 21.72 1.26
2 5 12 22.67 1.4
2 -5 12 21.85 1.32
2 -5 12 23.36 1.34
2 5 13 13.15 0.96
2 5 13 13.88 1.07
2 -5 13 14.34 1.04
2 -5 13 13.68 1.01
2 5 14 8.27 0.75
2 5 14 7.29 0.75
2 -5 14 8.41 0.77
2 -5 14 8.06 0.75
2 5 15 12.5 0.88
2 5 15 12.33 0.92
2 -5 15 12.96 0.9
2 -5 15 13.12 0.89
2 5 16 9.14 0.71
2 5 16 9.02 0.75
2 -5 16 9.18 0.71
2 -5 16 9.32 0.7
2 5 17 10.18 0.7
2 5 17 10.46 0.74
2 -5 17 11.02 0.72
2 -5 17 10.78 0.7
2 5 18 16.98 0.81
2 -5 18 17.67 0.81
2 -5 18 15.96 0.75
2 -5 18 18.34 0.81
2 -6 -15 11.33 0.62
2 -6 -15 10.69 0.65
2 -6 -15 11.33 0.66
2 -6 -14 38.88 1.23
2 -6 -14 36.69 1.28
2 -6 -14 38.31 1.31
2 -6 -13 1.15 0.29
2 -6 -13 0.83 0.28
2 6 -13 0.89 0.25
2 -6 -13 0.98 0.29
2 -6 -12 1.18 0.28
2 -6 -12 1.57 0.33
2 -6 -12 1.44 0.32
2 6 -12 1.55 0.33
2 -6 -12 1.5 0.36
2 -6 -11 2.4 0.41
2 -6 -11 1.9 0.41
2 6 -11 2.41 0.43
2 -6 -11 2.31 0.44
2 -6 -11 2.52 0.41
2 -6 -10 92.29 2.22
2 6 -10 84.96 2.4
2 -6 -10 81.54 2.2
2 -6 -10 92.29 2.41
2 -6 -10 88.73 2.24
2 -6 -9 2.23 0.44
2 -6 -9 2.66 0.46
2 -6 -9 2.41 0.46
2 -6 -9 2.27 0.44
2 6 -9 2.5 0.49
2 -6 -8 11.81 0.9
2 -6 -8 11.72 0.86
2 6 -8 10.84 0.84
2 6 -8 11.44 0.98
2 -6 -8 10.55 0.82
2 -6 -8 11.78 0.92
2 -6 -7 5.79 0.67
2 -6 -7 6.27 0.66
2 6 -7 5.67 0.66
2 6 -7 5.59 0.72
2 -6 -7 5.13 0.58
2 -6 -7 6.08 0.67
2 -6 -6 29.91 1.5
2 -6 -6 30.57 1.41
2 6 -6 27.82 1.48
2 6 -6 29.5 1.59
2 -6 -6 25.33 1.24
2 -6 -6 28.23 1.31
2 -6 -6 28.45 1.42
2 -6 -5 6.91 0.77
2 -6 -5 6.13 0.66
2 6 -5 6.24 0.74
2 6 -5 5.5 0.73
2 -6 -5 6.07 0.63
2 -6 -5 6.67 0.71
2 -6 -4 1.92 0.47
2 -6 -4 1.8 0.4
2 6 -4 1.55 0.41
2 -6 -4 1.73 0.37
2 6 -4 1.9 0.47
2 -6 -4 1.95 0.41
2 -6 -3 9.73 0.91
2 6 -3 9.18 0.95
2 6 -3 9.33 0.94
2 -6 -3 8.7 0.72
2 -6 -3 9.12 0.81
2 -6 -3 9.51 0.82
2 -6 -2 19.29 1.29
2 6 -2 19.68 1.38
2 -6 -2 18.62 1.13
2 -6 -2 20.99 1.22
2 -6 -1 34.35 1.7
2 6 -1 33.35 1.77
2 -6 -1 31.68 1.43
2 -6 -1 36.1 1.6
2 -6 0 11.56 1.05
2 -6 0 14.3 1.11
2 6 0 13.84 1.21
2 -6 0 14.88 1.15
2 -6 1 74.35 2.44
2 -6 1 72.72 2.32
2 6 1 74.3 2.63
2 -6 1 79.19 2.38
2 -6 2 32.36 1.62
2 -6 2 36.24 1.67
2 6 2 35.07 1.81
2 -6 2 35.88 1.63
2 -6 3 6.06 0.74
2 6 3 6.24 0.69
2 -6 3 6.75 0.8
2 6 3 6.32 0.84
2 -6 3 6.81 0.76
2 -6 4 28.59 1.47
2 6 4 26.35 1.39
2 -6 4 30.32 1.51
2 6 4 28.22 1.56
2 -6 4 31.27 1.49
2 -6 5 32.28 1.53
2 6 5 31.16 1.5
2 -6 5 31.69 1.55
2 6 5 31.45 1.59
2 -6 5 35.41 1.59
2 -6 6 40.79 1.67
2 6 6 39.83 1.7
2 -6 6 42.81 1.75
2 6 6 40.86 1.77
2 -6 6 44.91 1.77
2 -6 7 17.73 1.08
2 6 7 18.46 1.17
2 -6 7 18.75 1.16
2 6 7 17.07 1.09
2 -6 7 18.51 1.12
2 -6 8 1.15 0.3
2 -6 8 1.1 0.32
2 6 8 1.53 0.41
2 -6 8 1.28 0.34
2 6 8 1.03 0.27
2 -6 9 0.26 0.17
2 -6 9 0.31 0.19
2 6 9 0.31 0.25
2 -6 9 0.5 0.22
2 6 9 -0.09 0.2
2 -6 10 3.14 0.41
2 6 10 3.35 0.5
2 -6 10 2.81 0.44
2 -6 10 3.57 0.47
2 -6 11 16.15 0.83
2 6 11 17.93 1.05
2 -6 11 17.22 0.98
2 -6 11 17.57 0.97
2 6 12 8.84 0.73
2 -6 12 7.8 0.64
2 -6 12 9.05 0.67
2 6 13 17.13 0.93
2 -6 13 17.01 0.87
2 -6 13 18.03 0.87
2 -6 14 1.63 0.26
2 6 14 1.42 0.27
2 -6 14 1.63 0.27
2 6 15 6.89 0.51
2 -6 15 7.21 0.48
2 -7 -8 21.15 0.84
2 -7 -8 21.55 0.83
2 -7 -7 6.74 0.49
2 -7 -7 6 0.48
2 -7 -7 6.45 0.5
2 -7 -6 36.22 1.21
2 -7 -6 34.4 1.11
2 -7 -5 0.75 0.25
2 -7 -5 0.92 0.24
2 7 -5 0.92 0.28
2 -7 -5 0.55 0.2
2 -7 -4 10.18 0.69
2 -7 -4 10.49 0.64
2 7 -4 9.43 0.7
2 -7 -4 9.5 0.6
2 -7 -3 1.41 0.33
2 -7 -3 1.34 0.32
2 7 -3 1.83 0.39
2 -7 -3 1.43 0.26
2 -7 -2 34.17 1.3
2 -7 -2 35.71 1.22
2 7 -2 31.38 1.32
2 -7 -1 9.13 0.7
2 7 -1 9.18 0.75
2 -7 0 8.78 0.69
2 -7 0 9 0.64
2 7 0 8.97 0.74
2 -7 0 9.55 0.67
2 -7 1 7.35 0.63
2 7 1 7.4 0.67
2 -7 1 8.3 0.64
2 -7 2 19.88 0.99
2 7 2 18.81 1.02
2 -7 2 21.24 0.96
2 -7 3 1.03 0.28
2 -7 3 1.48 0.31
2 7 3 1.24 0.32
2 -7 4 3.14 0.39
2 7 4 3.16 0.41
2 -7 4 3.45 0.39
2 -7 5 4.06 0.43
2 7 5 3.54 0.41
2 -7 5 4.27 0.42
2 -7 6 14.68 0.75
2 7 6 13.78 0.72
2 -7 7 13.68 0.68
2 -7 7 15.11 0.71
2 -7 8 13.94 0.65
3 0 -22 0.01 0.12
3 0 -21 21.82 0.97
3 0 -20 0.35 0.2
3 0 -19 7.57 0.68
3 0 -18 -0.02 0.23
3 0 -17 25.46 1.36
3 0 -16 0.04 0.28
3 0 -16 -0.11 0.21
3 0 -15 55.21 2.06
3 0 -15 55.57 1.92
3 0 -14 0 0.26
3 0 -14 0.48 0.33
3 0 -13 172.11 3.6
3 0 -13 178.91 3.46
3 0 -12 0.69 0.29
3 0 -12 0.65 0.36
3 0 -11 188.45 3.75
3 0 -11 190.22 3.63
3 0 -10 -0.09 0.25
3 0 -10 0.35 0.29
3 0 -10 -0.3 0.34
3 0 -9 75.19 2.3
3 0 -9 78.67 2.25
3 0 -9 75.96 2.13
3 0 -9 73.75 2.3
3 0 -8 -0.02 0.23
3 0 -8 0.17 0.27
3 0 -8 0.85 0.32
3 0 -8 0.17 0.25
3 0 -8 -0.33 0.37
3 0 -7 237.5 3.81
3 0 -7 242.98 3.67
3 0 -7 245.16 4.15
3 0 -7 246.07 5.65
3 0 -6 0.85 0.38
3 0 -6 1.72 0.43
3 0 -6 0.54 0.34
3 0 -6 0.85 0.47
3 0 -6 0.52 0.44
3 0 -5 750.39 6.52
3 0 -5 756.31 7.19
3 0 -4 0.99 0.34
3 0 -4 0.54 0.28
3 0 -4 0.74 0.42
3 0 -4 0.09 0.28
3 0 -4 0.83 0.44
3 0 -3 125.5 3.58
3 0 -2 0.35 0.33
3 0 -1 102.84 3.05
3 0 0 1.18 0.48
3 0 1 439.08 6.65
3 0 1 433.02 7
3 0 2 1.93 0.6
3 0 2 0.69 0.49
3 0 3 228.36 4.11
3 0 3 228.24 3.83
3 0 3 229.97 5.44
3 0 4 0.64 0.45
3 0 4 0.68 0.33
3 0 4 0.12 0.32
3 0 4 0 0.17
3 0 5 23.95 1.89
3 0 5 25.76 1.4
3 0 5 25.99 1.34
3 0 6 0.42 0.41
3 0 6 0 0.22
3 0 6 0.22 0.3
3 0 6 0.14 0.25
3 0 7 155.91 4.98
3 0 7 154.92 3.58
3 0 7 155.66 3.68
3 0 7 157.19 3.4
3 0 8 0.78 0.44
3 0 8 0.58 0.54
3 0 8 -0.13 0.27
3 0 8 0.23 0.31
3 0 8 -0.02 0.29
3 0 9 102.81 4.27
3 0 9 99.31 3
3 0 9 97.14 2.9
3 0 9 98.13 2.98
3 0 9 95.46 2.71
3 0 10 0.47 0.38
3 0 10 0.63 0.64
3 0 10 0.75 0.48
3 0 10 0.4 0.41
3 0 10 1.19 0.42
3 0 11 463.37 9.28
3 0 11 443.39 6.58
3 0 11 442.07 6.23
3 0 11 455.75 6.62
3 0 11 448.93 5.91
3 0 12 1.2 0.59
3 0 12 0.58 0.44
3 0 12 0.64 0.43
3 0 12 0.97 0.4
3 0 13 40.96 1.99
3 0 13 38.09 1.81
3 0 13 37.04 1.93
3 0 13 35.49 1.66
3 0 14 0.12 0.32
3 0 14 -0.36 0.36
3 0 14 -0.09 0.35
3 0 14 0.02 0.18
3 0 15 78.49 2.5
3 0 15 80.5 2.79
3 0 15 78.47 2.33
3 0 16 0.22 0.25
3 0 16 0.18 0.32
3 0 16 0.08 0.17
3 0 17 58.37 1.94
3 0 17 62.48 2.35
3 0 18 0.16 0.21
3 0 18 0.6 0.38
3 0 19 49.63 1.9
3 0 20 -0.05 0.22
3 0 21 16 0.93
3 0 22 -0.07 0.14
3 -1 -22 5.43 0.41
3 1 -22 5.61 0.44
3 1 -21 21.1 0.95
3 -1 -21 20.98 0.91
3 1 -20 6.2 0.58
3 -1 -20 6.14 0.56
3 1 -20 5.97 0.64
3 1 -19 2.03 0.38
3 -1 -19 2.01 0.37
3 1 -19 2.04 0.42
3 1 -18 29.13 1.38
3 -1 -18 28.16 1.35
3 1 -18 27.89 1.54
3 1 -17 0.58 0.3
3 -1 -17 0.95 0.34
3 1 -17 0.97 0.36
3 1 -16 49.72 1.93
3 -1 -16 47.46 1.85
3 -1 -16 47.04 1.67
3 1 -16 43.05 2.03
3 1 -15 39.89 1.75
3 -1 -15 39.33 1.73
3 1 -15 39.19 1.67
3 -1 -15 37.8 1.56
3 1 -15 36.64 1.91
3 1 -14 120.92 3.04
3 -1 -14 115.11 3
3 1 -14 118.17 2.87
3 -1 -14 115.6 2.72
3 1 -13 35.23 1.7
3 1 -13 41.06 1.72
3 -1 -13 38.72 1.74
3 -1 -13 40.96 1.66
3 1 -13 35.79 1.9
3 1 -12 216.77 4.04
3 1 -12 227.3 3.95
3 -1 -12 227.06 3.85
3 1 -12 217.17 3.9
3 1 -12 205.88 4.45
3 -1 -12 215.2 4.33
3 1 -11 301.41 4.71
3 1 -11 300.17 4.5
3 1 -11 291.84 4.58
3 1 -11 301.01 5.29
3 -1 -11 295.1 4.96
3 1 -10 29.24 1.48
3 1 -10 30.03 1.42
3 -1 -10 31.03 1.44
3 -1 -10 33.85 1.6
3 1 -10 28.66 1.5
3 -1 -10 26.49 2.18
3 1 -10 29.56 1.63
3 -1 -10 29.17 1.55
3 1 -9 234.1 4.02
3 1 -9 238.97 3.86
3 -1 -9 243.01 3.97
3 1 -9 232.99 3.71
3 -1 -9 241.97 3.8
3 -1 -9 246.94 4.22
3 1 -9 234.77 4.22
3 1 -9 235.52 4.48
3 -1 -9 227.43 4.18
3 1 -8 229.88 3.92
3 1 -8 224.37 3.7
3 -1 -8 236.52 3.88
3 1 -8 227.09 3.59
3 -1 -8 232.2 3.66
3 -1 -8 242.79 4.13
3 1 -8 228.76 4.17
3 -1 -8 219.58 5.95
3 1 -8 231.01 4.1
3 -1 -8 227.61 4.05
3 1 -7 7.03 0.69
3 1 -7 6.16 0.64
3 -1 -7 6.54 0.7
3 1 -7 6.32 0.64
3 -1 -7 6.7 0.65
3 -1 -7 6.81 0.78
3 1 -7 7.22 0.77
3 -1 -7 6.3 1.04
3 1 -7 7.01 0.77
3 1 -6 146.79 2.98
3 1 -6 146.76 2.91
3 -1 -6 159.45 3.17
3 1 -6 145.07 2.81
3 -1 -6 156.22 2.93
3 -1 -6 155.7 3.3
3 1 -6 146.61 3.32
3 -1 -6 146.62 4.63
3 1 -6 153.19 3.34
3 1 -5 69.73 2
3 1 -5 69.76 1.97
3 -1 -5 72.08 2.14
3 1 -5 64.58 1.85
3 -1 -5 71.64 1.96
3 -1 -5 71.57 2.25
3 1 -5 68.31 2.25
3 -1 -5 70.41 3.14
3 1 -5 71 2.28
3 -1 -5 71.41 2.87
3 1 -4 153.45 2.86
3 -1 -4 159.09 3.17
3 -1 -4 154.73 2.87
3 -1 -4 164.87 3.35
3 1 -4 161.08 3.41
3 -1 -4 157.24 4.59
3 1 -4 158.25 3.38
3 -1 -4 155.56 4.28
3 -1 -3 17.37 1.07
3 -1 -3 19.11 1.16
3 1 -3 22.92 1.29
3 -1 -3 17.63 1.49
3 1 -3 21.15 1.26
3 -1 -3 17.94 1.46
3 -1 -2 20.87 1.57
3 -1 -2 19.39 1.14
3 -1 -2 24.19 1.29
3 1 -2 19.84 1.18
3 -1 -2 16.8 1.46
3 1 -2 18.56 1.04
3 1 -2 21.88 1.27
3 -1 -2 21.46 1.16
3 -1 -1 87.12 3.19
3 -1 -1 89.48 2.43
3 -1 -1 101.7 2.58
3 1 -1 90.88 2.48
3 1 -1 84.31 2.2
3 1 -1 87.46 2.51
3 -1 -1 100.02 2.5
3 -1 0 190.88 4.71
3 -1 0 201.76 3.56
3 1 0 185.7 3.24
3 1 0 190.02 3.67
3 -1 0 199.99 3.57
3 1 1 63.04 2.71
3 -1 1 59.32 2.64
3 -1 1 66.77 2.2
3 1 1 57.96 1.81
3 1 1 61.46 2.1
3 -1 1 61.1 1.99
3 1 2 119.92 3.89
3 -1 2 115.07 3.66
3 -1 2 113.56 2.8
3 -1 2 126.93 3
3 1 2 115.81 2.54
3 1 2 121.09 2.99
3 1 2 118.08 2.89
3 -1 2 127.58 2.93
3 1 3 30.88 2.04
3 -1 3 29.93 1.92
3 -1 3 30.03 1.45
3 -1 3 33.4 1.43
3 1 3 31.78 1.33
3 -1 3 36.21 1.62
3 1 3 33.13 1.54
3 1 3 31.14 1.56
3 1 3 31.85 1.4
3 -1 3 33.17 1.52
3 1 4 104.86 3.88
3 -1 4 109.18 3.7
3 -1 4 101.41 2.67
3 1 4 104.85 2.4
3 -1 4 111.37 2.87
3 1 4 106.49 2.74
3 1 4 104.88 2.9
3 -1 4 109.14 2.94
3 1 4 109.96 2.62
3 -1 4 109.93 2.84
3 1 5 142.76 4.64
3 1 5 147.79 3.38
3 -1 5 150.35 4.43
3 -1 5 141.81 3.19
3 1 5 152.26 2.87
3 -1 5 153.44 3.38
3 1 5 145.73 3.19
3 1 5 146.96 3.51
3 -1 5 151.45 3.53
3 1 5 151.13 3.08
3 -1 5 147.91 3.35
3 1 6 153.5 4.94
3 1 6 150.8 3.5
3 -1 6 166.8 4.81
3 -1 6 144.68 3.24
3 -1 6 154.71 3.49
3 1 6 157.23 3.26
3 1 6 152.48 3.65
3 -1 6 157.49 3.68
3 1 6 151.08 3.13
3 -1 6 157.39 3.51
3 1 7 6.57 1.1
3 1 7 4.52 0.66
3 -1 7 4.56 0.59
3 -1 7 4.27 0.6
3 1 7 4.97 0.62
3 1 7 4.56 0.68
3 -1 7 5 0.7
3 1 7 4.22 0.54
3 -1 7 4.07 0.61
3 1 8 61.06 3.26
3 1 8 59.09 2.28
3 1 8 64.63 2.07
3 -1 8 60.37 2.18
3 1 8 58.25 2.33
3 -1 8 61.56 2.38
3 1 8 61.87 2.02
3 -1 8 59.95 2.23
3 1 9 25.73 2.18
3 1 9 26.62 1.59
3 -1 9 27.09 1.47
3 1 9 26.1 1.61
3 -1 9 26.37 1.6
3 1 9 25.69 1.47
3 1 9 25.39 1.31
3 -1 9 26.26 1.51
3 1 10 9.82 1.36
3 1 10 12.36 1.09
3 -1 10 11.44 0.97
3 1 10 12.35 1.13
3 -1 10 13.59 1.17
3 1 10 11.38 1.02
3 1 10 12.12 0.9
3 -1 10 11.92 1.04
3 1 11 116.35 3.36
3 -1 11 119.93 3.07
3 1 11 121.34 3.41
3 -1 11 120.55 3.46
3 1 11 118.01 3.28
3 -1 11 118.33 3.23
3 1 12 123.82 3.47
3 -1 12 123.39 3.06
3 1 12 126.68 3.49
3 -1 12 127.43 3.59
3 1 12 122.3 3.37
3 -1 12 121.73 3.3
3 1 13 101.55 3.2
3 -1 13 107.59 2.83
3 1 13 103.14 3.14
3 -1 13 101.9 3.2
3 1 13 98.48 3.06
3 -1 13 99.79 2.96
3 1 14 14.58 1.23
3 -1 14 15.32 1.05
3 1 14 13.97 1.16
3 -1 14 14.28 1.23
3 1 14 14.16 1.19
3 -1 14 14.44 1.12
3 1 15 12.09 1.14
3 1 15 11.46 1.01
3 -1 15 11.21 1.07
3 1 15 11.36 1.04
3 -1 15 11.32 0.97
3 1 16 18.41 1.36
3 1 16 18.82 1.27
3 -1 16 19.62 1.37
3 1 16 19.09 1.31
3 -1 16 17.98 1.17
3 1 17 63.34 2.33
3 1 17 58.67 2.08
3 -1 17 64.82 2.38
3 1 17 60.66 2.23
3 -1 17 57.19 1.94
3 1 18 23.85 1.38
3 1 18 21.23 1.19
3 -1 18 24.01 1.4
3 1 18 24.1 1.35
3 -1 18 21.73 1.13
3 1 19 5.37 0.57
3 -1 19 5.52 0.66
3 1 19 5.89 0.65
3 -1 19 5.13 0.52
3 1 20 31.07 1.16
3 -1 20 34.71 1.46
3 1 20 33.29 1.38
3 -1 20 30.07 1.05
3 -1 21 27.9 1.18
3 1 21 28.98 1.16
3 -1 22 8.57 0.59
3 1 22 8.08 0.53
3 2 -21 0.61 0.19
3 -2 -21 0.51 0.17
3 -2 -20 18.8 0.88
3 2 -20 18.57 0.92
3 2 -19 16.45 0.94
3 -2 -19 16.53 0.92
3 2 -18 7.81 0.72
3 -2 -18 7.56 0.68
3 2 -17 7.39 0.75
3 -2 -17 7.29 0.72
3 2 -17 6.43 0.81
3 2 -16 31.86 1.52
3 -2 -16 29.48 1.44
3 -2 -16 29.23 1.22
3 -2 -16 30.35 1.34
3 2 -16 30.21 1.72
3 2 -15 14.61 1.08
3 -2 -15 13.83 0.9
3 -2 -15 13.8 0.93
3 2 -15 13.83 1.21
3 -2 -15 13.79 1.14
3 2 -14 7.21 0.79
3 -2 -14 7.88 0.69
3 -2 -14 7.78 0.71
3 2 -14 8.37 0.96
3 -2 -14 8.17 0.92
3 -2 -14 7.27 0.84
3 2 -13 62.93 2.23
3 -2 -13 63.95 1.99
3 2 -13 58.53 2.01
3 2 -13 60.34 2.52
3 -2 -13 67.63 2.56
3 -2 -13 60.11 2.31
3 2 -12 78.13 2.47
3 -2 -12 77.49 2.19
3 2 -12 74.34 2.39
3 2 -12 78.56 2.86
3 2 -12 80.2 2.23
3 -2 -12 85.57 2.91
3 -2 -12 77.51 2.61
3 2 -11 99.56 2.77
3 2 -11 95.5 2.57
3 -2 -11 102.45 2.57
3 2 -11 93.65 2.74
3 2 -11 99.04 2.52
3 -2 -11 95.57 2.86
3 2 -10 327.68 4.96
3 2 -10 338.33 4.78
3 -2 -10 351.86 4.79
3 2 -10 333.13 5.16
3 -2 -10 317.81 7.88
3 2 -10 341.23 4.69
3 -2 -10 339.78 5.79
3 -2 -10 330.84 5.25
3 2 -9 226.39 4.03
3 2 -9 223.38 3.81
3 -2 -9 238.66 3.95
3 2 -9 227.41 4.3
3 -2 -9 220.35 6.41
3 2 -9 232.34 3.92
3 2 -9 232.48 4.11
3 -2 -9 237.89 4.75
3 -2 -9 223.59 4.22
3 -2 -9 232.86 4.25
3 2 -8 35.79 1.58
3 2 -8 30.78 1.4
3 -2 -8 34.07 1.53
3 2 -8 32.91 1.37
3 -2 -8 36.58 1.44
3 2 -8 32.84 1.67
3 -2 -8 31.58 2.43
3 2 -8 33.64 1.51
3 2 -8 33.6 1.62
3 -2 -8 34.52 1.81
3 -2 -8 32.25 1.58
3 -2 -8 34.21 1.61
3 2 -7 136.7 3.03
3 2 -7 140.74 2.9
3 -2 -7 148.32 3.21
3 2 -7 137.28 2.72
3 -2 -7 149.15 2.84
3 2 -7 138.57 3.4
3 -2 -7 136.19 4.9
3 2 -7 143.39 3.07
3 2 -7 139.93 3.33
3 -2 -7 151.64 3.66
3 -2 -7 132.05 4.6
3 -2 -7 144.77 3.23
3 2 -6 51.39 1.83
3 2 -6 49.18 1.71
3 -2 -6 49.72 1.87
3 2 -6 50.46 1.62
3 -2 -6 54.1 1.7
3 -2 -6 47.89 2.85
3 2 -6 52.65 1.86
3 2 -6 50.93 2.04
3 -2 -6 55.89 2.19
3 -2 -6 49.57 2.8
3 -2 -6 50.65 1.9
3 2 -5 13.35 0.92
3 2 -5 14.09 0.9
3 -2 -5 14.1 1.04
3 2 -5 13.36 0.83
3 -2 -5 14.14 0.87
3 -2 -5 13.85 1.54
3 2 -5 15.51 1
3 2 -5 15.37 1.12
3 -2 -5 16.95 1.18
3 -2 -5 12.44 1.41
3 -2 -5 13.73 0.98
3 -2 -4 32.95 1.48
3 2 -4 30.84 1.34
3 2 -4 31.15 1.28
3 -2 -4 33.1 1.56
3 2 -4 29.18 1.22
3 -2 -4 32.2 1.3
3 -2 -4 30.2 2.2
3 2 -4 32.74 1.44
3 2 -4 31.46 1.62
3 -2 -4 34.15 1.64
3 -2 -4 31.18 2.18
3 -2 -3 80.81 2.28
3 2 -3 79.7 2
3 -2 -3 86.66 2.54
3 2 -3 72.89 1.92
3 -2 -3 82.49 2.07
3 -2 -3 81.36 3.56
3 2 -3 84.33 2.3
3 2 -3 78.67 2.55
3 -2 -3 82.01 3.54
3 -2 -2 9.85 0.88
3 2 -2 11.18 0.86
3 2 -2 11.15 0.99
3 -2 -2 11.87 0.88
3 -2 -2 9.97 1.26
3 -2 -1 80.68 2.5
3 2 -1 85.65 2.32
3 2 -1 83.02 2.59
3 -2 -1 83.05 2.35
3 -2 -1 83.57 3.49
3 -2 0 55.28 2.12
3 2 0 59.74 1.94
3 2 0 56.8 1.97
3 2 0 64.11 2.28
3 -2 0 57.97 1.97
3 -2 0 55.77 2.82
3 -2 1 6.57 1.01
3 -2 1 3.18 0.56
3 2 1 3.01 0.51
3 2 1 6.54 0.8
3 2 1 3.33 0.52
3 -2 1 3.88 0.56
3 -2 2 41.52 2.46
3 2 2 41.43 2.41
3 -2 2 42.91 1.89
3 2 2 44.71 1.67
3 2 2 43.81 1.82
3 2 2 42.91 1.87
3 -2 2 42.97 1.79
3 -2 3 225.91 5.74
3 2 3 226.73 5.79
3 -2 3 215.51 4.26
3 2 3 216.54 3.83
3 2 3 232.75 3.83
3 2 3 219.59 4.17
3 2 3 224.34 4.24
3 -2 3 234.89 4.23
3 -2 4 22.1 1.83
3 2 4 20.51 1.82
3 -2 4 21.23 1.39
3 2 4 23.76 1.26
3 2 4 27.78 1.49
3 2 4 23.07 1.4
3 -2 4 24.09 1.4
3 2 5 28.74 2.19
3 -2 5 32.45 2.2
3 -2 5 29 1.59
3 2 5 30.4 1.53
3 2 5 30.45 1.64
3 -2 5 32.1 1.61
3 2 6 28.11 2.21
3 2 6 30.74 1.59
3 -2 6 30.52 2.16
3 2 6 30.72 1.53
3 2 6 29.14 1.66
3 -2 6 30.74 1.61
3 2 7 71.35 3.58
3 2 7 72.46 2.48
3 -2 7 78.24 3.48
3 2 7 72.45 2.3
3 2 7 70.56 2.59
3 -2 7 76.97 2.7
3 -2 7 71.76 2.54
3 2 8 98.56 4.3
3 2 8 93.9 2.89
3 -2 8 111.92 4.25
3 -2 8 106.89 2.77
3 2 8 98.94 2.67
3 -2 8 97 3.09
3 -2 8 96.21 2.97
3 2 9 96.42 4.32
3 2 9 90.63 2.9
3 -2 9 104.82 2.73
3 -2 9 95.36 3.06
3 -2 9 94.89 2.94
3 2 10 106.99 3.19
3 -2 10 112.79 3.35
3 -2 10 105.88 3.1
3 2 11 17.62 1.35
3 -2 11 19.18 1.46
3 -2 11 17.94 1.33
3 2 12 214.22 4.54
3 -2 12 218.83 4.63
3 -2 12 213.39 4.41
3 2 13 82.4 2.82
3 -2 13 85.29 2.91
3 -2 13 83.13 2.72
3 2 14 60.8 2.41
3 -2 14 58.73 2.38
3 -2 14 57.99 2.25
3 2 15 23.94 1.51
3 2 15 23.57 1.5
3 -2 15 23.44 1.46
3 -2 15 24.18 1.41
3 2 16 38.69 1.83
3 2 16 37.07 1.78
3 -2 16 36.56 1.79
3 2 16 36.9 1.63
3 -2 16 36.33 1.66
3 2 17 7.8 0.83
3 2 17 6.96 0.75
3 -2 17 7.8 0.81
3 2 17 7.96 0.74
3 -2 17 7.76 0.75
3 2 18 26.68 1.39
3 2 18 22.96 1.24
3 -2 18 24.05 1.3
3 2 18 23.84 1.17
3 -2 18 24.67 1.21
3 2 19 14.37 0.96
3 2 19 12.21 0.83
3 -2 19 12.66 0.88
3 2 19 12.39 0.79
3 -2 19 11.77 0.78
3 2 20 11.1 0.7
3 -2 20 10.63 0.65
3 2 21 2.2 0.28
3 -3 -20 15.09 0.66
3 3 -20 14.45 0.71
3 3 -19 0.02 0.17
3 -3 -19 0.1 0.15
3 -3 -19 0.14 0.16
3 -3 -18 9.34 0.67
3 -3 -18 9.3 0.66
3 3 -18 9.19 0.71
3 -3 -17 23.45 1.14
3 -3 -17 22.96 1.1
3 3 -17 24.31 1.19
3 3 -16 0.13 0.27
3 -3 -16 0.4 0.23
3 -3 -16 0.16 0.25
3 -3 -16 0.19 0.27
3 3 -15 38.46 1.64
3 -3 -15 36.93 1.49
3 -3 -15 37.16 1.79
3 -3 -15 38.11 1.74
3 3 -14 2.72 0.52
3 -3 -14 2.52 0.44
3 -3 -14 2.28 0.52
3 -3 -14 2.54 0.53
3 3 -13 35.96 1.65
3 -3 -13 34.4 1.48
3 3 -13 33.44 1.5
3 -3 -13 37.57 1.89
3 -3 -13 34.53 1.72
3 3 -12 23.49 1.35
3 -3 -12 23.71 1.16
3 -3 -12 21.88 1.19
3 3 -12 21.27 1.27
3 -3 -12 23.13 1.52
3 -3 -12 22.31 1.39
3 3 -11 3.21 0.55
3 -3 -11 2.91 0.44
3 3 -11 2.31 0.47
3 -3 -11 2.67 0.46
3 -3 -11 2.69 0.57
3 -3 -11 2.32 0.47
3 3 -10 18.01 1.19
3 -3 -10 19.67 1.14
3 -3 -10 17.46 1.09
3 3 -10 17.7 1.25
3 3 -10 20.11 1.1
3 -3 -10 18.43 1.39
3 -3 -10 17.82 1.23
3 -3 -10 18.16 1.26
3 3 -9 22.73 1.32
3 -3 -9 26.49 1.32
3 -3 -9 23.42 1.25
3 3 -9 25.4 1.26
3 3 -9 23.79 1.36
3 -3 -9 23.98 1.54
3 -3 -9 23 1.38
3 -3 -9 23.92 1.42
3 3 -8 29.32 1.48
3 -3 -8 29.61 1.44
3 -3 -8 28.07 1.37
3 3 -8 30.74 1.41
3 3 -8 28.19 1.53
3 -3 -8 29.44 1.7
3 -3 -8 27.32 1.5
3 -3 -8 29.94 1.57
3 -3 -7 199.02 4
3 3 -7 193.81 3.72
3 -3 -7 205.76 3.82
3 -3 -7 193.49 3.55
3 3 -7 203.68 3.63
3 3 -7 198.32 4.11
3 -3 -7 199.32 4.33
3 -3 -7 191.72 3.84
3 -3 -6 92.56 2.7
3 3 -6 90.48 2.51
3 -3 -6 91.74 2.62
3 -3 -6 91.19 2.43
3 3 -6 97.7 2.54
3 -3 -6 92.32 4.11
3 3 -6 91.5 2.84
3 -3 -6 91.8 2.87
3 -3 -6 83.35 3.98
3 3 -5 3.8 0.56
3 -3 -5 3.35 0.56
3 -3 -5 3.4 0.58
3 -3 -5 3.71 0.91
3 3 -5 4.09 0.6
3 -3 -5 2.65 0.69
3 3 -5 4.39 0.69
3 -3 -5 3.52 0.6
3 3 -4 132.66 2.9
3 -3 -4 135.19 3.24
3 -3 -4 144.48 3.39
3 3 -4 148 3.16
3 3 -4 134.03 3.51
3 -3 -4 136.44 3.34
3 -3 -4 128.92 4.87
3 -3 -3 70.96 2.34
3 -3 -3 75.45 2.49
3 3 -3 79.25 2.32
3 3 -3 75.12 2.64
3 -3 -3 76.17 2.43
3 -3 -3 68.19 3.56
3 -3 -2 129.89 3.12
3 -3 -2 139.53 3.44
3 3 -2 130.14 3.47
3 -3 -2 138.19 3.17
3 -3 -2 134.12 4.91
3 -3 -1 149.26 3.33
3 -3 -1 162.02 3.77
3 -3 -1 155.42 3.38
3 3 -1 151.16 3.72
3 -3 -1 166.07 3.25
3 -3 -1 155.28 5.2
3 -3 0 68.44 2.22
3 -3 0 72.28 2.55
3 -3 0 68.29 2.26
3 3 0 74.62 2.63
3 -3 0 76.05 2.26
3 -3 0 70.46 3.49
3 -3 1 30.21 1.68
3 -3 1 30.72 1.52
3 3 1 33.82 1.77
3 -3 1 28.5 1.43
3 -3 1 32.96 2.39
3 -3 2 4.74 1.04
3 -3 2 5.4 0.79
3 -3 2 3.52 0.53
3 3 2 5.46 0.8
3 -3 2 3.69 0.57
3 -3 3 8.81 1.28
3 -3 3 8.93 0.98
3 -3 3 7.78 0.8
3 3 3 8.91 0.88
3 3 3 10.73 1.04
3 -3 3 8.9 0.87
3 -3 4 274.73 6.75
3 3 4 251.61 6.65
3 3 4 258.13 4.68
3 -3 4 263.04 4.96
3 -3 4 257.7 4.46
3 3 4 266.22 4.69
3 3 4 274.57 4.88
3 -3 4 272.05 4.65
3 -3 5 156.07 5.06
3 3 5 139.86 5.05
3 3 5 135.42 3.47
3 -3 5 141.15 3.33
3 3 5 146.5 3.55
3 3 5 146.45 3.58
3 -3 5 151.55 3.54
3 -3 6 383.2 5.48
3 3 6 397.78 5.72
3 3 6 388.54 5.97
3 -3 6 385.71 5.72
3 3 7 260.01 4.95
3 -3 7 259.88 4.53
3 3 7 276.42 4.66
3 -3 7 273.84 4.86
3 3 8 33.39 1.81
3 -3 8 33.7 1.64
3 3 8 33.09 1.62
3 -3 8 34.31 1.79
3 3 9 28.63 1.59
3 3 9 29.65 1.69
3 -3 9 27.77 1.47
3 3 9 29.97 1.48
3 -3 9 29.56 1.65
3 3 10 3.14 0.58
3 3 10 2.61 0.55
3 -3 10 3.66 0.56
3 -3 10 2.81 0.57
3 3 11 75.16 2.6
3 3 11 79.04 2.78
3 -3 11 76.93 2.37
3 -3 11 76.98 2.6
3 3 12 8.97 0.92
3 -3 12 9.43 0.82
3 -3 12 10.23 0.97
3 3 13 26.7 1.55
3 -3 13 26.14 1.3
3 -3 13 26.48 1.51
3 3 14 56.15 2.17
3 -3 14 54.01 2.06
3 3 15 7.61 0.8
3 -3 15 6.51 0.64
3 -3 15 7.24 0.75
3 3 16 9.88 0.87
3 3 16 9.69 0.87
3 -3 16 9.4 0.8
3 3 17 22.42 1.21
3 3 17 21.93 1.2
3 -3 17 21.38 1.14
3 3 18 1.49 0.33
3 3 18 0.78 0.24
3 -3 18 1.32 0.3
3 3 19 5.55 0.53
3 3 19 5.54 0.51
3 -3 19 4.81 0.45
3 3 20 0.1 0.11
3 -3 20 0.05 0.1
3 -4 -18 9.96 0.54
3 -4 -18 10.9 0.6
3 4 -18 10.55 0.62
3 -4 -17 2.85 0.35
3 -4 -17 3.12 0.37
3 4 -17 3.41 0.41
3 -4 -16 8.84 0.64
3 -4 -16 8.78 0.7
3 4 -16 9.09 0.7
3 -4 -15 7.9 0.65
3 -4 -15 6.7 0.7
3 -4 -15 7.28 0.67
3 4 -15 7.61 0.68
3 4 -14 1.74 0.39
3 -4 -14 1.88 0.37
3 -4 -14 1.91 0.45
3 -4 -14 1.53 0.38
3 4 -13 3.67 0.54
3 -4 -13 4.2 0.52
3 4 -13 3.26 0.46
3 -4 -13 3.52 0.58
3 -4 -13 3.58 0.53
3 -4 -12 19.1 1.09
3 4 -12 17.39 1.07
3 -4 -12 19.11 1.28
3 -4 -12 18.79 1.19
3 4 -12 18.77 1.16
3 -4 -11 8.64 0.76
3 4 -11 7.09 0.74
3 -4 -11 8.85 0.91
3 -4 -11 7.24 0.77
3 4 -11 7.48 0.77
3 -4 -11 8.32 0.82
3 -4 -10 23.88 1.26
3 -4 -10 22.13 1.42
3 -4 -10 20.82 1.28
3 4 -10 21.42 1.26
3 -4 -10 23.96 1.36
3 -4 -9 7.65 0.67
3 -4 -9 8.26 0.77
3 4 -9 7.31 0.76
3 -4 -9 7.05 0.83
3 -4 -9 7.57 0.78
3 4 -9 7.56 0.78
3 -4 -9 8.47 0.85
3 -4 -8 37.96 1.51
3 -4 -8 39.57 1.65
3 4 -8 36.82 1.72
3 -4 -8 37.04 1.83
3 -4 -8 37.61 1.7
3 4 -8 38.39 1.67
3 -4 -8 38.18 1.77
3 -4 -7 101.98 2.87
3 -4 -7 91.93 2.45
3 -4 -7 98.26 2.65
3 4 -7 92.65 2.82
3 -4 -7 93.61 2.84
3 -4 -7 91.64 2.62
3 4 -7 94.14 2.6
3 -4 -6 71.44 2.45
3 -4 -6 71.27 2.23
3 -4 -6 73.28 2.28
3 4 -6 72.13 2.56
3 -4 -6 66.5 2.37
3 4 -6 70.16 2.22
3 -4 -5 30.98 1.61
3 -4 -5 30.07 1.52
3 4 -5 28.93 1.66
3 -4 -5 27.51 1.49
3 4 -5 28.22 1.39
3 -4 -4 5 0.7
3 -4 -4 5.23 0.69
3 4 -4 6.31 0.85
3 -4 -4 4.64 0.63
3 4 -4 4.63 0.59
3 -4 -3 148.58 3.5
3 -4 -3 149.46 3.51
3 4 -3 149.16 3.83
3 -4 -2 75.47 2.49
3 -4 -2 74.87 2.55
3 4 -2 78.08 2.78
3 -4 -1 48.69 2
3 -4 -1 49.63 2.13
3 -4 -1 50.43 2.05
3 4 -1 47.94 2.21
3 -4 0 66.72 2.33
3 -4 0 69.78 2.52
3 -4 0 72.68 2.45
3 4 0 70.08 2.65
3 -4 1 251.64 4.43
3 -4 1 264.87 4.95
3 -4 1 260.75 4.63
3 4 1 267.31 5.14
3 -4 2 280.62 5.15
3 -4 2 281.29 4.82
3 4 2 290.92 5.28
3 -4 3 45.29 1.83
3 -4 3 49.38 2.19
3 -4 3 50.09 2.04
3 4 3 53.6 2.3
3 -4 3 48.68 1.86
3 4 4 6.21 0.76
3 -4 4 5.2 0.74
3 -4 4 4.81 0.63
3 4 4 5.42 0.79
3 -4 4 6.17 0.7
3 4 5 56.06 2.21
3 -4 5 57.32 2.17
3 4 5 61.09 2.32
3 -4 5 57.69 2.07
3 4 6 34.87 1.78
3 -4 6 35.53 1.71
3 4 6 35.92 1.69
3 4 6 35.74 1.76
3 -4 6 35.8 1.65
3 4 7 28.45 1.62
3 -4 7 27.9 1.51
3 4 7 30.55 1.58
3 4 7 27.08 1.49
3 -4 7 30.59 1.54
3 4 8 21.16 1.4
3 -4 8 19.52 1.26
3 4 8 19.71 1.21
3 4 8 18.42 1.26
3 -4 8 20.18 1.25
3 4 9 92.94 2.88
3 -4 9 87.74 2.57
3 4 9 91.64 2.45
3 4 9 85.99 2.69
3 -4 9 91.61 2.62
3 4 10 9.7 0.95
3 -4 10 9.48 0.84
3 4 10 8.33 0.86
3 -4 10 8.42 0.81
3 4 11 19.37 1.31
3 -4 11 17.67 1.11
3 4 11 17.91 1.21
3 -4 11 16.48 1.09
3 4 12 11.28 0.87
3 -4 12 12.02 0.88
3 4 12 11.66 0.96
3 -4 12 10.73 0.87
3 4 13 3.01 0.46
3 -4 13 2.69 0.41
3 4 13 2.89 0.48
3 -4 13 2.61 0.45
3 4 14 8.2 0.71
3 -4 14 7.63 0.67
3 -4 14 7.74 0.63
3 4 14 7.82 0.75
3 -4 14 8.26 0.71
3 4 15 4.22 0.49
3 -4 15 4.02 0.46
3 -4 15 4.45 0.44
3 4 15 3.73 0.5
3 -4 15 4.34 0.51
3 4 16 11.29 0.73
3 -4 16 10.56 0.64
3 -4 16 10.7 0.6
3 4 16 12.15 0.81
3 -4 16 11.24 0.73
3 4 17 5.22 0.46
3 4 17 5.19 0.5
3 -4 17 4.76 0.45
3 4 18 1.74 0.28
3 -4 18 1.8 0.26
3 5 -15 0.99 0.23
3 -5 -15 1.07 0.22
3 -5 -15 1.17 0.23
3 -5 -14 29.11 1.06
3 -5 -14 26.57 1.05
3 5 -14 26.7 1.04
3 -5 -13 22.67 0.99
3 -5 -13 21.25 1.07
3 -5 -13 22.22 1.02
3 5 -13 22.26 1
3 -5 -12 6.78 0.59
3 5 -12 5.74 0.52
3 -5 -12 6.21 0.62
3 -5 -12 6.43 0.59
3 5 -12 6.96 0.61
3 5 -11 57.86 1.74
3 -5 -11 59.65 1.9
3 -5 -11 58.97 1.77
3 5 -11 63.02 1.82
3 -5 -10 23.79 1.14
3 5 -10 20.37 1.11
3 -5 -10 19.1 1.11
3 -5 -10 21.68 1.12
3 5 -10 23.34 1.14
3 -5 -10 23.11 1.19
3 -5 -9 2.52 0.45
3 5 -9 2.19 0.41
3 -5 -9 2.21 0.4
3 5 -9 1.81 0.36
3 -5 -9 1.72 0.35
3 -5 -9 1.93 0.38
3 -5 -8 9.27 0.76
3 5 -8 8.12 0.74
3 -5 -8 8.38 0.77
3 -5 -8 8.99 0.73
3 5 -8 9.03 0.75
3 -5 -8 10.01 0.85
3 -5 -7 32.85 1.55
3 -5 -7 33.28 1.45
3 5 -7 30.48 1.47
3 -5 -7 28.99 1.37
3 -5 -7 30.91 1.35
3 5 -7 30.65 1.35
3 -5 -6 46.66 1.84
3 -5 -6 43.32 1.46
3 -5 -6 48.02 1.75
3 5 -6 42.4 1.81
3 -5 -6 42.44 1.62
3 5 -6 42.6 1.58
3 -5 -5 23.55 1.34
3 -5 -5 20.41 1.07
3 -5 -5 25.06 1.29
3 5 -5 22.39 1.36
3 5 -5 22.52 1.14
3 -5 -4 64 2.2
3 -5 -4 61.67 1.94
3 5 -4 65.57 2.37
3 5 -4 60.99 1.85
3 -5 -3 11.83 0.99
3 -5 -3 11.09 0.87
3 5 -3 12.2 1.1
3 -5 -2 16.77 1.14
3 -5 -2 14.01 1.01
3 5 -2 16.62 1.23
3 -5 -1 11.47 0.94
3 -5 -1 10.76 0.91
3 5 -1 12.02 1.07
3 -5 0 13.47 1.01
3 -5 0 12.22 1
3 5 0 14.08 1.16
3 -5 1 21.8 1.27
3 -5 1 20.61 1.29
3 -5 1 24.29 1.38
3 5 1 23.98 1.49
3 -5 2 1.96 0.44
3 -5 2 1.71 0.42
3 -5 2 1.94 0.47
3 5 2 1.82 0.5
3 -5 3 5.17 0.62
3 -5 3 5.07 0.69
3 -5 3 6.29 0.74
3 5 3 5.28 0.72
3 -5 4 49.33 1.77
3 -5 4 51.05 2.04
3 -5 4 56.98 2.04
3 5 4 52.52 2.07
3 -5 5 26.63 1.25
3 5 5 26.01 1.34
3 -5 5 26.5 1.47
3 -5 5 28.7 1.46
3 5 5 26.31 1.43
3 5 6 36.01 1.59
3 -5 6 35.01 1.66
3 -5 6 39.15 1.65
3 5 6 36.29 1.61
3 5 7 7.37 0.74
3 -5 7 6.51 0.73
3 -5 7 7.53 0.73
3 5 7 6.99 0.69
3 5 8 0.14 0.22
3 -5 8 0 0.28
3 -5 8 0.32 0.19
3 5 8 0.63 0.24
3 5 9 5.95 0.65
3 -5 9 4.31 0.57
3 -5 9 4.37 0.54
3 5 9 5.19 0.53
3 -5 9 3.57 0.41
3 5 10 6.27 0.65
3 -5 10 5.3 0.6
3 -5 10 5.87 0.59
3 -5 10 4.69 0.46
3 -5 11 4.19 0.51
3 -5 11 4.98 0.52
3 5 11 4.21 0.45
3 -5 11 4.38 0.44
3 -5 12 12.32 0.81
3 -5 12 13.64 0.78
3 5 12 12.38 0.72
3 -5 12 11.06 0.66
3 -5 13 1.03 0.24
3 -5 13 0.87 0.2
3 5 13 0.64 0.2
3 -5 13 0.53 0.17
3 -5 14 4.78 0.42
3 -5 14 4.63 0.38
3 -5 14 4.37 0.36
3 -6 -10 3.59 0.35
3 -6 -9 10.64 0.62
3 6 -9 8.43 0.56
3 -6 -8 6.42 0.51
3 6 -8 5.53 0.51
3 -6 -8 5.89 0.51
3 6 -7 13.67 0.73
3 -6 -7 15.28 0.83
3 -6 -6 5.45 0.5
3 6 -6 4.75 0.5
3 -6 -6 5.47 0.53
3 -6 -5 9.76 0.68
3 6 -5 8.06 0.66
3 -6 -5 8.78 0.67
3 -6 -4 17.07 0.94
3 -6 -4 17.69 0.92
3 6 -4 16.2 0.96
3 -6 -3 1.93 0.36
3 -6 -3 1.91 0.36
3 6 -3 1.95 0.4
3 -6 -2 5.45 0.55
3 -6 -2 5.34 0.54
3 6 -2 4.78 0.56
3 -6 -1 3.39 0.45
3 -6 -1 2.4 0.33
3 6 -1 3.32 0.49
3 -6 0 13.07 0.82
3 -6 0 11.57 0.71
3 6 0 13.67 0.93
3 -6 1 1.6 0.37
3 -6 1 1.73 0.33
3 6 1 2.45 0.48
3 -6 2 47.18 1.48
3 -6 2 46.32 1.47
3 6 2 51.11 1.74
3 -6 3 25.49 1.05
3 -6 3 24.2 1.09
3 6 3 26.91 1.25
3 -6 4 13.82 0.74
3 -6 4 13.12 0.8
3 6 4 14.42 0.9
3 -6 5 25.57 0.94
3 -6 5 26.35 1.12
3 6 5 28.03 1.17
3 -6 6 3.51 0.43
3 6 6 3.18 0.41
3 -6 7 7.69 0.59
3 6 7 8.42 0.56
3 -6 8 14.63 0.77
3 -6 9 4.14 0.4
3 -6 10 0.84 0.19
4 0 -19 0 0.12
4 0 -18 15.9 0.78
4 0 -17 -0.04 0.18
4 0 -17 -0.21 0.16
4 0 -16 1.23 0.27
4 0 -16 0.82 0.19
4 0 -15 -0.32 0.27
4 0 -15 -0.12 0.18
4 0 -15 -0.2 0.24
4 0 -14 2.09 0.37
4 0 -14 2.71 0.43
4 0 -14 1.88 0.33
4 0 -13 -0.23 0.29
4 0 -13 0.1 0.21
4 0 -12 50.94 1.84
4 0 -12 50.73 1.77
4 0 -11 0.34 0.27
4 0 -11 0.29 0.31
4 0 -10 76.58 2.29
4 0 -10 77.31 2.23
4 0 -10 78.9 2.38
4 0 -9 0.43 0.31
4 0 -9 0.61 0.36
4 0 -9 0.73 0.44
4 0 -8 118.31 2.84
4 0 -8 122.09 2.84
4 0 -8 125.59 2.86
4 0 -8 125.39 3.14
4 0 -7 1.09 0.33
4 0 -7 0.36 0.3
4 0 -7 0.88 0.45
4 0 -7 1.3 0.44
4 0 -6 40.88 1.63
4 0 -6 41.81 1.67
4 0 -6 40.81 1.64
4 0 -6 41.82 1.85
4 0 -5 0.08 0.19
4 0 -5 -0.12 0.25
4 0 -4 45.69 1.76
4 0 -4 45.09 1.72
4 0 -4 44.49 1.91
4 0 -4 42.85 1.79
4 0 -3 0.25 0.24
4 0 -3 0.22 0.33
4 0 -3 0.06 0.28
4 0 -2 103.88 2.59
4 0 -2 95.94 2.52
4 0 -2 102.29 2.85
4 0 -2 99.58 2.65
4 0 -1 0.9 0.33
4 0 -1 1.72 0.48
4 0 -1 0.8 0.34
4 0 0 1.55 0.35
4 0 0 1.89 0.47
4 0 0 1.18 0.33
4 0 1 0.24 0.25
4 0 1 0.47 0.29
4 0 2 93.51 2.37
4 0 2 95.09 2.62
4 0 2 91.92 2.38
4 0 3 0.73 0.3
4 0 3 1.39 0.61
4 0 4 204.93 3.69
4 0 4 200.42 3.33
4 0 4 205.38 4.27
4 0 5 0.83 0.51
4 0 6 66.35 2.41
4 0 6 68.36 2.33
4 0 7 0.59 0.43
4 0 7 1.05 0.41
4 0 8 128.42 3.34
4 0 8 130.78 3.18
4 0 9 1.36 0.55
4 0 9 2.4 0.52
4 0 10 147.28 3.39
4 0 10 149.16 3.22
4 0 11 0.61 0.4
4 0 11 0.78 0.36
4 0 12 71.1 2.22
4 0 12 74.55 2.11
4 0 13 0.16 0.24
4 0 13 0.31 0.25
4 0 14 56.28 1.76
4 0 15 0.45 0.22
4 1 -19 21.15 0.77
4 -1 -19 21.34 0.76
4 1 -18 2.95 0.34
4 -1 -18 2.86 0.33
4 -1 -18 1.89 0.24
4 1 -17 6.63 0.55
4 -1 -17 6.39 0.53
4 -1 -17 5.42 0.46
4 1 -16 27.07 1.14
4 -1 -16 25.77 1.12
4 -1 -16 24.75 1
4 1 -16 23.68 0.88
4 1 -15 5.83 0.57
4 -1 -15 6.3 0.6
4 -1 -15 6.01 0.55
4 1 -15 5.55 0.49
4 1 -14 8.62 0.72
4 -1 -14 8.11 0.72
4 -1 -14 8.35 0.67
4 1 -14 7.86 0.63
4 1 -13 16.1 1.01
4 -1 -13 16.13 1.04
4 1 -13 17.34 1.01
4 -1 -13 15.44 0.94
4 1 -13 16.35 0.96
4 1 -13 13.97 0.88
4 1 -12 81.75 2.28
4 -1 -12 80.63 2.31
4 1 -12 83.62 2.23
4 -1 -12 79.86 2.17
4 1 -12 77.76 2.16
4 1 -12 73.7 2.11
4 1 -11 22.88 1.23
4 -1 -11 23.64 1.29
4 1 -11 24.54 1.26
4 -1 -11 22.74 1.22
4 1 -11 23.1 1.27
4 1 -11 21.58 1.2
4 1 -10 72.01 2.19
4 -1 -10 73.74 2.28
4 1 -10 75.02 2.17
4 -1 -10 77.3 2.23
4 1 -10 72.81 2.3
4 1 -10 74.23 2.25
4 1 -9 0.51 0.29
4 -1 -9 0.7 0.35
4 1 -9 0.89 0.35
4 -1 -9 0.74 0.37
4 1 -9 0.51 0.38
4 1 -9 0.23 0.28
4 1 -8 59.78 1.98
4 -1 -8 60.43 2.07
4 1 -8 61.05 1.99
4 -1 -8 63.8 2.09
4 1 -8 64.97 2
4 -1 -8 69 2.11
4 1 -8 63.01 2.24
4 1 -8 64.02 2.15
4 1 -7 60.34 1.96
4 -1 -7 60.77 2.04
4 1 -7 62.39 2
4 -1 -7 64.16 2.12
4 1 -7 66.34 2
4 -1 -7 69.6 2.1
4 1 -7 63.82 2.27
4 1 -7 66.27 2.21
4 1 -6 27.36 1.3
4 -1 -6 26.27 1.34
4 1 -6 28.05 1.34
4 -1 -6 28.48 1.41
4 1 -6 27.75 1.33
4 -1 -6 29.53 1.38
4 1 -6 28.34 1.55
4 1 -6 28.25 1.46
4 -1 -5 1.17 0.32
4 1 -5 1.15 0.32
4 -1 -5 1.29 0.37
4 1 -5 0.67 0.24
4 -1 -5 1 0.28
4 1 -5 1.97 0.51
4 1 -5 1.11 0.34
4 1 -4 22.21 1.17
4 -1 -4 22.85 1.29
4 1 -4 21.04 1.15
4 -1 -4 23.2 1.23
4 1 -4 23.05 1.4
4 1 -4 21.91 1.29
4 1 -3 16.13 0.99
4 -1 -3 16.34 1.12
4 1 -3 13.81 0.94
4 -1 -3 15.56 1.01
4 1 -3 15.78 1.2
4 1 -3 15.43 1.08
4 1 -2 35.55 1.44
4 -1 -2 34.68 1.59
4 1 -2 33.96 1.48
4 -1 -2 35.18 1.54
4 1 -2 37.05 1.77
4 1 -2 35.48 1.61
4 1 -1 90.38 2.23
4 -1 -1 82.6 2.45
4 1 -1 76.75 2.23
4 -1 -1 78.89 2.29
4 1 -1 86.55 2.63
4 1 -1 84.85 2.45
4 -1 0 47 1.87
4 1 0 52.62 2.04
4 1 0 49.64 1.86
4 -1 0 45.59 1.7
4 -1 1 18.85 1.18
4 1 1 19.07 1.23
4 1 1 19.11 1.17
4 1 1 20.04 1.31
4 -1 1 17.72 1.03
4 -1 2 23.95 1.31
4 1 2 25.14 1.37
4 1 2 26.42 1.32
4 1 2 27.58 1.56
4 -1 3 15.75 1.07
4 1 3 16.28 1.08
4 1 3 18.5 1.11
4 1 3 17.66 1.27
4 -1 3 18.67 1.26
4 -1 4 7.13 0.73
4 1 4 7.68 0.74
4 1 4 7.44 0.85
4 -1 4 8.26 0.89
4 -1 5 0.22 0.22
4 1 5 0.8 0.31
4 1 5 0.54 0.31
4 -1 5 0.62 0.3
4 -1 6 3.72 0.49
4 1 6 4.48 0.7
4 -1 6 4.28 0.63
4 1 7 32.23 1.72
4 -1 7 35.34 1.72
4 1 8 6.43 0.85
4 -1 8 7.02 0.81
4 1 9 114.87 3.13
4 -1 9 115.31 3.04
4 1 10 1.27 0.5
4 -1 10 1.29 0.45
4 1 11 15.84 1.14
4 -1 11 18.16 1.17
4 1 12 16.35 1.11
4 -1 12 17.9 1.11
4 1 13 4.06 0.56
4 -1 13 4.01 0.53
4 1 14 29.36 1.33
4 -1 14 28.72 1.25
4 1 15 7.87 0.66
4 -1 15 7.9 0.61
4 1 16 2.06 0.34
4 -1 16 2 0.3
4 1 17 8.15 0.53
4 -2 -18 2.58 0.28
4 2 -18 2.83 0.3
4 -2 -17 14.17 0.7
4 2 -17 14.92 0.74
4 -2 -16 12.83 0.74
4 2 -16 13.09 0.75
4 2 -15 10.59 0.73
4 -2 -15 9.88 0.71
4 -2 -15 9.19 0.59
4 2 -14 71.22 1.92
4 -2 -14 72.45 1.96
4 -2 -14 70.04 1.7
4 2 -13 87.28 2.2
4 -2 -13 86.05 2.22
4 -2 -13 85.4 2
4 2 -13 80.1 1.98
4 2 -13 82.78 1.87
4 2 -12 78.3 2.14
4 -2 -12 78.41 2.19
4 -2 -12 78.32 2
4 2 -12 76.14 2.08
4 2 -12 75.39 1.93
4 2 -11 4.84 0.58
4 -2 -11 3.96 0.54
4 -2 -11 4.49 0.55
4 2 -11 4.13 0.56
4 2 -11 4 0.5
4 2 -10 17.2 1.05
4 -2 -10 16.12 1.06
4 -2 -10 16.6 1
4 2 -10 17.95 1.18
4 2 -10 16.49 1
4 2 -9 36.01 1.5
4 2 -9 34.66 1.43
4 -2 -9 33.78 1.54
4 -2 -9 37.17 1.53
4 2 -9 37.49 1.71
4 2 -9 34.72 1.49
4 2 -8 73.98 2.15
4 2 -8 74.56 2.09
4 -2 -8 73.53 2.25
4 -2 -8 83.66 2.34
4 2 -8 78.98 2.48
4 2 -8 81.26 2.33
4 2 -7 101.86 2.48
4 2 -7 105.34 2.47
4 -2 -7 114.95 2.79
4 2 -7 107.67 2.96
4 2 -7 113.48 2.78
4 2 -6 51.88 1.73
4 -2 -6 59.31 2.04
4 2 -6 55.83 1.74
4 -2 -6 60.34 1.86
4 2 -6 52.85 2.13
4 2 -6 57.63 2.01
4 2 -6 56.28 2.17
4 2 -5 18.92 1.04
4 -2 -5 19.91 1.22
4 2 -5 18.46 1.03
4 -2 -5 21.51 1.13
4 2 -5 19.67 1.34
4 2 -5 19.24 1.2
4 2 -5 19.59 1.35
4 2 -4 8.36 0.69
4 -2 -4 8.19 0.8
4 2 -4 7.73 0.69
4 -2 -4 7.7 0.7
4 2 -4 8.25 0.9
4 2 -4 8.58 0.84
4 2 -4 8.46 0.92
4 -2 -3 67.37 2.26
4 2 -3 70.65 1.97
4 -2 -3 76.48 2.1
4 2 -3 70.04 2.42
4 2 -3 71.39 2.27
4 2 -3 73.02 2.55
4 -2 -2 22.75 1.36
4 2 -2 22.66 1.13
4 -2 -2 24.48 1.2
4 2 -2 23.97 1.44
4 2 -2 25.59 1.37
4 2 -2 24.78 1.52
4 -2 -1 25.61 1.44
4 2 -1 25.98 1.23
4 -2 -1 27.25 1.27
4 2 -1 27.55 1.51
4 2 -1 27.85 1.44
4 2 -1 27.41 1.59
4 -2 0 35.88 1.7
4 2 0 33.29 1.39
4 -2 0 37.02 1.49
4 2 0 38.07 1.74
4 2 0 36.86 1.82
4 -2 1 16.13 1.16
4 2 1 13.58 0.92
4 -2 1 14.78 0.96
4 2 1 17.3 1.17
4 2 1 17.1 1.15
4 2 1 17.08 1.25
4 -2 2 15.68 1.14
4 2 2 16.56 1.13
4 2 2 16.93 1.18
4 2 2 17.46 1.25
4 -2 2 16.02 1.19
4 -2 3 69.68 2.39
4 2 3 68.02 2.18
4 2 3 72 2.39
4 2 3 72.12 2.47
4 -2 3 73.57 2.46
4 -2 4 12.01 1
4 2 4 11.21 0.87
4 2 4 12.2 1.04
4 2 4 12.4 1.05
4 -2 4 10.69 0.99
4 -2 5 30.89 1.54
4 2 5 34.36 1.44
4 2 5 33.6 1.71
4 2 5 34.54 1.66
4 -2 5 35.99 1.7
4 -2 6 5.37 0.65
4 2 6 6.01 0.71
4 2 6 5.78 0.73
4 -2 6 6.1 0.77
4 -2 7 1.9 0.41
4 2 7 1.95 0.47
4 -2 7 1.54 0.47
4 -2 8 10.77 0.84
4 2 8 11.91 1.02
4 -2 8 12.54 1.02
4 -2 9 3.3 0.46
4 2 9 3.53 0.61
4 -2 9 3.27 0.57
4 2 10 10.99 0.98
4 -2 10 11.37 0.94
4 2 11 36.13 1.66
4 -2 11 34.81 1.55
4 2 12 6.36 0.72
4 -2 12 6.09 0.67
4 2 13 22.98 1.21
4 -2 13 24.16 1.18
4 2 14 27.13 1.23
4 -2 14 26.64 1.16
4 2 15 14.45 0.83
4 -2 15 13.91 0.78
4 2 16 10.75 0.65
4 -2 16 10.99 0.62
4 2 17 1.03 0.19
4 3 -16 0.83 0.19
4 -3 -16 0.9 0.2
4 -3 -15 26.04 0.97
4 3 -15 25.91 0.96
4 -3 -14 12.1 0.73
4 3 -14 12.6 0.73
4 -3 -13 24.55 1.08
4 -3 -13 25.13 0.9
4 3 -13 24.1 0.95
4 3 -13 24.72 1.05
4 -3 -12 9.12 0.7
4 -3 -12 8.74 0.59
4 3 -12 7.91 0.62
4 3 -12 9.58 0.69
4 -3 -11 12.28 0.83
4 -3 -11 13.16 0.76
4 3 -11 12.62 0.86
4 3 -11 13.09 0.82
4 3 -10 1.59 0.34
4 -3 -10 1.43 0.27
4 3 -10 1.83 0.4
4 -3 -9 10.77 0.76
4 3 -9 10.02 0.86
4 3 -9 9.85 0.74
4 -3 -8 32.27 1.34
4 3 -8 33.15 1.54
4 3 -8 31.68 1.44
4 3 -8 29.84 1.26
4 -3 -7 7.29 0.69
4 3 -7 6.84 0.77
4 3 -7 6.25 0.7
4 3 -7 6.57 0.61
4 -3 -6 3.55 0.5
4 3 -6 2.91 0.53
4 3 -6 3.71 0.59
4 -3 -5 13.79 0.96
4 3 -5 14.36 1.12
4 3 -5 13.93 1.08
4 -3 -4 19.48 1.2
4 3 -4 20.18 1.3
4 3 -4 20.44 1.3
4 -3 -3 15.24 1.07
4 3 -3 13.95 1.11
4 3 -3 13 1.09
4 -3 -2 50.75 1.98
4 3 -2 49.28 2.01
4 3 -2 49.22 2.08
4 -3 -1 75.74 2.43
4 3 -1 74.13 2.42
4 3 -1 78.29 2.59
4 -3 0 121.51 3.09
4 3 0 119.69 3.02
4 -3 1 180.24 3.76
4 3 1 177.5 3.6
4 3 1 188.67 3.99
4 -3 2 59.2 2.18
4 3 2 58.18 2.02
4 3 2 63.79 2.32
4 -3 3 15.19 1.13
4 3 3 14.91 1
4 3 3 14.82 0.98
4 3 3 16.78 1.21
4 -3 3 16.29 1.07
4 -3 4 10.29 0.94
4 3 4 9.24 0.76
4 3 4 10.4 0.85
4 3 4 9.64 0.91
4 -3 4 9.98 0.85
4 -3 5 70.27 2.29
4 3 5 72 2.21
4 3 5 72.7 2.28
4 -3 5 68.33 2.21
4 -3 6 4.09 0.61
4 3 6 5.1 0.67
4 3 6 4.77 0.63
4 -3 6 4.63 0.61
4 -3 7 69.87 2.17
4 3 7 73.58 2.13
4 3 7 74.56 2.27
4 -3 7 72.85 2.21
4 -3 8 43.31 1.65
4 3 8 48.9 1.83
4 -3 8 46.75 1.75
4 -3 9 65.54 1.94
4 3 9 72.16 2.19
4 -3 9 66.46 2.06
4 -3 10 0.63 0.28
4 3 10 0.83 0.35
4 -3 10 0.76 0.31
4 -3 11 11.31 0.7
4 3 11 12.69 0.89
4 -3 11 11.43 0.8
4 3 12 18.62 1.02
4 -3 12 17.17 0.93
4 3 13 10.87 0.74
4 -3 13 10.12 0.68
4 3 14 24.37 1
4 -3 14 22.83 0.93
4 3 15 1.99 0.29
4 -3 15 2.11 0.27
4 -4 -13 10.17 0.56
4 -4 -12 9.87 0.59
4 4 -12 9.6 0.54
4 -4 -11 8.18 0.58
4 4 -11 9.23 0.6
4 4 -11 8.74 0.54
4 -4 -10 17.39 0.71
4 4 -10 18.35 0.91
4 4 -10 17.15 0.78
4 -4 -9 25.23 0.93
4 4 -9 27.12 1.19
4 4 -9 24.8 0.95
4 -4 -8 27.37 1.03
4 4 -8 28.66 1.27
4 4 -8 26.36 1.12
4 -4 -7 33.42 1.2
4 4 -7 36.13 1.48
4 4 -7 34.02 1.35
4 -4 -6 13.35 0.8
4 4 -6 14.76 1.01
4 4 -6 14.7 0.96
4 -4 -5 14.86 0.89
4 4 -5 14.97 1.03
4 4 -5 14.51 0.99
4 -4 -4 9.46 0.73
4 4 -4 9.95 0.85
4 4 -4 11.17 0.89
4 -4 -3 4.95 0.57
4 4 -3 4.97 0.62
4 4 -3 6.07 0.69
4 -4 -2 5.04 0.57
4 4 -2 5.71 0.67
4 4 -2 6.78 0.75
4 -4 -1 17.96 1.06
4 4 -1 17.58 1.1
4 4 -1 20.33 1.22
4 -4 0 2.27 0.44
4 4 0 2.28 0.44
4 4 0 2.86 0.53
4 -4 1 4.81 0.6
4 4 1 5.95 0.63
4 4 1 6.55 0.71
4 -4 2 10.3 0.85
4 4 2 9.35 0.75
4 4 2 10.05 0.87
4 -4 3 13.57 0.97
4 4 3 12.37 0.82
4 4 3 13.45 0.98
4 -4 4 28.33 1.35
4 4 4 26.2 1.09
4 4 4 28.79 1.36
4 -4 5 28.64 1.34
4 4 5 30.99 1.35
4 -4 6 53.19 1.75
4 4 6 56.48 1.73
4 -4 7 17.27 0.99
4 4 7 18.63 0.94
4 -4 7 16.63 0.86
4 -4 8 26.32 1.15
4 4 8 26.3 1.02
4 -4 8 25.63 1.04
4 -4 9 15.87 0.85
4 4 9 16.14 0.79
4 -4 9 15.14 0.79
4 -4 10 3.93 0.4
4 4 10 3.75 0.39
4 -4 10 3.92 0.4
4 -4 11 15.17 0.69
4 4 11 15.93 0.72
4 -4 11 15.45 0.72
4 -4 12 4.78 0.37
4 5 -8 2.77 0.32
4 5 -7 1.02 0.24
4 5 -6 3.83 0.4
4 5 -6 3.51 0.36
4 -5 -5 2.07 0.24
4 5 -5 2.23 0.34
4 5 -5 2.42 0.33
4 -5 -4 0.45 0.15
4 5 -4 0.6 0.21
4 5 -4 0.52 0.23
4 -5 -3 12.18 0.63
4 5 -3 14.1 0.8
4 5 -3 14.14 0.81
4 -5 -2 5.8 0.46
4 5 -2 6.38 0.56
4 5 -2 7.17 0.61
4 -5 -1 31.28 1.08
4 5 -1 32.86 1.19
4 -5 0 7.99 0.57
4 5 0 8.39 0.6
4 5 0 8.84 0.68
4 -5 1 0.78 0.21
4 5 1 0.85 0.23
4 5 1 1.28 0.3
4 -5 2 5.82 0.5
4 5 2 5.78 0.45
4 5 2 7.25 0.59
4 -5 3 14.97 0.77
4 5 3 17.08 0.87
4 -5 4 8.55 0.59
4 5 4 9.98 0.64
4 -5 5 3.04 0.35
4 5 5 3.98 0.39
4 -5 6 5.94 0.46
4 -5 7 6.37 0.45
5 0 -11 1.55 0.24
5 0 -10 0.22 0.17
5 0 -10 0.32 0.17
5 0 -9 46.63 1.28
5 0 -9 44.12 1.32
5 0 -8 0.35 0.2
5 0 -8 0.57 0.26
5 0 -7 15.27 0.77
5 0 -7 15.39 0.84
5 0 -6 0.14 0.16
5 0 -6 0.35 0.22
5 0 -5 15.61 0.79
5 0 -5 14.9 0.83
5 0 -4 0.11 0.16
5 0 -4 0.08 0.24
5 0 -4 0.3 0.24
5 0 -3 7.5 0.55
5 0 -3 8.01 0.62
5 0 -3 8.21 0.62
5 0 -2 -0.1 0.15
5 0 -2 -0.21 0.21
5 0 -1 5.68 0.46
5 0 -1 4.82 0.49
5 0 0 1.7 0.48
5 0 1 32.73 1.22
5 0 2 3.74 0.64
5 0 3 84.57 1.94
5 0 4 0.37 0.35
5 0 5 8.64 0.63
5 0 6 -0.11 0.19
5 0 7 22.41 0.93
5 0 8 -0.55 0.25
5 0 9 1.71 0.23
5 0 10 -0.44 0.18
5 -1 -11 4.32 0.37
5 -1 -11 4.85 0.39
5 -1 -10 10.1 0.58
5 -1 -10 8.85 0.55
5 -1 -9 14.91 0.72
5 -1 -9 13.21 0.7
5 -1 -8 22.4 0.92
5 1 -8 21.51 0.93
5 -1 -8 20.19 0.89
5 -1 -7 45.5 1.32
5 1 -7 45.01 1.37
5 -1 -7 42.64 1.31
5 1 -6 1.13 0.24
5 -1 -6 0.84 0.24
5 -1 -6 0.71 0.26
5 1 -5 6.25 0.46
5 -1 -5 6.53 0.53
5 -1 -5 6.15 0.53
5 -1 -4 4.15 0.43
5 -1 -4 4.7 0.46
5 -1 -3 1.72 0.3
5 1 -3 1.66 0.3
5 -1 -3 1.44 0.28
5 -1 -3 1.53 0.28
5 -1 -2 5.62 0.5
5 1 -2 4.66 0.44
5 -1 -2 5.05 0.46
5 -1 -2 5.97 0.48
5 -1 -1 0.67 0.2
5 1 -1 1.04 0.28
5 -1 -1 1.36 0.36
5 -1 -1 1.16 0.24
5 -1 0 17.27 0.83
5 1 0 20.21 0.96
5 -1 0 19.79 0.95
5 -1 1 34.74 1.14
5 1 1 37.8 1.26
5 -1 1 35.85 1.24
5 -1 2 24.81 0.93
5 1 2 28.33 1.1
5 -1 2 26.71 1.08
5 1 3 40.01 1.29
5 -1 3 38.59 1.26
5 1 4 33.39 1.16
5 -1 4 32.74 1.15
5 1 5 50.11 1.38
5 -1 5 45.84 1.32
5 1 6 3.3 0.38
5 -1 6 3.2 0.37
5 1 7 6.17 0.47
5 -1 7 5.2 0.43
5 1 8 2.42 0.29
5 -1 8 2.12 0.26
5 1 9 0.11 0.13
5 -1 9 0.21 0.11
5 -1 10 4.04 0.31
5 -2 -9 3.67 0.34
5 -2 -9 3.48 0.32
5 -2 -8 3.03 0.32
5 -2 -8 2.89 0.31
5 -2 -7 2.16 0.29
5 2 -7 2.77 0.38
5 -2 -7 1.95 0.26
5 -2 -6 0.53 0.18
5 2 -6 1.13 0.3
5 -2 -6 0.65 0.17
5 -2 -5 9.92 0.62
5 2 -5 10.28 0.69
5 -2 -5 8.69 0.51
5 -2 -4 5.55 0.48
5 -2 -4 5.14 0.39
5 -2 -3 13.6 0.74
5 2 -3 14.43 0.82
5 -2 -2 12.54 0.71
5 2 -2 14.79 0.84
5 -2 -1 38.54 1.23
5 2 -1 52.75 1.26
5 -2 -1 47.02 1.22
5 2 -1 37.35 1.28
5 -2 0 62.49 1.54
5 -2 0 67.09 1.42
5 2 1 22.88 0.84
5 -2 1 21.92 0.84
5 -2 2 11.45 0.64
5 2 2 13.37 0.63
5 -2 2 12.79 0.63
5 -2 3 15.07 0.7
5 2 3 16.12 0.68
5 -2 3 15.04 0.66
5 -2 4 9.51 0.52
5 2 4 9.81 0.52
5 -2 4 9.28 0.51
5 2 5 13.99 0.6
5 -2 5 13.6 0.59
5 -2 6 21.69 0.71
5 -3 -5 3.97 0.34
5 3 -5 4.83 0.42
5 -3 -4 18.65 0.72
5 3 -4 17.44 0.76
5 -3 -3 4.49 0.38
5 3 -3 4.96 0.43
5 -3 -2 13.92 0.65
5 3 -2 13.53 0.67
5 -3 -1 7.98 0.5
5 3 -1 8.14 0.52
5 -3 0 3.22 0.33
5 -3 1 10.5 0.55
5 -3 2 2.93 0.3
loop_
_geom_angle_atom_site_label_1
_geom_angle_atom_site_label_2
_geom_angle_atom_site_label_3
_geom_angle
_geom_angle_site_symmetry_1
_geom_angle_site_symmetry_3
_geom_angle_publ_flag
C9 O4 C16 110.65(11) . . ?
C9 O3 C8 115.88(11) . . ?
C1 O2 C8 110.92(11) . . ?
C14 C15 C16 130.33(14) . . ?
C10 C15 C16 107.97(13) . . ?
C10 C15 C14 121.69(15) . . ?
C12 C13 C14 120.90(16) . . ?
C7 C6 C5 117.24(14) . . ?
O5 C16 O4 121.24(16) . . ?
C15 C16 O4 108.07(12) . . ?
C15 C16 O5 130.69(16) . . ?
C4 C5 C6 121.60(15) . . ?
O2 C8 O3 110.40(12) . . ?
C7 C8 O3 110.13(11) . . ?
C7 C8 O2 104.32(12) . . ?
C8 C7 C6 129.80(13) . . ?
C2 C7 C6 121.39(13) . . ?
C2 C7 C8 108.81(12) . . ?
C12 C11 C10 117.53(15) . . ?
O3 C9 O4 110.85(12) . . ?
C10 C9 O4 104.21(11) . . ?
C10 C9 O3 109.67(12) . . ?
C4 C3 C2 117.13(15) . . ?
C3 C2 C7 121.69(13) . . ?
C1 C2 C7 108.25(13) . . ?
C1 C2 C3 130.06(14) . . ?
C13 C14 C15 117.44(15) . . ?
C11 C10 C15 121.18(14) . . ?
C9 C10 C15 109.09(13) . . ?
C9 C10 C11 129.73(13) . . ?
C11 C12 C13 121.26(17) . . ?
O1 C1 O2 121.65(16) . . ?
C2 C1 O2 107.66(13) . . ?
C2 C1 O1 130.67(18) . . ?
C3 C4 C5 120.94(15) . . ?
loop_
_geom_bond_atom_site_label_1
_geom_bond_atom_site_label_2
_geom_bond_distance
_geom_bond_site_symmetry_2
_geom_bond_publ_flag
O4 C16 1.3704(19) . ?
O4 C9 1.4485(17) . ?
O3 C8 1.4049(16) . ?
O3 C9 1.4009(16) . ?
O5 C16 1.1968(19) . ?
O2 C8 1.4386(19) . ?
O2 C1 1.372(2) . ?
O1 C1 1.195(2) . ?
C15 C16 1.473(2) . ?
C15 C14 1.387(2) . ?
C15 C10 1.376(2) . ?
C13 C14 1.382(3) . ?
C13 C12 1.389(3) . ?
C6 C5 1.380(2) . ?
C6 C7 1.378(2) . ?
C5 C4 1.385(3) . ?
C8 C7 1.4957(19) . ?
C7 C2 1.372(2) . ?
C11 C10 1.380(2) . ?
C11 C12 1.389(2) . ?
C9 C10 1.494(2) . ?
C3 C2 1.386(2) . ?
C3 C4 1.380(2) . ?
C2 C1 1.471(2) . ?
loop_
_geom_torsion_atom_site_label_1
_geom_torsion_atom_site_label_2
_geom_torsion_atom_site_label_3
_geom_torsion_atom_site_label_4
_geom_torsion
_geom_torsion_site_symmetry_1
_geom_torsion_site_symmetry_2
_geom_torsion_site_symmetry_3
_geom_torsion_site_symmetry_4
_geom_torsion_publ_flag
O4 C16 C15 C14 -178.41(12) . . . . ?
O4 C16 C15 C10 -0.03(14) . . . . ?
O4 C9 O3 C8 84.80(13) . . . . ?
O4 C9 C10 C15 -1.37(12) . . . . ?
O4 C9 C10 C11 178.22(11) . . . . ?
O3 C8 O2 C1 -119.46(13) . . . . ?
O3 C8 C7 C6 -61.59(16) . . . . ?
O3 C8 C7 C2 118.60(13) . . . . ?
O3 C9 C10 C15 -120.08(12) . . . . ?
O3 C9 C10 C11 59.50(15) . . . . ?
O5 C16 C15 C14 1.2(2) . . . . ?
O5 C16 C15 C10 179.5(2) . . . . ?
O2 C8 C7 C6 179.94(11) . . . . ?
O2 C8 C7 C2 0.12(13) . . . . ?
O2 C1 C2 C7 -1.61(15) . . . . ?
O2 C1 C2 C3 178.84(13) . . . . ?
O1 C1 C2 C7 177.0(2) . . . . ?
O1 C1 C2 C3 -2.5(3) . . . . ?
C15 C14 C13 C12 -0.19(19) . . . . ?
C15 C10 C11 C12 0.30(18) . . . . ?
C13 C12 C11 C10 -0.4(2) . . . . ?
C6 C5 C4 C3 -0.4(2) . . . . ?
C6 C7 C2 C3 0.64(17) . . . . ?
C6 C7 C2 C1 -178.96(15) . . . . ?
C5 C4 C3 C2 1.4(2) . . . . ?
C8 C7 C2 C3 -179.53(12) . . . . ?
C8 C7 C2 C1 0.88(13) . . . . ?
C7 C2 C3 C4 -1.53(17) . . . . ?
