#------------------------------------------------------------------------------
#$Date: 2022-09-24 03:47:07 +0300 (Sat, 24 Sep 2022) $
#$Revision: 278145 $
#$URL: file:///home/coder/svn-repositories/cod/cif/7/15/88/7158893.cif $
#------------------------------------------------------------------------------
#
# This file is available in the Crystallography Open Database (COD),
# http://www.crystallography.net/
#
# All data on this site have been placed in the public domain by the
# contributors.
#
data_7158893
loop_
_publ_author_name
'Vartanova, Anna E.'
'Levina, Irina I.'
'Ratmanova, Nina K.'
'Andreev, Ivan A.'
'Ivanova, Olga A.'
'Trushkov, Igor V.'
_publ_section_title
;
 Ambident reactivity of 5-aminopyrazoles towards donor--acceptor
 cyclopropanes
;
_journal_name_full               'Organic &amp; Biomolecular Chemistry'
_journal_paper_doi               10.1039/D2OB01490D
_journal_year                    2022
_chemical_formula_moiety         'C16 H19 N3 O'
_chemical_formula_sum            'C16 H19 N3 O'
_chemical_formula_weight         269.34
_space_group_crystal_system      triclinic
_space_group_IT_number           2
_space_group_name_Hall           '-P 1'
_space_group_name_H-M_alt        'P -1'
_atom_sites_solution_hydrogens   mixed
_atom_sites_solution_primary     direct
_atom_sites_solution_secondary   difmap
_audit_creation_method           SHELXL-2018/3
_audit_update_record
;
2022-01-25 deposited with the CCDC.	2022-09-15 downloaded from the CCDC.
;
_cell_angle_alpha                100.610(3)
_cell_angle_beta                 92.588(3)
_cell_angle_gamma                94.229(3)
_cell_formula_units_Z            2
_cell_length_a                   5.1190(5)
_cell_length_b                   11.5332(11)
_cell_length_c                   11.6739(11)
_cell_measurement_reflns_used    7216
_cell_measurement_temperature    100(2)
_cell_measurement_theta_max      32.62
_cell_measurement_theta_min      2.28
_cell_volume                     674.37(11)
_computing_cell_refinement       'SAINT (Bruker, 2019)'
_computing_data_collection       '<i>APEX3</i> (Bruker, 2019)'
_computing_data_reduction        'SAINT (Bruker, 2019)'
_computing_molecular_graphics
'SHELXTL (Sheldrick, Acta Cryst., 2008, A64, 112-122)'
_computing_publication_material
'SHELXTL (Sheldrick, Acta Cryst., 2008, A64, 112-122)'
_computing_structure_refinement
'SHELXL-2018 (Sheldrick, Acta Cryst., 2015, C71, 3-8)'
_computing_structure_solution
'SHELXT, SHELXS-2013 (Sheldrick, Acta Cryst., 2015, A71, 3-8)'
_diffrn_ambient_temperature      100(2)
_diffrn_detector_area_resol_mean 7.31
_diffrn_measured_fraction_theta_full 0.999
_diffrn_measured_fraction_theta_max 0.999
_diffrn_measurement_device_type  'Bruker AXS D8 QUEST, Photon III detector'
_diffrn_measurement_method       '\w shutterless scans'
_diffrn_radiation_monochromator  graphite
_diffrn_radiation_type           MoK\a
_diffrn_radiation_wavelength     0.71073
_diffrn_reflns_av_R_equivalents  0.0605
_diffrn_reflns_av_unetI/netI     0.0414
_diffrn_reflns_Laue_measured_fraction_full 0.999
_diffrn_reflns_Laue_measured_fraction_max 0.999
_diffrn_reflns_limit_h_max       7
_diffrn_reflns_limit_h_min       -7
_diffrn_reflns_limit_k_max       16
_diffrn_reflns_limit_k_min       -16
_diffrn_reflns_limit_l_max       16
_diffrn_reflns_limit_l_min       -16
_diffrn_reflns_number            25877
_diffrn_reflns_point_group_measured_fraction_full 0.999
_diffrn_reflns_point_group_measured_fraction_max 0.999
_diffrn_reflns_theta_full        25.242
_diffrn_reflns_theta_max         30.030
_diffrn_reflns_theta_min         1.803
_diffrn_source                   'sealed X-Ray tube'
_diffrn_source_current           30
_diffrn_source_power             50
_diffrn_source_size              '0.6 mm, fine-focus'
_exptl_absorpt_coefficient_mu    0.085
_exptl_absorpt_correction_T_max  0.7465
_exptl_absorpt_correction_T_min  0.6746
_exptl_absorpt_correction_type   multi-scan
_exptl_absorpt_process_details
'SADABS 2016/2 (Krause et al., J. Appl. Cryst. 2015, 48, 3-10)'
_exptl_crystal_colour            yellow
_exptl_crystal_density_diffrn    1.326
_exptl_crystal_density_method    'not measured'
_exptl_crystal_description       block
_exptl_crystal_F_000             288
_exptl_crystal_size_max          0.10
_exptl_crystal_size_mid          0.10
_exptl_crystal_size_min          0.05
_refine_diff_density_max         0.437
_refine_diff_density_min         -0.269
_refine_diff_density_rms         0.063
_refine_ls_extinction_method     none
_refine_ls_goodness_of_fit_ref   1.034
_refine_ls_hydrogen_treatment    mixed
_refine_ls_matrix_type           full
_refine_ls_number_parameters     188
_refine_ls_number_reflns         3942
_refine_ls_number_restraints     0
_refine_ls_restrained_S_all      1.034
_refine_ls_R_factor_all          0.0840
_refine_ls_R_factor_gt           0.0534
_refine_ls_shift/su_max          0.000
_refine_ls_shift/su_mean         0.000
_refine_ls_structure_factor_coef Fsqd
_refine_ls_weighting_details
'w=1/[\s^2^(Fo^2^)+(0.0762P)^2^+0.4225P] where P=(Fo^2^+2Fc^2^)/3'
_refine_ls_weighting_scheme      calc
_refine_ls_wR_factor_gt          0.1386
_refine_ls_wR_factor_ref         0.1618
_reflns_Friedel_coverage         0.000
_reflns_number_gt                2784
_reflns_number_total             3942
_reflns_threshold_expression     'I > 2\s(I)'
_cod_data_source_file            d2ob01490d2.cif
_cod_data_source_block           Z-617
_cod_database_code               7158893
_shelx_shelxl_version_number     2018/3
_shelx_space_group_comment
;
The symmetry employed for this shelxl refinement is uniquely defined
by the following loop, which should always be used as a source of
symmetry information in preference to the above space-group names.
They are only intended as comments.
;
_shelx_res_file
;
TITL Z-617.res in P-1
    Z-617.res
    created by SHELXL-2018/3 at 20:28:32 on 24-May-2021
CELL 0.71073 5.1190 11.5332 11.6739 100.610 92.588 94.229
ZERR 2.00 0.0005 0.0011 0.0011 0.003 0.003 0.003
LATT 1
SFAC C H N O
UNIT 32 38 6 2
LIST 4
TEMP -173.150
ACTA
L.S. 4
FMAP 2
PLAN 10
OMIT -4 60.07
EQIV $1 -x+2, -y+1, -z+2
HTAB N3 O1_$1
BOND $H
CONF
WGHT    0.076200    0.422500
FVAR       1.00372
O1    4    0.838775    0.596186    0.943228    11.00000    0.02634    0.02145 =
         0.02613    0.00390   -0.00949   -0.00094
N1    3    0.557555    0.203375    0.882349    11.00000    0.02164    0.01994 =
         0.01931    0.00393   -0.00602   -0.00074
N2    3    0.375884    0.116512    0.826570    11.00000    0.02275    0.02123 =
         0.02049    0.00301   -0.00430   -0.00088
N3    3    0.725598    0.401173    0.885804    11.00000    0.02123    0.02078 =
         0.02011    0.00381   -0.00645   -0.00074
H3    2    0.859195    0.391308    0.933451    11.00000    0.03892
C1    1    0.254737    0.165000    0.745797    11.00000    0.02101    0.02201 =
         0.02059    0.00345   -0.00266    0.00163
C2    1    0.359373    0.282144    0.745995    11.00000    0.02007    0.02100 =
         0.01783    0.00262   -0.00314    0.00116
C3    1    0.275082    0.361460    0.664774    11.00000    0.02073    0.02090 =
         0.01587    0.00243   -0.00272    0.00213
AFIX  13
H3A   2    0.091660    0.380010    0.682281    11.00000   -1.20000
AFIX   0
C4    1    0.444490    0.479245    0.685739    11.00000    0.02305    0.02037 =
         0.01892    0.00444   -0.00425    0.00093
AFIX  23
H4A   2    0.373107    0.530872    0.635076    11.00000   -1.20000
H4B   2    0.624866    0.464277    0.663234    11.00000   -1.20000
AFIX   0
C5    1    0.455661    0.543999    0.813354    11.00000    0.02224    0.02041 =
         0.02125    0.00236   -0.00475    0.00194
AFIX  23
H5A   2    0.465113    0.630349    0.815045    11.00000   -1.20000
H5B   2    0.291191    0.521954    0.848521    11.00000   -1.20000
AFIX   0
C6    1    0.685017    0.516953    0.886664    11.00000    0.02241    0.02099 =
         0.01584    0.00288   -0.00088    0.00038
C7    1    0.554152    0.302749    0.835758    11.00000    0.01916    0.01959 =
         0.01917    0.00303   -0.00236    0.00084
C8    1    0.031501    0.095686    0.669584    11.00000    0.02600    0.02476 =
         0.02450    0.00439   -0.00669   -0.00228
AFIX 137
H8A   2    0.020432    0.013435    0.681034    11.00000   -1.50000
H8B   2    0.061055    0.097809    0.587611    11.00000   -1.50000
H8C   2   -0.132894    0.130508    0.690293    11.00000   -1.50000
AFIX   0
C9    1    0.269981    0.303742    0.536508    11.00000    0.01958    0.01933 =
         0.01877    0.00453   -0.00436   -0.00154
C10   1    0.449638    0.224359    0.492985    11.00000    0.02190    0.02904 =
         0.02196    0.00503   -0.00492    0.00479
AFIX  43
H10   2    0.582733    0.205660    0.544340    11.00000   -1.20000
AFIX   0
C11   1    0.437083    0.171957    0.375254    11.00000    0.02321    0.02425 =
         0.02157    0.00212   -0.00202    0.00485
AFIX  43
H11   2    0.559961    0.116971    0.347842    11.00000   -1.20000
AFIX   0
C12   1    0.247783    0.198697    0.297056    11.00000    0.02393    0.01904 =
         0.01941    0.00444   -0.00279   -0.00288
C13   1    0.072712    0.280684    0.339867    11.00000    0.02527    0.02548 =
         0.02161    0.00585   -0.00693    0.00236
AFIX  43
H13   2   -0.055272    0.302046    0.287790    11.00000   -1.20000
AFIX   0
C14   1    0.082438    0.331800    0.457816    11.00000    0.02200    0.02254 =
         0.02084    0.00443   -0.00336    0.00416
AFIX  43
H14   2   -0.040647    0.386697    0.485191    11.00000   -1.20000
AFIX   0
C15   1    0.227500    0.137142    0.170907    11.00000    0.03144    0.02467 =
         0.01903    0.00336   -0.00375    0.00172
AFIX 137
H15A  2    0.374098    0.087467    0.155897    11.00000   -1.50000
H15B  2    0.233873    0.196384    0.120515    11.00000   -1.50000
H15C  2    0.061348    0.087571    0.154323    11.00000   -1.50000
AFIX   0
C16   1    0.743966    0.177606    0.970156    11.00000    0.02453    0.02335 =
         0.01975    0.00453   -0.00592    0.00197
AFIX 137
H16A  2    0.680179    0.105012    0.996017    11.00000   -1.50000
H16B  2    0.762730    0.243551    1.036994    11.00000   -1.50000
H16C  2    0.914594    0.166893    0.936624    11.00000   -1.50000
AFIX   0
HKLF 4




REM  Z-617.res in P-1
REM wR2 = 0.161790, GooF = S = 1.03373, Restrained GooF = 1.03373 for all data
REM R1 = 0.053401 for 2784 Fo > 4sig(Fo) and 0.084017 for all 3942 data
REM 188 parameters refined using 0 restraints

END

WGHT      0.0762      0.4225

REM Highest difference peak  0.437,  deepest hole -0.269,  1-sigma level  0.063
Q1    1   0.3069  0.2225  0.7465  11.00000  0.05    0.44
Q2    1   0.4373  0.3033  0.7977  11.00000  0.05    0.28
Q3    1   0.2318  0.2657  0.3194  11.00000  0.05    0.27
Q4    1   0.2749  0.3315  0.6013  11.00000  0.05    0.27
Q5    1   0.5661  0.5260  0.8408  11.00000  0.05    0.27
Q6    1   0.3856  0.4175  0.6808  11.00000  0.05    0.26
Q7    1   0.6085  0.3581  0.8586  11.00000  0.05    0.26
Q8    1   0.3450  0.1938  0.3368  11.00000  0.05    0.26
Q9    1   0.7078  0.4509  0.8826  11.00000  0.05    0.26
Q10   1   0.4138  0.1963  0.4324  11.00000  0.05    0.26
;
_shelx_res_checksum              1871
_shelx_hkl_file
;
  -1   0   0 1983.00   70.99
  -1   0   0 1754.92   70.89
  -1   0   0 1966.20   70.89
  -1   0   0 1792.72   70.99
  -1   0   0 1988.10   71.09
  -1   0   0 1757.62   70.99
  -1   0   0 1746.13   70.69
   1   0   0 1740.63   70.69
   1   0   0 1759.32   70.89
   1   0   0 1870.31   70.89
   1   0   0 1668.63   70.99
   1   0   0 1911.51   71.09
   1   0   0 1733.93   70.99
   1   0   0 1887.41   70.89
  -2   0   0   80.09    5.10
  -2   0   0   71.59    4.50
  -2   0   0   60.59    4.30
   2   0   0   76.49    4.80
   2   0   0   56.99    5.20
   2   0   0   68.69    4.40
   2   0   0   71.59    3.80
   2   0   0   63.49    4.20
   2   0   0   55.29    4.40
   2   0   0   67.99    5.00
  -3   0   0    3.50    2.60
  -3   0   0    4.70    3.20
  -3   0   0    2.90    2.30
   3   0   0    6.10    2.80
   3   0   0    4.40    2.80
   3   0   0   -1.80    2.70
   3   0   0    1.40    2.40
   3   0   0    8.40    3.60
   3   0   0    1.70    2.20
   3   0   0    4.90    2.30
   3   0   0    3.90    2.80
   3   0   0    3.90    2.10
   3   0   0    4.50    3.70
  -4   0   0  181.38   10.20
  -4   0   0  167.88   11.00
  -4   0   0  182.28    9.50
   4   0   0  153.78    9.40
   4   0   0  157.58    8.80
   4   0   0  170.78    9.20
   4   0   0  178.28   10.10
   4   0   0  174.58   11.60
   4   0   0  182.08   11.50
   4   0   0  186.88    8.50
  -5   0   0    6.80    4.10
  -5   0   0   16.70    5.20
  -5   0   0   10.60    5.40
   5   0   0    8.70    3.00
   5   0   0    9.60    4.90
   5   0   0    9.80    6.40
   5   0   0    4.70    6.10
   5   0   0   11.40    2.90
  -6   0   0  137.99   13.00
  -6   0   0  169.68   12.40
   6   0   0  156.68   14.60
   6   0   0  176.58   13.30
   6   0   0  174.48   14.70
  -7   0   0   33.40    7.10
  -7   0   0   37.20    7.70
  -7   0   0   16.70    8.40
   7   0   0   27.80   10.00
   7   0   0   17.90    6.70
   7   0   0   43.40   10.40
   7  -1   0   49.80   10.70
   7  -1   0   47.00   10.30
   7  -1   0   49.20    7.80
  -7   1   0   33.30    7.80
  -7   1   0   36.60    8.90
   6  -1   0   13.50    8.10
   6  -1   0   11.00    6.10
   6  -1   0    6.10    7.50
   6  -1   0    6.90    3.70
  -6   1   0   12.20    5.20
  -6   1   0   17.80    5.90
  -6   1   0   15.80    6.70
   5  -1   0  113.69    8.20
   5  -1   0  135.19   11.60
   5  -1   0  111.09    7.90
   5  -1   0  138.09   11.60
   5  -1   0  124.99    9.80
  -5   1   0  136.09    8.90
  -5   1   0  131.19    9.50
  -5   1   0  130.89   10.50
   4  -1   0  103.59    6.60
   4  -1   0  110.69   10.80
   4  -1   0  115.29    9.60
   4  -1   0   88.09    6.70
   4  -1   0   92.99    8.20
   4  -1   0  100.59    7.00
  -4   1   0   86.09    8.50
  -4   1   0  102.79    7.80
  -4   1   0   94.99    7.00
   3  -1   0   36.90    4.30
   3  -1   0   32.40    3.80
   3  -1   0   30.70    4.00
   3  -1   0   51.79    5.20
   3  -1   0   32.20    3.80
   3  -1   0   44.90    4.20
   3  -1   0   40.30    4.90
   3  -1   0   29.60    3.50
   3  -1   0   31.40    3.40
   3  -1   0   40.60    4.30
  -3   1   0   34.50    4.40
  -3   1   0   24.30    3.90
  -3   1   0   39.90    4.70
  -3   1   0   35.30    4.10
   2  -1   0  139.29    6.70
   2  -1   0  144.49    6.80
   2  -1   0  145.59    6.70
   2  -1   0  137.69    6.50
   2  -1   0  135.59    7.60
   2  -1   0  143.29    7.10
   2  -1   0  136.49    6.60
   2  -1   0  130.99    7.20
   2  -1   0  148.39    7.10
   2  -1   0  142.69    7.10
  -2   1   0  143.79    7.30
  -2   1   0  141.89    6.80
  -2   1   0  146.59    7.20
  -2   1   0  130.99    6.60
   1  -1   0 3949.41  159.68
   1  -1   0 4479.75  159.88
   1  -1   0 3861.91  159.68
   1  -1   0 4086.49  159.78
   1  -1   0 4109.89  159.88
   1  -1   0 3893.61  159.88
   1  -1   0 4166.88  159.78
  -1   1   0 3963.20  159.68
  -1   1   0 4536.65  159.88
  -1   1   0 4095.49  159.88
  -1   1   0 4128.09  159.88
  -1   1   0 4241.38  159.68
   0   1   0  323.87   12.90
  -1  -1   0 1517.05   57.79
  -1  -1   0 1562.24   57.89
  -1  -1   0 1440.46   57.79
  -1  -1   0 1440.76   57.39
  -1  -1   0 1545.25   57.79
  -1  -1   0 1451.95   57.79
  -1  -1   0 1510.95   57.49
   1   1   0 1476.65   57.39
   1   1   0 1438.46   57.79
   1   1   0 1535.95   57.89
   1   1   0 1442.66   57.69
   1   1   0 1468.35   57.69
   1   1   0 1440.66   57.49
   1   1   0 1462.55   57.79
  -2  -1   0    0.30    2.20
  -2  -1   0   -1.70    1.30
  -2  -1   0   -0.40    2.00
  -2  -1   0   -0.80    2.20
  -2  -1   0   -1.50    2.00
  -2  -1   0    1.80    1.50
   2   1   0   -2.40    2.40
   2   1   0   -1.00    2.40
   2   1   0    2.40    1.90
   2   1   0   -1.70    1.30
   2   1   0    2.20    1.90
   2   1   0    1.20    2.50
   2   1   0   -1.30    1.80
   2   1   0    3.10    2.00
  -3  -1   0   26.20    3.20
  -3  -1   0   22.10    3.90
  -3  -1   0   27.30    3.50
  -3  -1   0   30.50    4.00
   3   1   0   20.80    4.20
   3   1   0   32.10    4.40
   3   1   0   22.00    2.40
   3   1   0   26.00    3.30
   3   1   0   27.60    3.30
   3   1   0   25.80    3.10
  -4  -1   0   29.80    4.30
  -4  -1   0   31.60    5.00
   4   1   0   37.30    4.80
   4   1   0   37.10    4.30
   4   1   0   25.00    4.10
   4   1   0   29.30    6.10
   4   1   0   34.00    3.90
  -5  -1   0   32.20    4.90
  -5  -1   0   39.60    5.70
  -5  -1   0   30.30    6.30
   5   1   0   40.90    5.30
   5   1   0   37.80    7.20
   5   1   0   41.70    7.40
  -6  -1   0   26.40    7.50
  -6  -1   0   35.00    6.10
  -6  -1   0   39.80    7.00
   6   1   0   45.80    9.30
   6   1   0   43.50    8.90
   6   1   0   43.20    5.90
  -7  -1   0   -9.60    5.70
  -7  -1   0    2.10    6.90
   7   1   0    2.50    9.70
   7   1   0   10.70    9.70
   7   1   0   13.80    5.90
   7  -2   0   -0.20    8.70
   7  -2   0    4.10    9.30
   7  -2   0   -6.90    6.80
   7  -2   0    3.60    4.80
  -7   2   0    1.80    7.20
  -7   2   0   -1.80    6.60
   6  -2   0  176.08   14.70
   6  -2   0  164.68   12.30
   6  -2   0  166.88   14.60
   6  -2   0  177.28   10.10
  -6   2   0  137.79   12.80
  -6   2   0  184.48   11.90
   5  -2   0   63.89    7.20
   5  -2   0   52.19    9.40
   5  -2   0   79.19   10.40
   5  -2   0   89.29    6.90
  -5   2   0   75.39    8.20
  -5   2   0   80.79    7.50
   4  -2   0  141.79    9.90
   4  -2   0  123.39    8.10
   4  -2   0  116.59    9.50
   4  -2   0  118.89    9.00
   4  -2   0  131.29    8.40
  -4   2   0  122.89    8.00
  -4   2   0  126.69    8.20
  -4   2   0   97.29    9.20
  -4   2   0  123.79    9.70
   3  -2   0    8.20    2.60
   3  -2   0    7.90    2.30
   3  -2   0    2.60    2.80
   3  -2   0    9.70    3.00
   3  -2   0    7.00    4.00
   3  -2   0    5.60    2.30
   3  -2   0    5.70    3.00
   3  -2   0    6.50    2.60
   3  -2   0    4.10    2.80
   3  -2   0    6.60    2.80
  -3   2   0    4.20    3.30
  -3   2   0    6.10    3.00
  -3   2   0    6.30    2.30
  -3   2   0    5.00    2.60
   2  -2   0  310.17   13.20
   2  -2   0  299.07   13.40
   2  -2   0  330.77   13.50
   2  -2   0  303.17   12.90
   2  -2   0  315.87   13.50
   2  -2   0  315.47   13.40
   2  -2   0  314.87   13.40
   2  -2   0  314.07   13.60
   2  -2   0  304.07   12.90
  -2   2   0  322.97   13.40
  -2   2   0  297.87   13.50
  -2   2   0  334.57   13.00
  -2   2   0  305.67   13.50
   1  -2   0  186.88    7.70
   1  -2   0  203.48    8.60
   1  -2   0  190.78    8.10
   1  -2   0  192.28    8.50
   1  -2   0  204.88    8.50
   1  -2   0  186.98    8.30
   1  -2   0  188.48    8.40
  -1   2   0  182.68    8.50
  -1   2   0  167.78    8.40
  -1   2   0  185.18    8.60
  -1   2   0  176.38    8.10
  -1   2   0  179.58    8.40
  -1   2   0  165.88    8.10
  -1   2   0  174.08    7.70
   0  -2   0 1853.31   71.09
   0  -2   0 1706.13   71.09
   0  -2   0 1765.32   70.99
   0  -2   0 1868.01   71.19
   0  -2   0 1901.21   71.19
   0  -2   0 1877.31   70.89
   0  -2   0 1813.12   70.89
   0   2   0 1755.52   71.09
   0   2   0 1844.72   71.09
   0   2   0 1780.02   70.89
   0   2   0 1830.72   70.89
   0   2   0 1820.72   71.09
   0   2   0 2034.70   71.29
   0   2   0 1754.92   70.99
  -1  -2   0    0.80    2.10
  -1  -2   0   15.30    2.30
   1   2   0    9.20    1.70
   1   2   0   14.00    2.20
   1   2   0   18.30    3.00
   1   2   0    1.70    2.70
  -2  -2   0  440.36   18.70
  -2  -2   0  433.66   18.00
  -2  -2   0  445.76   17.90
  -2  -2   0  488.15   19.10
  -2  -2   0  460.45   18.70
  -2  -2   0  447.86   18.90
  -2  -2   0  480.05   18.80
   2   2   0  424.76   17.90
   2   2   0  441.46   18.60
   2   2   0  461.75   18.90
   2   2   0  459.75   19.00
   2   2   0  449.66   18.10
   2   2   0  450.45   18.70
   2   2   0  452.55   19.10
  -3  -2   0   12.30    3.20
  -3  -2   0    9.40    2.80
  -3  -2   0    4.40    3.20
  -3  -2   0   11.70    3.60
   3   2   0    3.90    3.90
   3   2   0    6.20    3.30
   3   2   0   11.60    3.90
  -4  -2   0    7.60    6.30
  -4  -2   0    4.60    3.50
  -4  -2   0    3.00    4.40
   4   2   0    5.80    5.60
   4   2   0    2.60    5.50
   4   2   0    0.20    3.70
   4   2   0    0.90    2.70
  -5  -2   0   30.00    6.50
  -5  -2   0   40.10    5.50
  -5  -2   0   35.40    6.20
   5   2   0   49.30    5.20
   5   2   0   35.80    7.50
   5   2   0   52.99    5.40
   5   2   0   51.39    7.90
  -6  -2   0   29.00    6.90
  -6  -2   0   31.30    6.10
   6   2   0   26.90    8.70
   6   2   0   31.20   10.90
   6   2   0   24.30    5.30
  -7  -2   0    2.40    6.00
  -7  -2   0   -3.80    6.90
   7   2   0    6.40    9.70
   7   2   0   -6.60    8.90
   7  -3   0   -9.30    7.20
   7  -3   0    0.10    8.90
   7  -3   0   -1.70    9.10
   7  -3   0    0.80    5.70
   7  -3   0   -2.40    5.60
  -7   3   0   -0.60    7.20
   6  -3   0   36.40    8.80
   6  -3   0   31.20    6.90
   6  -3   0   24.50    5.20
   6  -3   0   22.60    8.20
   6  -3   0   39.90    5.20
  -6   3   0   25.00    6.10
  -6   3   0   31.60    7.10
   5  -3   0  120.49    8.20
   5  -3   0  147.49   11.30
   5  -3   0  113.29    9.00
   5  -3   0  120.89   10.20
  -5   3   0  101.09   10.00
   4  -3   0  212.28   11.80
   4  -3   0  201.78   10.90
   4  -3   0  205.08   11.20
   4  -3   0  206.08   10.70
   4  -3   0  203.98   12.40
  -4   3   0  190.18   11.70
  -4   3   0  206.48   12.40
  -4   3   0  219.38   10.70
   3  -3   0  108.69    5.90
   3  -3   0   88.59    7.50
   3  -3   0  104.49    5.90
   3  -3   0   97.29    6.60
   3  -3   0   90.49    6.10
   3  -3   0   96.69    6.80
   3  -3   0   90.69    7.00
   3  -3   0   99.69    6.50
   3  -3   0   96.99    6.80
  -3   3   0  102.29    7.30
  -3   3   0  101.29    6.70
  -3   3   0  100.79    6.00
   2  -3   0   97.59    6.40
   2  -3   0  110.49    6.30
   2  -3   0  112.89    6.50
   2  -3   0  100.59    5.40
   2  -3   0  104.69    6.20
   2  -3   0  115.99    6.70
   2  -3   0  114.89    6.40
   2  -3   0  110.29    6.40
   2  -3   0  114.99    6.20
   2  -3   0  108.69    5.90
  -2   3   0  109.19    6.70
  -2   3   0  118.29    6.20
  -2   3   0  115.29    6.70
  -2   3   0  117.89    5.50
   1  -3   0 1697.03   68.49
   1  -3   0 1745.63   68.39
   1  -3   0 1758.22   68.49
   1  -3   0 1649.13   68.59
   1  -3   0 1906.51   69.09
   1  -3   0 1632.14   68.49
  -1   3   0 1731.63   68.59
  -1   3   0 1878.01   68.39
  -1   3   0 1795.32   68.69
  -1   3   0 1811.42   68.59
  -1   3   0 1791.52   68.79
  -1   3   0 1680.63   68.49
   0  -3   0 1641.24   62.49
   0  -3   0 1586.54   62.09
   0  -3   0 1589.04   62.49
   0  -3   0 1583.64   62.49
   0  -3   0 1635.24   62.49
   0  -3   0 1503.25   62.19
   0  -3   0 1639.34   62.09
   0   3   0 1603.84   62.09
   0   3   0 1607.64   62.49
   0   3   0 1571.44   62.39
   0   3   0 1612.64   62.19
   0   3   0 1606.04   62.49
   0   3   0 1587.74   62.39
   0   3   0 1600.14   62.19
  -1  -3   0 1218.38   48.00
  -1  -3   0 1223.98   47.60
  -1  -3   0 1246.98   47.70
  -1  -3   0 1131.39   47.90
  -1  -3   0 1299.47   48.00
  -1  -3   0 1230.98   48.10
   1   3   0 1249.47   47.90
   1   3   0 1202.58   47.70
   1   3   0 1162.68   48.10
   1   3   0 1188.58   47.50
   1   3   0 1221.38   48.10
   1   3   0 1272.17   47.90
  -2  -3   0   11.30    1.90
  -2  -3   0    9.80    3.00
  -2  -3   0   11.60    3.10
  -2  -3   0   15.90    3.00
  -2  -3   0   13.70    2.90
   2   3   0   11.60    2.70
   2   3   0   11.70    2.00
   2   3   0   11.40    2.70
   2   3   0   17.30    3.80
   2   3   0   12.90    3.50
   2   3   0   14.70    2.00
  -3  -3   0   -3.10    3.30
  -3  -3   0    7.60    3.20
  -3  -3   0   -0.10    2.90
  -3  -3   0    1.80    3.50
   3   3   0    6.50    4.60
   3   3   0    1.90    4.10
   3   3   0   -1.00    2.60
   3   3   0    2.30    2.90
  -4  -3   0    0.60    3.80
  -4  -3   0   -1.30    4.60
  -4  -3   0    0.70    4.10
   4   3   0    2.90    2.50
   4   3   0   12.30    6.10
   4   3   0   -1.50    3.50
   4   3   0    1.30    5.70
  -5  -3   0    8.60    5.80
  -5  -3   0    3.70    4.50
  -5  -3   0    0.80    5.00
   5   3   0   -5.60    2.80
   5   3   0   -6.00    6.50
   5   3   0    4.40    6.70
   5   3   0    6.20    3.90
  -6  -3   0    4.30    5.30
   6   3   0   -5.90    3.80
   6   3   0   -8.30    7.90
  -7  -3   0   27.40    6.90
  -7  -3   0   19.00    8.40
   7   3   0   19.30    9.70
   7   3   0    8.80   10.10
   7  -4   0   -2.80    8.80
   7  -4   0    9.20    9.40
   7  -4   0   12.60    5.90
  -7   4   0   11.40    7.30
  -7   4   0    8.30    6.40
   6  -4   0   20.50    7.20
   6  -4   0   30.10    8.40
   6  -4   0    0.60    4.30
   6  -4   0    9.30    6.30
  -6   4   0   18.90    6.60
  -6   4   0   11.60    5.50
   5  -4   0   -2.10    4.40
   5  -4   0   -7.10    4.60
   5  -4   0   -5.00    5.70
   5  -4   0   -4.30    5.00
   5  -4   0    6.80    4.10
  -5   4   0    1.20    4.80
  -5   4   0   -3.10    4.00
  -5   4   0   -2.60    5.50
   4  -4   0  123.89    7.80
   4  -4   0  123.89    9.60
   4  -4   0  131.09    8.50
   4  -4   0  137.09    8.80
  -4   4   0  106.79    9.10
  -4   4   0  121.69    8.00
   3  -4   0    9.20    3.20
   3  -4   0    4.30    2.90
   3  -4   0    2.20    3.10
   3  -4   0    9.80    3.20
   3  -4   0    9.60    2.70
   3  -4   0    9.60    3.60
   3  -4   0    5.10    2.30
  -3   4   0    5.50    2.90
  -3   4   0    6.60    3.40
  -3   4   0    3.80    3.40
  -3   4   0    6.00    2.50
   2  -4   0  359.86   15.50
   2  -4   0  364.56   14.80
   2  -4   0  328.27   14.00
   2  -4   0  322.07   15.10
   2  -4   0  341.07   15.50
   2  -4   0  350.96   14.80
   2  -4   0  350.46   15.20
  -2   4   0  349.47   15.30
  -2   4   0  352.76   14.70
  -2   4   0  349.37   15.20
   1  -4   0  222.78   10.10
   1  -4   0  230.38    9.50
   1  -4   0  217.48   10.00
   1  -4   0  206.88   10.00
   1  -4   0  218.48   10.00
   1  -4   0  216.58    9.90
  -1   4   0  210.38   10.00
  -1   4   0  243.18    9.40
  -1   4   0  223.38    9.80
  -1   4   0  207.98   10.00
  -1   4   0  219.78   10.00
  -1   4   0  225.78   10.00
   0  -4   0  332.47   14.30
   0  -4   0  347.27   14.10
   0  -4   0  345.87   14.20
   0  -4   0  349.77   14.80
   0  -4   0  365.46   14.70
   0  -4   0  357.66   14.90
   0  -4   0  354.36   14.80
   0   4   0  351.06   14.70
   0   4   0  358.36   14.40
   0   4   0  362.16   14.20
   0   4   0  331.27   14.10
   0   4   0  348.17   14.60
   0   4   0  349.17   14.80
   0   4   0  350.56   14.70
  -1  -4   0  925.41   38.80
  -1  -4   0  999.90   39.00
  -1  -4   0  961.80   38.90
  -1  -4   0  962.40   38.20
  -1  -4   0 1010.40   38.70
  -1  -4   0  995.90   38.60
   1   4   0  966.50   38.50
   1   4   0 1038.50   38.70
   1   4   0  949.51   39.00
   1   4   0  968.00   38.60
   1   4   0  977.30   38.20
   1   4   0  967.50   39.00
   1   4   0  980.30   38.90
   1   4   0  971.40   38.90
  -2  -4   0  394.56   17.50
  -2  -4   0  409.36   16.80
  -2  -4   0  423.76   17.80
  -2  -4   0  415.86   17.60
  -2  -4   0  430.16   17.80
   2   4   0  401.96   16.70
   2   4   0  416.56   18.10
   2   4   0  414.16   17.70
   2   4   0  394.26   17.40
   2   4   0  420.56   18.20
  -3  -4   0   33.20    4.90
  -3  -4   0   29.60    4.20
  -3  -4   0   32.30    4.30
   3   4   0   32.30    5.60
   3   4   0   32.80    5.60
  -4  -4   0  235.28   12.90
  -4  -4   0  241.38   12.70
  -4  -4   0  222.28   13.50
   4   4   0  231.88   14.30
  -5  -4   0   11.00    5.70
  -5  -4   0   17.20    5.10
   5   4   0   10.30    7.70
   5   4   0   10.30    7.10
  -6  -4   0   -0.10    5.50
  -6  -4   0   -1.80    6.10
   6   4   0    2.40    8.50
   6   4   0   -6.90    8.70
  -7  -4   0   -0.10    7.00
  -7  -4   0   -2.00    7.50
   7   4   0    3.00    9.60
   7   4   0    5.10    6.80
   7   4   0    0.20    9.90
   7  -5   0   60.39    8.00
   7  -5   0   63.19   11.00
   7  -5   0   54.79    9.40
   7  -5   0   86.79   11.40
  -7   5   0   29.30    8.30
   6  -5   0    4.70    4.60
   6  -5   0    2.50    5.60
   6  -5   0    6.40    6.90
   6  -5   0   -3.90    7.70
  -6   5   0   -5.60    5.70
  -6   5   0    2.80    4.90
   5  -5   0   28.10    6.30
   5  -5   0   16.10    4.40
   5  -5   0   19.00    6.20
   5  -5   0   32.10    7.20
  -5   5   0   28.00    5.50
  -5   5   0   15.60    4.40
  -5   5   0   11.10    5.90
   4  -5   0  118.59    8.00
   4  -5   0  110.69    7.30
   4  -5   0  113.19    9.30
   4  -5   0  101.89    7.10
   4  -5   0  101.99    9.10
  -4   5   0  116.99    7.30
  -4   5   0  101.09    9.30
  -4   5   0  108.89    8.50
   3  -5   0  113.79    8.10
   3  -5   0  108.99    7.20
   3  -5   0  110.09    6.70
   3  -5   0  116.99    7.80
   3  -5   0  106.39    7.50
   3  -5   0  114.19    6.10
  -3   5   0  113.49    7.10
  -3   5   0  115.89    8.30
  -3   5   0  106.89    8.20
   2  -5   0  224.58    9.70
   2  -5   0  210.48   10.10
   2  -5   0  200.08   10.00
   2  -5   0  198.48   10.20
   2  -5   0  199.58   10.30
   2  -5   0  200.88   10.10
  -2   5   0  207.58   10.50
  -2   5   0  223.78    9.60
  -2   5   0  214.38   10.30
  -2   5   0  197.88    9.70
   1  -5   0  165.98    8.90
   1  -5   0  170.28    8.60
   1  -5   0  185.48    9.10
   1  -5   0  178.78    9.10
   1  -5   0  186.18    8.10
   1  -5   0  184.98    9.20
  -1   5   0  184.48    8.90
  -1   5   0  182.78    7.90
  -1   5   0  182.58    9.00
  -1   5   0  171.58    8.70
  -1   5   0  178.68    8.90
  -1   5   0  178.38    9.10
   0  -5   0   15.80    2.90
   0  -5   0   17.60    3.20
   0  -5   0   16.10    1.90
   0  -5   0   16.80    3.00
   0  -5   0   17.80    2.30
   0  -5   0   14.80    3.30
   0  -5   0   19.90    2.20
   0   5   0   20.10    2.50
   0   5   0   18.30    2.80
   0   5   0   13.00    2.10
   0   5   0   19.20    3.30
   0   5   0   16.80    2.20
   0   5   0   16.60    3.00
   0   5   0   16.10    3.00
  -1  -5   0  134.29    6.50
  -1  -5   0  141.59    7.10
  -1  -5   0  132.49    8.00
  -1  -5   0  137.29    8.00
  -1  -5   0  133.69    7.50
   1   5   0  131.99    6.60
   1   5   0  137.99    6.90
   1   5   0  137.09    6.40
   1   5   0  134.29    6.80
   1   5   0  100.39   10.10
   1   5   0  129.89    8.20
   1   5   0  135.39    7.00
   1   5   0  130.59    8.60
  -2  -5   0  298.07   13.90
  -2  -5   0  300.07   13.30
  -2  -5   0  301.37   13.80
  -2  -5   0  285.27   13.50
  -2  -5   0  290.27   12.10
   2   5   0  289.57   12.00
   2   5   0  291.87   13.10
   2   5   0  283.57   13.60
   2   5   0  300.27   12.50
   2   5   0  290.27   14.30
   2   5   0  280.07   13.10
   2   5   0  294.87   14.40
  -3  -5   0  378.76   17.30
  -3  -5   0  378.46   15.70
  -3  -5   0  386.06   17.60
   3   5   0  376.66   15.60
   3   5   0  380.76   18.70
   3   5   0  378.06   18.50
  -4  -5   0   25.60    5.40
  -4  -5   0   28.30    5.40
   4   5   0   28.50    6.90
   4   5   0   38.40    7.30
  -5  -5   0   25.40    6.40
  -5  -5   0   24.40    5.50
   5   5   0   35.80    8.50
   5   5   0   27.20    8.10
  -6  -5   0    0.10    5.70
  -6  -5   0   18.00    7.30
   6   5   0    9.30    9.10
   6   5   0   12.30    6.30
   6   5   0   23.90   10.00
  -7  -5   0    0.90    6.50
  -7  -5   0    7.70    7.90
   7   5   0   14.20   10.40
   7   5   0    8.30    6.90
   7   5   0    9.20   10.90
   7  -6   0    3.60    9.60
   7  -6   0   21.70    8.60
   7  -6   0   11.60    7.70
  -7   6   0    7.90    7.00
   6  -6   0  185.78   14.50
   6  -6   0  191.48   13.40
   6  -6   0  183.58   11.80
  -6   6   0  177.38   13.20
   5  -6   0    5.60    5.40
   5  -6   0   13.60    6.10
   5  -6   0   -1.70    7.00
   5  -6   0    2.00    4.20
  -5   6   0    9.20    5.80
  -5   6   0   -0.70    4.50
   4  -6   0    4.20    3.10
   4  -6   0   -0.30    4.00
   4  -6   0    3.60    4.40
   4  -6   0    2.20    4.80
  -4   6   0   -1.50    4.70
  -4   6   0   -2.10    3.60
  -4   6   0   -0.10    4.70
   3  -6   0    2.10    3.50
   3  -6   0    2.00    3.20
   3  -6   0    1.60    2.10
   3  -6   0    1.30    3.90
   3  -6   0    0.40    3.20
   3  -6   0    4.40    4.10
  -3   6   0   -2.00    3.80
  -3   6   0    0.00    3.90
  -3   6   0    4.90    3.00
   2  -6   0    0.60    2.70
   2  -6   0    2.60    3.10
   2  -6   0    1.70    3.00
   2  -6   0   -1.20    3.00
  -2   6   0    0.80    2.60
  -2   6   0   -1.60    3.20
  -2   6   0    0.30    2.10
  -2   6   0   -4.10    2.90
   1  -6   0  528.25   22.60
   1  -6   0  531.95   22.20
   1  -6   0  534.85   22.50
   1  -6   0  547.45   21.50
   1  -6   0  556.94   22.50
  -1   6   0  528.65   22.40
  -1   6   0  559.64   21.40
  -1   6   0  490.55   22.70
  -1   6   0  540.75   22.40
  -1   6   0  544.15   22.30
  -1   6   0  527.55   22.50
   0  -6   0  129.29    7.00
   0  -6   0  134.19    8.00
   0  -6   0  143.69    7.30
   0  -6   0  137.29    8.10
   0  -6   0  144.59    8.30
   0   6   0  130.69    7.80
   0   6   0  138.39    8.20
   0   6   0  146.79    6.90
   0   6   0  132.69    8.30
   0   6   0  135.59    7.10
   0   6   0  131.89    6.70
  -1  -6   0   -2.50    2.90
  -1  -6   0   -5.40    3.20
  -1  -6   0   -0.50    3.20
  -1  -6   0   -2.10    2.00
  -1  -6   0   -1.30    2.30
  -1  -6   0   -2.40    3.00
   1   6   0   -3.00    1.80
   1   6   0   -1.10    3.90
   1   6   0    0.30    2.20
   1   6   0   -0.80    2.00
   1   6   0    4.40    3.40
   1   6   0   -2.30    2.10
   1   6   0    0.50    2.50
   1   6   0   -3.20    2.10
  -2  -6   0  169.88    9.10
  -2  -6   0  163.78    9.70
  -2  -6   0  160.48    7.70
  -2  -6   0  160.28    8.70
   2   6   0  168.58    8.60
   2   6   0  162.58    8.80
   2   6   0  167.08   11.00
   2   6   0  163.68    7.40
   2   6   0  172.88   11.30
   2   6   0  157.58    8.10
  -3  -6   0    3.80    2.90
  -3  -6   0    7.70    4.90
  -3  -6   0    5.10    4.20
   3   6   0    9.30    6.30
   3   6   0   12.50    6.20
   3   6   0   -1.00    3.70
   3   6   0    3.90    2.40
  -4  -6   0  223.68   13.20
  -4  -6   0  220.78   13.00
   4   6   0  233.18   15.00
   4   6   0  207.08   15.20
  -5  -6   0   25.70    5.80
  -5  -6   0   26.40    6.60
   5   6   0   25.10    8.70
   5   6   0   19.60    8.20
   5   6   0   13.10    5.70
  -6  -6   0   -0.80    6.00
  -6  -6   0    8.80    7.00
   6   6   0   -6.80    9.60
   6   6   0    4.60    6.10
  -7  -6   0    4.70    6.80
   7   6   0   -9.60    9.50
   7  -7   0   14.00    9.40
   7  -7   0   39.90   10.20
   7  -7   0   40.00    6.70
   7  -7   0   35.60    9.00
  -7   7   0   18.80    7.50
   6  -7   0    7.40    5.60
   6  -7   0   12.20    8.40
   6  -7   0   -2.50    5.30
   6  -7   0    3.10    7.10
  -6   7   0    6.80    6.00
  -6   7   0   11.10    8.00
   5  -7   0   34.50    5.70
   5  -7   0   32.70    4.60
   5  -7   0   38.20    7.30
   5  -7   0   16.40    6.10
  -5   7   0   27.70    5.60
  -5   7   0   26.20    6.80
   4  -7   0    0.30    4.90
   4  -7   0    7.60    3.30
   4  -7   0   17.00    5.70
   4  -7   0    2.50    2.70
   4  -7   0   19.00    4.70
  -4   7   0   11.20    4.10
  -4   7   0    7.50    5.00
  -4   7   0    9.60    5.00
   3  -7   0  118.09    9.20
   3  -7   0   92.29    8.10
   3  -7   0  117.39    8.80
   3  -7   0  125.29    9.80
   3  -7   0  103.89    7.80
  -3   7   0  117.69    7.30
  -3   7   0  108.59    9.20
  -3   7   0  121.69    9.60
   2  -7   0   31.50    4.90
   2  -7   0   41.10    4.70
   2  -7   0   32.00    3.70
  -2   7   0   41.40    4.70
  -2   7   0   45.50    5.00
  -2   7   0   40.00    5.20
  -2   7   0   46.60    4.20
   1  -7   0   59.29    5.30
   1  -7   0   60.19    6.80
   1  -7   0   64.39    7.00
   1  -7   0   61.89    4.30
   1  -7   0   60.49    6.50
  -1   7   0   64.09    6.00
  -1   7   0   52.99    5.60
  -1   7   0   52.59    6.60
  -1   7   0   60.49    4.20
  -1   7   0   68.09    6.40
   0  -7   0   15.60    4.10
   0  -7   0   12.80    3.80
   0  -7   0   14.80    3.80
   0  -7   0   14.10    2.30
   0   7   0   14.70    2.80
   0   7   0   19.70    3.20
   0   7   0   14.20    3.70
   0   7   0    9.50    2.80
   0   7   0   11.50    3.80
   0   7   0   13.30    2.40
  -1  -7   0    2.90    2.50
  -1  -7   0   11.50    3.70
  -1  -7   0    6.60    2.80
  -1  -7   0   11.20    3.90
   1   7   0    6.80    2.70
   1   7   0    4.00    2.60
   1   7   0    3.70    4.00
   1   7   0    7.40    2.80
   1   7   0    2.20    2.30
   1   7   0    5.70    2.40
   1   7   0    6.10    3.80
  -2  -7   0   30.60    3.30
  -2  -7   0   33.60    4.30
  -2  -7   0   26.20    4.30
  -2  -7   0   24.80    4.80
   2   7   0   23.60    3.80
   2   7   0   21.80    3.70
   2   7   0   34.70    6.00
   2   7   0   27.60    6.50
   2   7   0   26.20    4.00
  -3  -7   0   84.89    9.20
  -3  -7   0   93.19    6.80
  -3  -7   0   94.09    8.60
   3   7   0   92.29    8.20
   3   7   0  103.49    6.00
   3   7   0  103.79    9.50
  -4  -7   0   93.59   10.00
  -4  -7   0   92.89    9.30
   4   7   0   77.09    8.80
   4   7   0   89.39    9.70
   4   7   0  109.89   12.50
  -5  -7   0    6.50    7.80
  -5  -7   0   -0.60    5.50
   5   7   0   -4.40    5.10
   5   7   0    4.50    8.20
   5   7   0   -3.00   12.90
  -6  -7   0   25.80    7.70
  -6  -7   0   -2.30    6.60
   6   7   0    0.10    9.60
   6   7   0    1.70    6.20
   6   7   0   20.40   10.70
   7  -8   0    5.30    8.50
   7  -8   0  -10.40    8.90
   7  -8   0   -2.30    8.20
  -7   8   0    3.90    6.50
   6  -8   0   69.39    9.40
   6  -8   0   62.79    9.30
   6  -8   0   76.49   11.00
   6  -8   0   68.59    7.60
  -6   8   0   44.70    7.40
  -6   8   0   57.69    8.90
   5  -8   0    5.30    6.30
   5  -8   0    4.70    5.20
   5  -8   0    6.50    3.80
   5  -8   0   10.20    6.40
  -5   8   0   11.70    6.60
  -5   8   0    9.90    4.80
  -5   8   0   11.70    6.40
   4  -8   0  132.69   10.50
   4  -8   0  150.38   11.60
   4  -8   0  153.78   11.30
  -4   8   0  144.79    9.20
  -4   8   0  149.88   11.30
  -4   8   0  141.89   11.40
   3  -8   0   50.09    6.40
   3  -8   0   37.40    5.10
   3  -8   0   56.79    6.50
   3  -8   0   54.59    6.10
  -3   8   0   53.99    5.40
  -3   8   0   59.49    7.30
  -3   8   0   52.19    6.20
   2  -8   0    1.30    3.90
   2  -8   0    0.50    4.20
   2  -8   0    0.60    2.90
  -2   8   0    1.50    4.00
  -2   8   0   -1.40    4.10
  -2   8   0   -1.90    2.20
   1  -8   0   13.30    4.20
   1  -8   0    8.50    4.20
  -1   8   0   13.20    4.00
  -1   8   0   15.10    3.70
  -1   8   0   15.00    4.30
   0  -8   0   36.50    3.80
   0  -8   0   33.20    5.00
   0  -8   0   34.00    5.00
   0  -8   0   33.40    3.20
   0   8   0   41.80    4.30
   0   8   0   32.40    3.30
   0   8   0   31.60    5.10
   0   8   0   30.00    4.80
  -1  -8   0    6.90    3.10
  -1  -8   0   13.20    4.60
  -1  -8   0    6.30    3.10
  -1  -8   0   10.30    4.40
   1   8   0   12.30    5.40
   1   8   0   14.40    3.10
   1   8   0    5.20    2.60
   1   8   0    4.70    2.80
   1   8   0    8.10    4.40
   1   8   0    8.00    3.10
  -2  -8   0   30.70    5.60
  -2  -8   0   30.50    4.90
  -2  -8   0   27.80    4.70
  -2  -8   0   28.70    3.70
   2   8   0   30.80    3.30
   2   8   0   25.10    4.30
   2   8   0   21.10    3.60
   2   8   0   28.70    6.20
   2   8   0   28.90    7.50
  -3  -8   0   -1.40    4.10
  -3  -8   0    9.90    4.90
  -3  -8   0    2.60    3.40
   3   8   0   -6.10    6.70
   3   8   0    3.30    3.90
   3   8   0   -0.10    6.20
  -4  -8   0   -3.70    4.70
  -4  -8   0   -3.40    5.00
   4   8   0    1.00    7.20
   4   8   0   -0.70    4.40
   4   8   0    9.10    7.80
  -5  -8   0   30.80    7.30
  -5  -8   0   24.10    6.90
   5   8   0   25.90    9.90
   5   8   0   27.30    6.70
   5   8   0   26.90    9.60
  -6  -8   0    9.80    7.50
  -6  -8   0   16.00    7.10
   6   8   0   20.00   10.40
   6   8   0   22.70   10.90
   6   8   0    0.70    6.50
   7  -9   0    9.00    8.70
   7  -9   0   16.50   12.60
  -7   9   0    2.90    9.50
  -7   9   0   -4.30    6.30
   6  -9   0    7.80    9.10
   6  -9   0   12.20    9.00
   6  -9   0   10.60    5.70
   6  -9   0   -0.30    7.60
  -6   9   0    1.20    7.00
  -6   9   0    8.10    5.80
   5  -9   0   25.60    7.60
   5  -9   0   41.10    9.50
   5  -9   0   34.20    8.30
  -5   9   0   24.00    9.80
  -5   9   0   47.50    7.50
  -5   9   0   37.00    5.90
   4  -9   0   19.00    6.20
   4  -9   0   16.30    6.00
   4  -9   0   17.30    5.50
  -4   9   0   16.20    5.80
  -4   9   0   28.90    6.10
  -4   9   0   14.50    4.10
   3  -9   0    3.20    4.70
   3  -9   0    6.10    5.10
   3  -9   0    4.10    5.00
  -3   9   0   12.00    5.00
  -3   9   0   -3.40    4.50
  -3   9   0    2.80    2.80
   2  -9   0    0.70    4.70
   2  -9   0    2.50    4.80
   2  -9   0    7.50    3.10
  -2   9   0    6.00    4.50
  -2   9   0    6.50    2.50
  -2   9   0    9.10    5.00
   1  -9   0    7.70    4.70
  -1   9   0    9.60    3.80
  -1   9   0   12.00    4.70
   0  -9   0   58.59    6.60
   0  -9   0   55.59    6.60
   0  -9   0   42.70    5.00
   0   9   0   51.69    4.40
   0   9   0   51.09    5.40
   0   9   0   62.69    6.50
   0   9   0   53.49    6.10
   0   9   0   52.19    5.90
   0   9   0   57.49    6.20
  -1  -9   0   38.20    5.90
  -1  -9   0   39.50    4.30
  -1  -9   0   36.90    5.90
  -1  -9   0   28.30    4.20
   1   9   0   38.90    4.30
   1   9   0   36.10    9.20
   1   9   0   35.60    4.50
  -2  -9   0  432.36   19.50
  -2  -9   0  412.56   20.50
  -2  -9   0  453.35   18.20
  -2  -9   0  363.86   22.40
   2   9   0  432.46   19.20
   2   9   0  436.06   21.70
   2   9   0  432.06   17.90
   2   9   0  428.86   20.60
  -3  -9   0    3.90    3.80
  -3  -9   0    4.20    4.30
  -3  -9   0   -3.40    4.70
   3   9   0    7.20    6.30
   3   9   0    3.80    2.80
   3   9   0   -1.80    4.10
   3   9   0   -0.70    6.90
  -4  -9   0   -3.80    5.20
  -4  -9   0    4.40    5.20
   4   9   0    1.20    8.40
   4   9   0    6.00    5.20
   4   9   0   -4.70    7.30
  -5  -9   0    9.20    6.90
  -5  -9   0    2.20    6.20
   5   9   0    4.20   10.10
   5   9   0   -5.20    5.90
  -6  -9   0   15.60    7.40
  -6  -9   0   12.90    7.70
   6   9   0   17.50   10.10
   6   9   0   23.20   11.70
   6   9   0    8.90    7.40
   6 -10   0    0.10    8.00
   6 -10   0   -3.00    7.80
   6 -10   0   -5.00    5.70
  -6  10   0   -2.00    5.40
  -6  10   0   -3.20    7.10
   5 -10   0  -10.00    7.30
   5 -10   0   -5.10    5.60
   5 -10   0    1.50    6.90
  -5  10   0    5.70    6.70
  -5  10   0    4.10    4.60
  -5  10   0    5.70    7.60
   4 -10   0   10.40    6.20
   4 -10   0    5.30    5.60
   4 -10   0    2.30    6.40
  -4  10   0   -4.80    3.40
  -4  10   0   10.00    5.80
  -4  10   0    2.30    5.40
   3 -10   0   -1.80    5.80
   3 -10   0    0.20    5.00
   3 -10   0   -7.00    4.90
   3 -10   0    6.80    5.50
  -3  10   0    5.00    4.90
  -3  10   0    1.60    4.80
  -3  10   0   -1.20    2.60
   2 -10   0   19.10    5.50
   2 -10   0   10.30    5.60
  -2  10   0   18.00    5.00
  -2  10   0    9.90    4.90
   1 -10   0    8.10    5.40
   1 -10   0    6.40    5.20
  -1  10   0    7.00    4.60
  -1  10   0    7.20    5.00
   0 -10   0  311.97   16.80
   0 -10   0  331.07   16.90
   0 -10   0  311.57   14.10
   0  10   0  331.97   16.40
   0  10   0  294.07   14.40
   0  10   0  339.57   16.70
   0  10   0  339.97   15.20
   0  10   0  333.17   13.80
   0  10   0  314.57   14.30
  -1 -10   0    0.10    4.90
  -1 -10   0    0.80    5.20
  -1 -10   0   -3.80    3.10
   1  10   0    2.90    5.70
   1  10   0    2.10    3.20
   1  10   0   -1.40    4.80
   1  10   0    5.00    2.60
   1  10   0   -1.00    3.70
  -2 -10   0   22.30    5.90
  -2 -10   0   20.80    5.10
  -2 -10   0   13.50    4.30
   2  10   0   15.40    4.40
   2  10   0   23.00    6.00
   2  10   0   15.20    6.90
  -3 -10   0    9.90    4.80
  -3 -10   0   22.20    4.70
  -3 -10   0    3.10    5.20
   3  10   0    9.50    6.50
   3  10   0   13.80    8.00
   3  10   0   10.90    5.00
  -4 -10   0   11.00    5.90
  -4 -10   0    6.00    6.20
  -4 -10   0   11.40    3.60
   4  10   0    3.50    5.50
   4  10   0   11.70    7.90
  -5 -10   0    6.50    6.60
  -5 -10   0    8.50    6.70
   5  10   0    8.60    6.60
   5  10   0   28.50   11.00
   5  10   0    8.70    9.00
  -6 -10   0    0.80    7.10
  -6 -10   0  -14.20    7.40
   6  10   0   25.90   13.80
   6  10   0    8.60    7.20
   6  10   0    5.30    9.40
   6 -11   0   -8.10    8.10
   6 -11   0  -10.10    8.10
  -6  11   0    5.30    5.60
  -6  11   0   13.00    7.50
   5 -11   0   15.50    8.10
   5 -11   0   24.50    6.50
   5 -11   0   19.20    7.80
  -5  11   0   10.20    4.60
  -5  11   0    7.30    7.00
  -5  11   0   23.50    7.30
   4 -11   0   32.20    8.10
   4 -11   0   35.30    9.00
   4 -11   0   35.20    6.70
  -4  11   0   25.90    4.10
  -4  11   0   30.90    7.60
  -4  11   0   36.70    6.90
   3 -11   0    9.30    5.90
   3 -11   0   10.40    6.30
   3 -11   0    4.30    5.60
  -3  11   0   -2.70    5.00
  -3  11   0    6.20    5.20
   2 -11   0    5.90    5.70
   2 -11   0    7.10    4.70
   2 -11   0   -3.60    5.10
  -2  11   0    1.90    4.70
  -2  11   0    7.70    5.00
   1 -11   0   18.00    6.00
   1 -11   0   16.10    5.70
  -1  11   0    9.20    4.90
  -1  11   0    9.00    5.30
   0 -11   0    4.30    2.90
   0 -11   0    8.20    5.30
   0 -11   0    1.90    5.40
   0  11   0    1.70    5.40
   0  11   0   -1.10    4.70
   0  11   0    1.20    3.20
  -1 -11   0   30.00    6.20
  -1 -11   0   21.80    6.00
  -1 -11   0   22.10    4.00
   1  11   0   24.40    6.60
   1  11   0   16.80    4.40
   1  11   0   28.60    6.10
  -2 -11   0   38.20    4.60
  -2 -11   0   33.00    6.00
  -2 -11   0   24.80    6.20
  -2 -11   0   27.20    4.80
   2  11   0   35.90    6.60
   2  11   0   33.80    8.10
   2  11   0   27.20    5.10
  -3 -11   0   44.40    5.90
  -3 -11   0   35.70    6.90
  -3 -11   0   35.80    6.00
   3  11   0   27.60    7.30
   3  11   0   33.60    5.80
   3  11   0   29.50    8.90
  -4 -11   0    0.50    3.70
  -4 -11   0   -1.10    5.70
  -4 -11   0    1.20    5.90
   4  11   0    4.20    9.30
   4  11   0    5.30    6.10
  -5 -11   0   16.00    7.60
  -5 -11   0   15.20    6.90
   5  11   0   13.20    8.80
   5  11   0   30.70   11.20
   5  11   0    9.90    7.10
   6 -12   0    4.90    9.60
  -6  12   0   18.90    8.00
   5 -12   0   -9.10    7.30
   5 -12   0   -5.10    6.10
   5 -12   0    5.20    7.60
  -5  12   0    4.80    6.90
  -5  12   0   -7.60    6.40
  -5  12   0    1.60    4.80
   4 -12   0   20.10    7.50
   4 -12   0   29.50    8.00
   4 -12   0   35.20    7.20
  -4  12   0   30.60    6.90
  -4  12   0   20.70    3.80
  -4  12   0   32.80    7.10
   3 -12   0   -0.70    5.80
   3 -12   0    3.90    5.90
   3 -12   0   -9.60    6.20
  -3  12   0   -5.80    5.40
  -3  12   0   -2.80    5.10
   2 -12   0   11.10    6.00
   2 -12   0   17.00    6.70
   2 -12   0   14.30    5.60
  -2  12   0   15.80    5.60
  -2  12   0   12.80    5.60
   1 -12   0   83.09    9.00
   1 -12   0   65.89    8.10
  -1  12   0   70.39    7.50
  -1  12   0   69.79    9.30
   0 -12   0   26.90    3.50
   0 -12   0   29.80    6.80
   0 -12   0   30.50    6.50
   0  12   0   21.70    5.80
   0  12   0   40.20    6.70
   0  12   0   23.50    3.60
  -1 -12   0   95.09    7.80
  -1 -12   0   89.49   11.20
  -1 -12   0   80.59   10.40
   1  12   0   91.29   11.50
   1  12   0  103.79    7.00
   1  12   0   87.09    8.10
   1  12   0  106.79   10.60
  -2 -12   0    2.10    5.10
  -2 -12   0    0.90    4.10
  -2 -12   0    0.00    5.60
   2  12   0    0.90    4.90
   2  12   0    0.80    5.70
   2  12   0   -0.50    7.40
  -3 -12   0   -0.10    5.00
  -3 -12   0   -4.50    5.60
  -3 -12   0   -0.10    5.00
   3  12   0    2.40    6.60
   3  12   0   -3.60    4.90
  -4 -12   0    5.80    6.10
  -4 -12   0    8.40    4.60
  -4 -12   0    8.80    6.70
   4  12   0    8.20    6.10
   4  12   0   24.30    8.20
   4  12   0   10.10    9.80
  -5 -12   0    6.90    7.00
  -5 -12   0    2.00    6.70
   5  12   0    6.20    8.20
   5  12   0  -13.80    5.80
   5 -13   0    4.80    6.60
   5 -13   0    7.30    8.50
   5 -13   0   -0.70    7.80
  -5  13   0    3.20    7.40
  -5  13   0   -4.90    6.90
   4 -13   0   -9.40    6.30
   4 -13   0    5.40    7.10
   4 -13   0    2.10    7.70
  -4  13   0   -5.60    6.00
  -4  13   0   -1.70    6.30
   3 -13   0   28.60    7.70
   3 -13   0   19.50    8.20
   3 -13   0   42.70    8.20
  -3  13   0   30.20    6.70
  -3  13   0   52.99    7.60
   2 -13   0   -6.10    6.60
   2 -13   0    6.70    5.90
   2 -13   0   11.70    6.30
  -2  13   0    4.10    5.50
  -2  13   0    8.60    5.60
   1 -13   0   30.10    7.30
   1 -13   0   27.60    5.60
   1 -13   0   25.80    7.60
  -1  13   0   30.20    6.40
  -1  13   0   28.60    6.40
   0 -13   0    3.80    5.70
   0 -13   0   -2.90    2.70
   0 -13   0   -3.90    6.00
   0  13   0   -6.30    5.50
   0  13   0   -6.20    5.00
  -1 -13   0    6.80    6.10
  -1 -13   0   -8.40    5.80
  -1 -13   0    3.00    3.70
   1  13   0    5.40    4.10
   1  13   0   -0.70    5.40
   1  13   0    3.20    6.60
  -2 -13   0   -5.30    4.10
  -2 -13   0    4.80    6.00
  -2 -13   0    1.90    3.30
  -2 -13   0   -8.30    5.30
   2  13   0    8.30    6.00
   2  13   0   -1.50    6.20
  -3 -13   0  178.78   16.40
  -3 -13   0  193.28   12.50
  -3 -13   0  175.88   14.60
   3  13   0  168.58   12.50
   3  13   0  178.28   14.70
   3  13   0  184.58   17.90
  -4 -13   0   63.29    8.10
  -4 -13   0   52.79    9.00
   4  13   0   99.19   12.90
   4  13   0   60.29    9.00
   4  13   0   80.69   13.10
   5 -14   0    7.00    6.80
  -5  14   0    9.80    7.50
   4 -14   0   13.40    8.70
   4 -14   0    6.00    7.50
   4 -14   0    7.00    8.50
  -4  14   0   -1.10    6.20
  -4  14   0   -4.20    6.70
   3 -14   0   14.20    6.90
   3 -14   0    0.20    6.50
   3 -14   0   17.80    8.20
  -3  14   0    7.40    6.60
  -3  14   0   13.40    6.70
   2 -14   0   -1.60    7.20
   2 -14   0    2.40    6.60
  -2  14   0   -4.30    5.40
  -2  14   0    3.70    5.70
   1 -14   0   10.50    6.90
   1 -14   0    9.60    5.50
  -1  14   0   10.40    6.10
   0 -14   0    0.90    3.00
   0 -14   0   15.30    7.10
   0 -14   0    6.00    4.70
   0  14   0    7.80    6.40
  -1 -14   0   11.00    6.90
  -1 -14   0   -1.20    6.10
  -1 -14   0    2.50    3.70
  -1 -14   0    3.40    4.10
   1  14   0    8.30    8.50
  -2 -14   0    4.00    3.80
  -2 -14   0   -2.00    5.80
  -2 -14   0   -0.30    4.40
  -2 -14   0    5.20    6.40
   2  14   0   -5.60    4.80
   2  14   0    9.30    8.00
   2  14   0   -0.50    6.30
  -3 -14   0   21.20    7.20
  -3 -14   0   27.50    5.90
  -3 -14   0   33.90    6.60
   3  14   0   21.30    6.50
   3  14   0   28.70    8.20
   3  14   0   29.00   10.30
  -4 -14   0    4.20    5.90
   4  14   0   12.30    6.50
   4  14   0   16.40    7.50
   4 -15   0    4.00    7.80
   4 -15   0   -9.50    7.80
   4 -15   0   10.80    7.10
  -4  15   0   -5.10    6.90
  -4  15   0    7.80    7.00
   3 -15   0   -5.50    6.70
   3 -15   0    8.70    7.20
   3 -15   0    5.40    8.00
  -3  15   0   -2.50    6.30
  -3  15   0   -1.30    6.10
   2 -15   0   -5.30    5.70
   2 -15   0    4.40    7.60
   2 -15   0   -0.80    6.80
  -2  15   0    3.10    6.20
  -2  15   0   -1.50    6.10
   1 -15   0   46.00    9.10
   1 -15   0   53.79    9.10
   1 -15   0   57.59    8.80
  -1  15   0   41.50    7.60
  -1  15   0   62.29    8.60
   0 -15   0    8.70    7.20
   0 -15   0    8.20    7.40
   0 -15   0    5.10    4.90
   0 -15   0    0.90    3.00
   0  15   0    0.10    6.00
   0  15   0    5.40    6.40
  -1 -15   0   13.20    4.10
  -1 -15   0   18.90    5.00
  -1 -15   0   18.10   10.90
  -1 -15   0   14.90    7.70
   1  15   0    0.20    6.90
   1  15   0    6.70    6.40
  -2 -15   0   -2.30    6.20
  -2 -15   0    2.90    7.40
  -2 -15   0   -0.80    4.20
   2  15   0    8.30    8.10
   2  15   0   -2.90    6.20
   2  15   0   -8.50    4.90
  -3 -15   0   18.90    6.50
  -3 -15   0    8.30    9.20
  -3 -15   0    3.30    5.10
   3  15   0   15.60    7.60
   3  15   0   -0.40    6.00
   3  15   0    7.20    9.20
   3 -16   0    2.00    7.00
   3 -16   0  -11.20    6.30
   3 -16   0   -4.20    8.50
  -3  16   0    7.50    7.30
  -3  16   0   -1.10    6.40
   2 -16   0   40.60    8.10
   2 -16   0   13.00    8.10
   2 -16   0   31.30    7.50
  -2  16   0   24.00    7.40
  -2  16   0   10.70    6.70
   1 -16   0   17.20    6.10
   1 -16   0   11.60    8.00
   1 -16   0   32.90    8.10
  -1  16   0   32.80    7.60
  -1  16   0   15.10    6.90
   0 -16   0   10.00    7.70
   0 -16   0   27.10    8.00
   0 -16   0   34.80    6.80
   0  16   0   24.90    7.30
   0  16   0   17.20    7.20
  -1 -16   0   12.40    7.10
  -1 -16   0   -3.70    6.60
  -1 -16   0   -7.50    4.20
  -1 -16   0   -1.60    4.40
   1  16   0   -4.60    6.90
   1  16   0    4.60    6.50
  -2 -16   0   71.09    8.70
  -2 -16   0   68.79    9.60
   2  16   0   67.79   10.40
   2  16   0  102.59   12.10
   2 -17   0   16.20    7.70
   2 -17   0   34.80    7.60
  -2  17   0   25.90    7.50
   1 -17   0   -2.00    5.50
   1 -17   0   15.40    8.10
   1 -17   0    3.50    7.40
  -1  17   0   -2.10    6.30
  -1  17   0   11.20    6.60
   0 -17   0   21.10    8.40
   0 -17   0   28.00    8.00
   0 -17   0   17.00    5.70
   0  17   0   16.60    7.00
   0  17   0   25.50    7.40
  -1 -17   0   36.80    7.90
  -1 -17   0   11.20    6.70
  -1 -17   0   11.40    6.80
   1  17   0   20.00    8.50
   1  17  -1    2.80    7.20
  -1 -17   1   -1.00    7.50
  -1 -17   1    7.70   11.60
  -1 -17   1  -11.50    8.90
   0  17  -1    0.10    6.50
   0  17  -1    8.20    6.70
   0 -17   1   18.50    7.60
   0 -17   1   12.20    5.70
   0 -17   1   12.40    8.20
  -1  17  -1   50.09    8.40
  -1  17  -1   41.60    7.60
   1 -17   1   35.10    6.90
   1 -17   1   46.30    9.40
   1 -17   1   57.89    9.40
  -2  17  -1   91.19   12.10
   2 -17   1  111.69   13.80
   2 -17   1  103.09   11.70
   2  16  -1   10.20    8.00
   2  16  -1    5.10    6.80
  -2 -16   1   -4.00    6.30
  -2 -16   1   -0.40    6.40
  -2 -16   1   10.40    5.30
   1  16  -1   -3.20    6.40
   1  16  -1    1.50    7.10
  -1 -16   1    6.30    6.90
  -1 -16   1    6.40    4.00
  -1 -16   1   12.90    5.00
  -1 -16   1    0.70    7.10
   0  16  -1   57.59    8.50
   0  16  -1   47.60    8.00
   0 -16   1   46.80    9.10
   0 -16   1   37.90    8.90
  -1  16  -1    3.00    6.20
  -1  16  -1   -1.80    5.90
   1 -16   1   -4.40    7.40
   1 -16   1    1.20    7.00
   1 -16   1   -3.40    5.50
  -2  16  -1   18.10    6.70
  -2  16  -1   11.90    6.60
   2 -16   1   21.20    7.80
   2 -16   1   19.30    8.60
   2 -16   1   17.60    7.00
  -3  16  -1   -0.30    6.50
  -3  16  -1    9.20    6.80
   3 -16   1    5.90    7.50
   3 -16   1   14.00    8.30
   3 -16   1   15.80    7.30
   3  15  -1    2.10    6.30
   3  15  -1   -3.80    7.00
   3  15  -1   -3.80    8.80
  -3 -15   1   -0.20    5.20
  -3 -15   1   -2.60    6.60
  -3 -15   1    2.80    6.20
   2  15  -1    4.70    7.10
   2  15  -1   10.20    8.20
  -2 -15   1    4.70    4.70
  -2 -15   1    3.50    6.20
  -2 -15   1    2.70    4.00
  -2 -15   1    0.30    6.70
   1  15  -1   29.30    7.40
   1  15  -1   25.90    7.90
  -1 -15   1   33.90    4.60
  -1 -15   1   28.90   10.60
  -1 -15   1   26.00    8.00
   0  15  -1   22.00    7.20
   0 -15   1   11.10    7.20
   0 -15   1   19.70    3.70
   0 -15   1   19.40    8.00
  -1  15  -1   19.90    6.60
   1 -15   1   16.10    7.10
   1 -15   1   14.70    7.90
   1 -15   1   11.60    7.20
  -2  15  -1   39.20    7.70
   2 -15   1   37.80    7.80
   2 -15   1   40.60    9.20
   2 -15   1   40.30    8.60
  -3  15  -1    9.50    6.80
  -3  15  -1    4.40    6.40
   3 -15   1    9.80    7.70
   3 -15   1    6.30    7.10
   3 -15   1   13.20    8.20
  -4  15  -1   -3.50    6.10
  -4  15  -1    1.00    6.90
   4 -15   1    4.00    7.20
   4 -15   1   -8.80    7.90
   4 -15   1   -6.10    7.20
   4  14  -1   52.79    9.30
   4  14  -1   43.80   11.70
   4  14  -1   32.90    7.30
  -4 -14   1   51.09    8.00
  -4 -14   1   55.09   11.10
   3  14  -1    6.90    7.60
   3  14  -1   -3.80    5.40
   3  14  -1    4.50    9.40
  -3 -14   1   -3.80    5.00
  -3 -14   1    1.50    6.30
  -3 -14   1   -1.80    5.60
   2  14  -1   60.59    6.80
   2  14  -1   80.79   10.20
   2  14  -1   66.59    9.20
  -2 -14   1   59.99    7.90
  -2 -14   1   51.89    8.80
  -2 -14   1   60.49    6.60
   1  14  -1    8.60    7.10
   1  14  -1   -1.60    7.40
  -1 -14   1   -3.70    6.30
  -1 -14   1    3.10    6.30
  -1 -14   1    3.20    3.80
   0  14  -1   50.99    7.70
   0 -14   1   41.30    8.10
   0 -14   1   51.39    5.70
  -1  14  -1   67.19    8.00
   1 -14   1   81.79    9.50
   1 -14   1   76.39    9.80
  -2  14  -1   96.59   11.20
  -2  14  -1   92.99   11.00
   2 -14   1  103.79   12.90
   2 -14   1   95.19   10.10
  -3  14  -1    6.60    7.10
  -3  14  -1   18.30    7.10
   3 -14   1    9.90    7.60
   3 -14   1   -2.60    7.20
   3 -14   1   12.40    7.20
  -4  14  -1   11.20    6.40
  -4  14  -1   -7.00    6.50
   4 -14   1   -9.30    7.10
   4 -14   1   13.80   11.40
   4 -14   1    6.10    7.90
  -5  14  -1    3.10    6.70
   5 -14   1    2.20    6.60
   5 -14   1   -6.60   10.60
   4  13  -1    8.80   10.70
   4  13  -1   15.80    8.20
   4  13  -1    6.20    6.10
  -4 -13   1    9.40    7.20
  -4 -13   1   16.30    6.50
   3  13  -1   -6.20    9.00
   3  13  -1   -6.70    5.00
   3  13  -1    3.30    7.00
  -3 -13   1    0.50    6.80
  -3 -13   1    3.70    5.20
  -3 -13   1    6.60    6.50
   2  13  -1    0.20    4.60
   2  13  -1   -4.80    6.40
   2  13  -1    3.20    7.80
  -2 -13   1    2.50    4.40
  -2 -13   1    6.30    5.70
  -2 -13   1   -6.40    6.10
   1  13  -1   11.90    6.30
   1  13  -1    4.20    6.50
  -1 -13   1    3.20    3.70
  -1 -13   1    3.80    6.20
  -1 -13   1    7.10    6.10
   0  13  -1   20.70    4.80
   0  13  -1   11.30    5.90
   0  13  -1    9.90    5.80
   0 -13   1    5.40    6.30
   0 -13   1   12.90    6.50
   0 -13   1    7.10    3.20
  -1  13  -1   13.90    5.60
  -1  13  -1   -6.90    5.10
   1 -13   1   -5.90    5.80
   1 -13   1    0.60    6.10
  -2  13  -1   11.00    5.70
  -2  13  -1   14.30    5.90
   2 -13   1   15.10    6.80
   2 -13   1   16.60    6.80
  -3  13  -1    1.20    6.00
  -3  13  -1    0.90    5.60
   3 -13   1    2.20    6.60
   3 -13   1    2.40    7.90
   3 -13   1    6.00    7.10
  -4  13  -1   34.40    7.70
   4 -13   1   53.19    8.60
   4 -13   1   50.39    9.30
   4 -13   1   52.59    8.50
  -5  13  -1   -3.70    7.30
  -5  13  -1    8.90    7.00
   5 -13   1    7.40    8.30
   5 -13   1   -4.60    6.70
   5 -13   1   11.90    8.20
   5  12  -1   59.39   10.60
   5  12  -1   71.29   12.90
   5  12  -1   50.39    8.60
  -5 -12   1   60.59    9.20
  -5 -12   1   70.69    9.70
   4  12  -1   37.10   11.20
   4  12  -1   32.00    7.20
   4  12  -1   39.70    9.30
  -4 -12   1   32.70    6.90
  -4 -12   1   42.30    8.30
  -4 -12   1   50.89    6.60
   3  12  -1    4.00    4.80
   3  12  -1   12.30    9.80
   3  12  -1    5.00    7.00
  -3 -12   1    2.40    6.90
  -3 -12   1   -0.30    5.00
   2  12  -1   43.20    8.70
   2  12  -1   24.00    5.00
   2  12  -1   20.60    6.70
   2  12  -1   27.70    4.40
  -2 -12   1   37.70    5.40
  -2 -12   1   26.90    6.70
  -2 -12   1   39.00    6.40
   1  12  -1    8.40    5.90
   1  12  -1   15.30    4.00
   1  12  -1   19.30    6.60
  -1 -12   1    8.20    6.60
  -1 -12   1    6.50    6.00
  -1 -12   1   10.50    6.30
   0  12  -1    9.10    5.50
   0  12  -1    3.40    4.00
   0  12  -1    3.40    5.60
   0  12  -1   -4.60    4.60
   0 -12   1    5.90    5.80
   0 -12   1   -3.30    5.60
   0 -12   1    3.70    3.20
  -1  12  -1    9.50    5.30
  -1  12  -1    2.90    5.00
  -1  12  -1    5.50    4.30
   1 -12   1    3.70    5.80
   1 -12   1   14.40    6.10
  -2  12  -1   18.00    5.60
  -2  12  -1    7.60    5.20
   2 -12   1    6.80    6.40
   2 -12   1   10.60    6.20
  -3  12  -1   12.80    6.10
  -3  12  -1   20.70    5.80
   3 -12   1   28.80    6.60
   3 -12   1    8.80    6.60
   3 -12   1   10.80    6.80
  -4  12  -1    5.80    6.40
  -4  12  -1   13.90    6.00
   4 -12   1    9.50    6.90
   4 -12   1    9.50    7.40
   4 -12   1   14.50    6.80
  -5  12  -1    2.90    6.80
  -5  12  -1   14.10    7.60
   5 -12   1    7.40    8.00
   5 -12   1    0.90    6.70
   5 -12   1    1.90    7.50
  -6  12  -1   11.30    7.30
   6 -12   1   20.40    9.30
   6 -12   1   11.90    9.00
   5  11  -1    4.70    9.10
   5  11  -1    5.20   10.40
   5  11  -1    0.90    6.20
  -5 -11   1  -18.70    6.60
  -5 -11   1   -6.70    6.40
   4  11  -1    5.80    5.60
   4  11  -1   12.40    9.50
  -4 -11   1    0.30    6.30
  -4 -11   1   -6.20    5.40
   3  11  -1   -1.80    6.70
   3  11  -1   -3.30    4.40
   3  11  -1    4.70    8.20
  -3 -11   1    2.80    4.50
  -3 -11   1    0.80    4.80
  -3 -11   1    9.10    6.10
   2  11  -1   40.20    8.10
   2  11  -1   49.80    7.20
   2  11  -1   41.30    5.00
   2  11  -1   38.50    4.50
  -2 -11   1   38.00    6.70
  -2 -11   1   29.80    5.30
  -2 -11   1   36.40    6.30
   1  11  -1    2.60    3.70
   1  11  -1    1.50    5.20
   1  11  -1    0.40    2.80
   1  11  -1    3.10    3.50
   1  11  -1    0.90    5.90
  -1 -11   1    3.20    3.50
  -1 -11   1    8.50    5.40
  -1 -11   1    6.00    5.20
   0  11  -1   79.39    9.20
   0  11  -1   67.09    6.20
   0  11  -1   85.19   10.00
   0 -11   1   84.79   10.20
   0 -11   1   84.39    8.10
   0 -11   1   71.69    6.20
  -1  11  -1  111.29    6.30
  -1  11  -1  130.49    9.10
  -1  11  -1  117.99    9.90
  -1  11  -1  125.29   10.20
   1 -11   1  121.49   10.90
   1 -11   1  113.39    6.40
   1 -11   1  117.79   10.80
  -2  11  -1   27.20    5.60
  -2  11  -1   34.80    5.60
   2 -11   1   28.90    6.40
   2 -11   1   28.80    6.20
  -3  11  -1   -4.10    4.70
  -3  11  -1    9.30    5.40
   3 -11   1    7.20    5.40
   3 -11   1    2.80    5.50
   3 -11   1   -0.20    5.80
  -4  11  -1   60.09    7.90
  -4  11  -1   53.09    7.30
  -4  11  -1   50.29    5.60
   4 -11   1   57.69    8.30
   4 -11   1   55.19    8.30
   4 -11   1   54.79    7.60
  -5  11  -1   43.30    8.30
   5 -11   1   57.99    7.90
   5 -11   1   61.59    9.30
   5 -11   1   45.10    9.10
  -6  11  -1   -1.20    7.00
   6 -11   1    7.50    8.50
   6 -11   1    8.10    8.50
   6 -11   1   -5.80    6.40
   6  10  -1   35.70    8.50
   6  10  -1   49.90   11.30
  -6 -10   1   59.89    9.20
   5  10  -1    1.00   10.30
   5  10  -1   12.80    6.50
   5  10  -1   16.50    9.90
  -5 -10   1   12.20    6.80
  -5 -10   1   17.70    7.20
   4  10  -1   -9.00    9.50
   4  10  -1   -6.40    4.90
   4  10  -1    2.70    8.00
  -4 -10   1   -8.20    5.60
  -4 -10   1   -2.30    5.20
   3  10  -1   23.20    8.00
   3  10  -1   12.10    7.00
   3  10  -1   10.70    4.80
   3  10  -1   19.00    3.10
  -3 -10   1   17.20    4.40
  -3 -10   1   18.40    6.10
  -3 -10   1   13.60    5.00
   2  10  -1   57.89    5.60
   2  10  -1   40.50    7.00
   2  10  -1   39.00    7.40
   2  10  -1   41.30    5.20
  -2 -10   1   59.49    5.90
  -2 -10   1   54.09    6.40
  -2 -10   1   56.59    6.60
  -2 -10   1   56.69    7.10
   1  10  -1   11.00    3.60
   1  10  -1    7.30    2.60
   1  10  -1    7.70    3.60
   1  10  -1    7.60    5.20
   1  10  -1    7.10    5.90
  -1 -10   1    6.60    5.00
  -1 -10   1    5.00    5.10
  -1 -10   1    6.80    3.70
   0  10  -1   59.89    7.00
   0  10  -1   66.39    7.00
   0  10  -1   67.79    7.30
   0  10  -1   53.99    6.50
   0 -10   1   60.89    5.80
   0 -10   1   66.79    7.50
  -1  10  -1   29.70    2.90
  -1  10  -1   32.00    5.20
  -1  10  -1   34.80    5.40
  -1  10  -1   30.40    5.70
   1 -10   1   23.50    5.60
   1 -10   1   31.20    6.10
   1 -10   1   37.40    3.30
  -2  10  -1   20.10    5.20
  -2  10  -1   19.10    5.80
  -2  10  -1   20.70    4.80
   2 -10   1   23.50    5.40
   2 -10   1   17.30    5.60
  -3  10  -1    8.10    5.20
  -3  10  -1    5.90    4.70
   3 -10   1    0.10    5.10
   3 -10   1    3.50    5.30
  -4  10  -1   -3.20    3.10
  -4  10  -1    2.40    5.50
  -4  10  -1   -1.70    5.30
   4 -10   1   14.20    6.40
   4 -10   1   -2.60    5.90
   4 -10   1   -6.10    5.20
  -5  10  -1   25.00    6.80
  -5  10  -1   13.10    7.10
  -5  10  -1   17.20    4.80
   5 -10   1   29.00    7.60
   5 -10   1   24.90    8.10
   5 -10   1   21.50    6.40
  -6  10  -1   50.29    8.30
   6 -10   1   42.30    9.80
   6 -10   1   39.80    9.10
   6   9  -1   -9.40    9.90
   6   9  -1    5.10    6.70
   6   9  -1   -0.40   10.50
  -6  -9   1    1.90    7.30
  -6  -9   1    0.60    7.00
   5   9  -1   18.40   10.60
  -5  -9   1    6.80    6.60
   4   9  -1   22.60    8.40
   4   9  -1   17.80    8.70
   4   9  -1   18.20    5.10
  -4  -9   1   13.10    5.70
  -4  -9   1    7.40    5.80
   3   9  -1   -1.10    3.70
   3   9  -1    2.80    7.20
   3   9  -1   -0.10    6.50
   3   9  -1    1.80    2.50
  -3  -9   1    0.80    3.60
  -3  -9   1   -0.60    2.90
  -3  -9   1   -4.10    4.90
  -3  -9   1    2.30    4.50
   2   9  -1  195.98   14.20
   2   9  -1  180.68   10.40
   2   9  -1  203.18    9.80
   2   9  -1  203.28   13.50
  -2  -9   1  187.68   12.70
  -2  -9   1  193.38   11.50
   1   9  -1  314.17   13.70
   1   9  -1  328.47   17.10
   1   9  -1  297.67   14.00
   1   9  -1  312.37   14.20
  -1  -9   1  301.47   16.30
  -1  -9   1  324.87   14.50
  -1  -9   1  325.57   15.70
  -1  -9   1  314.77   14.40
   0   9  -1   24.00    5.10
   0   9  -1   15.30    4.80
   0   9  -1   18.70    3.90
   0  -9   1   13.00    5.10
   0  -9   1   17.60    4.70
   0  -9   1   20.50    3.30
  -1   9  -1    3.90    3.70
  -1   9  -1    1.30    4.20
  -1   9  -1    1.50    2.10
   1  -9   1    1.20    4.20
   1  -9   1    2.50    4.70
   1  -9   1    6.00    3.30
  -2   9  -1   14.40    4.50
  -2   9  -1    8.80    4.70
  -2   9  -1   11.80    4.40
   2  -9   1   12.80    5.00
   2  -9   1   11.10    4.90
  -3   9  -1   11.20    4.90
  -3   9  -1    4.80    4.60
  -3   9  -1    7.40    2.80
   3  -9   1    9.00    3.50
   3  -9   1    9.00    5.10
   3  -9   1    3.30    5.10
  -4   9  -1    7.80    5.40
  -4   9  -1    3.30    3.50
  -4   9  -1    7.90    5.50
   4  -9   1    0.50    5.30
   4  -9   1    4.60    5.70
   4  -9   1    1.00    5.60
  -5   9  -1  105.19   12.20
  -5   9  -1  111.29    9.20
  -5   9  -1  105.39   11.40
   5  -9   1  118.49   12.30
   5  -9   1  125.69   10.80
   5  -9   1  121.59   12.30
   5  -9   1  113.29    7.80
  -6   9  -1    1.80    5.60
  -6   9  -1   13.80    7.00
   6  -9   1    7.80    7.80
   6  -9   1   -3.90    7.80
   6  -9   1   -2.90    5.80
   6  -9   1    1.70    8.90
   6  -9   1    1.80    4.90
   7  -9   1    5.80    8.80
   7  -9   1   -3.50    8.10
   6   8  -1    8.00   10.10
   6   8  -1   12.90    6.60
   6   8  -1   -2.70    9.90
  -6  -8   1   -8.20    7.10
  -6  -8   1   -1.40    6.40
   5   8  -1    3.30    5.50
   5   8  -1  -15.90    8.70
   5   8  -1   -5.60    9.10
  -5  -8   1    8.90    6.10
  -5  -8   1   -3.00    5.70
   4   8  -1   20.50    5.20
   4   8  -1   27.70    8.30
   4   8  -1   28.90    8.40
  -4  -8   1    9.40    5.50
  -4  -8   1   29.10    6.10
   3   8  -1  104.89   10.00
   3   8  -1  130.89    6.90
   3   8  -1  135.39   12.50
   3   8  -1  107.29   12.70
  -3  -8   1  124.09    7.80
  -3  -8   1  137.89    7.20
  -3  -8   1  123.99   10.50
  -3  -8   1  136.79    9.60
   2   8  -1   11.80    3.40
   2   8  -1   23.10    6.70
   2   8  -1   12.40    3.10
   2   8  -1   10.60    6.30
   2   8  -1   11.60    3.60
  -2  -8   1    9.60    4.10
  -2  -8   1   17.50    3.70
  -2  -8   1   13.20    5.30
  -2  -8   1   19.00    4.60
   1   8  -1   12.70    5.10
   1   8  -1   14.50    3.00
   1   8  -1   12.70    2.60
   1   8  -1   20.70    3.30
   1   8  -1   14.40    3.10
   1   8  -1   12.60    4.70
   1   8  -1   22.90    3.50
  -1  -8   1   11.40    3.20
  -1  -8   1   22.80    4.50
  -1  -8   1   12.60    3.60
  -1  -8   1   20.40    4.70
   0   8  -1    9.60    2.70
   0   8  -1    5.30    4.00
   0   8  -1    8.30    3.00
   0   8  -1    9.20    4.20
   0  -8   1    8.90    2.70
   0  -8   1    9.80    3.00
   0  -8   1    4.20    3.50
   0  -8   1   12.00    4.20
  -1   8  -1  204.88   10.90
  -1   8  -1  185.88    8.70
  -1   8  -1  192.08   11.00
  -1   8  -1  205.38   10.50
   1  -8   1  207.78   11.40
   1  -8   1  199.38   11.20
   1  -8   1  196.68    9.70
  -2   8  -1   12.90    4.10
  -2   8  -1    6.90    3.80
  -2   8  -1    6.70    4.20
   2  -8   1   10.10    4.40
   2  -8   1    7.80    4.30
  -3   8  -1  201.38    9.30
  -3   8  -1  167.58   11.40
  -3   8  -1  189.08   11.20
   3  -8   1  177.98   11.60
   3  -8   1  158.88    9.60
   3  -8   1  177.58   11.90
  -4   8  -1  207.58   12.90
  -4   8  -1  187.68   12.30
  -4   8  -1  190.78   10.80
   4  -8   1  206.88   13.10
   4  -8   1  195.38    9.30
   4  -8   1  205.68   12.90
   4  -8   1  199.98   10.10
   4  -8   1  183.08   12.40
  -5   8  -1   28.70    7.30
  -5   8  -1   25.70    6.60
  -5   8  -1   34.20    5.50
   5  -8   1   28.00    7.00
   5  -8   1   23.80    6.30
   5  -8   1   30.20    4.70
   5  -8   1   31.20    7.10
  -6   8  -1    2.30    5.80
  -6   8  -1    8.70    7.20
   6  -8   1    4.60    7.00
   6  -8   1    9.10    7.70
   6  -8   1   -3.70    8.50
   6  -8   1    9.80    6.00
   6  -8   1  -18.00    6.50
   7  -8   1    1.50    9.00
   7  -8   1    1.80    7.90
   7  -8   1   -5.70    7.90
   6   7  -1    6.70    9.70
   6   7  -1    8.80   10.30
   6   7  -1    7.50    6.20
  -6  -7   1   -1.20    7.10
  -6  -7   1    1.30    7.10
   5   7  -1   65.69   10.40
   5   7  -1   69.49   10.50
  -5  -7   1   66.89    8.40
  -5  -7   1   62.89    7.60
   4   7  -1   38.80    8.20
   4   7  -1   38.60    8.10
  -4  -7   1   33.10    5.90
  -4  -7   1   23.20    5.70
   3   7  -1   56.99    5.20
   3   7  -1   52.69    8.20
   3   7  -1   69.79    8.00
  -3  -7   1   53.19    6.30
  -3  -7   1   56.49    5.30
  -3  -7   1   50.79    6.00
  -3  -7   1   57.29    6.30
   2   7  -1  104.59   10.50
   2   7  -1   95.59    7.20
   2   7  -1  103.99    6.70
   2   7  -1  100.19   10.30
   2   7  -1  113.29    6.20
   2   7  -1  100.69    6.10
  -2  -7   1  106.99    7.80
  -2  -7   1   95.39    8.80
  -2  -7   1  108.59    7.70
  -2  -7   1  109.49    6.80
   1   7  -1   60.99    6.00
   1   7  -1   63.19    7.40
   1   7  -1   61.79    4.70
   1   7  -1   71.59    4.60
   1   7  -1   67.59    5.00
   1   7  -1   57.59    5.50
  -1  -7   1   60.39    7.10
  -1  -7   1   69.89    5.30
  -1  -7   1   66.39    5.60
  -1  -7   1   55.59    6.30
   0   7  -1  244.38   11.00
   0   7  -1  253.47   12.10
   0   7  -1  240.78   11.50
   0   7  -1  242.78   12.10
   0   7  -1  249.58   11.30
   0  -7   1  248.58   12.00
   0  -7   1  245.58   11.50
   0  -7   1  258.47   12.50
   0  -7   1  242.18   10.90
   0  -7   1  244.28   12.20
  -1   7  -1  102.39    6.50
  -1   7  -1   99.29    7.20
  -1   7  -1   83.99    6.60
  -1   7  -1   96.29    7.00
  -1   7  -1   83.09    4.90
   1  -7   1   94.69    7.60
   1  -7   1   84.59    7.30
   1  -7   1   94.69    7.00
   1  -7   1   93.19    5.20
   1  -7   1   82.59    6.80
  -2   7  -1  105.79    7.60
  -2   7  -1   94.39    7.10
  -2   7  -1  109.09    7.70
  -2   7  -1  109.09    7.90
  -2   7  -1  100.39    5.50
   2  -7   1  106.29    8.00
   2  -7   1  106.29    7.60
   2  -7   1  110.69    6.30
   2  -7   1   87.59    8.70
  -3   7  -1   -0.30    3.00
  -3   7  -1   11.80    4.20
   3  -7   1    6.60    4.00
   3  -7   1    8.30    3.30
   3  -7   1    8.70    2.40
   3  -7   1    8.40    3.60
   3  -7   1    3.90    4.20
  -4   7  -1   47.60    6.40
  -4   7  -1   55.59    6.60
  -4   7  -1   40.40    5.90
   4  -7   1   25.30    5.50
   4  -7   1   35.10    5.80
   4  -7   1   54.29    6.00
   4  -7   1   50.39    5.80
   4  -7   1   50.69    6.50
  -5   7  -1   49.70    7.10
  -5   7  -1   41.40    6.00
   5  -7   1   58.59    7.70
   5  -7   1   42.60    7.00
   5  -7   1   31.80    6.00
   5  -7   1   65.49    7.10
  -6   7  -1   10.40    6.10
   6  -7   1    4.00    5.10
   6  -7   1   15.90    6.10
   6  -7   1   15.60    7.20
   6  -7   1    8.30    8.30
   7  -7   1    3.00    6.30
   7  -7   1    2.70    8.10
   7  -7   1    4.80    9.00
   7   6  -1   -7.10    7.30
   7   6  -1   -2.90   10.20
  -7  -6   1  -10.60    6.50
   6   6  -1   18.10    9.80
   6   6  -1   28.70   10.60
  -6  -6   1   14.30    6.50
  -6  -6   1   30.70    7.70
   5   6  -1   46.20    8.80
   5   6  -1   42.10    9.20
  -5  -6   1   35.00    6.70
  -5  -6   1   22.10    5.80
   4   6  -1    6.30    7.00
   4   6  -1   15.60    7.20
  -4  -6   1    8.10    4.80
  -4  -6   1    2.00    4.70
   3   6  -1  153.78   12.40
   3   6  -1  145.69    9.30
  -3  -6   1  125.79    9.90
  -3  -6   1  143.29    7.40
   2   6  -1   67.09    8.60
   2   6  -1   70.89    4.90
   2   6  -1   68.09    5.40
   2   6  -1   69.69    4.70
   2   6  -1   77.49    9.00
  -2  -6   1   78.39    5.30
  -2  -6   1   68.99    7.30
  -2  -6   1   70.19    6.10
  -2  -6   1   69.79    6.40
   1   6  -1   31.30    3.70
   1   6  -1   32.50    3.40
   1   6  -1   28.00    4.40
   1   6  -1   34.00    3.20
   1   6  -1   26.70    3.80
   1   6  -1   27.30    3.50
   1   6  -1   33.80    3.20
   1   6  -1   31.50    4.50
  -1  -6   1   28.30    3.40
  -1  -6   1   31.00    3.20
  -1  -6   1   27.00    3.50
  -1  -6   1   25.10    4.20
  -1  -6   1   33.90    3.80
  -1  -6   1   34.50    4.30
   0   6  -1   82.39    5.10
   0   6  -1   85.29    6.30
   0   6  -1   78.69    5.50
   0   6  -1   78.29    5.90
   0   6  -1   79.29    5.40
   0   6  -1   78.59    6.60
   0  -6   1   81.19    6.80
   0  -6   1   86.49    6.10
   0  -6   1   84.89    6.70
   0  -6   1   67.49    6.50
   0  -6   1   74.09    5.10
   0  -6   1   76.09    5.30
  -1   6  -1  202.88    9.80
  -1   6  -1  204.28    9.70
  -1   6  -1  210.18   10.90
  -1   6  -1  190.18    8.50
  -1   6  -1  207.18   10.10
   1  -6   1  200.58    8.80
   1  -6   1  195.98   10.30
   1  -6   1  195.08    9.60
   1  -6   1  183.78    9.90
   1  -6   1  190.58   10.00
   1  -6   1  207.58   10.30
  -2   6  -1  377.06   16.40
  -2   6  -1  379.56   16.30
  -2   6  -1  366.66   15.70
  -2   6  -1  366.16   16.20
  -2   6  -1  381.16   16.60
   2  -6   1  378.46   16.40
   2  -6   1  360.56   15.00
   2  -6   1  371.06   15.20
   2  -6   1  364.66   16.70
   2  -6   1  340.97   16.10
   2  -6   1  384.86   15.50
  -3   6  -1    3.60    3.90
  -3   6  -1    5.20    4.00
  -3   6  -1    3.60    3.00
   3  -6   1   -1.20    2.20
   3  -6   1    1.00    3.60
   3  -6   1    1.30    6.30
   3  -6   1   -0.50    3.00
   3  -6   1   -0.70    2.80
   3  -6   1    2.20    4.10
  -4   6  -1   -1.50    4.70
  -4   6  -1  -10.00    4.40
  -4   6  -1    1.70    3.90
   4  -6   1    6.20    4.90
   4  -6   1   -0.20    3.00
   4  -6   1   -2.50    3.50
   4  -6   1   -0.30    4.00
  -5   6  -1   23.80    5.50
  -5   6  -1   29.40    6.30
   5  -6   1   21.50    6.20
   5  -6   1   25.50    6.10
   5  -6   1   36.60    5.30
  -6   6  -1    2.60    5.90
   6  -6   1    1.10    5.20
   6  -6   1    7.80    7.10
   6  -6   1   11.00    6.40
   6  -6   1   -7.80   10.90
   7  -6   1   16.10    9.80
   7  -6   1    3.00    5.50
   7  -6   1   16.90    9.60
   7  -6   1   11.10    7.30
   7  -6   1    4.00    7.90
   7  -6   1   14.40    6.30
   7   5  -1    2.90    9.90
   7   5  -1    0.30   10.60
  -7  -5   1   11.70    7.80
  -7  -5   1   16.90    9.60
   6   5  -1    9.10    9.10
  -6  -5   1   11.80    6.70
  -6  -5   1   -4.60    5.30
   5   5  -1    2.10    7.50
   5   5  -1   14.80    7.90
  -5  -5   1   15.80    5.10
  -5  -5   1   24.30    6.10
  -5  -5   1    9.90    6.20
   4   5  -1   14.60    7.00
   4   5  -1    0.10    6.30
   4   5  -1    8.60    3.40
  -4  -5   1    7.10    4.70
  -4  -5   1    3.70    4.40
  -4  -5   1    6.50    2.50
  -4  -5   1    5.80    5.20
   3   5  -1   28.40    6.20
   3   5  -1   25.30    5.90
  -3  -5   1   32.00    5.00
  -3  -5   1   35.40    3.30
  -3  -5   1   33.00    4.70
  -3  -5   1   31.30    4.80
   2   5  -1  640.04   27.80
   2   5  -1  651.03   27.00
   2   5  -1  692.93   28.60
   2   5  -1  689.63   28.40
   2   5  -1  700.13   28.50
   2   5  -1  664.03   28.10
   2   5  -1  672.93   27.50
  -2  -5   1  645.74   28.10
  -2  -5   1  680.03   27.90
  -2  -5   1  711.33   27.20
  -2  -5   1  679.43   28.20
  -2  -5   1  715.73   27.20
  -2  -5   1  727.23   28.10
  -2  -5   1  660.33   27.90
   1   5  -1  696.53   28.60
   1   5  -1  714.53   29.10
   1   5  -1  715.83   27.90
   1   5  -1  694.93   28.80
   1   5  -1  664.43   27.90
   1   5  -1  664.63   28.00
  -1  -5   1  672.43   28.20
  -1  -5   1  707.93   28.10
  -1  -5   1  723.73   28.10
  -1  -5   1  707.93   28.60
  -1  -5   1  722.43   29.10
  -1  -5   1  690.53   27.80
   0   5  -1  867.61   34.20
   0   5  -1  835.62   33.80
   0   5  -1  864.91   34.20
   0   5  -1  844.12   34.30
   0   5  -1  863.41   34.10
   0   5  -1  852.91   34.40
   0  -5   1  859.01   34.30
   0  -5   1  861.31   34.50
   0  -5   1  894.01   34.50
   0  -5   1  859.61   34.30
   0  -5   1  834.02   34.00
   0  -5   1  848.72   33.90
  -1   5  -1   70.59    5.90
  -1   5  -1   70.89    5.10
  -1   5  -1   84.19    5.40
  -1   5  -1   66.39    4.00
  -1   5  -1   76.39    5.50
   1  -5   1   71.99    5.50
   1  -5   1   72.29    4.50
   1  -5   1   74.59    5.70
   1  -5   1   72.59    5.90
   1  -5   1   61.59    5.50
   1  -5   1   66.29    5.20
  -2   5  -1    0.70    2.80
  -2   5  -1   -1.50    2.80
  -2   5  -1   -4.00    2.60
   2  -5   1    1.40    2.40
   2  -5   1    2.50    2.70
   2  -5   1   -2.80    2.80
   2  -5   1    0.60    2.80
   2  -5   1   -0.40    2.10
   2  -5   1    0.10    1.60
   2  -5   1   -3.40    2.50
   2  -5   1   -0.30    2.60
   2  -5   1   -0.50    2.10
  -3   5  -1   68.69    6.00
  -3   5  -1   58.79    6.60
  -3   5  -1   73.59    7.00
   3  -5   1   64.69    6.10
   3  -5   1   53.39    6.80
   3  -5   1   68.79    5.80
   3  -5   1   70.39    4.90
   3  -5   1   57.69    6.80
  -4   5  -1  256.17   14.10
  -4   5  -1  257.37   13.40
   4  -5   1  273.57   13.40
   4  -5   1  259.27   13.80
   4  -5   1  249.38   15.00
   4  -5   1  282.47   17.10
   4  -5   1  249.68   12.30
  -5   5  -1   69.39    8.50
   5  -5   1   62.49    8.00
   5  -5   1   74.29    8.90
   5  -5   1   77.19    9.30
   5  -5   1   70.59    8.70
  -6   5  -1   21.60    6.80
   6  -5   1   35.90    7.50
   6  -5   1   16.70    6.40
   6  -5   1   45.30    6.70
   6  -5   1   23.10    8.30
   7  -5   1  -12.90    8.80
   7  -5   1    5.30    7.40
   7  -5   1    8.30    9.40
   7  -5   1   17.40    6.70
   7  -5   1   -6.60    5.00
   7   4  -1   -4.00    9.40
   7   4  -1   -1.40   10.10
  -7  -4   1   -1.00    7.40
  -7  -4   1    9.80    6.60
   6   4  -1   -8.80    8.10
   6   4  -1    5.90    9.20
   6   4  -1    5.90    4.00
  -6  -4   1    2.00    6.40
  -6  -4   1    2.20    6.80
  -6  -4   1   12.10    5.40
   5   4  -1   70.39    9.00
   5   4  -1   74.09    9.50
   5   4  -1   55.29    6.80
  -5  -4   1   50.19    7.70
  -5  -4   1   66.89    8.50
  -5  -4   1   61.99    7.20
   4   4  -1  219.58   10.90
   4   4  -1  218.18   14.10
   4   4  -1  220.08   14.80
  -4  -4   1  221.18   12.40
  -4  -4   1  185.78   12.60
  -4  -4   1  225.28   12.00
   3   4  -1   37.80    4.30
   3   4  -1   41.50    4.40
   3   4  -1   36.50    6.10
   3   4  -1   41.90    5.60
  -3  -4   1   32.50    4.80
  -3  -4   1   36.10    4.10
  -3  -4   1   31.80    4.20
  -3  -4   1   30.10    4.40
   2   4  -1  322.97   14.50
   2   4  -1  322.47   15.40
   2   4  -1  325.17   15.20
   2   4  -1  336.67   13.90
   2   4  -1  311.07   15.10
   2   4  -1  327.57   14.50
  -2  -4   1  347.47   14.80
  -2  -4   1  340.57   13.90
  -2  -4   1  338.07   14.60
  -2  -4   1  332.27   14.90
  -2  -4   1  325.67   14.50
  -2  -4   1  335.87   13.60
  -2  -4   1  354.06   14.80
   1   4  -1  361.36   15.20
   1   4  -1  355.06   14.90
   1   4  -1  358.76   15.90
   1   4  -1  352.06   15.40
   1   4  -1  343.77   14.90
   1   4  -1  377.46   15.00
   1   4  -1  348.37   15.70
  -1  -4   1  395.56   15.60
  -1  -4   1  366.46   14.90
  -1  -4   1  383.56   15.20
  -1  -4   1  361.86   15.70
  -1  -4   1  386.26   15.00
  -1  -4   1  384.46   15.30
  -1  -4   1  339.77   15.30
   0   4  -1 1057.29   41.90
   0   4  -1 1055.39   41.60
   0   4  -1 1048.40   42.00
   0   4  -1 1066.59   41.90
   0   4  -1 1053.49   42.10
   0  -4   1 1064.39   42.10
   0  -4   1 1089.29   42.10
   0  -4   1 1100.69   42.40
   0  -4   1 1033.50   41.80
   0  -4   1 1049.20   41.90
   0  -4   1 1073.89   41.60
  -1   4  -1   85.29    5.60
  -1   4  -1   81.99    4.40
  -1   4  -1   98.29    5.30
  -1   4  -1  102.99    5.50
   1  -4   1   89.69    5.60
   1  -4   1   89.69    5.60
   1  -4   1   95.19    5.20
   1  -4   1   97.09    5.70
   1  -4   1   91.59    5.60
   1  -4   1   89.89    4.80
   1  -4   1   86.29    5.60
  -2   4  -1   45.20    5.20
  -2   4  -1   54.39    5.20
  -2   4  -1   44.80    5.00
  -2   4  -1   58.69    4.30
   2  -4   1   53.59    5.40
   2  -4   1   48.10    4.50
   2  -4   1   41.30    5.00
   2  -4   1   53.39    5.50
   2  -4   1   49.90    3.80
   2  -4   1   53.99    4.10
   2  -4   1   54.49    5.10
   2  -4   1   56.69    4.50
  -3   4  -1   14.50    3.70
  -3   4  -1   14.80    3.60
  -3   4  -1   13.20    2.80
  -3   4  -1   16.30    3.50
   3  -4   1   14.30    3.00
   3  -4   1   15.80    3.70
   3  -4   1   15.10    3.60
   3  -4   1   15.90    3.60
   3  -4   1   17.30    3.50
   3  -4   1   17.60    3.60
   3  -4   1   19.20    2.80
   3  -4   1   20.30    3.50
  -4   4  -1  233.08   13.00
  -4   4  -1  253.67   12.30
  -4   4  -1  233.48   13.50
   4  -4   1  258.87   12.60
   4  -4   1  241.28   13.20
   4  -4   1  249.18   12.00
   4  -4   1  253.67   13.00
  -5   4  -1   -0.40    4.70
   5  -4   1    0.60    4.20
   5  -4   1    2.90    4.50
   5  -4   1   -2.10    5.10
   5  -4   1    3.30    5.80
  -6   4  -1   20.30    5.80
  -6   4  -1   24.10    6.60
   6  -4   1   17.80    7.70
   6  -4   1   33.40    7.20
   6  -4   1   39.90    8.60
   6  -4   1   26.30    5.90
   6  -4   1   38.10    8.80
   7  -4   1    8.70    5.30
   7  -4   1  -15.80    9.80
   7  -4   1    0.20    8.80
   7  -4   1   14.80    9.20
   7  -4   1    7.80    5.80
   7   3  -1   -6.40    9.30
   7   3  -1    0.10    9.80
  -7  -3   1   -1.00    5.90
  -7  -3   1    6.40    7.20
   6   3  -1   46.10    5.90
   6   3  -1   46.90   10.00
  -6  -3   1   20.80   12.30
  -6  -3   1   54.19    6.60
  -6  -3   1   30.50    8.70
   5   3  -1   55.19    5.80
   5   3  -1   74.69    8.90
   5   3  -1   70.39    8.60
   5   3  -1   66.79    7.50
  -5  -3   1   65.29    8.10
  -5  -3   1   46.50    7.50
  -5  -3   1   78.29    9.10
   4   3  -1    6.50    4.10
   4   3  -1    4.80    5.60
   4   3  -1   -5.90   10.10
  -4  -3   1    7.10    4.70
  -4  -3   1    0.80    3.60
  -4  -3   1   -2.20    4.00
   3   3  -1  184.58    9.80
   3   3  -1  193.38    9.40
   3   3  -1  193.28   11.50
   3   3  -1  198.38   11.10
  -3  -3   1  201.08   10.00
  -3  -3   1  186.78   10.20
  -3  -3   1  207.28    9.00
  -3  -3   1  191.98   10.60
   2   3  -1  374.16   16.30
   2   3  -1  381.96   16.60
   2   3  -1  382.16   17.00
   2   3  -1  385.06   16.30
   2   3  -1  397.16   15.80
  -2  -3   1  369.66   16.60
  -2  -3   1  391.96   16.30
  -2  -3   1  392.06   16.50
  -2  -3   1  374.06   16.50
  -2  -3   1  380.16   15.70
  -2  -3   1  380.56   16.30
   1   3  -1 3573.24  141.39
   1   3  -1 3517.95  141.49
   1   3  -1 3632.54  141.69
   1   3  -1 3770.32  141.59
   1   3  -1 3506.25  141.69
  -1  -3   1 3583.34  141.69
  -1  -3   1 4043.30  142.09
  -1  -3   1 3747.12  141.59
  -1  -3   1 3428.36  141.49
  -1  -3   1 3710.63  141.59
  -1  -3   1 3653.23  141.29
  -1  -3   1 3600.34  141.39
   0   3  -1 1218.98   48.30
   0   3  -1 1235.48   48.20
   0   3  -1 1216.28   48.50
   0   3  -1 1242.88   48.30
   0   3  -1 1242.78   48.50
   0  -3   1 1300.87   48.20
   0  -3   1 1272.77   48.50
   0  -3   1 1162.58   48.30
   0  -3   1 1216.48   48.40
   0  -3   1 1226.18   48.30
   0  -3   1 1235.18   48.50
  -1   3  -1   28.90    2.70
  -1   3  -1   40.10    3.30
  -1   3  -1   39.90    3.80
  -1   3  -1   37.90    3.60
   1  -3   1   32.90    4.00
   1  -3   1   43.50    3.80
   1  -3   1   43.90    3.60
   1  -3   1   43.10    3.50
   1  -3   1   26.40    2.80
   1  -3   1   35.90    3.20
   1  -3   1   45.40    3.90
  -2   3  -1  330.27   13.60
  -2   3  -1  314.77   13.90
  -2   3  -1  328.57   13.70
  -2   3  -1  319.57   13.70
   2  -3   1  322.57   13.70
   2  -3   1  302.87   13.70
   2  -3   1  324.47   13.50
   2  -3   1  319.97   13.20
   2  -3   1  315.27   13.60
   2  -3   1  299.77   13.40
   2  -3   1  308.37   13.60
   2  -3   1  317.27   13.60
   2  -3   1  312.67   13.80
  -3   3  -1  484.55   20.40
  -3   3  -1  500.25   19.90
  -3   3  -1  470.95   20.50
  -3   3  -1  481.75   20.50
   3  -3   1  468.35   20.30
   3  -3   1  488.35   20.30
   3  -3   1  473.85   20.20
   3  -3   1  487.35   20.00
   3  -3   1  461.45   19.80
   3  -3   1  491.55   20.20
   3  -3   1  479.15   20.40
   3  -3   1  464.75   20.30
  -4   3  -1  139.99    9.00
  -4   3  -1  142.29    9.90
  -4   3  -1  132.79   10.10
   4  -3   1  140.89    8.50
   4  -3   1  158.88   10.60
   4  -3   1  136.49    9.40
   4  -3   1  136.29    9.20
   4  -3   1  153.48    9.20
  -5   3  -1   26.70    6.00
   5  -3   1   41.00    5.20
   5  -3   1   46.10    6.20
   5  -3   1   55.19    7.00
  -6   3  -1   27.30    7.20
  -6   3  -1   29.80    6.30
   6  -3   1   34.00    6.50
   6  -3   1   30.80    7.00
   6  -3   1   44.30    6.00
   6  -3   1   55.79    8.90
   6  -3   1   47.50    8.90
  -7   3  -1    2.60    6.70
   7  -3   1   19.20    9.00
   7  -3   1   11.60    9.30
   7  -3   1   14.90    7.10
   7  -3   1  -11.40    5.00
   7   2  -1   22.00    6.20
   7   2  -1   -7.90    9.00
   7   2  -1    0.00    9.20
  -7  -2   1    1.70    7.60
  -7  -2   1   13.00    7.40
  -7  -2   1    9.70    6.20
   6   2  -1    4.00    8.40
   6   2  -1   18.20    9.50
   6   2  -1    8.30    5.40
  -6  -2   1    8.30    8.00
  -6  -2   1    8.90    6.00
  -6  -2   1   -7.20    4.90
   5   2  -1  491.85   23.70
   5   2  -1  469.25   23.30
   5   2  -1  501.15   21.30
  -5  -2   1  460.45   22.30
  -5  -2   1  499.45   21.50
   4   2  -1   79.19    7.70
   4   2  -1   54.49    6.90
   4   2  -1   87.59   10.10
   4   2  -1   88.09   10.30
  -4  -2   1   74.19    6.80
  -4  -2   1   64.89    8.20
   3   2  -1  124.09    7.00
   3   2  -1  122.49    8.40
   3   2  -1  122.39    8.80
   3   2  -1  119.89    7.40
  -3  -2   1  118.39    7.10
  -3  -2   1  123.29    8.60
  -3  -2   1  111.19    8.00
  -3  -2   1  124.89    6.40
  -3  -2   1  118.79    7.60
   2   2  -1  268.77   12.20
   2   2  -1  275.87   12.10
   2   2  -1  270.87   11.90
   2   2  -1  272.07   12.20
   2   2  -1  279.97   11.80
   2   2  -1  280.27   12.40
   2   2  -1  265.97   12.60
  -2  -2   1  279.77   12.00
  -2  -2   1  288.47   12.20
  -2  -2   1  257.87   12.20
  -2  -2   1  287.87   12.40
  -2  -2   1  278.77   11.70
   1   2  -1  499.55   19.90
   1   2  -1  446.96   20.30
   1   2  -1  481.85   19.80
   1   2  -1  427.96   20.00
   1   2  -1  481.15   19.70
   1   2  -1  524.45   19.90
  -1  -2   1  502.65   19.90
  -1  -2   1  492.05   19.80
  -1  -2   1  521.65   19.90
  -1  -2   1  495.75   19.60
  -1  -2   1  493.05   19.90
  -1  -2   1  511.65   19.30
  -1  -2   1  515.65   20.00
   0   2  -1  710.73   29.30
   0   2  -1  804.82   29.50
   0   2  -1  761.72   29.50
   0   2  -1  765.12   29.50
   0   2  -1  717.83   29.40
   0  -2   1  721.13   29.50
   0  -2   1  792.72   29.50
   0  -2   1  797.12   29.30
   0  -2   1  697.53   29.30
   0  -2   1  718.73   29.40
  -1   2  -1    2.00    1.70
  -1   2  -1    5.60    2.10
  -1   2  -1    4.40    2.20
  -1   2  -1    3.00    1.80
   1  -2   1    8.40    1.90
   1  -2   1    9.80    1.80
   1  -2   1    9.20    2.20
   1  -2   1    8.90    2.10
  -2   2  -1  927.11   34.50
  -2   2  -1  835.62   34.40
  -2   2  -1  858.71   34.20
  -2   2  -1  875.31   34.40
  -2   2  -1  864.11   34.30
  -2   2  -1  878.71   34.40
   2  -2   1  834.12   34.30
   2  -2   1  850.41   34.40
   2  -2   1  831.12   34.20
   2  -2   1  854.91   34.10
   2  -2   1  894.01   34.40
   2  -2   1  872.51   34.30
   2  -2   1  838.22   34.30
  -3   2  -1  195.08   10.30
  -3   2  -1  204.98    9.80
  -3   2  -1  201.28    9.70
  -3   2  -1  201.18   10.50
   3  -2   1  214.28   10.00
   3  -2   1  204.38    9.80
   3  -2   1  194.78   10.00
   3  -2   1  201.38   10.70
   3  -2   1  206.38    9.50
   3  -2   1  226.28    9.80
   3  -2   1  164.78   10.00
   3  -2   1  189.88    9.90
  -4   2  -1    8.70    4.40
  -4   2  -1    8.00    3.70
  -4   2  -1   10.40    3.70
   4  -2   1    8.50    4.10
   4  -2   1   14.00    3.70
   4  -2   1   12.10    3.60
   4  -2   1   12.00    3.40
   4  -2   1   14.30    4.90
  -5   2  -1  131.39    9.30
  -5   2  -1  112.29    9.20
  -5   2  -1   91.69    9.90
   5  -2   1  140.59   11.70
   5  -2   1  119.29   11.20
   5  -2   1  123.99    8.50
   5  -2   1  130.09   11.10
   5  -2   1   93.49    9.40
  -6   2  -1   41.80    7.80
  -6   2  -1   50.09    7.00
   6  -2   1   53.09    8.50
   6  -2   1   43.00    8.90
   6  -2   1   42.00    6.80
   6  -2   1   42.80    5.40
  -7   2  -1    7.50    6.90
   7  -2   1   -1.00    6.70
   7  -2   1    5.30    8.90
   7  -2   1    5.00    9.00
   7   1  -1   19.60   10.10
   7   1  -1   17.30    6.70
   7   1  -1   16.30   10.40
  -7  -1   1   25.60    6.30
  -7  -1   1   25.60    7.90
  -7  -1   1   15.80    8.20
   6   1  -1  231.18   16.60
   6   1  -1  246.98   17.20
  -6  -1   1  254.77   14.90
  -6  -1   1  196.68   15.50
  -6  -1   1  249.97   13.40
   5   1  -1  467.25   20.70
   5   1  -1  489.85   22.60
   5   1  -1  442.56   22.50
  -5  -1   1  506.95   20.40
  -5  -1   1  385.36   21.90
  -5  -1   1  470.95   21.40
   4   1  -1   71.79    7.60
   4   1  -1   64.49    7.20
  -4  -1   1   69.09    6.50
  -4  -1   1   74.89    7.40
   3   1  -1    3.10    2.30
   3   1  -1    2.00    3.70
   3   1  -1    6.20    5.00
   3   1  -1    0.30    3.30
   3   1  -1    0.50    2.50
   3   1  -1    0.40    3.00
  -3  -1   1    0.90    3.10
  -3  -1   1    0.10    2.90
  -3  -1   1   -0.40    2.20
  -3  -1   1   -0.30    2.70
  -3  -1   1    0.40    2.10
   2   1  -1  135.09    6.90
   2   1  -1  138.89    7.60
   2   1  -1  129.59    6.60
   2   1  -1  127.59    7.20
   2   1  -1  154.48    7.20
   2   1  -1  136.49    7.60
   2   1  -1  129.09    6.90
  -2  -1   1  141.59    6.60
  -2  -1   1  142.89    6.60
  -2  -1   1  134.99    7.20
  -2  -1   1  137.79    7.20
  -2  -1   1  145.69    7.10
   1   1  -1 2853.01  115.39
   1   1  -1 3013.00  115.39
   1   1  -1 2945.71  115.39
   1   1  -1 3169.88  115.49
   1   1  -1 2971.30  115.29
   1   1  -1 2732.93  115.29
   1   1  -1 2867.31  115.39
  -1  -1   1 2857.91  115.39
  -1  -1   1 3174.88  115.39
  -1  -1   1 2980.60  115.29
  -1  -1   1 3054.19  115.19
  -1  -1   1 3058.29  115.49
   0   1  -1 1148.29   43.50
   0   1  -1 1136.29   43.70
   0  -1   1 1219.68   43.80
   0  -1   1  984.80   43.80
  -1   1  -1  111.89    5.10
  -1   1  -1  115.69    5.40
  -1   1  -1  110.89    5.40
  -1   1  -1  103.39    5.40
  -1   1  -1  122.39    5.40
  -1   1  -1  115.29    5.50
   1  -1   1   85.49    5.30
   1  -1   1   94.79    5.20
   1  -1   1   85.99    5.40
   1  -1   1   90.89    5.10
   1  -1   1  110.59    5.30
   1  -1   1   96.49    5.40
   1  -1   1  101.99    5.30
  -2   1  -1  371.86   15.90
  -2   1  -1  397.96   15.60
  -2   1  -1  398.86   15.90
  -2   1  -1  376.66   15.70
  -2   1  -1  358.06   15.40
   2  -1   1  388.46   15.80
   2  -1   1  372.46   15.70
   2  -1   1  375.36   15.50
   2  -1   1  365.26   15.40
   2  -1   1  367.76   15.60
   2  -1   1  376.86   15.50
   2  -1   1  363.36   15.50
  -3   1  -1  194.48    9.70
  -3   1  -1  218.98    9.80
  -3   1  -1  206.08   10.50
   3  -1   1  203.88    9.80
   3  -1   1  184.48    9.50
   3  -1   1  195.78    9.40
   3  -1   1  214.68   10.30
   3  -1   1  203.38   10.00
   3  -1   1  196.68   10.00
   3  -1   1  200.18    9.60
   3  -1   1  214.48    9.50
   3  -1   1  192.18    9.50
  -4   1  -1   56.39    6.40
  -4   1  -1   86.69    7.00
  -4   1  -1   85.79    7.40
   4  -1   1   90.69    8.90
   4  -1   1   69.49    7.20
   4  -1   1   71.69    6.30
   4  -1   1   74.69    6.40
   4  -1   1   72.99    8.60
   4  -1   1   75.09    6.20
   4  -1   1   85.29    6.80
  -5   1  -1  449.06   23.30
  -5   1  -1  527.05   22.20
  -5   1  -1  544.85   22.90
   5  -1   1  459.15   21.30
   5  -1   1  513.65   22.30
   5  -1   1  519.25   23.80
   5  -1   1  504.45   21.50
   5  -1   1  529.15   23.70
  -6   1  -1   33.90    6.90
  -6   1  -1   35.90    6.30
  -6   1  -1   28.60    7.50
   6  -1   1   45.20    8.80
   6  -1   1   35.90    4.70
   6  -1   1   33.10    6.30
   6  -1   1   28.20    8.50
  -7   1  -1   22.00    7.30
   7  -1   1   24.70    9.50
   7  -1   1   23.10    9.60
   7   0  -1    0.30    8.90
   7   0  -1    5.50    6.80
   7   0  -1    7.10    9.90
  -7   0   1    1.90    6.60
  -7   0   1   11.50    7.60
   6   0  -1    6.50    7.80
   6   0  -1   -5.20    7.70
   6   0  -1    5.70    5.90
  -6   0   1   -0.30    6.20
  -6   0   1    5.30    5.70
  -6   0   1    4.40    4.60
   5   0  -1   43.40    7.40
   5   0  -1   28.30    7.30
   5   0  -1   38.00    6.20
   5   0  -1   32.60    4.50
  -5   0   1   52.69    6.90
  -5   0   1   43.90    5.80
  -5   0   1   46.50    4.90
   4   0  -1   22.00    3.60
   4   0  -1   33.00    5.00
   4   0  -1   29.60    6.50
   4   0  -1   33.80    5.90
   4   0  -1   17.70    2.90
   4   0  -1   28.30    3.00
  -4   0   1   24.20    5.10
  -4   0   1   30.80    4.40
  -4   0   1   43.90    5.40
   3   0  -1   75.29    6.20
   3   0  -1   75.99    5.70
   3   0  -1   83.99    5.30
   3   0  -1   79.79    7.20
   3   0  -1   81.59    4.80
   3   0  -1   75.99    4.60
   3   0  -1   78.29    6.30
   3   0  -1   87.69    6.50
  -3   0   1   91.79    5.50
  -3   0   1   82.29    5.20
  -3   0   1   80.99    6.40
  -3   0   1   97.09    6.10
   2   0  -1   53.49    4.70
   2   0  -1   59.99    3.40
   2   0  -1   72.39    4.90
   2   0  -1   55.79    4.30
   2   0  -1   52.59    3.70
   2   0  -1   54.49    5.30
   2   0  -1   51.59    4.40
  -2   0   1   69.29    5.20
  -2   0   1   66.19    4.60
  -2   0   1   64.39    4.50
  -2   0   1   62.49    3.70
  -2   0   1   68.09    4.10
   1   0  -1   28.80    3.40
   1   0  -1   34.50    3.40
   1   0  -1   35.00    3.90
   1   0  -1   41.10    3.70
   1   0  -1   28.80    2.50
   1   0  -1   29.40    2.40
   1   0  -1   31.80    2.20
  -1   0  -1  558.44   21.30
  -1   0  -1  570.44   21.20
  -1   0  -1  532.75   20.90
  -1   0  -1  518.95   21.10
  -1   0  -1  554.84   21.40
   1   0   1  523.45   21.20
   1   0   1  529.95   21.30
   1   0   1  505.95   21.00
   1   0   1  508.75   20.90
   1   0   1  519.85   21.20
   1   0   1  526.05   21.20
  -2   0  -1 1876.71   72.19
  -2   0  -1 1939.01   72.49
  -2   0  -1 1918.61   72.19
  -2   0  -1 1785.72   71.89
   2   0   1 1840.92   72.29
   2   0   1 1820.82   71.89
   2   0   1 1875.81   71.89
   2   0   1 1808.82   72.19
   2   0   1 1914.81   72.39
   2   0   1 1878.61   72.19
   2   0   1 1799.12   72.19
   2   0   1 1760.42   71.89
   2   0   1 1796.52   72.19
  -3   0  -1    4.60    3.20
  -3   0  -1    4.80    2.80
  -3   0  -1    6.60    2.70
  -3   0  -1    2.60    2.40
   3   0   1    2.20    2.90
   3   0   1    1.60    2.30
   3   0   1    1.70    2.90
   3   0   1    1.70    2.60
   3   0   1    3.90    2.10
   3   0   1   -1.20    2.40
   3   0   1    5.40    3.50
   3   0   1    0.00    2.40
   3   0   1    4.50    2.40
   3   0   1    0.20    3.30
  -4   0  -1    5.60    3.60
  -4   0  -1    1.00    5.00
  -4   0  -1    5.10    3.70
   4   0   1    7.20    2.90
   4   0   1    7.40    5.20
   4   0   1    7.30    5.00
   4   0   1   11.40    4.30
  -5   0  -1    0.90    4.40
  -5   0  -1    4.60    5.40
  -5   0  -1   16.70    4.60
   5   0   1    1.00    3.10
   5   0   1   15.70    3.20
   5   0   1   10.00    4.70
   5   0   1   10.80    6.30
   5   0   1   17.80    6.50
  -6   0  -1   57.59    8.70
  -6   0  -1   83.69   10.10
  -6   0  -1   92.29    9.20
   6   0   1   68.39    6.00
   6   0   1   76.09    8.60
   6   0   1   71.39    9.70
   6   0   1   67.19    9.60
  -7   0  -1    2.80    6.90
  -7   0  -1    7.00    6.60
   7   0   1    9.90    5.80
   7   0   1    5.30    9.40
   7   0   1  -14.90    8.50
   7  -1  -1    0.50    6.90
   7  -1  -1    6.80    9.50
   7  -1  -1    6.30    9.20
  -7   1   1    4.10    6.50
  -7   1   1    3.50    7.20
   6  -1  -1   16.00    8.10
   6  -1  -1  -15.40    7.50
   6  -1  -1   -4.30    6.10
  -6   1   1    0.60    5.40
  -6   1   1    0.20    6.20
   5  -1  -1  106.19    6.80
   5  -1  -1   79.29    9.50
   5  -1  -1   95.79   11.00
   5  -1  -1  104.99   11.80
   5  -1  -1  110.29    7.30
   5  -1  -1  102.69    7.20
  -5   1   1  102.29    9.80
  -5   1   1  111.39    7.80
  -5   1   1  117.99    8.90
   4  -1  -1  139.09    7.60
   4  -1  -1  124.09    7.60
   4  -1  -1  143.09    9.60
   4  -1  -1  135.29   10.50
   4  -1  -1  131.99    7.70
  -4   1   1  143.19    8.80
  -4   1   1  121.79    9.50
  -4   1   1  140.09    7.70
   3  -1  -1  124.99    8.00
   3  -1  -1  155.28    7.10
   3  -1  -1  147.29    8.60
   3  -1  -1  139.39    8.10
   3  -1  -1  125.79    7.90
   3  -1  -1  140.89    8.10
   3  -1  -1  132.49    6.70
  -3   1   1  147.09    8.60
  -3   1   1  141.59    8.20
  -3   1   1  139.29    7.10
  -3   1   1  138.59    7.50
   2  -1  -1   14.60    2.60
   2  -1  -1   14.10    2.10
   2  -1  -1   14.20    2.60
   2  -1  -1   13.50    2.50
   2  -1  -1    7.90    1.70
   2  -1  -1   11.50    1.90
   2  -1  -1   13.50    2.60
   2  -1  -1   11.40    3.10
  -2   1   1    5.40    2.30
  -2   1   1   10.40    2.60
  -2   1   1    6.70    1.50
  -2   1   1    8.90    2.20
   1  -1  -1 3420.16  139.79
   1  -1  -1 3684.73  140.19
   1  -1  -1 3492.05  140.19
   1  -1  -1 3480.85  139.79
   1  -1  -1 3970.00  140.29
   1  -1  -1 3448.05  140.19
   1  -1  -1 3497.55  140.09
   1  -1  -1 3682.13  139.99
  -1   1   1 3565.14  140.19
  -1   1   1 3930.41  140.29
  -1   1   1 3681.93  139.99
  -1   1   1 3609.94  140.19
  -1   1   1 3653.33  140.19
  -1   1   1 3505.25  140.19
   0  -1  -1  177.88    7.50
   0  -1  -1  174.78    7.20
   0  -1  -1  183.28    7.40
   0  -1  -1  167.48    7.20
   0   1   1  185.68    7.40
   0   1   1  180.48    7.30
   0   1   1  186.48    7.50
   0   1   1  173.88    7.10
  -1  -1  -1  123.49    5.70
  -1  -1  -1  109.09    5.80
  -1  -1  -1  109.69    6.10
  -1  -1  -1  116.09    6.00
  -1  -1  -1  106.19    6.00
   1   1   1  105.09    6.20
   1   1   1  112.99    5.70
   1   1   1  122.39    6.10
  -2  -1  -1   35.70    3.30
  -2  -1  -1   40.20    4.10
  -2  -1  -1   37.80    4.40
  -2  -1  -1   39.40    3.90
  -2  -1  -1   36.00    4.40
   2   1   1   44.10    3.60
   2   1   1   47.30    4.10
   2   1   1   44.50    3.20
   2   1   1   34.90    4.80
   2   1   1   36.80    4.90
   2   1   1   38.60    3.90
   2   1   1   40.70    4.30
   2   1   1   50.59    4.30
  -3  -1  -1  289.27   13.70
  -3  -1  -1  273.47   12.30
  -3  -1  -1  292.27   13.30
  -3  -1  -1  288.87   13.10
   3   1   1  291.87   13.60
   3   1   1  297.87   12.30
   3   1   1  294.27   12.10
   3   1   1  261.67   13.60
   3   1   1  281.87   13.40
   3   1   1  308.17   13.90
  -4  -1  -1   98.89   10.60
  -4  -1  -1   89.19    7.90
  -4  -1  -1   95.59    9.60
   4   1   1  108.29    7.60
   4   1   1  106.39    6.50
   4   1   1  102.69    6.60
   4   1   1  107.79    9.90
  -5  -1  -1  117.39   11.20
  -5  -1  -1  149.29   10.00
  -5  -1  -1  122.69   10.30
   5   1   1  146.49   12.50
   5   1   1  160.98    7.70
   5   1   1  150.08    8.10
   5   1   1  148.49   12.30
   5   1   1  143.99    9.10
   5   1   1  124.69    7.40
  -6  -1  -1   51.89    7.80
  -6  -1  -1   53.39    6.70
   6   1   1   47.40    5.80
   6   1   1   39.00    8.90
   6   1   1   69.39   10.00
  -7  -1  -1   12.40    7.20
  -7  -1  -1    7.40    6.40
   7   1   1   -5.80    8.80
   7   1   1   -2.30    9.40
   7  -2  -1   52.49   11.10
   7  -2  -1   52.99   10.30
   7  -2  -1   26.50    5.60
   7  -2  -1   38.40    8.30
  -7   2   1   37.30   10.00
  -7   2   1   44.00    8.60
   6  -2  -1   29.30    4.90
   6  -2  -1   28.00    8.50
   6  -2  -1   18.60    8.10
   6  -2  -1   20.50    6.80
  -6   2   1   37.80    6.30
  -6   2   1   29.60    7.40
   5  -2  -1  184.58   10.10
   5  -2  -1  194.18   13.10
   5  -2  -1  179.68   11.60
   5  -2  -1  141.89   10.20
   5  -2  -1  196.08    9.60
  -5   2   1  184.48   10.80
  -5   2   1  156.98   11.80
   4  -2  -1  165.18   11.20
   4  -2  -1  178.78   10.70
   4  -2  -1  167.48    9.00
   4  -2  -1  164.18    9.30
   4  -2  -1  172.08    8.60
  -4   2   1  184.08    9.70
  -4   2   1  159.08   10.60
  -4   2   1  167.38   13.90
   3  -2  -1  285.27   12.20
   3  -2  -1  290.17   13.50
   3  -2  -1  285.17   12.30
   3  -2  -1  277.57   12.60
   3  -2  -1  281.27   13.40
   3  -2  -1  272.07   11.80
   3  -2  -1  231.48   14.20
   3  -2  -1  285.97   12.90
   3  -2  -1  273.57   12.90
   3  -2  -1  272.17   12.30
  -3   2   1  286.87   12.20
  -3   2   1  272.27   13.00
  -3   2   1  285.97   13.30
   2  -2  -1   56.19    3.80
   2  -2  -1   63.09    5.00
   2  -2  -1   55.09    4.90
   2  -2  -1   58.69    4.80
   2  -2  -1   50.49    3.50
   2  -2  -1   56.89    5.00
   2  -2  -1   54.59    4.90
   2  -2  -1   59.29    3.80
  -2   2   1   56.29    4.70
  -2   2   1   64.59    5.10
  -2   2   1   61.19    4.40
  -2   2   1   54.19    3.80
  -2   2   1   55.09    5.30
   1  -2  -1  369.16   16.50
   1  -2  -1  398.76   16.50
   1  -2  -1  401.96   16.70
   1  -2  -1  376.16   16.10
   1  -2  -1  420.76   16.50
   1  -2  -1  376.06   16.60
  -1   2   1  407.06   16.00
  -1   2   1  368.16   16.50
  -1   2   1  439.26   16.30
  -1   2   1  393.26   16.50
  -1   2   1  461.15   16.50
   0  -2  -1  653.43   28.10
   0  -2  -1  719.33   28.30
   0  -2  -1  737.53   28.30
   0  -2  -1  714.53   28.20
   0  -2  -1  775.02   28.30
   0  -2  -1  702.13   28.00
   0  -2  -1  680.43   27.90
   0  -2  -1  710.43   28.30
   0   2   1  741.63   28.20
   0   2   1  731.23   28.30
   0   2   1  745.03   28.30
   0   2   1  684.43   28.10
   0   2   1  698.63   28.20
   0   2   1  712.43   27.90
  -1  -2  -1  125.89    5.90
  -1  -2  -1  114.29    5.70
  -1  -2  -1  110.59    5.60
   1   2   1  104.79    5.40
   1   2   1  103.09    5.80
   1   2   1  120.09    6.10
   1   2   1   84.09    5.70
   1   2   1  115.79    5.70
   1   2   1   93.19    5.70
  -2  -2  -1  254.37   11.60
  -2  -2  -1  246.88   11.50
  -2  -2  -1  262.37   11.80
  -2  -2  -1  278.17   12.10
  -2  -2  -1  264.77   11.60
  -2  -2  -1  260.57   11.00
   2   2   1  272.67   11.90
   2   2   1  257.57   12.00
   2   2   1  262.97   12.20
   2   2   1  254.77   11.00
   2   2   1  256.17   11.60
   2   2   1  249.18   11.40
  -3  -2  -1  501.15   21.70
  -3  -2  -1  490.45   20.10
  -3  -2  -1  499.65   21.20
  -3  -2  -1  472.55   20.80
  -3  -2  -1  523.15   21.30
   3   2   1  483.35   19.90
   3   2   1  520.15   21.70
   3   2   1  520.95   21.40
   3   2   1  493.75   20.00
   3   2   1  498.45   21.10
   3   2   1  486.25   20.20
  -4  -2  -1  618.44   26.80
  -4  -2  -1  679.33   26.30
  -4  -2  -1  579.04   27.40
  -4  -2  -1  639.64   26.60
   4   2   1  599.94   25.10
   4   2   1  632.04   27.30
   4   2   1  598.44   25.40
   4   2   1  673.13   27.70
   4   2   1  602.74   25.10
  -5  -2  -1   33.30    5.60
  -5  -2  -1   44.40    6.30
   5   2   1   52.09    7.70
   5   2   1   32.10    3.80
   5   2   1   50.29    7.90
   5   2   1   41.20    4.60
  -6  -2  -1   -6.40    5.20
  -6  -2  -1   -3.00    6.40
   6   2   1   -5.50    4.00
   6   2   1   -0.50    7.60
  -7  -2  -1   11.50    6.60
  -7  -2  -1   16.50    7.40
   7   2   1    9.90    6.80
   7   2   1   12.80    9.60
   7   2   1   17.60    9.70
   7  -3  -1   16.20    9.70
   7  -3  -1   11.00   10.60
   7  -3  -1   32.40   10.10
  -7   3   1    4.20    7.20
  -7   3   1   11.30    6.80
   6  -3  -1   13.00    7.80
   6  -3  -1    7.90    4.80
   6  -3  -1    6.90    3.90
   6  -3  -1   -2.30    6.40
  -6   3   1    6.20    6.20
  -6   3   1   -9.50    4.70
   5  -3  -1   47.50    7.30
   5  -3  -1   37.10    6.70
   5  -3  -1   63.79    6.30
   5  -3  -1   41.00    5.20
  -5   3   1   42.80    5.50
  -5   3   1   28.50    6.10
  -5   3   1   41.80    6.90
   4  -3  -1   99.89    7.80
   4  -3  -1  119.69    7.30
   4  -3  -1  117.89    8.40
   4  -3  -1  117.89    8.00
   4  -3  -1  110.89    9.10
   4  -3  -1  122.89    6.90
  -4   3   1  122.99    7.70
  -4   3   1  100.39    8.70
   3  -3  -1  360.66   16.10
   3  -3  -1  328.97   16.20
   3  -3  -1  375.16   15.70
   3  -3  -1  348.17   15.10
   3  -3  -1  380.76   16.20
   3  -3  -1  334.37   14.90
   3  -3  -1  417.26   17.00
   3  -3  -1  348.97   15.70
  -3   3   1  353.36   16.00
  -3   3   1  353.86   16.20
  -3   3   1  362.26   15.10
   2  -3  -1  224.68   10.00
   2  -3  -1  221.98   10.00
   2  -3  -1  210.18    9.00
   2  -3  -1  203.38   10.10
   2  -3  -1  204.38    9.30
   2  -3  -1  208.98    9.10
   2  -3  -1  208.18   10.10
   2  -3  -1  192.88    9.90
   2  -3  -1  208.58   10.10
  -2   3   1  217.08   10.00
  -2   3   1  214.68    9.00
  -2   3   1  228.08   10.30
  -2   3   1  210.48   10.20
  -2   3   1  222.88   10.00
   1  -3  -1  214.08    9.10
   1  -3  -1  204.68    8.60
   1  -3  -1  196.98    8.90
   1  -3  -1  189.18    8.90
   1  -3  -1  219.48    9.20
   1  -3  -1  179.88    9.00
   1  -3  -1  200.98    9.10
  -1   3   1  177.68    9.00
  -1   3   1  189.88    9.20
  -1   3   1  202.68    9.00
  -1   3   1  183.48    8.50
  -1   3   1  212.48    8.80
   0  -3  -1  326.47   13.40
   0  -3  -1  318.67   13.20
   0  -3  -1  311.07   13.70
   0  -3  -1  322.47   13.50
   0  -3  -1  348.97   13.70
   0  -3  -1  322.97   13.00
   0  -3  -1  304.47   13.80
   0   3   1  342.37   13.40
   0   3   1  346.77   13.60
   0   3   1  289.27   13.50
   0   3   1  325.37   13.10
   0   3   1  334.07   13.60
  -1  -3  -1    5.60    2.20
  -1  -3  -1    1.80    1.80
  -1  -3  -1    0.30    2.10
  -1  -3  -1    3.60    2.30
  -1  -3  -1    5.20    2.30
   1   3   1    2.20    2.10
   1   3   1    1.80    2.70
   1   3   1    1.90    2.90
   1   3   1    1.90    1.90
   1   3   1    2.90    1.70
   1   3   1    2.90    2.00
   1   3   1    3.60    1.80
  -2  -3  -1   53.79    5.10
  -2  -3  -1   51.49    5.20
  -2  -3  -1   52.59    5.00
  -2  -3  -1   47.60    4.20
  -2  -3  -1   52.29    5.30
   2   3   1   50.29    4.30
   2   3   1   48.40    6.20
   2   3   1   55.49    4.90
   2   3   1   56.79    5.90
   2   3   1   53.39    6.40
  -3  -3  -1  244.48   11.30
  -3  -3  -1  270.47   12.80
  -3  -3  -1  258.67   12.70
  -3  -3  -1  268.77   12.40
   3   3   1  282.47   13.60
   3   3   1  260.47   11.40
   3   3   1  265.27   13.60
  -4  -3  -1  112.89    8.70
  -4  -3  -1   98.09    8.80
   4   3   1   98.39   11.00
   4   3   1   95.29    6.00
   4   3   1   98.89   11.00
  -5  -3  -1    4.30    4.70
  -5  -3  -1    0.10    5.10
   5   3   1   12.80    7.20
   5   3   1    8.70    6.90
  -6  -3  -1   -1.80    6.80
  -6  -3  -1   11.00    5.90
   6   3   1   -1.20    9.90
   6   3   1    4.20    8.20
  -7  -3  -1    7.50    7.10
  -7  -3  -1  -11.60    6.60
   7   3   1   -0.90    9.20
   7   3   1  -11.80    6.00
   7   3   1    9.50    9.60
   7  -4  -1   -8.00    7.80
   7  -4  -1    2.00    9.00
   7  -4  -1    1.80    5.70
   7  -4  -1    5.80    9.30
  -7   4   1    9.20    6.40
  -7   4   1   -8.70    6.70
   6  -4  -1   -0.50    9.70
   6  -4  -1   -2.10    6.50
   6  -4  -1    2.00    3.70
   6  -4  -1    0.30    7.70
  -6   4   1    4.20    5.90
  -6   4   1    2.60    4.90
   5  -4  -1   46.30    7.20
   5  -4  -1   39.90    6.70
   5  -4  -1   31.10    5.50
   5  -4  -1   46.00    5.80
  -5   4   1   40.80    5.10
  -5   4   1   37.60    6.70
  -5   4   1   34.90    6.10
   4  -4  -1   -1.60    2.80
   4  -4  -1    1.20    3.00
   4  -4  -1    5.90    4.10
   4  -4  -1    3.70    5.30
   4  -4  -1    5.20    5.80
   4  -4  -1    3.20    3.30
  -4   4   1    0.90    4.90
  -4   4   1    0.90    4.00
  -4   4   1   -1.50    3.00
   3  -4  -1   41.70    4.30
   3  -4  -1   44.10    4.60
   3  -4  -1   40.40    4.80
   3  -4  -1   47.70    4.40
   3  -4  -1   36.40    4.20
   3  -4  -1   44.60    5.70
   3  -4  -1   48.90    5.60
  -3   4   1   33.60    4.20
  -3   4   1   51.89    4.20
  -3   4   1   34.90    4.80
  -3   4   1   42.70    5.00
   2  -4  -1  131.79    7.50
   2  -4  -1  122.19    7.30
   2  -4  -1  125.79    7.40
   2  -4  -1  124.99    7.30
   2  -4  -1  124.49    7.20
   2  -4  -1  130.69    7.70
  -2   4   1  133.69    7.60
  -2   4   1  122.99    7.60
  -2   4   1  124.09    6.50
  -2   4   1  138.89    7.00
  -2   4   1  125.69    7.40
   1  -4  -1   88.09    5.60
   1  -4  -1   87.39    5.40
   1  -4  -1   86.39    5.90
   1  -4  -1   87.89    5.60
   1  -4  -1   81.39    6.10
   1  -4  -1   96.59    5.30
  -1   4   1   89.29    6.00
  -1   4   1   93.89    5.80
  -1   4   1   83.89    5.10
  -1   4   1   86.29    5.80
  -1   4   1   96.29    5.10
   0  -4  -1   -0.40    2.20
   0  -4  -1    0.70    1.60
   0  -4  -1    4.70    1.70
   0  -4  -1    3.00    2.20
   0  -4  -1    0.30    1.30
   0  -4  -1    6.20    2.70
   0  -4  -1    4.70    2.40
   0   4   1    3.90    2.30
   0   4   1    0.70    1.40
   0   4   1    1.80    2.50
   0   4   1    2.90    2.20
   0   4   1    2.60    2.00
   0   4   1    3.20    2.00
  -1  -4  -1   49.40    5.20
  -1  -4  -1   46.00    5.40
  -1  -4  -1   50.19    5.10
  -1  -4  -1   48.90    5.10
  -1  -4  -1   45.40    4.20
   1   4   1   55.19    4.00
   1   4   1   48.40    4.40
   1   4   1   43.30    4.70
   1   4   1   54.19    4.80
   1   4   1   48.40    5.40
   1   4   1   43.00    4.20
   1   4   1   43.00    4.20
  -2  -4  -1  555.74   22.40
  -2  -4  -1  525.95   22.50
  -2  -4  -1  557.24   22.70
  -2  -4  -1  521.35   22.40
  -2  -4  -1  518.95   22.30
   2   4   1  544.05   23.00
   2   4   1  557.24   22.80
   2   4   1  554.94   22.60
   2   4   1  535.55   21.90
   2   4   1  558.94   22.60
   2   4   1  524.75   22.60
   2   4   1  523.05   22.20
  -3  -4  -1   15.00    3.80
  -3  -4  -1   21.90    4.20
   3   4   1   14.00    5.00
   3   4   1   27.00    5.40
   3   4   1   13.10    2.60
  -4  -4  -1    8.90    4.70
   4   4   1   -1.40    6.10
   4   4   1    1.10    6.10
  -5  -4  -1   20.50    5.40
  -5  -4  -1   16.70    5.70
   5   4   1   21.00    7.60
   5   4   1   21.10    7.60
  -6  -4  -1   13.40    6.70
  -6  -4  -1   18.60    6.40
   6   4   1   15.20    8.90
   6   4   1    9.80    8.80
   6   4   1    3.10    5.90
  -7  -4  -1    2.80    6.80
  -7  -4  -1   13.60    7.40
   7   4   1   -0.50    9.60
   7   4   1    2.00    9.80
   7   4   1  -12.90    6.60
   7  -5  -1   -4.60    9.10
   7  -5  -1    0.70    7.90
   7  -5  -1    2.10    6.20
  -7   5   1    4.10    6.00
  -7   5   1    2.90    6.90
   6  -5  -1    5.30    7.10
   6  -5  -1   -6.10    5.60
  -6   5   1   -0.70    4.70
  -6   5   1   -0.50    5.80
   5  -5  -1    7.60    5.80
   5  -5  -1    0.90    3.50
   5  -5  -1   12.90    6.40
   5  -5  -1   -4.50    4.30
   5  -5  -1   -6.90   10.10
  -5   5   1    1.50    4.80
  -5   5   1    6.20    3.90
  -5   5   1    7.20    5.80
   4  -5  -1   -8.30    4.10
   4  -5  -1   -1.30    4.80
   4  -5  -1   -3.50    3.50
   4  -5  -1    0.20    2.80
   4  -5  -1   15.40    6.80
  -4   5   1   -6.20    4.40
  -4   5   1   -1.20    3.60
  -4   5   1   -3.40    2.90
   3  -5  -1   33.70    3.40
   3  -5  -1   27.40    3.50
   3  -5  -1   28.50    4.10
   3  -5  -1   20.60    4.30
   3  -5  -1   25.50    4.30
   3  -5  -1   22.30    2.70
  -3   5   1   24.00    4.50
  -3   5   1   23.90    4.30
   2  -5  -1  112.59    7.30
   2  -5  -1  106.09    6.90
   2  -5  -1  104.69    7.00
   2  -5  -1  118.79    7.60
   2  -5  -1  107.49    7.40
   2  -5  -1  119.69    7.20
   2  -5  -1  108.39    6.90
  -2   5   1  117.79    6.40
  -2   5   1  137.09    6.80
  -2   5   1  130.29    7.40
  -2   5   1  110.89    7.40
  -2   5   1  116.39    7.40
   1  -5  -1 1252.87   52.49
   1  -5  -1 1369.76   53.09
   1  -5  -1 1345.77   52.59
   1  -5  -1 1363.06   52.79
   1  -5  -1 1309.17   52.89
   1  -5  -1 1374.46   52.29
  -1   5   1 1310.17   52.69
  -1   5   1 1265.37   52.49
  -1   5   1 1386.46   52.29
  -1   5   1 1339.07   52.79
   0  -5  -1  119.79    7.20
   0  -5  -1  105.49    5.50
   0  -5  -1  108.19    5.90
   0  -5  -1  109.09    6.90
   0  -5  -1  116.39    7.50
   0  -5  -1  112.09    5.80
   0  -5  -1  117.69    7.00
   0   5   1  119.69    7.40
   0   5   1  114.59    5.50
   0   5   1  110.39    6.50
   0   5   1  117.29    6.80
   0   5   1  112.59    6.70
   0   5   1  110.69    6.30
  -1  -5  -1   36.80    3.30
  -1  -5  -1   33.90    4.20
  -1  -5  -1   34.80    4.00
  -1  -5  -1   36.20    4.20
  -1  -5  -1   46.00    4.30
  -1  -5  -1   41.20    4.20
   1   5   1   43.90    4.80
   1   5   1   33.40    3.90
   1   5   1   35.20    4.00
   1   5   1   34.90    4.30
   1   5   1   38.50    4.60
   1   5   1   36.10    4.40
   1   5   1   38.90    4.10
   1   5   1   32.00    3.30
  -2  -5  -1   27.90    4.10
  -2  -5  -1   30.70    4.10
  -2  -5  -1   22.70    3.50
  -2  -5  -1   24.70    3.50
   2   5   1   34.30    3.90
   2   5   1   30.10    3.50
   2   5   1   26.70    4.80
   2   5   1   29.20    3.20
   2   5   1   37.10    5.50
   2   5   1   31.10    3.70
  -3  -5  -1   29.30    4.80
  -3  -5  -1   32.60    3.50
  -3  -5  -1   23.00    4.40
   3   5   1   35.10    7.40
   3   5   1   33.80    4.90
   3   5   1   26.20    3.30
   3   5   1   36.90    6.10
  -4  -5  -1   -3.80    4.00
  -4  -5  -1    0.70    4.50
   4   5   1    3.80    2.30
   4   5   1   -1.80    4.10
   4   5   1   -5.30    6.30
  -5  -5  -1   -0.80    4.80
  -5  -5  -1    6.80    5.40
   5   5   1    9.70    7.70
   5   5   1   -8.30    7.20
   5   5   1   -5.10    4.80
  -6  -5  -1    4.40    6.00
  -6  -5  -1    1.80    6.80
   6   5   1   -3.20    5.70
   6   5   1   12.30    9.30
   6   5   1    1.70    9.40
  -7  -5  -1    7.40    8.70
  -7  -5  -1    0.00    6.80
   7   5   1    7.00    7.10
   7   5   1    2.80    9.20
   7   5   1   29.10   15.90
   7  -6  -1   14.10    9.50
   7  -6  -1   14.20    6.90
   7  -6  -1    2.40    8.20
  -7   6   1   21.00    7.10
   6  -6  -1    5.50    6.40
   6  -6  -1   15.20    7.90
   6  -6  -1    5.80    4.60
   6  -6  -1   13.40    8.20
  -6   6   1   11.30    6.40
   5  -6  -1   49.90    8.60
   5  -6  -1   55.29    7.00
   5  -6  -1   41.00    5.10
   5  -6  -1   27.40    4.20
   5  -6  -1   42.40    7.00
  -5   6   1   46.50    7.30
  -5   6   1   34.80    6.00
   4  -6  -1   78.99    6.30
   4  -6  -1  120.39    9.60
   4  -6  -1   84.69    7.80
   4  -6  -1   91.79    9.40
  -4   6   1   89.69    9.30
  -4   6   1   97.69    7.90
  -4   6   1  111.39    9.60
   3  -6  -1  115.09    8.30
   3  -6  -1  129.99    8.20
   3  -6  -1  110.09    8.80
   3  -6  -1  106.49    8.90
   3  -6  -1  110.69    7.10
  -3   6   1  104.29    8.80
  -3   6   1  111.59    7.50
  -3   6   1  107.49    9.10
   2  -6  -1   40.00    4.70
   2  -6  -1   33.40    4.50
   2  -6  -1   45.50    5.60
   2  -6  -1   53.99    5.50
  -2   6   1   35.70    4.80
  -2   6   1   43.10    4.80
  -2   6   1   46.00    6.00
  -2   6   1   53.59    4.70
   1  -6  -1   25.50    3.70
   1  -6  -1   25.80    3.20
   1  -6  -1   32.00    3.90
   1  -6  -1   30.20    3.10
   1  -6  -1   25.80    4.10
   1  -6  -1   23.10    4.00
  -1   6   1   33.20    4.20
  -1   6   1   23.10    3.30
  -1   6   1   29.50    3.90
  -1   6   1   30.50    3.70
   0  -6  -1  125.89    7.50
   0  -6  -1  124.09    7.70
   0  -6  -1  125.79    6.40
   0  -6  -1  119.89    7.90
   0  -6  -1  107.79    5.90
   0  -6  -1  118.49    8.00
   0  -6  -1  127.99    6.20
   0   6   1  116.39    7.40
   0   6   1  112.19    7.30
   0   6   1  119.39    5.90
   0   6   1  116.79    6.90
   0   6   1  120.89    6.90
   0   6   1  126.79    8.00
  -1  -6  -1  117.89    7.90
  -1  -6  -1  111.89    5.90
  -1  -6  -1  112.79    8.00
  -1  -6  -1  127.99    6.60
  -1  -6  -1  119.79    7.80
   1   6   1  118.19    6.60
   1   6   1  110.39    7.00
   1   6   1  114.29    7.50
   1   6   1  102.99    8.90
   1   6   1  105.49    6.40
  -2  -6  -1    7.20    3.50
  -2  -6  -1    9.10    4.40
  -2  -6  -1    3.70    3.10
  -2  -6  -1   10.10    3.80
   2   6   1    8.50    3.50
   2   6   1    5.80    2.60
   2   6   1    6.30    3.30
   2   6   1   13.20    5.40
   2   6   1   10.00    4.80
  -3  -6  -1   38.40    4.20
  -3  -6  -1   33.00    5.90
  -3  -6  -1   36.20    5.20
   3   6   1   58.29    7.20
   3   6   1   46.80    5.40
   3   6   1   43.60    5.00
   3   6   1   56.69    7.60
  -4  -6  -1   50.69    5.60
  -4  -6  -1   38.70    6.20
  -4  -6  -1   45.40    6.30
   4   6   1   35.40    8.00
   4   6   1   50.89    7.80
   4   6   1   54.19    4.40
   4   6   1   49.60    6.30
  -5  -6  -1   -1.80    5.40
  -5  -6  -1   11.70    5.50
   5   6   1  -13.70    7.60
   5   6   1    6.00    7.50
   5   6   1   -3.90    5.00
  -6  -6  -1   -9.80    6.60
   6   6   1   31.10   10.30
   6   6   1    8.50    6.50
  -7  -6  -1    6.40    7.90
  -7  -6  -1    7.90    7.20
   7   6   1    0.70   12.80
   7   6   1   -5.90    9.50
   7  -7  -1   -1.00    8.00
   7  -7  -1   12.30    9.30
   7  -7  -1    6.10    7.50
  -7   7   1    2.30    6.60
   6  -7  -1    7.40    8.40
   6  -7  -1   10.50    4.90
   6  -7  -1    3.80    7.00
   6  -7  -1    3.60    4.70
   6  -7  -1   -9.40    7.30
  -6   7   1    9.70    6.20
  -6   7   1    0.80    7.00
   5  -7  -1    9.30    3.50
   5  -7  -1    5.20    5.90
   5  -7  -1    8.60    5.10
   5  -7  -1    0.30    6.00
   5  -7  -1    1.60    4.50
  -5   7   1   -1.30    4.50
  -5   7   1   11.30    6.40
   4  -7  -1   49.80    4.80
   4  -7  -1   43.30    5.40
   4  -7  -1   38.70    6.40
   4  -7  -1   55.69    6.80
  -4   7   1   55.29    6.70
  -4   7   1   58.89    6.90
  -4   7   1   50.29    6.60
   3  -7  -1  207.18   15.90
   3  -7  -1  243.88   13.20
   3  -7  -1  262.47   12.60
   3  -7  -1  234.98   12.30
  -3   7   1  232.98   13.20
  -3   7   1  254.27   11.90
   2  -7  -1   34.30    4.50
   2  -7  -1   41.80    5.40
   2  -7  -1   36.50    4.90
   2  -7  -1   29.40    4.00
  -2   7   1   37.90    4.80
  -2   7   1   40.60    4.90
  -2   7   1   38.10    4.60
  -2   7   1   32.70    3.80
   1  -7  -1  109.39    6.50
   1  -7  -1  103.19    7.80
   1  -7  -1  107.79    7.20
   1  -7  -1  117.69    8.40
  -1   7   1  115.59    7.40
  -1   7   1  110.89    7.70
  -1   7   1  111.59    6.50
  -1   7   1  117.89    8.30
   0  -7  -1   -1.00    3.50
   0  -7  -1    1.90    1.90
   0  -7  -1    2.30    2.50
   0  -7  -1    1.60    4.00
   0  -7  -1    4.90    3.40
   0  -7  -1    1.10    1.90
   0   7   1   -2.40    1.90
   0   7   1   -4.50    3.60
   0   7   1   -0.80    2.70
   0   7   1   -0.20    3.10
  -1  -7  -1  152.48    7.80
  -1  -7  -1  149.09    9.30
  -1  -7  -1  138.59    9.40
  -1  -7  -1  151.38    7.20
   1   7   1  132.19    7.90
   1   7   1  135.79    8.90
   1   7   1  129.99    8.00
   1   7   1  144.69    8.10
   1   7   1  147.09    8.20
   1   7   1  126.99   10.30
  -2  -7  -1   41.60    4.90
  -2  -7  -1   38.00    5.50
  -2  -7  -1   39.90    4.70
   2   7   1   46.80    7.00
   2   7   1   41.80    5.90
   2   7   1   39.20    4.30
   2   7   1   46.10    4.90
  -3  -7  -1   44.40    5.50
  -3  -7  -1   60.09    6.50
  -3  -7  -1   49.30    4.80
   3   7   1   51.39    7.40
   3   7   1   49.10    8.10
   3   7   1   50.89    6.00
  -4  -7  -1    6.20    5.00
  -4  -7  -1    4.10    5.20
  -4  -7  -1    8.80    2.90
   4   7   1   11.00    7.80
   4   7   1    9.90    7.10
   4   7   1    3.60    2.50
   4   7   1    8.50    4.90
  -5  -7  -1    1.30    5.50
   5   7   1    3.50    8.10
   5   7   1    5.70    5.80
  -6  -7  -1   -1.90    6.80
  -6  -7  -1   -3.00    6.50
   6   7   1   -2.30    6.50
   6   7   1    4.60    9.40
   6   7   1   12.20   10.00
   7  -8  -1   -1.00    8.20
   7  -8  -1   15.70   10.80
  -7   8   1    3.20    6.50
  -7   8   1    2.20    8.30
   6  -8  -1   -6.80    8.10
   6  -8  -1   -3.20    4.90
   6  -8  -1    2.60    7.70
   6  -8  -1   -6.50    4.10
   6  -8  -1   -5.20    7.50
  -6   8   1    0.70    7.00
  -6   8   1    1.90    5.80
   5  -8  -1   28.50    5.50
   5  -8  -1   37.50    7.40
   5  -8  -1   38.60    7.60
  -5   8   1   27.20    5.70
  -5   8   1   22.80    6.90
   4  -8  -1    8.20    5.70
   4  -8  -1    7.20    5.90
   4  -8  -1   10.30    4.70
  -4   8   1   17.30    5.70
  -4   8   1   12.80    5.60
  -4   8   1    7.90    4.00
   3  -8  -1   31.20    4.70
   3  -8  -1   30.10    5.70
   3  -8  -1   33.70    6.00
   3  -8  -1   34.20    5.10
  -3   8   1   27.70    5.50
  -3   8   1   42.50    5.90
  -3   8   1   33.40    4.10
   2  -8  -1    8.00    4.30
   2  -8  -1    1.30    4.10
   2  -8  -1   12.60    3.60
  -2   8   1    4.80    2.80
  -2   8   1   12.00    4.60
   1  -8  -1   49.80    6.00
   1  -8  -1   41.00    5.40
   1  -8  -1   43.30    4.90
  -1   8   1   46.90    5.10
  -1   8   1   38.00    4.90
  -1   8   1   43.10    5.40
   0  -8  -1   13.90    4.40
   0  -8  -1   14.00    2.90
   0  -8  -1   10.60    2.40
   0  -8  -1   16.90    4.70
   0   8   1    8.50    2.50
   0   8   1   10.10    4.60
   0   8   1   15.00    3.50
   0   8   1   14.10    4.20
  -1  -8  -1   -1.80    4.10
  -1  -8  -1   -2.80    4.50
  -1  -8  -1    4.20    2.70
  -1  -8  -1    5.80    3.00
   1   8   1    0.10    2.50
   1   8   1   -0.10    2.60
   1   8   1    0.50    5.30
   1   8   1   -0.20    4.00
   1   8   1    0.50    3.30
  -2  -8  -1  615.34   27.90
  -2  -8  -1  631.44   26.90
  -2  -8  -1  637.84   27.10
   2   8   1  634.64   28.70
   2   8   1  642.24   27.80
   2   8   1  663.23   27.20
  -3  -8  -1   25.80    5.40
  -3  -8  -1   30.00    4.50
  -3  -8  -1   21.00    5.00
   3   8   1   19.70    3.50
   3   8   1   20.30    6.50
   3   8   1   21.70    4.90
   3   8   1   18.30    7.60
  -4  -8  -1    1.70    5.10
  -4  -8  -1    2.80    3.20
  -4  -8  -1    2.60    5.10
   4   8   1    6.80    5.30
   4   8   1   12.70    7.20
   4   8   1    4.80    7.90
  -5  -8  -1    7.80    6.70
  -5  -8  -1    3.80    6.10
   5   8   1    0.40    8.30
   5   8   1    0.90    9.30
  -6  -8  -1    1.10    7.10
  -6  -8  -1   -6.90    6.40
   6   8   1    3.90   10.60
   6   8   1   -1.90    6.80
   6   8   1   11.00    9.30
   7  -9  -1   11.00    8.10
   7  -9  -1   21.60   11.20
  -7   9   1   10.10    6.60
   6  -9  -1   15.00    8.30
   6  -9  -1    8.40    9.00
   6  -9  -1   -3.70    5.70
   6  -9  -1    7.10    8.40
  -6   9   1    6.50    6.00
  -6   9   1   -2.90    7.20
   5  -9  -1   35.80    6.00
   5  -9  -1   30.20    7.90
  -5   9   1   36.80    7.50
  -5   9   1   33.80    5.90
   4  -9  -1    9.20    6.20
   4  -9  -1   -7.40    5.30
   4  -9  -1    0.50    4.90
  -4   9   1   -3.30    5.00
  -4   9   1    6.30    5.70
  -4   9   1    4.60    3.80
   3  -9  -1   45.70    6.50
   3  -9  -1   52.19    6.10
   3  -9  -1   53.29    7.20
  -3   9   1   41.70    6.30
  -3   9   1   42.90    6.10
  -3   9   1   45.00    5.60
   2  -9  -1   14.40    3.60
   2  -9  -1   13.90    5.60
   2  -9  -1   13.20    4.90
   2  -9  -1    7.60    4.70
  -2   9   1   16.70    3.00
  -2   9   1    9.80    4.60
  -2   9   1    8.80    4.90
   1  -9  -1   21.50    4.40
   1  -9  -1   21.80    5.10
   1  -9  -1   18.50    5.70
   1  -9  -1   14.30    3.00
  -1   9   1   19.10    3.30
  -1   9   1   28.50    5.80
   0  -9  -1  128.19    6.90
   0  -9  -1  138.09   10.70
   0  -9  -1  121.19   12.60
   0   9   1  118.49    7.10
   0   9   1  132.49   12.50
   0   9   1  131.79    9.70
   0   9   1  122.89    8.40
  -1  -9  -1   44.80    5.80
  -1  -9  -1   53.79    6.60
  -1  -9  -1   54.59    4.80
  -1  -9  -1   51.99    6.60
   1   9   1   59.49    7.40
   1   9   1   52.79    5.40
   1   9   1   53.79    6.50
   1   9   1   48.80    5.50
  -2  -9  -1   48.30    5.00
  -2  -9  -1   38.30    5.60
  -2  -9  -1   43.50    6.40
   2   9   1   32.80    5.90
   2   9   1   34.80    7.00
   2   9   1   32.70    5.10
  -3  -9  -1   34.40    5.50
  -3  -9  -1   50.99    6.90
  -3  -9  -1   41.70    5.20
   3   9   1   44.00    8.40
   3   9   1   61.89    7.50
   3   9   1   49.10    6.30
  -4  -9  -1   16.30    6.20
  -4  -9  -1   26.90    6.30
  -4  -9  -1   19.10    3.90
   4   9   1   16.30    7.60
   4   9   1   27.30    9.30
   4   9   1   26.70    6.20
  -5  -9  -1    4.40    6.20
  -5  -9  -1    6.60    6.70
   5   9   1    1.40    8.60
   5   9   1    1.70    9.60
   5   9   1    2.10    6.10
  -6  -9  -1   -0.80    6.80
  -6  -9  -1    9.30    9.30
   6   9   1   -2.30    8.70
   6   9   1    6.50    6.80
   6   9   1    8.50   16.40
   6 -10  -1   23.50    9.70
   6 -10  -1   30.80    9.30
   6 -10  -1    1.90    7.80
  -6  10   1    2.20    5.70
  -6  10   1   21.00    8.00
   5 -10  -1   36.50    9.80
   5 -10  -1   31.40   10.70
   5 -10  -1   31.60    8.20
  -5  10   1   22.80    5.50
  -5  10   1   31.90    7.90
   4 -10  -1  118.29   12.30
   4 -10  -1  116.59   14.00
   4 -10  -1  104.89   11.20
  -4  10   1  124.39   11.40
  -4  10   1  129.39   11.60
  -4  10   1  110.29    8.20
   3 -10  -1   21.10    4.20
   3 -10  -1   27.90    6.10
   3 -10  -1   52.19    7.40
  -3  10   1   39.40    5.20
  -3  10   1   33.00    5.90
  -3  10   1   47.20    6.60
   2 -10  -1    3.40    5.40
   2 -10  -1    4.50    4.60
   2 -10  -1    3.20    2.90
  -2  10   1    1.30    4.60
  -2  10   1    4.80    4.40
  -2  10   1    2.20    2.60
   1 -10  -1   36.60    6.30
   1 -10  -1   36.80    6.10
   1 -10  -1   28.90    6.20
   1 -10  -1   35.00    3.40
  -1  10   1   40.00    6.00
  -1  10   1   45.80    5.90
  -1  10   1   29.20    3.60
   0 -10  -1   30.90    3.40
   0 -10  -1   29.60    5.80
   0 -10  -1   17.90    5.90
   0  10   1   22.50    5.90
   0  10   1   19.70    3.20
   0  10   1   24.60    5.20
   0  10   1   24.80    4.20
  -1 -10  -1  173.18   12.10
  -1 -10  -1  178.18    9.20
  -1 -10  -1  154.08   13.20
  -1 -10  -1  180.08    9.40
   1  10   1  175.58   11.50
   1  10   1  169.28   10.20
   1  10   1  150.48    9.90
   1  10   1  168.38   12.90
  -2 -10  -1   19.80    5.70
  -2 -10  -1   32.40    5.60
  -2 -10  -1   30.10    4.80
  -2 -10  -1   31.30    3.70
  -2 -10  -1   19.60    3.10
   2  10   1   37.70    7.90
   2  10   1   36.10    6.10
   2  10   1   30.20    5.40
  -3 -10  -1    6.20    4.70
  -3 -10  -1    8.00    4.50
  -3 -10  -1    2.00    5.30
   3  10   1    8.00    8.00
   3  10   1    2.70    4.80
   3  10   1    2.30    5.80
  -4 -10  -1    4.50    6.40
  -4 -10  -1    6.30    4.00
   4  10   1    2.80    5.80
   4  10   1    4.10    8.80
   4  10   1    1.50    7.20
  -5 -10  -1   44.10    8.10
  -5 -10  -1   43.70    8.50
   5  10   1   47.80    8.60
   5  10   1   30.40   11.30
   5  10   1   71.89   10.20
   6 -11  -1    5.20    8.50
   6 -11  -1    3.60    8.70
  -6  11   1    4.20    7.30
  -6  11   1   12.50    6.10
   5 -11  -1    9.80    6.00
   5 -11  -1   24.50    8.80
   5 -11  -1   19.30    8.20
  -5  11   1    8.60    4.70
  -5  11   1   17.20    7.40
  -5  11   1   18.30    7.30
   4 -11  -1   10.90    7.10
   4 -11  -1   10.10    5.70
  -4  11   1   -3.90    3.50
  -4  11   1   -7.20    5.50
   3 -11  -1    4.40    6.40
   3 -11  -1   -0.60    5.60
   3 -11  -1    1.70    5.30
   3 -11  -1    2.40    3.50
  -3  11   1    8.00    5.30
  -3  11   1    0.90    2.80
  -3  11   1    1.90    5.50
   2 -11  -1  230.38   13.00
   2 -11  -1  198.88   14.40
   2 -11  -1  222.68   13.40
  -2  11   1  222.78   13.20
  -2  11   1  187.28    9.90
  -2  11   1  215.18   13.10
   1 -11  -1  288.87   14.90
   1 -11  -1  293.37   16.70
   1 -11  -1  301.57   16.10
  -1  11   1  292.07   13.00
  -1  11   1  286.67   15.60
  -1  11   1  288.77   15.50
   0 -11  -1   -4.60    4.80
   0 -11  -1    1.90    2.60
   0 -11  -1   -4.00    5.50
   0 -11  -1    6.00    3.90
   0  11   1   -3.20    5.20
   0  11   1   -1.60    4.70
   0  11   1    2.30    3.30
   0  11   1   -5.70    4.30
  -1 -11  -1    8.80    3.60
  -1 -11  -1   16.50    5.80
  -1 -11  -1   12.40    3.70
  -1 -11  -1   10.60    5.90
   1  11   1    9.90    6.40
   1  11   1   18.80    5.50
   1  11   1   15.70    4.50
  -2 -11  -1   48.30    5.60
  -2 -11  -1   49.10    7.20
  -2 -11  -1   41.50    4.90
  -2 -11  -1   48.30    6.40
   2  11   1   43.60   10.40
   2  11   1   44.70    8.60
   2  11   1   48.60    7.10
  -3 -11  -1   12.60    5.80
  -3 -11  -1    3.00    6.40
  -3 -11  -1    9.20    5.10
   3  11   1   -2.20    8.00
   3  11   1   13.50    5.40
   3  11   1    7.60    6.40
  -4 -11  -1    7.70    6.80
  -4 -11  -1   21.20    4.60
  -4 -11  -1   16.60    6.40
   4  11   1   18.30    8.00
   4  11   1   27.60   10.20
   4  11   1   12.00    6.30
  -5 -11  -1   60.09    8.70
  -5 -11  -1   61.29    9.30
   5  11   1   69.19    9.60
   5  11   1   37.60    8.40
   5  11   1   56.69   12.10
   6 -12  -1    1.50    8.80
   6 -12  -1   -1.90    8.80
  -6  12   1   -1.20    7.70
   5 -12  -1   15.40    8.10
   5 -12  -1    1.70    8.30
   5 -12  -1    3.80    6.10
  -5  12   1    4.50    4.60
  -5  12   1    4.10    7.10
  -5  12   1    1.40    7.10
   4 -12  -1   14.70    7.30
   4 -12  -1   -1.80    7.50
   4 -12  -1   -8.40    5.80
  -4  12   1    0.10    6.10
  -4  12   1    1.20    3.60
   3 -12  -1  103.69   10.80
   3 -12  -1   86.49   10.00
   3 -12  -1  104.59   10.70
  -3  12   1   91.29   10.90
  -3  12   1  100.79   10.90
  -3  12   1   82.69    6.10
   2 -12  -1  329.17   17.30
   2 -12  -1  324.77   17.80
   2 -12  -1  334.27   18.90
  -2  12   1  315.17   17.30
  -2  12   1  342.87   17.60
   1 -12  -1    0.10    6.00
   1 -12  -1    4.50    5.60
   1 -12  -1    0.60    4.60
  -1  12   1    3.90    5.00
  -1  12   1    1.50    5.20
   0 -12  -1   -4.70    5.70
   0 -12  -1   -6.50    3.80
   0 -12  -1   -4.60    5.30
   0 -12  -1    0.60    2.60
   0  12   1   -9.30    4.80
   0  12   1    1.50    4.80
   0  12   1   -1.20    3.10
   0  12   1   -8.60    4.40
   0  12   1    0.90    5.60
  -1 -12  -1   50.79    5.10
  -1 -12  -1   34.90    7.30
  -1 -12  -1   48.10    5.00
  -1 -12  -1   44.90    7.20
   1  12   1   51.29    6.80
   1  12   1   43.30    5.60
   1  12   1   51.89    8.10
  -2 -12  -1   10.20    5.50
  -2 -12  -1    2.80    2.90
  -2 -12  -1    9.90    5.80
  -2 -12  -1    8.60    4.20
  -2 -12  -1    9.80    5.90
   2  12   1    5.40    7.50
   2  12   1   13.50    5.30
   2  12   1   18.90    6.30
  -3 -12  -1    1.70    5.00
  -3 -12  -1    5.10    6.00
  -3 -12  -1    1.70    5.00
   3  12   1    2.40    8.90
   3  12   1    4.00    5.30
   3  12   1    2.80    6.20
  -4 -12  -1    4.30    5.90
  -4 -12  -1   11.20    6.70
   4  12   1    2.30    7.00
   4  12   1    4.80    9.70
  -5 -12  -1   12.00    8.10
  -5 -12  -1    1.70    8.90
   5  12   1    0.90    7.10
   5  12   1    7.40    6.50
   5 -13  -1   42.60    9.40
   5 -13  -1   21.60    6.60
   5 -13  -1   48.80    9.90
  -5  13   1   36.70    8.20
  -5  13   1   27.90    8.30
   4 -13  -1    5.90    6.10
   4 -13  -1   -3.40    7.70
   4 -13  -1    4.70    7.20
  -4  13   1    4.70    3.40
  -4  13   1   12.90    6.70
  -4  13   1    9.50    6.80
   3 -13  -1   -2.80    7.10
   3 -13  -1    1.00    6.30
   3 -13  -1   -1.20    6.30
  -3  13   1    9.10    7.30
  -3  13   1   -4.20    5.90
   2 -13  -1   -7.10    8.10
   2 -13  -1   10.20    5.80
   2 -13  -1    8.30    6.10
  -2  13   1    2.00    5.40
  -2  13   1    5.50    5.80
   1 -13  -1   43.20    7.10
   1 -13  -1   40.20    7.90
   1 -13  -1   26.30    5.80
  -1  13   1   30.20    6.50
  -1  13   1   35.90    6.70
   0 -13  -1   -2.80    6.10
   0 -13  -1    1.60    4.20
   0 -13  -1    0.00    2.70
   0 -13  -1   -8.20    5.60
   0  13   1   -5.00    5.10
   0  13   1   -9.80    3.20
   0  13   1    1.10    2.80
   0  13   1    0.60    6.00
  -1 -13  -1   54.19    8.10
  -1 -13  -1   50.39    6.50
  -1 -13  -1   60.29    8.60
   1  13   1   49.30    8.10
   1  13   1   51.59    5.90
   1  13   1   48.70    7.20
  -2 -13  -1   23.60    3.80
  -2 -13  -1   13.20    4.50
  -2 -13  -1    8.30    5.90
  -2 -13  -1   10.90    6.30
   2  13   1   26.50    5.90
   2  13   1   12.00    8.40
   2  13   1   24.90    6.60
  -3 -13  -1   14.20    6.80
  -3 -13  -1   23.80    6.00
   3  13   1   43.30   10.90
   3  13   1   33.60    7.80
   3  13   1   18.70    6.60
  -4 -13  -1   34.90    8.10
  -4 -13  -1   31.50    6.80
   4  13   1   45.00   11.40
   4  13   1   31.70    7.50
   4  13   1   35.80    8.00
   5 -14  -1    7.50    8.60
  -5  14   1    6.10    8.00
  -5  14   1    9.10    7.70
   4 -14  -1    5.50    7.90
   4 -14  -1   16.90    6.60
   4 -14  -1   -6.80    7.30
  -4  14   1    2.90    6.90
  -4  14   1  -11.40    6.00
   3 -14  -1    7.20    6.60
   3 -14  -1   38.60    9.00
   3 -14  -1   12.00    7.10
  -3  14   1   17.70    7.10
  -3  14   1   19.60    6.80
   2 -14  -1    2.60    6.30
   2 -14  -1    6.40    7.30
  -2  14   1    7.60    6.30
   1 -14  -1    1.30    5.00
   1 -14  -1   -2.40    7.20
   1 -14  -1   -0.60    6.30
  -1  14   1   11.50    7.10
   0 -14  -1    0.80    4.60
   0 -14  -1    3.80    2.70
   0 -14  -1   -1.70    6.80
   0 -14  -1    3.30    6.60
  -1 -14  -1   75.89    7.80
  -1 -14  -1   92.49   12.00
  -1 -14  -1  105.89    7.60
  -1 -14  -1   93.59    9.70
   1  14   1   69.69    8.40
   1  14   1   94.99   10.20
  -2 -14  -1    5.00    4.40
  -2 -14  -1   13.90    6.50
  -2 -14  -1    6.80    3.50
  -2 -14  -1   21.60    6.60
   2  14   1    0.40    6.00
   2  14   1    8.80    8.10
   2  14   1   11.60    5.70
  -3 -14  -1   -1.10    4.80
  -3 -14  -1    9.30    6.40
  -3 -14  -1   10.60    6.20
   3  14   1   12.90   10.10
   3  14   1    2.10    6.70
   3  14   1    7.90    6.20
   4 -15  -1   33.30    7.70
   4 -15  -1   43.10   10.90
  -4  15   1   45.60    8.40
   3 -15  -1  119.49   14.80
   3 -15  -1  140.09   13.20
   3 -15  -1  161.68   13.90
  -3  15   1  171.58   14.20
  -3  15   1  122.79   13.20
   2 -15  -1   -1.70    6.40
   2 -15  -1    3.20    5.80
   2 -15  -1    6.10    7.60
  -2  15   1    8.90    6.50
  -2  15   1   17.10    6.80
   1 -15  -1   13.80    8.00
   1 -15  -1   13.50    7.00
   1 -15  -1   20.60    7.20
  -1  15   1    6.70    6.40
  -1  15   1    7.90    6.20
   0 -15  -1   44.70    9.00
   0 -15  -1   43.40    6.30
   0 -15  -1   53.39    8.50
   0  15   1   44.70    8.00
   0  15   1   35.80    7.40
  -1 -15  -1  183.38    9.90
  -1 -15  -1  171.18   10.70
  -1 -15  -1  155.78   14.40
  -1 -15  -1  164.08   14.50
   1  15   1  158.58   10.20
   1  15   1  174.48   15.00
   1  15   1  200.28   14.30
  -2 -15  -1    2.80    4.60
  -2 -15  -1    7.60    6.70
  -2 -15  -1   -3.60    6.10
   2  15   1    9.60    5.40
   2  15   1   15.70    8.50
   2  15   1    6.10    6.40
  -3 -15  -1   43.80    8.70
  -3 -15  -1   25.30    6.10
   3  15   1   31.60    7.80
   3  15   1   25.40    6.70
   3 -16  -1    5.60    7.00
   3 -16  -1   -5.60    6.20
  -3  16   1    4.70    6.70
   2 -16  -1   14.00    8.30
   2 -16  -1   11.90    6.40
   2 -16  -1   14.80    7.10
  -2  16   1   15.30    6.80
  -2  16   1   12.40    7.00
   1 -16  -1   -6.90    6.60
   1 -16  -1   15.80    8.10
   1 -16  -1   12.20    5.80
  -1  16   1    6.00    6.50
  -1  16   1   -5.00    5.90
   0 -16  -1   29.80    6.10
   0 -16  -1   12.60    7.00
   0 -16  -1   33.40    8.60
   0  16   1   30.30    7.30
   0  16   1   22.40    7.50
  -1 -16  -1    1.50    6.90
  -1 -16  -1   -6.40    4.20
  -1 -16  -1    7.90    6.60
   1  16   1   -1.80    7.00
   1  16   1   -0.30    6.30
  -2 -16  -1   27.90    7.60
  -2 -16  -1   18.20    8.10
   2  16   1   30.40    7.50
   2  16   1   39.80   11.40
   1 -17  -1   -4.10    7.00
   1 -17  -1    2.20   11.30
   1 -17  -1    4.90    5.60
  -1  17   1   -1.50    6.40
   0 -17  -1   -2.50    7.20
   0 -17  -1    0.60    5.20
   0  17   1   -8.20    6.50
   0  17   1   -4.40    6.50
   1  17  -2    1.00    6.90
   1  17  -2   16.40    9.20
  -1 -17   2   16.80    5.60
  -1 -17   2   -6.40    7.30
   0  17  -2   19.80    7.30
   0  17  -2    2.40    6.40
   0 -17   2   12.70    7.90
   0 -17   2   20.20    5.70
   0 -17   2   12.80    7.90
  -1  17  -2   -4.10    6.40
  -1  17  -2   12.40    6.10
   1 -17   2   -4.40    5.50
   1 -17   2   -9.40    7.20
   1 -17   2  -11.40    7.20
  -2  17  -2   78.89    9.00
   2 -17   2   75.09   10.30
   2 -17   2   96.79   13.80
   2 -17   2  108.49   12.40
   2  16  -2    3.80    7.30
   2  16  -2   16.00    8.10
  -2 -16   2    3.60    6.70
  -2 -16   2    6.60    4.90
  -2 -16   2   -2.50    6.60
   1  16  -2   11.90    7.40
   1  16  -2   23.00    7.60
  -1 -16   2    4.40    7.10
  -1 -16   2   18.50    4.60
  -1 -16   2   24.80    8.00
   0  16  -2   -3.70    6.30
   0  16  -2   -3.50    6.50
   0 -16   2    0.80    7.30
   0 -16   2   -8.70    6.60
  -1  16  -2    1.20    5.80
  -1  16  -2    2.10    6.30
   1 -16   2   10.00    8.00
   1 -16   2    2.80    7.20
  -2  16  -2    2.80    6.10
  -2  16  -2   -6.10    5.80
   2 -16   2    8.50    6.40
   2 -16   2    2.90    8.20
   2 -16   2   -0.70    7.40
  -3  16  -2    4.40    6.00
  -3  16  -2   -8.50    6.50
   3 -16   2   -1.80    7.50
   3 -16   2  -12.30    7.50
   3 -16   2    4.50    7.70
   3  15  -2   15.30    9.50
   3  15  -2   22.10    8.30
   3  15  -2   -4.90    8.60
  -3 -15   2    9.90    6.30
  -3 -15   2    3.10    6.80
  -3 -15   2    4.40    5.20
   2  15  -2    9.20    7.50
   2  15  -2    5.50    8.00
  -2 -15   2   -1.60    6.50
  -2 -15   2    6.40    4.80
  -2 -15   2   11.20    7.50
   1  15  -2   -9.90   11.50
   1  15  -2    5.80    6.80
  -1 -15   2    2.00    6.80
  -1 -15   2   -3.50    4.00
  -1 -15   2    2.60    7.00
   0  15  -2   26.60    6.90
   0  15  -2   33.30    7.80
   0 -15   2   29.20    5.90
   0 -15   2   12.90   11.80
   0 -15   2   26.80    8.20
  -1  15  -2    4.50    5.70
  -1  15  -2   -0.60    6.10
   1 -15   2    3.00    7.30
   1 -15   2    1.30    6.90
  -2  15  -2    3.00    6.10
  -2  15  -2   -3.20    5.80
   2 -15   2    0.80    7.50
   2 -15   2    5.00    7.40
  -3  15  -2    2.20    6.30
  -3  15  -2    7.30    6.90
   3 -15   2    6.90    7.80
   3 -15   2    6.30    7.20
   3 -15   2    2.00    7.20
  -4  15  -2   11.30    6.40
  -4  15  -2    8.10    7.00
   4 -15   2   -4.50    7.10
   4 -15   2   -0.90    7.70
   4 -15   2    6.00    7.30
   4  14  -2    2.00   10.70
   4  14  -2    8.20    8.70
  -4 -14   2   -2.40    6.70
  -4 -14   2   -1.10    6.10
   3  14  -2   -1.60    7.30
   3  14  -2    4.60    9.60
   3  14  -2    7.80    5.30
  -3 -14   2   -0.30    6.90
  -3 -14   2   16.90    5.70
  -3 -14   2    7.10    5.70
   2  14  -2   26.40    8.00
   2  14  -2   24.50    4.80
   2  14  -2   25.30    5.20
  -2 -14   2   29.90    5.80
  -2 -14   2   20.10    7.00
  -2 -14   2   31.70    7.60
   1  14  -2    5.40    7.80
   1  14  -2   -1.10    4.30
   1  14  -2    6.40    6.90
  -1 -14   2    0.10    4.00
  -1 -14   2   -3.20    6.20
  -1 -14   2    9.10    6.80
   0  14  -2   -3.40    5.70
   0  14  -2    0.60    4.60
   0 -14   2    4.80    6.60
   0 -14   2   -4.50    3.20
  -1  14  -2    2.00    5.20
  -1  14  -2    4.60    5.10
   1 -14   2    2.90    6.50
   1 -14   2   -3.40    6.60
  -2  14  -2    5.80    5.90
  -2  14  -2    1.90    5.60
   2 -14   2   11.70    7.30
   2 -14   2   11.50    7.20
  -3  14  -2    9.90    6.00
  -3  14  -2    5.00    6.60
   3 -14   2   -2.10    6.30
   3 -14   2   -1.40    7.10
  -4  14  -2   11.20    6.80
  -4  14  -2    6.80    6.30
   4 -14   2    2.60    7.70
   4 -14   2    6.20    7.70
   4 -14   2    4.90    7.30
  -5  14  -2   -4.90    6.70
   5 -14   2    2.70    6.90
   5 -14   2   -1.60    9.20
   4  13  -2    8.20    6.00
   4  13  -2   16.20   10.20
   4  13  -2   15.50    8.70
  -4 -13   2   22.00    6.80
  -4 -13   2   14.60    7.40
   3  13  -2    2.80    9.30
   3  13  -2   -2.70    7.20
   3  13  -2    2.70    4.60
  -3 -13   2   -7.50    6.10
  -3 -13   2   -1.10    5.00
   2  13  -2   -0.50    3.90
   2  13  -2    8.80    7.40
   2  13  -2    5.00    7.80
   2  13  -2    1.10    4.40
  -2 -13   2    3.40    5.70
  -2 -13   2    1.40    4.50
   1  13  -2    3.30    6.10
   1  13  -2    1.40    6.20
   1  13  -2    2.30    4.10
  -1 -13   2   -5.60    5.90
  -1 -13   2    0.70    5.60
  -1 -13   2    5.10    4.00
   0  13  -2   20.60    5.00
   0  13  -2   16.80    6.30
   0  13  -2   19.80    6.10
   0 -13   2   13.40    3.70
   0 -13   2   15.40    6.70
   0 -13   2   19.80    6.40
  -1  13  -2   -7.10    4.80
  -1  13  -2    4.90    5.20
  -1  13  -2    0.90    4.40
   1 -13   2    5.60    6.30
   1 -13   2    4.30    2.70
   1 -13   2    5.50    6.20
  -2  13  -2   43.20    7.10
  -2  13  -2   44.70    6.50
   2 -13   2   49.80    8.10
   2 -13   2   41.60    7.80
  -3  13  -2   14.20    7.20
  -3  13  -2   15.30    5.90
   3 -13   2   15.50    7.30
   3 -13   2   11.60    7.30
  -4  13  -2    7.00    6.30
  -4  13  -2   11.40    6.70
   4 -13   2   15.90    8.10
   4 -13   2   15.20    7.80
   4 -13   2   25.90    7.70
  -5  13  -2   17.50    8.20
  -5  13  -2   19.90    7.00
   5 -13   2    7.40    7.90
   5 -13   2    8.50    8.30
   5 -13   2   14.40    9.60
   5  12  -2    6.50    9.10
   5  12  -2   -3.20    6.20
   5  12  -2    4.00   10.60
  -5 -12   2  -11.40    6.30
  -5 -12   2   -2.30    7.20
   4  12  -2    1.00    9.70
   4  12  -2   19.10    9.10
   4  12  -2   18.20    6.20
  -4 -12   2   15.90    6.40
  -4 -12   2   22.30    7.40
   3  12  -2   -7.70    8.10
   3  12  -2   -2.60    3.30
   3  12  -2   -3.40    4.60
   3  12  -2    8.40    8.20
  -3 -12   2    1.60    4.50
  -3 -12   2    8.40    5.10
   2  12  -2   -2.00    3.70
   2  12  -2    0.50    6.00
   2  12  -2    9.30    3.70
   2  12  -2    1.60    7.60
  -2 -12   2    8.30    6.20
  -2 -12   2    5.10    4.50
  -2 -12   2    7.40    5.40
   1  12  -2   97.79   10.90
   1  12  -2   94.39   11.20
   1  12  -2   96.89    7.70
  -1 -12   2   81.99    8.00
  -1 -12   2   88.99   10.60
  -1 -12   2   88.29   11.20
   0  12  -2    7.50    4.40
   0  12  -2    0.00    5.30
   0  12  -2    9.90    5.70
   0 -12   2    7.30    3.60
   0 -12   2    3.70    5.90
   0 -12   2   11.00    5.80
  -1  12  -2   64.49    7.60
  -1  12  -2   68.79    7.70
  -1  12  -2   65.69    6.80
  -1  12  -2   72.69    8.70
   1 -12   2   44.50    5.20
   1 -12   2   46.80    7.50
   1 -12   2   64.49    8.00
  -2  12  -2   -0.20    4.60
  -2  12  -2   -0.80    5.00
  -2  12  -2    3.10    4.80
   2 -12   2    4.00    5.80
   2 -12   2    3.90    5.90
  -3  12  -2    3.60    5.00
  -3  12  -2   18.10    6.10
   3 -12   2    5.80    6.30
   3 -12   2    7.50    6.30
  -4  12  -2   24.10    7.10
  -4  12  -2   21.10    6.40
   4 -12   2   17.10    7.20
   4 -12   2   28.80    7.70
   4 -12   2   23.60    7.60
  -5  12  -2   -3.40    6.40
  -5  12  -2    0.70    7.20
   5 -12   2    4.00    7.40
   5 -12   2   -4.80    7.20
   5 -12   2   -8.70    6.40
  -6  12  -2    3.60    6.70
   6 -12   2   19.90    9.50
   6 -12   2    1.70    8.20
   5  11  -2    9.90   10.40
   5  11  -2   11.60   11.00
   5  11  -2    1.50    6.20
  -5 -11   2    7.30    7.20
  -5 -11   2   12.00    7.00
   4  11  -2   25.70   10.10
   4  11  -2    6.60    9.40
   4  11  -2   17.40    5.90
  -4 -11   2   26.70    6.70
  -4 -11   2   12.20    7.20
   3  11  -2   29.80    8.80
   3  11  -2   32.50    8.10
   3  11  -2   24.80    5.20
   3  11  -2   30.20    4.00
  -3 -11   2   32.10    6.00
  -3 -11   2   31.60    6.80
  -3 -11   2   28.90    5.00
   2  11  -2    7.60    3.80
   2  11  -2    5.10    6.10
   2  11  -2   11.90    3.80
   2  11  -2    4.00    7.00
  -2 -11   2    8.50    6.20
  -2 -11   2    5.90    4.90
  -2 -11   2    5.90    4.30
   1  11  -2    4.40    5.80
   1  11  -2    8.30    3.30
   1  11  -2    8.40    5.60
   1  11  -2    7.60    2.40
   1  11  -2    2.50    3.60
  -1 -11   2    6.10    5.50
  -1 -11   2    5.40    5.40
  -1 -11   2    9.40    4.00
   0  11  -2  166.48   11.90
   0  11  -2  176.08   10.20
   0  11  -2  162.38   11.70
   0 -11   2  151.98   11.70
   0 -11   2  170.38    9.20
   0 -11   2  157.88   12.50
  -1  11  -2   72.49    5.60
  -1  11  -2   75.19    8.20
  -1  11  -2   98.59    9.30
   1 -11   2   82.39    9.80
   1 -11   2   80.59    6.10
   1 -11   2   92.09   10.30
  -2  11  -2    9.80    4.70
  -2  11  -2    5.60    4.50
  -2  11  -2    7.60    5.00
   2 -11   2    4.50    5.40
   2 -11   2    6.90    5.60
  -3  11  -2   24.90    6.00
  -3  11  -2   11.00    4.90
   3 -11   2   13.60    6.10
   3 -11   2    6.80    6.30
  -4  11  -2   34.80    6.30
  -4  11  -2   22.80    6.80
   4 -11   2   20.10    7.20
   4 -11   2   27.10    7.20
   4 -11   2   18.80    6.50
  -5  11  -2   16.60    7.50
  -5  11  -2    4.80    6.60
   5 -11   2   12.70    7.50
   5 -11   2    3.80    7.30
   5 -11   2   14.70    6.90
  -6  11  -2    4.10    6.70
   6 -11   2    3.60    8.20
   6 -11   2   16.80    7.20
   6 -11   2   10.20    8.20
   6 -11   2    5.40    5.80
   6  10  -2   13.40   10.90
   6  10  -2    5.10    6.60
  -6 -10   2    2.30    7.10
   5  10  -2   -3.30    9.40
   5  10  -2  -15.10   10.10
   5  10  -2    2.90    5.70
  -5 -10   2    3.30    6.40
  -5 -10   2   10.30    6.70
   4  10  -2   -8.60    8.20
   4  10  -2    1.90    8.80
   4  10  -2   -0.50    4.60
  -4 -10   2    3.10    5.70
  -4 -10   2   -2.90    5.40
   3  10  -2    6.00    7.20
   3  10  -2    2.60    4.00
   3  10  -2    1.30    3.10
   3  10  -2   -3.90    7.20
  -3 -10   2   12.80    4.20
  -3 -10   2    5.50    5.50
  -3 -10   2    2.20    4.60
  -3 -10   2   -4.20    3.70
  -3 -10   2   17.00    3.90
   2  10  -2   89.99   11.20
   2  10  -2   97.99    7.40
   2  10  -2   94.79   12.00
   2  10  -2  103.99    7.10
  -2 -10   2   97.39    9.00
  -2 -10   2   95.39    8.50
  -2 -10   2   88.29    8.80
   1  10  -2    1.20    5.10
   1  10  -2    3.20    3.50
   1  10  -2   -1.80    2.30
   1  10  -2   -2.80    3.00
  -1 -10   2    4.00    5.10
  -1 -10   2    2.50    3.60
  -1 -10   2    8.50    4.80
   0  10  -2    1.70    3.50
   0  10  -2    3.00    5.00
   0  10  -2    2.00    4.80
   0  10  -2   -5.30    2.80
   0 -10   2   -0.80    3.30
   0 -10   2    6.20    8.60
   0 -10   2    1.10    5.20
  -1  10  -2   53.49    5.00
  -1  10  -2   66.29    6.40
  -1  10  -2   62.99    8.40
  -1  10  -2   65.49    7.30
   1 -10   2   67.49    7.30
   1 -10   2   63.89    5.80
   1 -10   2   61.29    6.90
  -2  10  -2   19.60    4.80
  -2  10  -2   27.40    5.20
  -2  10  -2   20.90    5.20
   2 -10   2   19.70    5.50
   2 -10   2   13.10    5.40
   2 -10   2   17.30    3.20
  -3  10  -2  124.59    9.90
  -3  10  -2  111.49   10.60
   3 -10   2  141.69   11.50
   3 -10   2  128.39   11.50
  -4  10  -2   71.59    9.40
  -4  10  -2   91.29   10.70
   4 -10   2   91.09   10.70
   4 -10   2   81.69   10.10
   4 -10   2   86.29   11.20
  -5  10  -2   16.10    6.30
  -5  10  -2   -1.40    6.80
   5 -10   2    1.10    6.60
   5 -10   2    5.80    9.10
   5 -10   2    5.00    4.20
   5 -10   2    0.40    6.00
  -6  10  -2   11.30    7.00
   6 -10   2   13.30    7.90
   6 -10   2    8.70    7.60
   6   9  -2   31.80    7.60
   6   9  -2   49.50   12.40
   6   9  -2   21.20   11.50
  -6  -9   2   36.90    8.10
  -6  -9   2   51.19    9.10
   5   9  -2    4.50    9.60
   5   9  -2    9.60   10.20
   5   9  -2   10.80    6.50
  -5  -9   2    3.10    6.30
  -5  -9   2    4.90    6.60
   4   9  -2    1.70    4.40
   4   9  -2    3.80    8.10
   4   9  -2   -4.50    8.20
  -4  -9   2    1.40    5.10
  -4  -9   2    1.80    5.40
   3   9  -2    6.90    3.20
   3   9  -2    3.30    7.10
   3   9  -2    9.50    7.30
  -3  -9   2   -0.30    5.50
  -3  -9   2   11.70    4.80
  -3  -9   2   11.10    3.70
  -3  -9   2   11.60    3.30
  -3  -9   2    6.20    5.20
   2   9  -2   14.80    3.60
   2   9  -2    6.60    6.50
   2   9  -2   27.50    4.10
   2   9  -2   16.50    6.40
   2   9  -2   18.10    3.80
  -2  -9   2   19.40    4.20
  -2  -9   2   24.00    5.70
  -2  -9   2   23.40    5.60
  -2  -9   2   27.20    4.10
  -2  -9   2   18.30    4.80
   1   9  -2  340.27   14.70
   1   9  -2  361.06   18.60
   1   9  -2  348.07   17.80
   1   9  -2  357.96   15.60
   1   9  -2  320.77   14.80
  -1  -9   2  347.57   15.80
  -1  -9   2  338.07   17.30
  -1  -9   2  351.66   16.50
   0   9  -2  349.57   17.20
   0   9  -2  413.56   17.90
   0   9  -2  420.86   19.40
   0   9  -2  395.96   18.40
   0  -9   2  417.96   17.40
   0  -9   2  412.06   19.50
   0  -9   2  404.16   18.60
  -1   9  -2   90.89    5.90
  -1   9  -2  101.59    8.40
  -1   9  -2   96.49    7.80
   1  -9   2  100.59    9.00
   1  -9   2  102.09    6.70
   1  -9   2   94.99    9.50
  -2   9  -2    5.40    4.20
  -2   9  -2    1.50    3.90
  -2   9  -2    6.50    4.60
   2  -9   2    3.90    4.10
   2  -9   2    3.10    3.20
   2  -9   2    1.60    5.00
  -3   9  -2   15.10    5.10
  -3   9  -2   12.30    5.80
  -3   9  -2   19.30    5.00
   3  -9   2   13.20    3.80
   3  -9   2   15.00    3.30
   3  -9   2   19.80    5.30
   3  -9   2   13.90    6.30
   3  -9   2   23.70    2.70
  -4   9  -2   75.09    8.80
  -4   9  -2   54.49    7.20
   4  -9   2   63.79    6.80
   4  -9   2   88.69   10.10
   4  -9   2   63.59    7.80
   4  -9   2   85.49   10.10
  -5   9  -2   32.30    7.10
  -5   9  -2   42.10    7.80
   5  -9   2   40.60    7.80
   5  -9   2   52.29    7.40
   5  -9   2   40.30    7.70
   5  -9   2   45.10    5.40
  -6   9  -2   62.19    8.40
   6  -9   2   45.80    7.60
   6  -9   2   64.09    9.20
   6  -9   2   31.40    8.70
   6  -9   2   36.10    6.30
   7  -9   2   -9.10    7.40
   7  -9   2    3.10    6.70
   7  -9   2    5.10    8.50
   6   8  -2    6.70   10.80
   6   8  -2    7.40   10.70
   6   8  -2   -0.30    6.10
  -6  -8   2    9.20    7.10
  -6  -8   2    0.00    6.90
   5   8  -2   56.19   10.80
  -5  -8   2   52.19    8.00
  -5  -8   2   52.29    7.70
   4   8  -2   -1.30    7.40
   4   8  -2   -4.80    2.80
   4   8  -2    0.70    7.80
  -4  -8   2    7.50    3.20
  -4  -8   2    5.20    5.20
  -4  -8   2    0.40    4.80
   3   8  -2  123.49   12.50
   3   8  -2  130.69   13.10
   3   8  -2  133.49    7.60
  -3  -8   2  115.39    7.60
  -3  -8   2  122.59    8.90
  -3  -8   2  134.69    6.90
  -3  -8   2  122.09   10.60
  -3  -8   2  134.99    9.80
   2   8  -2    6.70    3.20
   2   8  -2    0.50    3.10
   2   8  -2    2.00    2.90
   2   8  -2   -0.30    6.10
  -2  -8   2   -5.40    3.80
  -2  -8   2   -1.20    3.60
  -2  -8   2   -2.30    3.90
  -2  -8   2   -1.50    5.80
   1   8  -2   56.19    6.20
   1   8  -2   64.79    6.00
   1   8  -2   69.39    8.70
   1   8  -2   64.49    5.00
   1   8  -2   79.19    5.00
   1   8  -2   63.99    7.20
  -1  -8   2   71.19    6.20
  -1  -8   2   76.69    6.30
  -1  -8   2   73.49    6.90
  -1  -8   2   67.29    6.40
  -1  -8   2   73.79    8.50
   0   8  -2  292.77   14.10
   0   8  -2  300.97   13.50
   0   8  -2  302.67   14.60
   0   8  -2  270.17   13.10
   0  -8   2  298.07   14.90
   0  -8   2  301.57   14.20
   0  -8   2  296.67   14.10
   0  -8   2  299.17   13.20
  -1   8  -2   45.90    4.70
  -1   8  -2   52.49    6.40
  -1   8  -2   38.60    4.20
  -1   8  -2   44.90    5.40
   1  -8   2   45.80    5.10
   1  -8   2   43.40    3.80
   1  -8   2   46.00    5.30
   1  -8   2   42.60    5.40
  -2   8  -2   -5.10    3.90
  -2   8  -2   -1.70    3.60
  -2   8  -2    0.40    3.60
   2  -8   2    0.30    2.20
   2  -8   2   -2.70    4.10
   2  -8   2    1.00    4.20
   2  -8   2    0.50    3.10
  -3   8  -2   52.39    5.00
  -3   8  -2   41.30    5.30
  -3   8  -2   37.80    5.60
  -3   8  -2   34.30    5.60
   3  -8   2   40.50    5.90
   3  -8   2   39.60    4.40
   3  -8   2   40.40    6.10
   3  -8   2   36.30    4.20
  -4   8  -2  109.89    9.50
  -4   8  -2   89.29    9.90
  -4   8  -2  108.19    7.80
   4  -8   2  109.89   10.40
   4  -8   2  104.79    8.00
   4  -8   2  106.29   13.50
   4  -8   2  113.49    6.70
   4  -8   2  106.49    9.80
  -5   8  -2    5.80    4.70
  -5   8  -2   -8.70    5.80
  -5   8  -2   -7.30    5.40
   5  -8   2  -10.10    4.30
   5  -8   2   -4.90    5.90
   5  -8   2    2.10    6.20
   5  -8   2   -2.80    5.50
   6  -8   2   27.30    8.00
   6  -8   2   13.90    6.70
   6  -8   2   27.00    9.20
   6  -8   2   21.00    8.00
   6  -8   2   18.20    5.70
   7  -8   2   10.90    9.00
   7  -8   2   11.90    7.20
   7  -8   2   11.80    8.00
   7  -8   2   20.20   10.60
   7  -8   2   10.60    8.20
   6   7  -2    6.00   10.20
   6   7  -2   -3.70    9.80
  -6  -7   2    5.50    6.40
  -6  -7   2   10.50    7.00
   5   7  -2    6.60    8.80
   5   7  -2   14.10    9.00
  -5  -7   2   18.30    6.60
  -5  -7   2   23.30    6.10
   4   7  -2   16.00    3.50
   4   7  -2   14.60    7.70
   4   7  -2   22.20    7.70
  -4  -7   2   18.50    5.50
  -4  -7   2   21.40    5.70
  -4  -7   2    8.20    4.90
  -4  -7   2   14.00    3.20
   3   7  -2   88.99   11.40
   3   7  -2  106.49    7.10
   3   7  -2   94.89   12.40
  -3  -7   2  107.09    7.20
  -3  -7   2  112.39    8.90
  -3  -7   2  111.49    9.00
   2   7  -2   11.90    3.20
   2   7  -2   27.40    6.20
   2   7  -2   17.40    3.20
   2   7  -2   17.50    5.80
  -2  -7   2   12.90    4.00
  -2  -7   2   17.50    3.10
  -2  -7   2   19.90    3.70
  -2  -7   2   10.40    3.60
  -2  -7   2   14.40    4.70
   1   7  -2   -3.10    1.80
   1   7  -2   -3.60    4.00
   1   7  -2   -4.50    2.70
   1   7  -2   -1.20    2.50
   1   7  -2   -4.00    4.10
   1   7  -2    1.70    2.00
  -1  -7   2   -1.60    2.90
  -1  -7   2   -0.20    3.50
  -1  -7   2    3.80    2.90
  -1  -7   2    0.10    2.80
  -1  -7   2    2.70    2.60
  -1  -7   2    0.30    3.00
   0   7  -2  123.19    8.00
   0   7  -2  113.29    6.70
   0   7  -2  132.59    7.80
   0   7  -2  112.29    7.10
   0  -7   2  117.59    7.10
   0  -7   2  111.89    7.30
   0  -7   2  104.29    9.50
   0  -7   2  123.69    8.20
   0  -7   2  121.09    6.80
   0  -7   2  113.89    7.10
  -1   7  -2   11.60    3.70
  -1   7  -2   12.40    2.30
  -1   7  -2   14.50    3.30
  -1   7  -2   10.50    3.10
   1  -7   2   14.40    3.90
   1  -7   2   13.00    4.20
   1  -7   2   12.70    2.90
   1  -7   2   19.00    4.00
  -2   7  -2  509.55   21.50
  -2   7  -2  498.55   22.10
  -2   7  -2  516.05   21.90
   2  -7   2  483.95   21.60
   2  -7   2  509.15   20.60
   2  -7   2  532.35   21.00
   2  -7   2  496.65   22.30
   2  -7   2  523.55   22.20
  -3   7  -2  541.45   21.80
  -3   7  -2  517.45   22.60
  -3   7  -2  551.54   23.60
  -3   7  -2  481.85   25.30
   3  -7   2  495.85   21.70
   3  -7   2  516.15   21.80
   3  -7   2  554.54   23.10
   3  -7   2  536.55   21.40
   3  -7   2  470.25   27.50
  -4   7  -2  142.39    9.00
  -4   7  -2  146.99   10.90
  -4   7  -2  113.39   10.10
   4  -7   2  141.59    8.80
   4  -7   2  145.09   10.90
   4  -7   2  147.09   10.50
   4  -7   2  134.09   10.30
   4  -7   2  143.09    8.00
  -5   7  -2    2.10    5.40
  -5   7  -2   10.60    5.00
   5  -7   2   16.20    5.80
   5  -7   2   -5.30    4.40
   5  -7   2    2.10    5.80
   5  -7   2    9.60    5.50
   6  -7   2   -3.60    5.40
   6  -7   2    0.20    6.80
   6  -7   2   -0.60    5.30
   6  -7   2    0.20    9.30
   7  -7   2   35.10    9.90
   7  -7   2   10.10    9.40
   7  -7   2   18.70    6.70
   7  -7   2   26.70    8.50
   7  -7   2   34.80    8.80
   7  -7   2   19.10    6.30
   7   6  -2   48.20   12.50
  -7  -6   2   32.80    9.50
   6   6  -2   21.90    9.80
   6   6  -2    9.70   10.30
  -6  -6   2   24.30    7.20
  -6  -6   2   17.70    6.50
   5   6  -2    9.90    8.60
   5   6  -2   20.00    3.90
   5   6  -2   11.60    8.10
  -5  -6   2   23.40    7.00
  -5  -6   2   16.10    5.50
  -5  -6   2   27.60    6.50
   4   6  -2   55.99    8.00
   4   6  -2   56.79    6.30
   4   6  -2   55.89    8.60
  -4  -6   2   71.09    5.60
  -4  -6   2   67.39    8.60
  -4  -6   2   58.29    6.80
  -4  -6   2   76.39    8.20
   3   6  -2   13.50    6.30
   3   6  -2   21.30    8.00
   3   6  -2    8.30    3.30
  -3  -6   2    7.30    4.30
  -3  -6   2   13.50    3.40
  -3  -6   2   12.70    4.50
  -3  -6   2   15.50    5.40
   2   6  -2    1.10    4.30
   2   6  -2   -1.30    4.90
   2   6  -2    3.40    2.60
   2   6  -2    3.60    2.70
  -2  -6   2   -0.10    2.80
  -2  -6   2    3.10    3.20
  -2  -6   2    1.10    2.10
  -2  -6   2   -0.50    3.20
  -2  -6   2    2.00    3.70
   1   6  -2  232.98   10.60
   1   6  -2  228.68   11.20
   1   6  -2  229.08   11.90
   1   6  -2  243.58   10.20
   1   6  -2  225.78   12.20
  -1  -6   2  235.98   11.00
  -1  -6   2  226.38   10.60
  -1  -6   2  220.28   10.60
  -1  -6   2  227.68   11.70
  -1  -6   2  247.28   11.70
  -1  -6   2  235.68   10.80
   0   6  -2  262.17   11.60
   0   6  -2  256.47   12.00
   0   6  -2  255.07   11.40
   0   6  -2  263.27   12.00
   0   6  -2  255.47   12.30
   0  -6   2  262.77   11.50
   0  -6   2  254.97   12.40
   0  -6   2  255.87   11.90
   0  -6   2  273.77   12.50
   0  -6   2  256.67   11.90
   0  -6   2  252.27   11.70
   0  -6   2  258.17   12.10
  -1   6  -2  183.58    9.10
  -1   6  -2  177.88    9.10
  -1   6  -2  175.28    8.10
  -1   6  -2  183.88    8.90
  -1   6  -2  182.28    9.60
   1  -6   2  173.98    9.40
   1  -6   2  182.88    9.20
   1  -6   2  178.48    9.10
   1  -6   2  181.68    9.60
   1  -6   2  172.88    8.90
   1  -6   2  181.78    9.50
   1  -6   2  176.58    9.30
  -2   6  -2  163.18    9.20
  -2   6  -2  172.18    9.10
  -2   6  -2  158.58    8.80
  -2   6  -2  176.68    7.70
   2  -6   2  155.98    8.20
   2  -6   2  154.88    7.80
   2  -6   2  171.08    9.40
   2  -6   2  171.18    7.80
   2  -6   2  166.68    9.50
  -3   6  -2  518.85   22.50
  -3   6  -2  501.35   22.00
  -3   6  -2  521.05   22.30
  -3   6  -2  533.85   21.50
   3  -6   2  484.75   21.60
   3  -6   2  493.45   21.00
   3  -6   2  529.15   22.30
   3  -6   2  518.45   22.50
   3  -6   2  509.35   21.30
  -4   6  -2  195.68   10.50
  -4   6  -2  179.98   11.50
   4  -6   2  181.98   11.00
   4  -6   2  165.98   11.40
   4  -6   2  181.88   10.20
   4  -6   2  177.48   11.70
  -5   6  -2   71.29    8.60
  -5   6  -2   44.80    6.90
   5  -6   2   48.60    7.10
   5  -6   2   47.70    6.80
   5  -6   2   68.09    9.10
   5  -6   2   48.40    8.20
   6  -6   2   20.20    6.00
   6  -6   2   33.70    8.80
   6  -6   2   30.80    6.20
   6  -6   2   32.40    7.60
   6  -6   2   44.30    7.50
   7  -6   2   10.80    6.30
   7  -6   2   28.20    9.90
   7  -6   2   16.90    8.00
   7  -6   2   30.80    9.90
   7  -6   2   25.90    8.20
   7  -6   2   14.70    7.20
   7   5  -2   -3.90    9.70
   7   5  -2   -9.30   10.70
  -7  -5   2    1.50    6.50
  -7  -5   2   -6.50    7.30
   6   5  -2   36.00   13.00
   6   5  -2   46.60    5.30
   6   5  -2   29.20    9.70
  -6  -5   2   37.50    7.80
  -6  -5   2   25.20    8.10
  -6  -5   2   38.30    6.50
   5   5  -2   -4.50    4.00
   5   5  -2    1.90    8.10
   5   5  -2   -5.60    6.80
  -5  -5   2    5.00    5.30
  -5  -5   2    6.70    6.00
  -5  -5   2    1.70    4.50
   4   5  -2   22.10    4.30
   4   5  -2   11.50    7.10
   4   5  -2   19.50    6.50
  -4  -5   2   23.90    4.80
  -4  -5   2   11.50    5.20
  -4  -5   2    9.80    3.60
  -4  -5   2   26.30    5.30
   3   5  -2   21.60    5.50
   3   5  -2   13.50    6.00
   3   5  -2   19.70    3.80
  -3  -5   2   12.50    4.10
  -3  -5   2   17.60    4.50
  -3  -5   2   24.60    3.50
  -3  -5   2   20.60    4.20
   2   5  -2 1028.90   42.50
   2   5  -2 1057.19   42.90
   2   5  -2 1061.29   41.80
   2   5  -2 1023.30   42.70
   2   5  -2 1030.30   42.40
  -2  -5   2 1113.59   42.40
  -2  -5   2  981.50   42.10
  -2  -5   2 1082.09   42.50
  -2  -5   2 1055.49   41.50
  -2  -5   2 1051.09   41.40
  -2  -5   2 1067.69   42.40
  -2  -5   2 1116.19   41.90
   1   5  -2  526.35   21.70
   1   5  -2  533.85   22.20
   1   5  -2  539.75   21.20
   1   5  -2  538.55   20.90
   1   5  -2  494.85   21.30
   1   5  -2  556.14   22.00
  -1  -5   2  530.05   21.10
  -1  -5   2  433.26   21.20
  -1  -5   2  495.45   21.20
  -1  -5   2  511.45   21.00
  -1  -5   2  535.75   21.40
  -1  -5   2  500.85   21.60
  -1  -5   2  538.65   21.80
   0   5  -2 1258.67   48.20
   0   5  -2 1232.58   47.90
   0   5  -2 1220.98   48.20
   0   5  -2 1193.88   48.20
   0   5  -2 1213.48   47.70
   0  -5   2 1191.98   47.80
   0  -5   2 1165.48   48.00
   0  -5   2 1183.68   48.00
   0  -5   2 1258.57   47.80
   0  -5   2 1284.07   48.40
   0  -5   2 1199.18   48.30
   0  -5   2 1171.88   47.90
  -1   5  -2  295.57   13.30
  -1   5  -2  296.17   13.00
  -1   5  -2  303.07   13.20
  -1   5  -2  278.67   12.50
  -1   5  -2  297.37   13.40
   1  -5   2  292.57   13.20
   1  -5   2  287.67   13.30
   1  -5   2  314.37   13.50
   1  -5   2  319.27   13.50
   1  -5   2  312.67   13.40
   1  -5   2  304.77   13.00
   1  -5   2  310.47   12.80
  -2   5  -2  118.09    7.50
  -2   5  -2  134.99    7.40
  -2   5  -2  137.89    7.30
  -2   5  -2  135.69    7.90
   2  -5   2  138.69    7.80
   2  -5   2  125.59    7.30
   2  -5   2  132.99    7.70
   2  -5   2  126.69    7.70
   2  -5   2  124.89    7.00
   2  -5   2  137.89    6.60
   2  -5   2  126.29    7.50
   2  -5   2  137.99    6.70
   2  -5   2  125.99    7.80
  -3   5  -2  175.98    9.70
  -3   5  -2  170.08    9.10
  -3   5  -2  158.68    9.70
  -3   5  -2  166.88    9.50
   3  -5   2  168.28    9.20
   3  -5   2  170.38    8.60
   3  -5   2  170.28    8.80
   3  -5   2  166.98   10.00
   3  -5   2  150.18   10.10
   3  -5   2  195.68   11.90
   3  -5   2  174.48    9.90
  -4   5  -2  283.37   17.50
  -4   5  -2  243.68   14.00
  -4   5  -2  247.88   13.30
   4  -5   2  268.67   13.80
   4  -5   2  273.67   13.90
  -5   5  -2  182.38   12.70
   5  -5   2  231.68   13.10
   5  -5   2  216.28   14.30
   5  -5   2  214.68   13.20
   5  -5   2  216.18   14.00
   6  -5   2   -3.20    6.20
   6  -5   2    0.10    7.80
   6  -5   2   -2.40    7.40
   6  -5   2   -0.90    5.70
   6  -5   2   -2.10    5.40
   7  -5   2   12.60    6.80
   7  -5   2    2.50    7.30
   7  -5   2    9.40    9.10
   7  -5   2   22.10    9.70
   7  -5   2    6.00    5.60
   7   4  -2  114.49   12.90
   7   4  -2  116.19   13.90
  -7  -4   2   69.59   11.00
  -7  -4   2   98.79   11.10
  -7  -4   2   95.39   11.60
   6   4  -2   -2.50    8.50
   6   4  -2  -10.80    4.70
   6   4  -2    8.00   10.60
  -6  -4   2    1.80    6.90
  -6  -4   2    3.30    6.40
  -6  -4   2   -0.70    4.90
   5   4  -2  157.68    9.30
   5   4  -2  135.89   13.90
   5   4  -2  136.39   12.90
  -5  -4   2  126.79    9.80
  -5  -4   2  132.39   10.80
  -5  -4   2   96.29   11.00
   4   4  -2   23.80    4.80
   4   4  -2   29.40    7.40
   4   4  -2   40.70    6.90
  -4  -4   2   22.50    4.50
  -4  -4   2   24.30    5.50
  -4  -4   2   32.50    5.40
   3   4  -2 1007.30   42.20
   3   4  -2 1065.99   43.10
   3   4  -2 1044.80   42.70
   3   4  -2 1098.09   41.80
  -3  -4   2 1053.09   42.20
  -3  -4   2 1059.49   41.60
  -3  -4   2 1045.00   42.50
  -3  -4   2 1018.90   42.60
   2   4  -2  862.61   36.20
   2   4  -2  914.61   35.90
   2   4  -2  891.01   36.80
   2   4  -2  867.41   36.20
   2   4  -2  893.81   36.40
   2   4  -2  929.61   36.30
  -2  -4   2  934.81   35.90
  -2  -4   2  837.32   36.40
  -2  -4   2  899.01   36.30
  -2  -4   2  914.01   36.40
  -2  -4   2  947.81   36.40
  -2  -4   2  951.10   36.50
   1   4  -2 1479.85   54.19
   1   4  -2 1352.86   54.29
   1   4  -2 1373.36   54.39
   1   4  -2 1337.37   54.29
   1   4  -2 1370.56   54.49
   1   4  -2 1374.96   54.69
  -1  -4   2 1347.37   53.99
  -1  -4   2 1371.66   54.09
  -1  -4   2 1367.96   54.59
  -1  -4   2 1390.66   54.19
  -1  -4   2 1420.76   54.59
  -1  -4   2 1430.86   54.39
  -1  -4   2 1305.57   54.19
  -1  -4   2 1419.16   54.19
   0   4  -2    3.70    2.40
   0   4  -2    4.50    2.00
   0   4  -2   11.10    2.30
   0   4  -2    8.20    2.10
   0   4  -2    8.00    2.30
   0  -4   2    7.90    2.30
   0  -4   2    7.70    2.00
   0  -4   2   10.20    2.10
   0  -4   2    5.00    2.10
   0  -4   2    7.30    2.50
   0  -4   2   11.50    2.30
   0  -4   2    9.40    2.70
  -1   4  -2  320.07   13.90
  -1   4  -2  334.47   13.90
  -1   4  -2  315.57   13.90
  -1   4  -2  319.67   13.50
  -1   4  -2  326.27   13.40
   1  -4   2  332.17   13.60
   1  -4   2  310.57   13.60
   1  -4   2  337.67   14.10
   1  -4   2  324.47   13.90
   1  -4   2  319.37   13.80
   1  -4   2  341.97   14.00
  -2   4  -2  112.49    7.10
  -2   4  -2  114.49    6.70
  -2   4  -2  106.79    6.60
  -2   4  -2  125.89    6.30
   2  -4   2  111.79    6.10
   2  -4   2  113.29    6.30
   2  -4   2  127.19    9.10
   2  -4   2  108.49    6.60
   2  -4   2  116.59    7.40
   2  -4   2  113.79    6.60
   2  -4   2  107.79    6.60
   2  -4   2  108.99    5.90
  -3   4  -2  267.57   12.40
  -3   4  -2  244.68   12.70
  -3   4  -2  265.27   12.90
  -3   4  -2  269.27   12.50
   3  -4   2  266.77   12.70
   3  -4   2  278.47   12.70
   3  -4   2  256.67   12.60
   3  -4   2  255.57   12.30
   3  -4   2  267.67   12.30
   3  -4   2  262.27   12.20
  -4   4  -2  425.26   19.70
  -4   4  -2  404.96   19.80
  -4   4  -2  444.96   19.10
   4  -4   2  453.45   19.50
   4  -4   2  426.66   19.70
   4  -4   2  442.46   19.60
  -5   4  -2  235.18   14.10
  -5   4  -2  256.67   13.20
   5  -4   2  251.97   13.90
   5  -4   2  244.68   14.60
   5  -4   2  243.68   13.60
   5  -4   2  238.28   15.00
  -6   4  -2   27.60    6.20
   6  -4   2   24.20    5.80
   6  -4   2   38.80    8.30
   6  -4   2   31.20    6.00
   6  -4   2   27.90    6.70
   6  -4   2   23.40    8.10
   7  -4   2    6.50    6.20
   7  -4   2   13.20    8.90
   7  -4   2    3.70    7.00
   7  -4   2   12.80    9.00
   7  -4   2    4.00    5.90
   7   3  -2    8.10    6.00
   7   3  -2    0.60   10.20
   7   3  -2   -2.20    9.60
  -7  -3   2  -18.70    7.10
  -7  -3   2   -1.10    5.90
  -7  -3   2   -7.70    7.20
   6   3  -2   69.19   10.30
   6   3  -2   44.50    7.00
  -6  -3   2   47.90    6.50
  -6  -3   2   54.19   13.10
  -6  -3   2   53.99    8.20
   5   3  -2   32.20    7.60
   5   3  -2   33.70    8.00
   5   3  -2   38.30    5.80
  -5  -3   2   38.10    7.00
  -5  -3   2   41.60    6.30
  -5  -3   2   42.40    5.30
   4   3  -2   14.80    4.00
   4   3  -2   10.80    6.50
   4   3  -2   -3.60    5.30
   4   3  -2    3.50    4.50
  -4  -3   2    2.30    3.20
  -4  -3   2    5.10    3.40
  -4  -3   2    0.50    4.30
  -4  -3   2    3.20    4.60
   3   3  -2  139.89    8.10
   3   3  -2  138.29    9.30
   3   3  -2  133.09   10.10
   3   3  -2  131.19    7.80
  -3  -3   2  134.19    7.30
  -3  -3   2  137.59    7.90
  -3  -3   2  132.59    8.60
  -3  -3   2  135.89    8.50
   2   3  -2   48.60    4.90
   2   3  -2   39.90    4.30
   2   3  -2   52.99    4.70
   2   3  -2   51.09    5.10
   2   3  -2   52.49    7.00
  -2  -3   2   48.30    4.80
  -2  -3   2   40.30    4.50
  -2  -3   2   44.70    5.10
  -2  -3   2   44.80    4.90
   1   3  -2  141.49    7.80
   1   3  -2  149.69    7.40
   1   3  -2  143.49    7.00
   1   3  -2  147.29    7.10
   1   3  -2  155.48    6.90
   1   3  -2  142.89    7.00
  -1  -3   2  142.39    6.90
  -1  -3   2  133.89    6.30
  -1  -3   2  144.49    7.50
  -1  -3   2  129.89    6.70
  -1  -3   2  143.39    6.70
  -1  -3   2  147.49    7.10
   0   3  -2 3210.88  121.19
   0   3  -2 3011.10  120.79
   0   3  -2 3068.29  120.99
   0   3  -2 3050.29  121.09
   0   3  -2 3029.70  120.99
   0   3  -2 3098.09  120.89
   0  -3   2 2971.10  120.99
   0  -3   2 3266.37  120.99
   0  -3   2 3154.28  121.19
   0  -3   2 3440.46  121.49
   0  -3   2 2982.50  120.99
  -1   3  -2  143.99    7.30
  -1   3  -2  153.18    6.80
  -1   3  -2  144.09    7.10
  -1   3  -2  145.69    6.70
   1  -3   2  152.78    7.10
   1  -3   2  152.48    6.50
   1  -3   2  144.39    6.80
   1  -3   2  160.38    7.10
   1  -3   2  149.19    7.70
   1  -3   2  155.98    7.30
   1  -3   2  149.59    7.30
  -2   3  -2  671.73   26.90
  -2   3  -2  663.93   26.90
  -2   3  -2  685.33   27.00
  -2   3  -2  661.43   27.10
  -2   3  -2  704.93   26.90
   2  -3   2  642.04   26.60
   2  -3   2  700.93   26.80
   2  -3   2  617.14   26.80
   2  -3   2  665.93   27.00
   2  -3   2  661.23   26.90
   2  -3   2  651.73   26.90
   2  -3   2  673.13   26.80
  -3   3  -2  126.09    8.00
  -3   3  -2  132.59    8.00
  -3   3  -2  110.99    7.60
  -3   3  -2  124.59    7.90
  -3   3  -2  139.29    8.30
   3  -3   2  136.29    7.90
   3  -3   2  138.29    7.80
   3  -3   2  127.19    7.10
   3  -3   2  140.99    7.60
   3  -3   2  133.39    7.50
   3  -3   2  139.19    7.60
   3  -3   2  140.89    7.80
  -4   3  -2   89.59    8.70
  -4   3  -2  110.49    8.50
  -4   3  -2  122.09    8.50
   4  -3   2  109.69    8.40
   4  -3   2  109.69    8.20
   4  -3   2   93.39    9.40
  -5   3  -2   54.79    6.00
  -5   3  -2   33.40    6.30
   5  -3   2   39.10    6.80
   5  -3   2   24.30   10.00
   5  -3   2   36.70    6.90
   5  -3   2   28.70    5.20
  -6   3  -2    7.00    5.60
   6  -3   2    7.30    7.40
   6  -3   2    9.40    5.90
   6  -3   2   -5.80    5.50
   6  -3   2    2.90    6.90
  -7   3  -2   12.10    6.70
   7  -3   2   -6.60    8.80
   7  -3   2   -0.50    8.60
   7  -3   2    6.70    6.70
   7  -3   2    7.70    5.50
   7  -3   2    0.90    5.80
   7   2  -2   39.20   11.00
   7   2  -2   48.90    7.50
   7   2  -2   53.39   11.20
  -7  -2   2   35.30    9.00
  -7  -2   2   41.20    6.60
  -7  -2   2   42.60    8.50
   6   2  -2   24.20   10.50
   6   2  -2   13.10    6.60
   6   2  -2   23.70    9.20
  -6  -2   2    5.00   10.10
  -6  -2   2   12.50    6.50
  -6  -2   2   12.30    4.90
   5   2  -2   11.60    5.40
   5   2  -2   13.20    6.70
   5   2  -2    6.90    7.00
  -5  -2   2   14.00    5.20
  -5  -2   2    8.60    3.80
  -5  -2   2   15.70    5.80
   4   2  -2   51.49    7.00
   4   2  -2   33.70    4.60
   4   2  -2   45.10    5.60
  -4  -2   2   53.39    6.00
  -4  -2   2   43.90    6.10
  -4  -2   2   43.50    4.40
   3   2  -2   24.50    3.20
   3   2  -2   21.80    4.80
   3   2  -2   32.30    4.00
   3   2  -2   30.30    4.40
  -3  -2   2   33.00    4.10
  -3  -2   2   31.70    3.40
  -3  -2   2   28.20    3.20
  -3  -2   2   29.30    3.90
   2   2  -2    2.70    2.00
   2   2  -2   -0.50    2.30
   2   2  -2   -1.90    2.20
   2   2  -2    1.50    2.60
   2   2  -2    7.00    2.60
   2   2  -2    1.30    2.80
   2   2  -2   -1.00    2.90
  -2  -2   2    4.50    2.50
  -2  -2   2    1.90    2.40
  -2  -2   2    2.10    2.70
  -2  -2   2    0.20    2.30
  -2  -2   2    1.10    2.20
   1   2  -2 7214.38  291.67
   1   2  -2 8179.28  291.87
   1   2  -2 7490.35  291.67
   1   2  -2 7496.15  291.67
   1   2  -2 7574.24  291.77
   1   2  -2 7368.56  291.37
  -1  -2   2 7756.02  291.77
  -1  -2   2 7923.71  291.87
  -1  -2   2 7246.08  291.77
  -1  -2   2 7562.64  291.67
  -1  -2   2 7097.69  291.37
   0   2  -2  671.03   27.00
   0   2  -2  656.43   27.00
   0   2  -2  682.33   26.70
   0   2  -2  661.63   26.90
   0   2  -2  703.83   27.10
   0   2  -2  693.43   27.00
   0  -2   2  661.73   27.00
   0  -2   2  625.44   26.90
   0  -2   2  681.33   27.00
   0  -2   2  734.43   26.80
   0  -2   2  652.83   27.00
   0  -2   2  739.03   27.10
  -1   2  -2    8.20    1.70
  -1   2  -2    0.20    1.80
   1  -2   2    4.90    1.80
   1  -2   2    7.50    3.10
  -2   2  -2  746.33   30.00
  -2   2  -2  733.13   29.90
  -2   2  -2  748.93   29.80
  -2   2  -2  763.62   29.80
  -2   2  -2  741.43   29.80
  -2   2  -2  800.02   30.10
  -2   2  -2  739.83   29.90
   2  -2   2  747.13   29.80
   2  -2   2  717.13   29.80
   2  -2   2  716.33   29.70
   2  -2   2  728.43   29.90
   2  -2   2  768.72   29.90
   2  -2   2  765.92   29.90
   2  -2   2  722.43   29.70
  -3   2  -2  187.28   10.00
  -3   2  -2  197.58    9.90
  -3   2  -2  219.38   10.50
  -3   2  -2  216.38   10.00
   3  -2   2  192.28   10.10
   3  -2   2  201.88    9.90
   3  -2   2  206.48    9.90
   3  -2   2  198.68   10.50
   3  -2   2  194.88   10.60
   3  -2   2  200.78   10.00
   3  -2   2  205.18   10.10
   3  -2   2  200.28    9.60
  -4   2  -2   42.70    5.10
  -4   2  -2   58.99    7.10
  -4   2  -2   49.90    5.90
   4  -2   2   41.00    4.80
   4  -2   2   67.19    8.60
   4  -2   2   55.09    6.80
   4  -2   2   42.20    5.80
  -5   2  -2   15.30    5.60
  -5   2  -2   21.80    5.20
  -5   2  -2   16.20    5.00
   5  -2   2    6.40    4.10
   5  -2   2   20.40    6.30
   5  -2   2    8.70    4.90
   5  -2   2   15.00    6.20
  -6   2  -2    5.20    5.70
  -6   2  -2   19.00    6.40
   6  -2   2   -6.20    7.30
   6  -2   2   -0.10    4.40
   6  -2   2    6.00    7.30
   6  -2   2    7.10    5.60
  -7   2  -2    2.70    6.90
   7  -2   2   15.60    6.70
   7  -2   2   13.70    8.90
   7  -2   2   10.30    9.40
   7   1  -2   12.10   10.20
   7   1  -2   18.20    7.20
   7   1  -2   28.80   10.10
  -7  -1   2   -3.30    7.60
  -7  -1   2   19.00    7.40
  -7  -1   2    6.00    7.70
   6   1  -2  270.57   17.60
   6   1  -2  252.37   14.30
   6   1  -2  207.38   16.60
  -6  -1   2  244.08   12.70
  -6  -1   2  240.98   14.70
  -6  -1   2  199.48   15.40
   5   1  -2    7.60    3.60
   5   1  -2   -0.30    6.40
   5   1  -2    9.40    5.30
   5   1  -2   -0.80    6.70
  -5  -1   2    3.10    4.70
  -5  -1   2    4.20    3.60
  -5  -1   2    9.90    5.40
   4   1  -2  112.59    8.90
   4   1  -2   95.69    7.00
   4   1  -2  104.59   11.00
  -4  -1   2   94.39    7.30
  -4  -1   2  104.09    8.40
  -4  -1   2  106.49    6.90
  -4  -1   2  103.19   12.40
   3   1  -2   56.89    6.10
   3   1  -2   65.49    7.10
   3   1  -2   57.09    4.70
   3   1  -2   65.09    5.60
  -3  -1   2   54.19    5.60
  -3  -1   2   50.29    5.70
  -3  -1   2   50.49    4.90
  -3  -1   2   55.59    5.10
   2   1  -2   -1.50    2.10
   2   1  -2    1.60    2.60
   2   1  -2    0.40    2.20
   2   1  -2   -1.70    2.60
   2   1  -2   -0.60    1.50
   2   1  -2    3.40    2.30
  -2  -1   2    4.60    2.50
  -2  -1   2    2.20    1.60
  -2  -1   2    6.40    2.30
  -2  -1   2    3.30    2.40
  -2  -1   2    5.80    2.60
   1   1  -2   13.40    2.60
   1   1  -2   10.20    3.00
   1   1  -2   16.00    2.30
   1   1  -2   13.30    2.60
   1   1  -2    9.10    1.70
   1   1  -2   17.40    3.00
  -1  -1   2   12.80    2.60
  -1  -1   2   13.20    1.70
  -1  -1   2    5.50    2.40
  -1  -1   2   12.30    2.70
  -1  -1   2    6.90    1.80
   0   1  -2 1679.63   66.19
   0   1  -2 1665.63   66.19
   0   1  -2 1680.13   66.09
   0   1  -2 1670.73   66.19
   0   1  -2 1745.63   66.19
   0  -1   2 1678.93   66.29
   0  -1   2 1786.52   66.19
   0  -1   2 1617.64   66.19
   0  -1   2 1617.24   66.09
   0  -1   2 1870.71   66.19
   0  -1   2 1703.83   66.39
  -1   1  -2    4.80    2.10
  -1   1  -2   11.50    1.80
   1  -1   2    9.80    2.20
   1  -1   2    4.40    2.00
   1  -1   2    2.60    2.10
   1  -1   2    4.90    2.20
   1  -1   2    5.40    2.20
   1  -1   2    4.30    2.10
  -2   1  -2  113.69    7.00
  -2   1  -2  144.39    6.80
  -2   1  -2  131.49    6.80
  -2   1  -2  129.49    6.70
   2  -1   2  115.89    6.50
   2  -1   2  126.49    6.70
   2  -1   2  126.59    6.20
   2  -1   2  122.49    6.50
   2  -1   2  116.99    6.80
   2  -1   2  123.09    6.70
   2  -1   2  130.49    6.90
   2  -1   2  123.29    6.40
  -3   1  -2   57.19    5.60
  -3   1  -2   58.99    6.30
  -3   1  -2   57.69    5.20
  -3   1  -2   62.19    5.60
   3  -1   2   58.49    5.60
   3  -1   2   52.09    4.80
   3  -1   2   54.29    5.90
   3  -1   2   50.69    5.00
   3  -1   2   62.99    4.80
   3  -1   2   58.99    5.10
   3  -1   2   61.59    5.30
   3  -1   2   56.59    5.40
   3  -1   2   57.09    6.40
  -4   1  -2    1.40    3.50
  -4   1  -2    5.40    4.80
  -4   1  -2    7.30    4.10
   4  -1   2    7.10    4.90
   4  -1   2   -0.30    3.50
   4  -1   2    8.60    3.70
   4  -1   2    4.90    4.90
  -5   1  -2    6.40    5.50
  -5   1  -2   16.90    5.10
  -5   1  -2   19.20    5.30
   5  -1   2   24.40    6.50
   5  -1   2   19.40    4.20
   5  -1   2   23.00    4.20
   5  -1   2   20.80    6.60
   5  -1   2   14.30    4.90
  -6   1  -2   34.90    6.50
  -6   1  -2   23.10    6.20
   6  -1   2   20.50    4.80
   6  -1   2   36.40    8.10
   6  -1   2   27.80    8.10
  -7   1  -2   15.00    7.30
  -7   1  -2   24.50    7.70
   7  -1   2   20.60    6.30
   7  -1   2   21.70    8.00
   7  -1   2   35.30   10.00
   7  -1   2   42.80    9.50
   7   0  -2   19.60    7.60
   7   0  -2   26.90   10.30
   7   0  -2   39.40   10.50
  -7   0   2   21.70    7.40
  -7   0   2   21.30    8.20
   6   0  -2   17.20    6.50
   6   0  -2   22.20    8.60
   6   0  -2   18.60    8.10
  -6   0   2   23.90    4.80
  -6   0   2   29.80    6.10
  -6   0   2   26.10    7.50
   5   0  -2  -13.30    5.10
   5   0  -2    3.20    6.10
   5   0  -2   -6.90    6.30
  -5   0   2    0.50    4.30
  -5   0   2    7.40    5.30
  -5   0   2   -0.70    3.30
   4   0  -2   10.30    3.00
   4   0  -2    1.40    4.70
   4   0  -2    5.30    5.50
  -4   0   2    4.90    3.70
  -4   0   2   14.20    3.00
   3   0  -2  451.25   19.60
   3   0  -2  496.15   19.50
   3   0  -2  492.85   21.10
   3   0  -2  495.35   20.40
   3   0  -2  493.75   20.60
   3   0  -2  485.95   19.60
  -3   0   2  465.85   20.90
  -3   0   2  507.45   21.10
  -3   0   2  467.55   19.60
  -3   0   2  523.05   20.50
   2   0  -2   74.19    5.40
   2   0  -2   80.69    5.60
   2   0  -2   66.99    3.90
   2   0  -2   84.59    4.50
   2   0  -2   73.69    5.60
   2   0  -2   76.59    6.00
   2   0  -2   69.89    5.10
  -2   0   2   82.89    3.90
  -2   0   2   80.79    5.50
  -2   0   2   94.59    5.20
  -2   0   2   91.69    5.20
  -2   0   2   75.19    4.50
  -2   0   2   86.59    5.90
   1   0  -2 3747.32  136.49
   1   0  -2 3502.05  136.39
   1   0  -2 3390.26  136.29
   1   0  -2 3592.94  136.29
   1   0  -2 3490.15  136.19
   1   0  -2 3347.67  136.39
  -1   0   2 3818.72  136.59
  -1   0   2 3655.43  136.29
  -1   0   2 3521.75  136.39
  -1   0   2 3414.06  136.39
  -1   0   2 3188.08  136.29
   0   0  -2  603.54   21.30
   0   0  -2  540.85   21.10
   0   0  -2  576.54   21.30
   0   0  -2  489.85   20.90
   0   0  -2  521.55   21.20
   0   0  -2  492.65   21.10
   0   0  -2  522.35   21.00
   0   0   2  517.95   21.00
   0   0   2  540.05   20.90
   0   0   2  524.85   21.30
   0   0   2  562.04   21.30
   0   0   2  528.35   21.30
   0   0   2  543.25   21.10
  -1   0  -2  431.16   17.10
  -1   0  -2  414.76   17.60
  -1   0  -2  484.55   17.50
  -1   0  -2  459.45   17.70
  -1   0  -2  421.46   17.40
   1   0   2  435.96   17.30
   1   0   2  412.06   17.00
   1   0   2  426.76   17.70
   1   0   2  408.66   17.40
   1   0   2  418.36   17.10
   1   0   2  444.06   17.60
   1   0   2  420.46   17.60
   1   0   2  419.06   17.50
  -2   0  -2    5.40    2.20
  -2   0  -2    2.10    2.20
  -2   0  -2    2.30    1.60
   2   0   2    4.30    2.00
   2   0   2    1.50    2.30
   2   0   2    1.80    2.60
   2   0   2    3.10    2.30
   2   0   2    2.70    2.00
   2   0   2    2.60    1.60
   2   0   2    3.10    2.10
   2   0   2    4.60    2.20
   2   0   2    4.50    2.60
  -3   0  -2   30.70    3.30
  -3   0  -2   29.60    4.30
  -3   0  -2   29.50    3.70
  -3   0  -2   28.90    3.70
   3   0   2   23.00    3.30
   3   0   2   32.80    4.20
   3   0   2   28.20    3.10
   3   0   2   24.70    3.50
   3   0   2   32.20    4.00
   3   0   2   21.90    4.10
   3   0   2   27.80    2.80
   3   0   2   24.70    3.40
  -4   0  -2   -4.30    3.00
  -4   0  -2    7.40    4.60
  -4   0  -2    4.90    6.90
  -4   0  -2    4.60    3.70
   4   0   2    4.60    3.20
   4   0   2    7.60    5.10
   4   0   2    3.90    3.40
   4   0   2    1.00    5.00
   4   0   2    1.70    2.80
  -5   0  -2   83.29   10.20
  -5   0  -2  101.99    9.40
   5   0   2  108.49   11.10
   5   0   2   97.19   11.10
   5   0   2   97.39    7.10
   5   0   2  108.29    8.10
   5   0   2  103.99    7.10
  -6   0  -2   57.19    7.10
  -6   0  -2   66.09    7.80
   6   0   2   48.30    6.20
   6   0   2   62.69    9.00
   6   0   2   63.89    6.60
   6   0   2   70.49    9.70
  -7   0  -2   -7.50    6.60
  -7   0  -2   -8.20    6.60
   7   0   2    7.00    8.90
   7   0   2    4.90    9.20
   7   0   2   -2.20    6.50
   7  -1  -2   22.10    7.80
   7  -1  -2   33.10   10.00
   7  -1  -2   33.10   10.50
  -7   1   2   26.00    8.30
  -7   1   2   41.00    7.90
   6  -1  -2   50.29    9.30
   6  -1  -2   47.10    9.60
   6  -1  -2   39.30    7.50
  -6   1   2   51.99    6.90
  -6   1   2   43.50    7.90
   5  -1  -2    3.00    5.70
   5  -1  -2    1.50    2.80
   5  -1  -2   -4.40    3.20
   5  -1  -2   -8.20    6.00
   5  -1  -2    2.90    2.90
  -5   1   2    3.20    4.30
  -5   1   2    5.50    5.10
   4  -1  -2   65.79    8.30
   4  -1  -2   69.69    5.40
   4  -1  -2   79.79    6.30
   4  -1  -2   59.89    7.70
   4  -1  -2   80.59    5.70
  -4   1   2   54.59    6.70
  -4   1   2   56.79    7.30
  -4   1   2   75.89    7.00
   3  -1  -2  247.08   11.70
   3  -1  -2  239.98   11.70
   3  -1  -2  235.78   12.00
   3  -1  -2  229.98   11.60
  -3   1   2  247.48   10.80
  -3   1   2  220.48   10.90
  -3   1   2  221.78    9.80
  -3   1   2  212.18   11.30
  -3   1   2  234.08   11.70
   2  -1  -2 2878.41  107.49
   2  -1  -2 2718.23  107.39
   2  -1  -2 2552.64  107.39
   2  -1  -2 2845.92  107.39
   2  -1  -2 2602.34  107.29
   2  -1  -2 2676.73  106.99
   2  -1  -2 2776.22  107.09
  -2   1   2 2783.82  107.29
  -2   1   2 2964.30  107.69
  -2   1   2 2780.92  106.99
  -2   1   2 2739.53  107.29
  -2   1   2 2727.53  107.39
   1  -1  -2 8451.25  349.17
   1  -1  -2 9807.52  349.27
   1  -1  -2 8448.66  349.07
   1  -1  -2 9999.00  349.27
   1  -1  -2 8570.04  349.07
   1  -1  -2 8813.82  349.07
  -1   1   2 9620.54  349.27
  -1   1   2 9019.60  348.87
  -1   1   2 8866.81  348.97
  -1   1   2 8939.51  349.07
  -1   1   2 8704.63  349.07
   0  -1  -2  256.47   10.80
   0  -1  -2  259.57   11.00
   0  -1  -2  252.07   10.60
   0  -1  -2  258.07   10.70
   0  -1  -2  239.98   10.30
   0  -1  -2  262.17   10.90
   0   1   2  262.37   10.80
   0   1   2  258.67   10.30
   0   1   2  250.87   10.50
   0   1   2  256.87   10.60
   0   1   2  255.47   10.90
   0   1   2  257.07   11.10
  -1  -1  -2    5.80    1.60
  -1  -1  -2    5.60    1.80
  -1  -1  -2    6.90    2.00
   1   1   2    7.70    1.70
   1   1   2   -1.00    2.60
  -2  -1  -2   75.79    5.30
  -2  -1  -2   77.59    5.20
  -2  -1  -2   76.29    4.60
  -2  -1  -2   72.89    5.40
   2   1   2   75.69    5.60
   2   1   2   74.39    5.10
   2   1   2   71.89    6.00
   2   1   2   71.19    5.50
   2   1   2   67.19    4.80
   2   1   2   73.39    5.00
  -3  -1  -2  437.06   18.60
  -3  -1  -2  433.46   18.60
  -3  -1  -2  434.36   18.00
   3   1   2  412.06   17.50
   3   1   2  421.76   17.40
   3   1   2  461.85   19.20
   3   1   2  442.46   18.60
   3   1   2  419.76   18.50
   3   1   2  425.56   17.90
  -4  -1  -2   23.90    3.60
  -4  -1  -2   17.70    4.70
  -4  -1  -2   21.40    4.60
   4   1   2   21.50    3.50
   4   1   2   25.00    3.30
   4   1   2   30.70    3.80
   4   1   2   28.80    5.90
  -5  -1  -2    6.00    5.10
  -5  -1  -2    5.40    4.70
   5   1   2   22.10    4.20
   5   1   2    5.30    4.80
   5   1   2   12.90    6.90
   5   1   2    7.60    6.30
   5   1   2   -6.50    5.70
  -6  -1  -2   29.70    6.90
  -6  -1  -2   30.90    6.40
   6   1   2   41.60    8.50
   6   1   2   33.50    4.80
   6   1   2   24.60    8.80
  -7  -1  -2    9.10    7.40
  -7  -1  -2    3.10    6.50
   7   1   2   10.20    7.30
   7   1   2   -0.90    8.20
   7   1   2   19.40    9.60
   7  -2  -2    8.80    9.60
   7  -2  -2    9.40    7.90
   7  -2  -2   -6.90    9.40
  -7   2   2    7.70    7.50
   6  -2  -2   13.40    8.40
   6  -2  -2    6.10    4.00
   6  -2  -2    2.80    3.50
   6  -2  -2   13.00    7.90
   6  -2  -2   19.50    7.10
  -6   2   2   13.80    5.40
  -6   2   2   18.80    6.70
   5  -2  -2   13.40    3.10
   5  -2  -2    5.10    4.10
   5  -2  -2   13.40    3.00
   5  -2  -2   19.40    5.90
   5  -2  -2    3.90    6.30
   5  -2  -2   22.10    4.60
  -5   2   2   11.70    5.30
  -5   2   2   14.40    6.00
  -5   2   2    6.30    5.10
   4  -2  -2    7.60    2.60
   4  -2  -2    8.70    3.80
   4  -2  -2    0.60    3.30
   4  -2  -2    9.40    5.10
   4  -2  -2    6.80    3.00
  -4   2   2   -0.60    7.80
  -4   2   2    1.60    3.30
  -4   2   2    3.10    4.10
   3  -2  -2   51.89    3.60
   3  -2  -2   54.09    5.10
   3  -2  -2   57.49    3.90
   3  -2  -2   53.89    5.60
   3  -2  -2   57.39    6.50
   3  -2  -2   58.29    6.40
  -3   2   2   48.90    4.80
  -2   2   2  135.39    7.50
  -2   2   2  127.99    6.30
  -2   2   2  148.69    7.20
  -2   2   2  132.39    7.50
  -2   2   2  127.79    7.10
   1  -2  -2 1798.22   66.79
   1  -2  -2 1795.02   66.89
   1  -2  -2 1670.13   66.59
   1  -2  -2 1745.23   66.19
   1  -2  -2 1634.44   66.59
   1  -2  -2 1592.24   66.19
   1  -2  -2 1692.23   66.99
  -1   2   2 1588.94   66.19
  -1   2   2 1665.93   66.09
  -1   2   2 1841.52   66.79
  -1   2   2 1719.13   66.59
  -1   2   2 1704.13   66.59
  -1   2   2 1724.73   66.69
   0  -2  -2   21.60    3.10
   0  -2  -2   21.80    2.30
   0  -2  -2   26.60    3.20
   0  -2  -2   25.20    2.70
   0   2   2   21.20    3.10
   0   2   2   36.60    3.50
   0   2   2   26.40    2.40
   0   2   2   26.10    2.20
   0   2   2   24.80    3.00
  -1  -2  -2   27.60    3.30
  -1  -2  -2   34.60    4.10
  -1  -2  -2   32.50    3.10
  -1  -2  -2   28.70    2.70
  -1  -2  -2   29.60    3.40
  -1  -2  -2   32.10    3.10
   1   2   2   25.50    3.60
   1   2   2   30.40    2.80
   1   2   2   31.30    3.00
   1   2   2   28.70    3.10
   1   2   2   34.90    3.80
   1   2   2   33.30    3.00
  -2  -2  -2  246.28   12.60
  -2  -2  -2  241.48   11.00
  -2  -2  -2  242.58   11.40
  -2  -2  -2  253.57   11.50
  -2  -2  -2  256.87   11.50
   2   2   2  248.98   11.00
   2   2   2  260.57   11.70
   2   2   2  250.87   11.60
   2   2   2  249.48   12.00
   2   2   2  254.17   11.60
  -3  -2  -2   39.10    4.20
  -3  -2  -2   29.70    4.10
  -3  -2  -2   29.80    3.10
   3   2   2   30.50    5.00
   3   2   2   32.60    3.40
   3   2   2   31.60    4.70
  -4  -2  -2  336.27   15.70
  -4  -2  -2  313.27   15.50
  -4  -2  -2  313.17   14.00
   4   2   2  307.77   13.90
   4   2   2  310.47   16.50
   4   2   2  323.37   16.90
  -5  -2  -2   86.09    9.50
  -5  -2  -2   91.09    9.10
   5   2   2   75.69    8.90
   5   2   2   88.59   10.90
   5   2   2   71.39    5.90
  -6  -2  -2   14.80    6.10
   6   2   2   10.30    7.10
   6   2   2   -9.70    7.20
  -7  -2  -2   14.00    7.90
   7   2   2   12.90    7.50
   7   2   2   -5.80    9.40
   7   2   2    9.00    8.90
   7  -3  -2   10.60    9.10
   7  -3  -2   12.10    9.70
   7  -3  -2    8.40    9.70
  -7   3   2    6.40    7.60
  -7   3   2    5.80    6.40
   6  -3  -2   12.70    7.00
   6  -3  -2    7.60    4.90
   6  -3  -2    3.20    3.10
   6  -3  -2   23.30    8.30
  -6   3   2   11.10    6.40
  -6   3   2   12.40    5.30
   5  -3  -2   19.90    3.10
   5  -3  -2   34.10    7.00
   5  -3  -2   37.40    6.40
   5  -3  -2   28.10    5.00
   5  -3  -2   17.30    3.10
  -5   3   2   26.30    4.70
  -5   3   2   12.80    6.00
  -5   3   2   15.90    5.30
   4  -3  -2   17.70    4.40
   4  -3  -2   14.90    2.90
   4  -3  -2   15.30    5.30
   4  -3  -2   14.50    2.60
   4  -3  -2    4.50    5.00
   4  -3  -2   18.20    3.80
   4  -3  -2   19.10    3.90
  -4   3   2   10.10    4.40
  -4   3   2   16.50    5.30
  -4   3   2   12.30    3.40
   3  -3  -2    3.20    3.20
   3  -3  -2    0.80    1.80
   3  -3  -2   -0.70    3.10
   3  -3  -2    1.40    3.40
   3  -3  -2   -2.10    1.70
   3  -3  -2   -2.20    2.30
  -3   3   2    4.50    3.30
  -3   3   2    1.60    2.10
  -3   3   2   -6.10    2.80
  -3   3   2    0.40    3.40
   2  -3  -2  547.85   21.80
   2  -3  -2  487.85   20.80
   2  -3  -2  527.95   21.80
   2  -3  -2  471.65   20.80
   2  -3  -2  508.05   21.80
  -2   3   2  526.95   21.60
  -2   3   2  531.55   21.90
  -2   3   2  543.95   20.80
  -2   3   2  531.95   21.90
  -2   3   2  564.04   21.80
   1  -3  -2   27.20    3.00
   1  -3  -2   30.50    3.70
   1  -3  -2   24.60    3.10
   1  -3  -2   21.20    2.80
   1  -3  -2   28.10    3.10
   1  -3  -2   21.90    2.30
  -1   3   2   29.60    2.90
  -1   3   2   28.90    3.40
  -1   3   2   25.90    2.90
  -1   3   2   25.90    3.20
  -1   3   2   26.20    3.10
  -1   3   2   28.20    2.70
   0  -3  -2  283.77   11.50
   0  -3  -2  263.97   11.20
   0  -3  -2  245.68   10.60
   0  -3  -2  244.78   11.70
   0  -3  -2  258.47   10.90
   0  -3  -2  258.07   11.00
   0   3   2  261.67   10.50
   0   3   2  254.27   11.10
   0   3   2  272.27   11.30
   0   3   2  260.97   11.30
   0   3   2  256.17   11.50
   0   3   2  248.98   11.00
  -1  -3  -2   49.50    4.40
  -1  -3  -2   53.29    4.90
  -1  -3  -2   56.09    4.80
  -1  -3  -2   53.59    4.30
  -1  -3  -2   57.39    4.30
  -1  -3  -2   45.50    5.20
   1   3   2   51.29    4.50
   1   3   2   61.79    4.00
   1   3   2   54.29    4.60
   1   3   2   57.19    4.70
   1   3   2   57.69    4.60
   1   3   2   48.00    6.00
  -2  -3  -2  411.26   17.50
  -2  -3  -2  424.56   17.80
  -2  -3  -2  396.46   17.50
  -2  -3  -2  408.46   17.20
  -2  -3  -2  401.96   17.10
   2   3   2  407.66   17.20
   2   3   2  436.16   17.70
   2   3   2  402.26   17.10
   2   3   2  416.26   18.10
   2   3   2  417.36   17.70
   2   3   2  411.46   17.60
   2   3   2  401.86   17.50
  -3  -3  -2   60.89    5.40
  -3  -3  -2   67.29    6.70
  -3  -3  -2   70.69    6.70
  -3  -3  -2   72.49    5.90
   3   3   2   56.89    6.80
   3   3   2   73.49    8.20
   3   3   2   74.09    8.70
   3   3   2   68.09    5.50
  -4  -3  -2   26.90    4.90
  -4  -3  -2   27.00    3.50
   4   3   2   30.10    6.70
   4   3   2   32.40    5.40
   4   3   2   23.80    6.40
   4   3   2   25.80    3.50
  -5  -3  -2    9.80    5.00
  -5  -3  -2   13.20    5.50
   5   3   2    6.90    5.10
   5   3   2   12.20    2.80
   5   3   2   -1.40    7.00
   5   3   2   19.20    7.20
  -6  -3  -2   -1.20    5.70
  -6  -3  -2    9.80    6.40
   6   3   2    3.20    5.90
   6   3   2    7.90    8.30
   6   3   2    7.10    8.70
  -7  -3  -2    4.40    6.70
  -7  -3  -2    6.90    7.50
   7   3   2   -2.80    8.70
   7   3   2  -11.70    9.40
   7   3   2   -0.60    6.60
   7  -4  -2   37.20   10.40
   7  -4  -2   38.80    9.10
   7  -4  -2   43.40   10.60
  -7   4   2   22.10    6.80
  -7   4   2   10.30    8.00
   6  -4  -2   -1.90    6.20
   6  -4  -2   -4.10    6.80
   6  -4  -2    7.90    9.90
  -6   4   2   -5.50    4.70
  -6   4   2   -7.80    5.80
   5  -4  -2   12.30    6.30
   5  -4  -2    7.50    2.80
   5  -4  -2   25.00    6.90
   5  -4  -2   11.20    5.20
   5  -4  -2   14.20    3.60
  -5   4   2   10.40    5.10
  -5   4   2   12.00    6.00
  -5   4   2   19.10    4.20
   4  -4  -2    4.30    2.50
   4  -4  -2   14.30    6.10
   4  -4  -2    8.30    4.60
   4  -4  -2    5.20    3.40
   4  -4  -2    7.60    5.20
  -4   4   2    0.50    4.70
  -4   4   2    5.60    3.00
  -4   4   2    3.80    4.00
   3  -4  -2   10.80    3.80
   3  -4  -2    9.20    2.50
   3  -4  -2   12.50    4.00
   3  -4  -2   12.60    2.20
   3  -4  -2   15.30    2.70
   3  -4  -2    8.70    4.00
  -3   4   2   12.00    2.30
  -3   4   2   13.30    3.40
  -3   4   2   11.50    3.90
  -3   4   2   16.30    3.50
  -3   4   2   15.60    4.10
   2  -4  -2  127.89    7.80
   2  -4  -2  139.29    7.70
   2  -4  -2  137.99    7.80
   2  -4  -2  128.09    8.10
   2  -4  -2  117.79    6.70
   2  -4  -2  125.79    7.50
   2  -4  -2  132.29    7.40
  -2   4   2  120.39    6.40
  -2   4   2  141.99    7.50
  -2   4   2  134.49    7.90
  -2   4   2  142.09    7.80
   1  -4  -2   -1.30    2.40
   1  -4  -2    3.40    2.70
   1  -4  -2    1.60    2.20
   1  -4  -2    5.70    2.50
   1  -4  -2    2.70    2.80
   1  -4  -2    1.00    2.20
  -1   4   2    5.00    2.50
  -1   4   2    3.40    2.50
  -1   4   2    4.50    2.70
  -1   4   2    2.20    2.00
  -1   4   2    3.00    2.30
   0  -4  -2   36.60    3.30
   0  -4  -2   38.50    4.00
   0  -4  -2   28.40    3.00
   0  -4  -2   29.30    3.50
   0  -4  -2   36.30    3.50
   0  -4  -2   36.20    3.90
   0  -4  -2   33.40    4.00
   0   4   2   33.10    3.70
   0   4   2   32.50    2.80
   0   4   2   29.70    3.30
   0   4   2   34.80    3.20
   0   4   2   37.70    3.60
   0   4   2   38.70    3.50
  -1  -4  -2    6.80    1.60
  -1  -4  -2    7.00    2.20
  -1  -4  -2    4.50    2.70
  -1  -4  -2    8.40    2.30
  -1  -4  -2    9.20    2.90
  -1  -4  -2   10.50    2.90
   1   4   2    9.00    2.10
   1   4   2    9.00    2.70
   1   4   2    9.80    3.60
   1   4   2    5.70    2.40
   1   4   2    9.80    3.00
   1   4   2    7.90    2.90
  -2  -4  -2  229.88   11.10
  -2  -4  -2  244.28   11.60
  -2  -4  -2  239.88   11.00
  -2  -4  -2  229.08   11.20
   2   4   2  234.08   10.90
   2   4   2  250.87   11.60
   2   4   2  231.88   10.80
   2   4   2  241.78   11.80
   2   4   2  241.08   11.40
   2   4   2  237.58   12.20
   2   4   2  240.98   12.50
  -3  -4  -2   -1.40    3.60
  -3  -4  -2   -6.20    3.20
  -3  -4  -2    0.00    2.80
  -3  -4  -2   -2.50    3.10
   3   4   2   -2.60    4.50
   3   4   2   -0.60    2.50
   3   4   2   -2.30    5.50
   3   4   2    1.10    3.50
  -4  -4  -2   -2.60    4.30
  -4  -4  -2    3.50    4.30
  -4  -4  -2    3.20    2.80
   4   4   2    1.00    6.20
   4   4   2    0.80    2.60
   4   4   2    1.80    5.80
   4   4   2   -0.70    4.10
  -5  -4  -2   15.40    5.40
  -5  -4  -2   20.50    5.90
   5   4   2   11.40    5.40
   5   4   2   23.60    7.40
   5   4   2   29.70    8.10
  -6  -4  -2   18.20    6.60
  -6  -4  -2   14.70    7.30
   6   4   2   20.40    9.60
   6   4   2   21.70    7.10
   6   4   2   20.10    8.90
  -7  -4  -2    2.00    7.10
  -7  -4  -2    3.30    7.10
   7   4   2   -4.90    8.90
   7   4   2   -0.70   10.30
   7   4   2   -1.80    7.00
   7  -5  -2   15.20    8.70
   7  -5  -2   12.20    6.20
   7  -5  -2   29.90    9.90
  -7   5   2    6.00    7.20
  -7   5   2   18.60    6.20
   6  -5  -2    0.70    5.60
   6  -5  -2  -17.00    6.40
   6  -5  -2    3.50   13.20
  -6   5   2   -2.20    5.90
  -6   5   2    3.40    4.70
   5  -5  -2   24.60    3.20
   5  -5  -2   23.20    6.70
   5  -5  -2   27.40    4.00
   5  -5  -2   23.10   11.80
   5  -5  -2   39.10    7.30
  -5   5   2   36.40    4.40
  -5   5   2   31.30    6.70
  -5   5   2   21.10    5.50
   4  -5  -2   13.60    5.30
   4  -5  -2   21.40    3.70
   4  -5  -2   15.40    2.90
   4  -5  -2   17.20    5.10
   4  -5  -2   25.60    3.60
  -4   5   2    7.80    5.10
  -4   5   2   15.60    3.20
  -4   5   2   15.50    4.50
   3  -5  -2  107.69    7.00
   3  -5  -2  118.39    6.40
   3  -5  -2  119.29    8.80
   3  -5  -2   96.89    6.10
   3  -5  -2  117.29    8.90
  -3   5   2  104.59    8.50
  -3   5   2  114.19    7.70
  -3   5   2  120.39    8.60
  -3   5   2  112.29    5.70
   2  -5  -2   13.00    2.80
   2  -5  -2   12.90    3.30
   2  -5  -2   10.00    3.80
   2  -5  -2   15.40    3.60
  -2   5   2   19.30    3.50
  -2   5   2   16.10    2.60
  -2   5   2   19.80    3.80
  -2   5   2   24.80    3.50
  -2   5   2   18.10    3.70
   1  -5  -2  379.36   16.90
   1  -5  -2  386.76   16.70
   1  -5  -2  415.36   16.80
   1  -5  -2  395.56   17.40
   1  -5  -2  389.76   17.20
   1  -5  -2  402.86   17.30
  -1   5   2  380.76   16.60
  -1   5   2  383.16   16.80
  -1   5   2  408.26   17.10
  -1   5   2  383.76   17.20
  -1   5   2  418.16   16.80
   0  -5  -2  167.08    8.30
   0  -5  -2  153.78    7.70
   0  -5  -2  164.58    7.90
   0  -5  -2  159.58    8.90
   0  -5  -2  158.58    7.50
   0  -5  -2  150.28    7.10
   0  -5  -2  163.38    9.30
   0  -5  -2  155.08    8.60
   0   5   2  152.58    7.00
   0   5   2  156.98    8.90
   0   5   2  161.78    8.30
   0   5   2  147.99    8.30
   0   5   2  159.58    8.10
  -1  -5  -2  200.88    8.90
  -1  -5  -2  218.88   10.80
  -1  -5  -2  208.98    9.00
  -1  -5  -2  216.48   10.40
  -1  -5  -2  208.48    9.60
  -1  -5  -2  214.58   10.60
  -1  -5  -2  206.98   10.60
   1   5   2  215.98    9.50
   1   5   2  215.68   10.00
   1   5   2  197.78   10.00
   1   5   2  203.18   11.40
   1   5   2  201.38   10.30
   1   5   2  219.78   10.30
  -2  -5  -2   -0.40    2.80
  -2  -5  -2   -2.00    3.20
  -2  -5  -2    2.10    3.20
  -2  -5  -2   -0.60    3.00
   2   5   2   -0.60    3.90
   2   5   2    2.50    2.90
   2   5   2   -3.40    2.40
   2   5   2   -1.20    4.70
  -3  -5  -2   13.40    3.40
  -3  -5  -2   18.80    5.10
   3   5   2   18.60    5.60
   3   5   2   20.90    7.40
   3   5   2   15.80    4.40
   3   5   2   11.10    3.10
  -4  -5  -2   -6.00    4.30
  -4  -5  -2   -0.60    2.90
  -4  -5  -2   -2.20    4.20
   4   5   2   -4.70    5.90
   4   5   2    2.40    4.50
   4   5   2   -9.90    6.40
   4   5   2   -1.20    2.70
  -5  -5  -2   12.20    5.70
  -5  -5  -2    5.90    5.30
   5   5   2    7.30    8.00
   5   5   2   -0.20    6.90
   5   5   2    3.10    5.30
  -6  -5  -2   21.80    7.70
  -6  -5  -2   13.10    7.30
   6   5   2   33.70   10.30
   6   5   2   10.70    8.60
   6   5   2   13.60    6.60
  -7  -5  -2   22.80    7.80
   7   5   2    6.90    9.00
   7  -6  -2    6.90    8.50
   7  -6  -2    3.80    6.80
   7  -6  -2   -0.20    9.40
  -7   6   2   -6.40    6.80
   6  -6  -2   -9.00    5.80
   6  -6  -2    8.40    8.10
  -6   6   2    2.70    6.10
  -6   6   2    6.50    7.30
   5  -6  -2   46.50    5.10
   5  -6  -2   47.30    7.70
   5  -6  -2   54.49    6.30
   5  -6  -2   63.09    8.80
   5  -6  -2   45.20    5.20
   5  -6  -2   64.09    7.60
  -5   6   2   49.50    5.80
  -5   6   2   56.29    6.60
  -5   6   2   44.50    7.60
   4  -6  -2   12.80    3.00
   4  -6  -2    5.60    3.10
   4  -6  -2    6.90    5.20
   4  -6  -2   11.60    3.80
  -4   6   2    4.80    5.10
  -4   6   2    2.70    5.10
  -4   6   2   13.30    4.30
   3  -6  -2  130.99    8.40
   3  -6  -2  122.59   10.20
  -3   6   2  130.39    8.40
  -3   6   2  135.89   10.00
   2  -6  -2   56.39    6.20
   2  -6  -2   60.29    7.40
   2  -6  -2   48.40    6.30
   2  -6  -2   54.69    5.90
  -2   6   2   56.59    5.70
  -2   6   2   59.99    6.40
  -2   6   2   53.29    6.80
  -2   6   2   62.69    5.20
   1  -6  -2    8.00    3.70
   1  -6  -2   15.50    3.20
   1  -6  -2   10.40    3.20
   1  -6  -2   11.20    2.90
   1  -6  -2    9.70    3.20
   1  -6  -2   12.80    4.80
   1  -6  -2   11.50    2.80
  -1   6   2   12.80    3.30
  -1   6   2   16.70    3.10
  -1   6   2   16.20    3.80
  -1   6   2    9.90    3.10
   0  -6  -2   22.40    3.00
   0  -6  -2   24.60    4.20
   0  -6  -2   26.70    4.00
   0  -6  -2   29.60    3.90
   0  -6  -2   23.80    2.90
   0  -6  -2   21.30    2.60
   0  -6  -2   27.10    3.00
   0  -6  -2   26.00    4.40
   0   6   2   25.60    3.60
   0   6   2   28.70    3.60
   0   6   2   29.70    2.50
   0   6   2   25.60    3.50
   0   6   2   26.30    3.70
   0   6   2   24.80    4.20
  -1  -6  -2   -1.80    3.10
  -1  -6  -2   -0.60    2.00
  -1  -6  -2   -4.30    3.30
  -1  -6  -2    2.50    3.50
  -1  -6  -2   -3.10    1.70
  -1  -6  -2   -3.20    2.20
   1   6   2   -6.00    3.90
   1   6   2    0.60    2.10
   1   6   2    0.10    2.60
   1   6   2   -2.00    2.90
   1   6   2   -2.20    3.00
  -2  -6  -2   87.39    7.60
  -2  -6  -2   91.99    7.10
  -2  -6  -2   88.99    8.00
  -2  -6  -2   99.19    7.40
   2   6   2  107.09   10.70
   2   6   2   84.69    6.60
   2   6   2   91.19    7.60
   2   6   2  101.09    8.60
  -3  -6  -2   -1.20    4.10
  -3  -6  -2   -1.30    4.00
  -3  -6  -2    3.60    3.30
   3   6   2   -0.20    6.60
   3   6   2   -0.40    4.40
   3   6   2   -0.60    5.60
   3   6   2   -6.60    2.70
  -4  -6  -2   37.10    6.00
  -4  -6  -2   38.30    6.10
  -4  -6  -2   35.60    4.00
   4   6   2   35.50    8.00
   4   6   2   44.00    6.10
   4   6   2   18.20    6.90
  -5  -6  -2   15.20    6.00
  -5  -6  -2   11.60    6.10
   5   6   2   10.90    7.50
   5   6   2   12.40    5.90
   5   6   2    9.90    8.70
  -6  -6  -2   30.30    7.20
  -6  -6  -2   32.20    7.90
   6   6   2   25.10   10.40
   6   6   2    9.30    7.20
   6   6   2   15.30    9.20
   7  -7  -2   -6.80    7.50
   7  -7  -2    5.30    9.40
   7  -7  -2    7.60    9.00
  -7   7   2   11.60    8.50
  -7   7   2    9.90    7.20
   6  -7  -2   -1.10    7.80
   6  -7  -2   -3.60    6.80
   6  -7  -2    3.70    8.50
  -6   7   2    2.70    7.20
  -6   7   2    2.60    6.10
   5  -7  -2    1.90    4.50
   5  -7  -2    0.90    6.20
   5  -7  -2    4.10    5.30
   5  -7  -2    4.80    6.30
   5  -7  -2    3.20    4.00
  -5   7   2   -2.90    5.90
  -5   7   2   -4.20    4.50
   4  -7  -2   19.70    4.50
   4  -7  -2   25.70    6.10
   4  -7  -2   21.20    5.90
   4  -7  -2   49.10    7.00
  -4   7   2   26.00    6.00
  -4   7   2   22.90    5.40
  -4   7   2   20.30    5.90
   3  -7  -2   42.50    5.00
   3  -7  -2   63.29   10.60
   3  -7  -2   44.20    5.90
  -3   7   2   42.50    5.70
  -3   7   2   41.90    5.90
  -3   7   2   40.30    4.70
   2  -7  -2    8.60    4.70
   2  -7  -2    6.60    3.70
   2  -7  -2   14.30    4.20
  -2   7   2    7.60    4.00
  -2   7   2   12.60    3.40
  -2   7   2    9.80    3.00
  -2   7   2   10.00    4.30
   1  -7  -2   76.89    6.50
   1  -7  -2   82.19    6.20
   1  -7  -2   89.99    8.10
   1  -7  -2   72.89    7.20
  -1   7   2   81.09    7.00
  -1   7   2   88.79    6.50
  -1   7   2   89.09    6.50
  -1   7   2   78.99    7.90
   0  -7  -2   19.10    4.60
   0  -7  -2   19.50    3.20
   0  -7  -2   23.10    4.50
   0  -7  -2   20.50    2.50
   0  -7  -2   22.60    3.00
   0  -7  -2   18.30    4.00
   0   7   2   22.00    3.90
   0   7   2   22.30    2.50
   0   7   2   14.50    4.40
   0   7   2   16.60    3.60
  -1  -7  -2  217.98   14.10
  -1  -7  -2  221.48    9.90
  -1  -7  -2  219.08   10.50
  -1  -7  -2  219.18   12.00
  -1  -7  -2  223.68   10.00
  -1  -7  -2  222.98   12.20
   1   7   2  237.98   13.30
   1   7   2  205.18   10.40
   1   7   2  220.68   11.50
   1   7   2  234.78   11.40
  -2  -7  -2    9.00    3.80
  -2  -7  -2   15.20    4.40
  -2  -7  -2   10.70    4.60
   2   7   2   14.40    9.10
   2   7   2    2.60    4.00
   2   7   2    8.70    3.60
   2   7   2    7.30    4.60
  -3  -7  -2   27.20    4.90
  -3  -7  -2   26.20    5.50
  -3  -7  -2   34.40    4.40
   3   7   2   26.80    7.60
   3   7   2   23.90    5.10
   3   7   2   21.60    3.70
   3   7   2   26.50    6.30
  -4  -7  -2    9.20    3.50
  -4  -7  -2   12.20    5.20
  -4  -7  -2    0.50    5.00
   4   7   2    3.60    5.30
   4   7   2   -5.80    7.50
   4   7   2   -3.80    2.80
   4   7   2    9.30    6.60
  -5  -7  -2   10.70    6.40
  -5  -7  -2   20.50    6.50
   5   7   2   19.00    8.20
   5   7   2   16.40    9.90
  -6  -7  -2    7.80    6.80
  -6  -7  -2    1.50    7.00
   6   7   2   17.70   12.10
   6   7   2    4.10   10.40
   6   7   2   -3.00    7.00
   7  -8  -2   43.80   10.00
  -7   8   2   32.10   10.80
   6  -8  -2    7.90    8.30
   6  -8  -2  -11.60    7.10
   6  -8  -2   -9.10    8.00
  -6   8   2    7.60    5.90
  -6   8   2   16.60    7.70
   5  -8  -2   21.20    7.20
   5  -8  -2   11.80    4.70
   5  -8  -2   15.80    7.20
  -5   8   2    8.70    5.00
  -5   8   2   12.30    6.90
   4  -8  -2   10.10    4.70
   4  -8  -2   20.90    6.20
   4  -8  -2   14.20    3.70
   4  -8  -2    7.90    6.20
  -4   8   2   19.20    7.90
  -4   8   2   19.80    5.90
  -4   8   2   15.20    5.60
   3  -8  -2    7.50    5.10
   3  -8  -2    6.80    5.50
   3  -8  -2    5.60    4.30
  -3   8   2   13.10    4.90
  -3   8   2    1.00    2.90
  -3   8   2    6.60    3.50
  -3   8   2    8.70    5.00
   2  -8  -2  154.68    9.80
   2  -8  -2  122.79    8.90
   2  -8  -2  136.89   11.00
  -2   8   2  164.58   14.40
  -2   8   2  146.49    8.60
   1  -8  -2    5.30    4.10
   1  -8  -2    4.90    3.50
   1  -8  -2    7.60    4.80
   1  -8  -2    5.60    3.10
  -1   8   2   10.50    4.00
  -1   8   2    9.30    4.60
  -1   8   2   10.10    3.50
   0  -8  -2   28.30    2.90
   0  -8  -2   34.60    5.60
   0  -8  -2   32.70    3.60
   0  -8  -2   27.50    5.10
   0  -8  -2   23.20    3.70
   0   8   2   23.10    4.50
   0   8   2   22.50    5.20
   0   8   2   32.30    4.40
   0   8   2   26.90    2.90
  -1  -8  -2   27.30    3.20
  -1  -8  -2   16.70    5.30
  -1  -8  -2   30.20    3.50
  -1  -8  -2   25.70    3.60
   1   8   2   25.30    5.00
   1   8   2   25.70    4.50
   1   8   2   25.50    3.90
   1   8   2   24.40    3.50
  -2  -8  -2    5.00    4.60
  -2  -8  -2   -4.00    4.30
  -2  -8  -2   -2.60    3.50
   2   8   2    0.40    4.10
   2   8   2   -2.60    4.30
   2   8   2    4.00    6.30
  -3  -8  -2   74.69    7.90
  -3  -8  -2   59.69    7.30
  -3  -8  -2   57.29    6.70
   3   8   2   45.40    6.50
   3   8   2   62.49    7.20
   3   8   2   77.39    8.80
  -4  -8  -2   27.30    4.20
  -4  -8  -2   27.60    6.00
  -4  -8  -2   33.00    6.60
   4   8   2   22.30    6.10
   4   8   2   14.50    6.90
   4   8   2   32.90    8.80
  -5  -8  -2   14.70    6.60
  -5  -8  -2   10.50    6.20
   5   8   2    3.80    9.60
   5   8   2    2.00    7.90
   5   8   2    3.20    6.10
  -6  -8  -2    8.80    7.30
  -6  -8  -2   -1.30    7.10
   6   8   2  -10.00    6.50
   6   8   2    8.10   10.80
   6   8   2   -2.00    8.40
   6  -9  -2   14.50    9.50
   6  -9  -2   17.70    8.60
   6  -9  -2   28.50    8.90
  -6   9   2   17.30    6.60
  -6   9   2   11.50    7.90
   5  -9  -2    3.10    5.00
   5  -9  -2    1.80    7.30
   5  -9  -2    3.60    7.40
  -5   9   2    8.40    5.10
   4  -9  -2   33.90    5.60
   4  -9  -2   21.20    7.00
   4  -9  -2   27.20    7.00
  -4   9   2   41.30    6.80
  -4   9   2   29.80    6.80
   3  -9  -2   42.90    7.30
   3  -9  -2   44.00    5.80
   3  -9  -2   43.40    6.40
  -3   9   2   42.50    6.20
  -3   9   2   33.90    6.00
  -3   9   2   32.50    4.40
   2  -9  -2   40.50    5.60
   2  -9  -2   41.20    6.50
   2  -9  -2   28.20    5.40
   2  -9  -2   21.90    4.10
  -2   9   2   33.60    4.20
  -2   9   2   31.20    5.40
  -2   9   2   36.80    5.70
   1  -9  -2   -6.00    3.70
   1  -9  -2   -1.30    5.10
   1  -9  -2    6.60    4.60
  -1   9   2    6.80    5.00
  -1   9   2    4.90    4.80
  -1   9   2    1.10    3.40
   0  -9  -2  146.99    8.20
   0  -9  -2  166.68   13.50
   0  -9  -2  164.48    9.10
   0  -9  -2  149.88    7.80
   0   9   2  156.78   11.60
   0   9   2  138.59    7.80
   0   9   2  160.08   10.30
   0   9   2  150.38    9.70
  -1  -9  -2  385.16   16.50
  -1  -9  -2  368.86   16.70
  -1  -9  -2  361.86   18.60
  -1  -9  -2  383.46   18.90
   1   9   2  395.06   18.10
   1   9   2  389.46   19.50
   1   9   2  382.46   17.60
  -2  -9  -2    4.60    4.60
  -2  -9  -2   15.70    5.20
  -2  -9  -2    8.90    5.70
   2   9   2   10.90    4.80
   2   9   2    5.50    6.60
   2   9   2    5.20    4.40
  -3  -9  -2    3.50    4.30
  -3  -9  -2    0.00    4.50
  -3  -9  -2   -7.60    4.00
   3   9   2   -2.30    7.20
   3   9   2    1.50    4.60
   3   9   2   -9.50    5.20
  -4  -9  -2   59.69    7.40
  -4  -9  -2   57.99    8.00
  -4  -9  -2   52.29    7.40
   4   9   2   70.39    8.60
   4   9   2   64.29    8.10
  -5  -9  -2    3.30    6.30
  -5  -9  -2    5.40    6.60
   5   9   2    1.90    6.80
   5   9   2   -6.40    7.60
   5   9   2    4.00   10.00
  -6  -9  -2   -0.90    6.90
   6   9   2    3.80    8.20
   6   9   2   -4.30    7.20
   6 -10  -2    4.70    9.70
   6 -10  -2   12.40    8.50
   6 -10  -2   20.20    8.90
  -6  10   2   40.80    8.50
  -6  10   2   13.50    6.20
   5 -10  -2   38.20    5.90
   5 -10  -2   22.70    8.10
  -5  10   2   24.70    5.50
  -5  10   2   26.70    7.40
  -5  10   2   25.00    8.00
   4 -10  -2   -3.10    4.90
   4 -10  -2   -9.70    6.40
   4 -10  -2    1.70    6.20
  -4  10   2    6.00    5.90
  -4  10   2    2.60    6.00
  -4  10   2   -2.10    5.50
   3 -10  -2   51.69    7.10
   3 -10  -2   49.70    6.30
   3 -10  -2   45.60    7.70
  -3  10   2   47.90    5.90
  -3  10   2   55.39    6.80
  -3  10   2   37.70    6.60
   2 -10  -2   55.09    6.30
   2 -10  -2   70.69    7.80
   2 -10  -2   48.60    6.60
  -2  10   2   60.59    6.80
  -2  10   2   49.20    5.70
  -2  10   2   53.69    6.60
   1 -10  -2   64.49    7.50
   1 -10  -2   62.09    6.80
   1 -10  -2   44.20    5.40
   1 -10  -2   60.79    7.30
  -1  10   2   59.69    6.20
  -1  10   2   56.69    6.50
  -1  10   2   63.09    6.80
   0 -10  -2   56.99    6.60
   0 -10  -2   49.30    6.60
   0 -10  -2   44.90    6.70
   0 -10  -2   55.79    4.90
   0  10   2   47.40    6.00
   0  10   2   53.79    7.10
   0  10   2   48.00    4.80
   0  10   2   45.40    5.20
  -1 -10  -2  317.17   14.00
  -1 -10  -2  289.17   16.10
  -1 -10  -2  302.97   13.70
  -1 -10  -2  282.57   16.20
  -1 -10  -2  286.87   13.60
   1  10   2  302.07   14.90
   1  10   2  313.47   15.50
   1  10   2  300.37   16.80
  -2 -10  -2    4.20    4.90
  -2 -10  -2    5.40    4.90
  -2 -10  -2    6.00    4.00
   2  10   2   11.10    5.30
   2  10   2   16.60    7.20
   2  10   2    6.00    4.70
  -3 -10  -2   39.80    9.60
  -3 -10  -2   30.10    6.20
  -3 -10  -2   25.30    5.40
   3  10   2   40.00    8.70
   3  10   2   30.50    6.00
   3  10   2   33.20    6.70
  -4 -10  -2   17.10    4.60
  -4 -10  -2    8.90    6.60
   4  10   2    5.80    6.10
   4  10   2   15.50    9.20
   4  10   2   16.50    7.10
  -5 -10  -2  131.29   13.50
  -5 -10  -2  154.28   13.30
   5  10   2   98.89   13.60
   5  10   2  108.99   13.00
   5  10   2  132.39   13.70
   6 -11  -2    6.70    8.80
   6 -11  -2    3.90    8.60
   6 -11  -2   11.80   12.10
  -6  11   2   -0.60    7.80
  -6  11   2   12.40    8.10
   5 -11  -2    5.70    8.00
   5 -11  -2    5.40    7.90
   5 -11  -2    6.20    5.90
  -5  11   2    1.90    7.20
  -5  11   2   12.30    5.20
  -5  11   2   -5.10    6.80
   4 -11  -2   17.70    9.40
   4 -11  -2    7.00    5.20
   4 -11  -2   14.40    7.90
  -4  11   2   17.60    7.90
  -4  11   2    4.60    6.50
   3 -11  -2   36.70    6.90
   3 -11  -2   49.40    8.20
   3 -11  -2   52.69    6.50
  -3  11   2   43.90    5.90
  -3  11   2   44.80    6.90
  -3  11   2   35.50    6.70
   2 -11  -2    2.60    3.10
   2 -11  -2   -3.20    4.80
   2 -11  -2    0.00    5.60
   2 -11  -2   -2.00    4.50
  -2  11   2    2.00    4.70
  -2  11   2   -1.70    4.90
  -2  11   2    2.40    2.90
   1 -11  -2   48.60    5.20
   1 -11  -2   63.19    7.10
   1 -11  -2   45.10    7.50
   1 -11  -2   55.69    6.40
  -1  11   2   46.90    6.90
  -1  11   2   59.29    6.80
  -1  11   2   47.50    5.90
   0 -11  -2   73.09    8.20
   0 -11  -2   71.89    7.70
   0 -11  -2   81.89    5.50
   0 -11  -2   73.39    7.50
   0  11   2   51.99    5.70
   0  11   2   63.09    7.80
   0  11   2   98.79    9.10
   0  11   2   60.09    7.20
  -1 -11  -2    9.30    5.60
  -1 -11  -2   11.80    3.60
  -1 -11  -2    7.10    3.40
  -1 -11  -2    9.40    5.10
   1  11   2    8.40    6.20
   1  11   2   13.60    4.90
   1  11   2    1.10    4.50
  -2 -11  -2    9.20    5.60
  -2 -11  -2    4.80    5.20
  -2 -11  -2   15.50    4.30
   2  11   2   12.80    5.20
   2  11   2    3.20    5.40
   2  11   2    5.20    7.30
  -3 -11  -2   25.50    5.60
  -3 -11  -2   24.00    5.60
   3  11   2   17.00    5.90
   3  11   2   24.90    6.60
  -4 -11  -2   -1.80    6.10
  -4 -11  -2   -5.30    5.40
  -4 -11  -2  -10.40    5.60
   4  11   2   -0.90    6.40
   4  11   2   -2.20    9.50
  -5 -11  -2    0.70    6.60
  -5 -11  -2   14.70    7.30
   5  11   2    7.00    7.00
   5  11   2    0.40    6.90
   5  11   2    0.40   10.60
   5 -12  -2   -9.10    4.60
   5 -12  -2   14.60    8.50
   5 -12  -2   -2.70    7.90
  -5  12   2    1.40    4.90
  -5  12   2    8.80    7.40
  -5  12   2   -5.00    7.30
   4 -12  -2    2.10    7.40
   4 -12  -2   -3.00    6.70
   4 -12  -2    2.00    5.20
  -4  12   2    6.90    6.50
  -4  12   2   12.50    6.90
   3 -12  -2   18.00    5.60
   3 -12  -2    1.80    5.90
  -3  12   2    9.30    6.20
  -3  12   2    2.80    6.80
  -3  12   2   -1.70    3.00
   2 -12  -2    6.20    5.20
   2 -12  -2    6.20    5.40
   2 -12  -2    1.90    6.20
   2 -12  -2    6.70    3.10
  -2  12   2    0.10    2.80
  -2  12   2    7.40    5.50
  -2  12   2    7.40    5.50
   1 -12  -2   63.89    7.70
   1 -12  -2   73.89    8.80
   1 -12  -2   69.49    8.30
  -1  12   2   68.79    7.60
  -1  12   2   59.79    6.10
  -1  12   2   69.49    7.80
   0 -12  -2  150.48   12.20
   0 -12  -2  144.49    9.80
   0 -12  -2  169.18   13.30
   0 -12  -2  146.79    7.80
   0  12   2  138.69    9.40
   0  12   2  166.18   11.40
   0  12   2  141.39   12.50
  -1 -12  -2    6.20    6.00
  -1 -12  -2   10.00    5.70
  -1 -12  -2   13.90    3.80
  -1 -12  -2    5.90    3.70
   1  12   2    9.80    4.70
   1  12   2    3.70    6.50
   1  12   2   11.60    5.40
  -2 -12  -2   12.90    4.30
  -2 -12  -2   13.00    5.90
   2  12   2   11.60    8.00
   2  12   2    5.50    5.20
   2  12   2    9.40    5.70
  -3 -12  -2    2.30    5.20
  -3 -12  -2    0.30    5.80
  -3 -12  -2    2.10    4.90
   3  12   2    4.50    6.40
   3  12   2   -3.50    5.60
   3  12   2   -4.60    8.80
  -4 -12  -2   37.20    5.90
  -4 -12  -2   33.70    7.90
  -4 -12  -2   41.10    7.50
   4  12   2   49.70    8.00
   4  12   2   51.09    8.00
   4  12   2   49.00   11.50
   5 -13  -2   16.10    9.00
   5 -13  -2   16.90    8.90
  -5  13   2   14.80    7.70
  -5  13   2   17.70    8.10
   4 -13  -2   42.90    8.60
   4 -13  -2   31.60    6.40
   4 -13  -2   26.30    8.70
  -4  13   2   23.00    7.70
  -4  13   2   20.60    6.30
  -4  13   2   39.60    8.00
   3 -13  -2    9.70    7.40
   3 -13  -2   18.30    7.00
   3 -13  -2   16.00    6.30
  -3  13   2    8.40    6.70
  -3  13   2   11.90    6.60
  -3  13   2    7.50    3.20
   2 -13  -2   14.90    6.20
   2 -13  -2   16.00    6.20
  -2  13   2   16.70    6.30
  -2  13   2    3.80    6.80
   1 -13  -2    6.80    6.00
   1 -13  -2    7.00    7.00
   1 -13  -2   12.10    5.10
  -1  13   2    6.60    5.50
  -1  13   2    7.40    3.20
  -1  13   2    7.50    6.10
   0 -13  -2    4.00    4.30
   0 -13  -2    1.90    6.50
   0 -13  -2    9.50    6.20
   0  13   2    0.40    6.10
   0  13   2    2.90    5.20
   0  13   2   -4.40    3.20
  -1 -13  -2   37.20    7.10
  -1 -13  -2   41.00    6.90
  -1 -13  -2   28.90    7.00
   1  13   2   31.40    6.60
  -2 -13  -2  106.99    9.20
  -2 -13  -2  104.89   11.80
  -2 -13  -2  115.79   11.80
   2  13   2  123.89   11.50
   2  13   2  127.29   14.50
   2  13   2   95.29   10.30
  -3 -13  -2    6.40    5.90
  -3 -13  -2    2.10    5.90
   3  13   2    3.50    6.30
   3  13   2    6.90    9.10
   3  13   2    6.60    6.30
  -4 -13  -2    5.10    6.20
  -4 -13  -2    6.30    5.80
   4  13   2   -4.90   10.30
   4  13   2   11.00    6.80
   4  13   2    5.60    6.60
   4 -14  -2   55.49    7.30
   4 -14  -2   58.09    9.30
   4 -14  -2   48.70    9.70
  -4  14   2   35.30    8.30
  -4  14   2   31.10    8.30
   3 -14  -2  -16.70    6.20
   3 -14  -2    3.60    7.60
   3 -14  -2    3.80    6.00
  -3  14   2   -0.70    6.50
  -3  14   2    1.60    6.60
   2 -14  -2   16.60    6.80
   2 -14  -2    8.30    7.50
  -2  14   2   10.40    6.50
  -2  14   2   21.30    6.60
   1 -14  -2    3.70    7.00
   1 -14  -2    5.80    5.20
   1 -14  -2    8.80   10.50
  -1  14   2    2.90    5.60
  -1  14   2    5.80    6.20
   0 -14  -2   25.30    7.10
   0 -14  -2   33.90    8.80
   0 -14  -2   30.50    5.60
   0  14   2   38.60    7.70
   0  14   2   22.30    4.10
  -1 -14  -2   42.30    5.20
  -1 -14  -2   44.40    5.00
  -1 -14  -2   54.29    8.20
   1  14   2   44.40    6.30
   1  14   2   51.59   10.10
   1  14   2   46.10    8.80
  -2 -14  -2  186.28   14.80
  -2 -14  -2  173.38   11.00
  -2 -14  -2  168.18   14.10
   2  14   2  177.08   13.40
   2  14   2  140.89   12.30
   2  14   2  198.98   16.10
  -3 -14  -2   28.40    7.40
  -3 -14  -2   34.70    7.00
  -3 -14  -2   28.50    5.70
   3  14   2   24.70   10.10
   3  14   2   24.20    7.20
   3  14   2   22.30    7.00
   4 -15  -2   22.30    6.70
  -4  15   2   19.20    7.70
   3 -15  -2   13.20    7.10
   3 -15  -2   10.90    8.10
   3 -15  -2    4.90    6.30
  -3  15   2    9.20    7.10
  -3  15   2   -6.70    6.60
   2 -15  -2    1.10    5.90
   2 -15  -2    8.30    6.80
   2 -15  -2   13.40    7.80
  -2  15   2   13.70    6.70
  -2  15   2   15.30    6.70
   1 -15  -2   17.90    8.30
   1 -15  -2   21.50    7.00
  -1  15   2   18.30    7.20
  -1  15   2   21.40    6.80
   0 -15  -2   14.80    7.70
   0 -15  -2    8.60    5.00
   0 -15  -2   11.90    6.70
   0  15   2   22.50    6.50
   0  15   2    6.50    6.70
  -1 -15  -2   20.00    4.70
  -1 -15  -2   17.50    7.10
  -1 -15  -2   29.80    7.60
  -1 -15  -2   24.30    4.10
   1  15   2   19.70    8.00
   1  15   2   27.40    7.10
   1  15   2   20.90    5.00
  -2 -15  -2   14.10    7.00
  -2 -15  -2   14.40    4.80
  -2 -15  -2   10.30    6.40
   2  15   2    7.70    5.90
   2  15   2    6.70    7.80
   2  15   2    9.70    6.20
   3 -16  -2   45.20    8.70
   3 -16  -2   52.59   10.00
   3 -16  -2   60.79    8.00
  -3  16   2   31.60    8.20
   2 -16  -2    9.20    8.00
   2 -16  -2   -1.70    5.90
   2 -16  -2    3.60    6.60
  -2  16   2    8.90    6.90
  -2  16   2    1.60    6.40
   1 -16  -2    1.40    7.90
   1 -16  -2   -2.90    6.40
   1 -16  -2    1.10    5.20
  -1  16   2   -1.50    6.00
  -1  16   2    2.70    6.80
   0 -16  -2    7.70    6.50
   0 -16  -2   11.50    5.40
   0 -16  -2    5.70    7.40
   0  16   2   -3.50    6.00
   0  16   2    6.80    6.90
  -1 -16  -2    7.10    6.30
  -1 -16  -2   -3.50    6.30
   1  16   2   -0.70    7.10
   1  16   2  -10.70    5.50
   1  17  -3   -4.70    6.80
  -1 -17   3    6.30    4.50
  -1 -17   3    8.90    7.60
   0  17  -3    9.20    7.10
   0  17  -3    2.90    6.40
   0 -17   3    8.00    7.70
   0 -17   3   -1.30    7.10
  -1  17  -3   24.80    6.50
  -1  17  -3   21.70    7.70
   1 -17   3   36.10    8.70
   1 -17   3   24.00    8.90
  -2  17  -3    3.70    6.10
   2 -17   3   -3.60    8.50
   2 -17   3   -4.20    6.10
   2 -17   3   10.90    8.10
   2  16  -3    3.00    7.20
   2  16  -3    4.70    7.80
  -2 -16   3    3.70    4.90
  -2 -16   3   -3.20    6.80
   1  16  -3   15.00    5.60
   1  16  -3   18.10    7.60
   1  16  -3   11.40    7.40
  -1 -16   3   10.70    7.10
  -1 -16   3    9.20    7.40
  -1 -16   3   17.20    4.90
   0  16  -3   62.79    9.30
   0  16  -3   49.60    7.10
   0  16  -3   52.79    8.80
   0 -16   3   60.09    9.40
   0 -16   3   67.99    6.80
   0 -16   3   47.60    9.40
  -1  16  -3  110.19   12.40
   1 -16   3   98.19   11.30
   1 -16   3  111.59   14.50
  -2  16  -3   20.40    7.40
  -2  16  -3   17.60    7.50
   2 -16   3   22.90    8.80
   2 -16   3   24.70    8.90
  -3  16  -3    1.70    6.90
  -3  16  -3   11.60    6.00
   3 -16   3   -4.70    7.70
   3 -16   3   21.20    7.70
   3 -16   3   -8.90    7.70
   3  15  -3    0.40    9.00
   3  15  -3    1.40    7.70
  -3 -15   3  -13.50    5.90
  -3 -15   3   -3.60    6.40
  -3 -15   3   -3.40    5.30
   2  15  -3    6.50    8.20
   2  15  -3   -1.70    7.40
   2  15  -3    1.40    4.20
  -2 -15   3    6.60    7.60
  -2 -15   3   -1.90    5.20
  -2 -15   3   -8.00    6.40
   1  15  -3    9.00    7.90
   1  15  -3   15.50    7.50
   1  15  -3   15.80    5.10
  -1 -15   3   30.70    5.10
  -1 -15   3   19.80    7.40
  -1 -15   3   16.90    7.50
   0  15  -3   12.50    6.90
   0  15  -3    6.70    6.20
   0  15  -3    1.40    5.10
   0 -15   3    2.10    7.30
   0 -15   3    8.60    3.80
  -1  15  -3    9.70    6.70
  -1  15  -3    3.30    5.40
  -1  15  -3    3.70    6.30
   1 -15   3    3.30    7.40
   1 -15   3    8.50    3.10
   1 -15   3    8.60    7.20
  -2  15  -3   10.50    5.90
  -2  15  -3    5.90    6.30
   2 -15   3    7.50    7.60
   2 -15   3   -4.90    7.10
  -3  15  -3    4.40    6.90
  -3  15  -3    2.90    6.60
   3 -15   3   -7.90    7.10
   3 -15   3   15.50    7.70
   3 -15   3  -11.70    6.20
  -4  15  -3   11.70    6.20
  -4  15  -3    0.50    7.00
   4 -15   3   12.60    7.90
   4 -15   3   -3.50    7.20
   4 -15   3   -3.50    7.60
   4  14  -3   17.20   10.90
   4  14  -3   -4.00    5.50
   4  14  -3    0.80    8.40
  -4 -14   3   -1.80    6.10
  -4 -14   3   -0.90    6.90
   3  14  -3    0.50    9.40
   3  14  -3    8.00    4.00
   3  14  -3   17.80    8.30
   3  14  -3    2.20    4.90
  -3 -14   3    3.70    6.70
  -3 -14   3   -6.00    5.00
  -3 -14   3   -8.00    5.40
   2  14  -3    1.40    4.30
   2  14  -3    1.00    7.30
   2  14  -3    9.60    8.70
  -2 -14   3    2.20    7.10
  -2 -14   3   -0.10    6.10
  -2 -14   3    1.40    4.90
   1  14  -3   -4.30    6.60
   1  14  -3    3.70    4.70
   1  14  -3    0.70    6.70
  -1 -14   3    0.10    6.70
  -1 -14   3   10.10    4.50
  -1 -14   3   14.40    6.90
   0  14  -3    2.40    5.70
   0  14  -3    5.80    4.90
   0 -14   3   -3.40    6.20
   0 -14   3    1.60    5.50
  -1  14  -3   14.80    5.40
  -1  14  -3    9.50    5.40
   1 -14   3   -1.60    6.70
   1 -14   3    3.50    3.30
   1 -14   3    9.10    7.40
  -2  14  -3    4.10    6.10
  -2  14  -3   -2.50    5.00
   2 -14   3    8.60    7.20
   2 -14   3   -3.00    9.00
  -3  14  -3   16.00    6.70
  -3  14  -3   15.50    5.70
   3 -14   3    7.20    7.20
   3 -14   3   17.20    8.80
  -4  14  -3   -2.00    6.60
   4 -14   3    9.50    7.70
   4 -14   3   -4.70    7.10
   4 -14   3   12.80    7.90
  -5  14  -3   -5.60    9.20
  -5  14  -3    3.30    6.60
   5 -14   3    2.20   10.90
   5 -14   3   -3.70    7.10
   4  13  -3    4.60   10.10
   4  13  -3    1.80    5.90
   4  13  -3   10.30    9.10
  -4 -13   3   10.50    6.50
  -4 -13   3   13.80    7.40
   3  13  -3   19.40    8.30
   3  13  -3   11.70    5.00
  -3 -13   3   10.00    7.30
   2  13  -3   13.80    4.30
   2  13  -3   11.30    4.20
   2  13  -3   -8.40    7.30
  -2 -13   3    5.40    5.70
  -2 -13   3    5.30    4.90
   1  13  -3    4.30    4.20
   1  13  -3    5.00    6.50
   1  13  -3    9.50    6.40
  -1 -13   3    3.60    5.80
  -1 -13   3    2.00    4.20
  -1 -13   3    8.20    6.40
   0  13  -3   -2.10    4.10
   0  13  -3    2.80    5.50
   0  13  -3   -2.90    5.20
   0 -13   3   -5.00    3.50
   0 -13   3   11.60    6.10
   0 -13   3    6.90    6.50
  -1  13  -3   -2.40    4.70
  -1  13  -3    4.60    4.70
  -1  13  -3    2.90    5.80
   1 -13   3   -5.20    6.00
   1 -13   3    3.40    5.80
   1 -13   3    4.00    3.20
  -2  13  -3    5.60    5.20
  -2  13  -3    1.50    4.70
  -2  13  -3    1.00    5.40
   2 -13   3   -5.50    6.50
   2 -13   3   -2.20    6.00
  -3  13  -3    1.40    5.10
  -3  13  -3    2.50    6.80
   3 -13   3   -1.80    6.70
   3 -13   3   20.70    7.40
  -4  13  -3   67.39    7.90
  -4  13  -3   68.09    9.10
   4 -13   3   69.79   10.30
   4 -13   3   82.49    9.90
   4 -13   3   85.59    9.60
  -5  13  -3    7.80    7.60
  -5  13  -3    7.30    6.50
   5 -13   3   14.30    8.00
   5 -13   3  -13.50    7.20
   5 -13   3   -8.80    6.60
   5  12  -3   10.60   10.00
   5  12  -3   14.70   11.10
   5  12  -3    5.00    6.40
  -5 -12   3    2.40    7.70
  -5 -12   3   -7.30    6.60
   4  12  -3   -2.50    8.80
   4  12  -3    7.60    9.80
   4  12  -3    6.00    4.10
   4  12  -3    0.80    5.50
  -4 -12   3    6.30    6.30
  -4 -12   3    1.80    6.70
   3  12  -3    4.40    4.00
   3  12  -3   11.90    4.70
   3  12  -3   -7.50    8.10
  -3 -12   3   14.00   11.50
  -3 -12   3    9.10    4.70
  -3 -12   3    8.40    5.50
   2  12  -3   38.00    7.80
   2  12  -3   44.10    8.50
   2  12  -3   25.80    4.30
   2  12  -3   23.70    5.40
  -2 -12   3   22.30    5.40
  -2 -12   3   43.60    7.60
  -2 -12   3   35.50    6.40
   1  12  -3   24.50    6.90
   1  12  -3   35.50    5.20
   1  12  -3   30.90    6.80
  -1 -12   3   35.50    5.00
  -1 -12   3   28.70    6.40
  -1 -12   3   35.80    7.00
   0  12  -3   20.40    5.80
   0  12  -3   34.10    5.30
   0  12  -3   29.90    6.30
   0 -12   3   28.30    6.70
   0 -12   3   23.90    6.20
   0 -12   3   27.40    4.40
  -1  12  -3   98.49    7.20
  -1  12  -3  129.29    9.60
  -1  12  -3  123.19    9.80
  -1  12  -3  134.09   10.80
   1 -12   3  129.09   12.30
   1 -12   3  104.59   11.20
   1 -12   3  107.39    7.70
  -2  12  -3    3.00    4.50
  -2  12  -3    9.10    5.30
  -2  12  -3   -1.30    4.60
   2 -12   3   -0.40    3.00
   2 -12   3    2.20    6.00
   2 -12   3    0.50    5.90
  -3  12  -3   11.30    5.10
  -3  12  -3    2.50    5.30
  -3  12  -3    9.00    5.70
   3 -12   3    3.70    6.50
   3 -12   3    8.10    6.60
  -4  12  -3    3.90    5.70
  -4  12  -3    5.90    6.50
   4 -12   3   -2.40    6.10
   4 -12   3   14.60    7.40
   4 -12   3   11.40    7.30
  -5  12  -3   16.00    7.80
   5 -12   3   25.80    8.20
   5 -12   3   19.20    8.30
   5 -12   3   14.40    8.20
  -6  12  -3    0.60    6.50
   6 -12   3   19.70    8.60
   6 -12   3    0.30    7.00
   5  11  -3    7.10    5.90
   5  11  -3   16.20   11.00
   5  11  -3   12.90   10.60
  -5 -11   3   14.50    7.40
  -5 -11   3   25.50    7.80
   4  11  -3    2.80    4.90
   4  11  -3   20.50    9.60
   4  11  -3    6.80    3.60
  -4 -11   3   11.10    6.30
   3  11  -3   17.30    7.90
   3  11  -3    5.30    4.20
   3  11  -3    6.40    3.90
   3  11  -3    3.90    7.90
  -3 -11   3   12.40    4.40
  -3 -11   3   14.70    6.70
  -3 -11   3    1.50    5.10
   2  11  -3  105.89    8.10
   2  11  -3  102.39   12.50
   2  11  -3   93.19   11.70
   2  11  -3  105.99    7.70
  -2 -11   3  113.19    9.70
  -2 -11   3  102.69    9.10
  -2 -11   3  117.89   11.70
   1  11  -3    3.90    5.60
   1  11  -3   -2.10    5.20
  -1 -11   3    1.40    7.30
  -1 -11   3    1.80    5.20
   0  11  -3  122.79    8.80
   0  11  -3  136.29   10.80
   0  11  -3  125.39   10.20
   0 -11   3  113.99    8.30
   0 -11   3  114.89   11.50
   0 -11   3  127.79   10.50
  -1  11  -3   12.70    4.60
  -1  11  -3   11.70    5.20
  -1  11  -3   10.20    2.90
  -1  11  -3   12.40    4.60
   1 -11   3   24.80    6.10
   1 -11   3   17.40    5.60
   1 -11   3    6.70    3.60
  -2  11  -3   36.80    6.00
  -2  11  -3   33.50    5.60
   2 -11   3   31.90    4.00
   2 -11   3   22.40    6.00
   2 -11   3   32.70    6.80
  -3  11  -3   89.99    9.40
  -3  11  -3   93.99   10.30
  -3  11  -3   89.49    8.90
   3 -11   3   77.39    5.80
   3 -11   3   94.19   10.60
   3 -11   3   86.19   11.30
   3 -11   3   84.89    6.80
  -4  11  -3   -5.90    5.60
  -4  11  -3    2.10    5.10
   4 -11   3    3.50    6.80
   4 -11   3   -8.10    3.50
   4 -11   3    4.20    6.40
  -5  11  -3   18.20    6.30
  -5  11  -3   21.40    7.50
   5 -11   3    3.30    4.60
   5 -11   3    5.20    7.40
   5 -11   3    0.40    7.60
   5 -11   3    8.20    4.70
   5 -11   3    8.60    7.10
  -6  11  -3    4.70    6.70
   6 -11   3   -1.60    9.40
   6 -11   3   -2.70    8.00
   6 -11   3    0.50    7.90
   6  10  -3   -4.40    6.00
   6  10  -3    9.20   11.60
   6  10  -3    8.70   13.40
  -6 -10   3   -9.20    6.70
   5  10  -3   12.00    6.40
   5  10  -3    6.80   10.30
   5  10  -3    9.70   10.30
  -5 -10   3   18.40    7.40
  -5 -10   3    6.70    6.90
   4  10  -3    4.70    8.80
   4  10  -3    5.70    4.80
   4  10  -3    7.30    8.80
   4  10  -3    7.90    3.70
  -4 -10   3    6.20    6.10
  -4 -10   3    2.40    5.80
   3  10  -3   10.50    4.20
   3  10  -3    7.80    7.70
   3  10  -3   16.10    4.20
   3  10  -3   22.90    8.10
  -3 -10   3   26.30    6.30
  -3 -10   3   17.80    4.10
  -3 -10   3   24.50    5.80
  -3 -10   3   17.20    5.40
   2  10  -3   -1.20    3.10
   2  10  -3   -0.60    6.20
   2  10  -3    0.30    3.00
   2  10  -3    2.40    3.80
   2  10  -3   -0.60    6.60
  -2 -10   3    3.60    4.50
  -2 -10   3    2.50    5.40
  -2 -10   3   -1.40    4.10
   1  10  -3  605.74   26.90
   1  10  -3  605.84   27.10
   1  10  -3  621.14   25.80
  -1 -10   3  613.34   26.30
  -1 -10   3  595.14   25.70
  -1 -10   3  588.14   27.40
   0  10  -3   28.40    5.50
   0  10  -3   28.90    5.00
   0  10  -3   26.60    5.90
   0 -10   3   25.90    6.10
   0 -10   3   11.90    8.30
   0 -10   3   28.90    4.40
  -1  10  -3   23.20    4.70
  -1  10  -3   25.80    5.50
  -1  10  -3   27.20    4.70
  -1  10  -3   20.50    3.30
   1 -10   3   19.40    5.10
   1 -10   3   21.90    4.00
   1 -10   3   27.30    6.10
  -2  10  -3   61.49    6.80
  -2  10  -3   65.69    8.00
  -2  10  -3   58.49    7.40
   2 -10   3   59.59    7.00
   2 -10   3   64.99    7.60
   2 -10   3   65.59    6.50
  -3  10  -3  334.87   16.90
  -3  10  -3  344.47   17.40
   3 -10   3  324.17   17.60
   3 -10   3  315.47   15.60
   3 -10   3  339.07   15.00
   3 -10   3  328.97   17.60
  -4  10  -3   10.60    6.00
  -4  10  -3   13.90    5.30
   4 -10   3   10.80    6.10
   4 -10   3   15.00    4.50
   4 -10   3   12.80    4.30
   4 -10   3   11.50    3.60
   4 -10   3   10.10    6.30
  -5  10  -3   -2.50    5.70
   5 -10   3    0.10    4.80
   5 -10   3   -7.20    6.70
   5 -10   3    6.40    6.60
  -6  10  -3    8.70    6.60
   6 -10   3   10.60    7.90
   6 -10   3   -3.40    7.70
   6 -10   3    9.70    8.30
   6 -10   3    9.80    6.10
   6 -10   3    9.00    7.10
   6   9  -3   11.90    6.40
   6   9  -3   -1.70   10.60
   6   9  -3    5.90   11.10
  -6  -9   3   15.30    6.90
  -6  -9   3   -8.40    7.10
   5   9  -3    2.20    9.90
   5   9  -3   23.00   10.80
  -5  -9   3    8.60    6.60
  -5  -9   3    1.40    6.90
   4   9  -3   24.30    9.30
   4   9  -3   21.40    8.70
   4   9  -3   32.80    4.30
  -4  -9   3   30.60    6.40
  -4  -9   3   24.40    6.20
   3   9  -3  287.27   12.80
   3   9  -3  285.97   16.60
   3   9  -3  272.07   17.30
  -3  -9   3  255.17   12.40
  -3  -9   3  271.67   15.30
  -3  -9   3  237.28   14.30
  -3  -9   3  261.57   11.90
   2   9  -3   50.69    5.50
   2   9  -3   54.49    6.50
   2   9  -3   43.90    7.50
  -2  -9   3   52.89    6.80
  -2  -9   3   44.40    5.30
  -2  -9   3   43.20    5.60
  -2  -9   3   41.30    4.50
   1   9  -3   36.60    4.50
   1   9  -3   41.50    6.50
   1   9  -3   40.70    6.30
   1   9  -3   37.90    4.40
   1   9  -3   44.70    5.10
  -1  -9   3   40.20    5.20
  -1  -9   3   39.80    5.00
  -1  -9   3   38.10    6.10
   0   9  -3   57.19    5.80
   0   9  -3   42.90    9.90
   0   9  -3   60.69    6.60
   0   9  -3   50.39    6.10
   0  -9   3   40.50    5.40
   0  -9   3   54.79    6.50
  -1   9  -3   72.09    7.30
  -1   9  -3   87.99    7.50
  -1   9  -3   68.69    6.30
   1  -9   3   68.39    6.80
   1  -9   3   74.19    7.80
   1  -9   3   77.79    7.90
   1  -9   3   67.09    6.90
  -2   9  -3  216.88   12.20
  -2   9  -3  229.58   13.00
  -2   9  -3  221.78   11.70
   2  -9   3  228.88   16.30
   2  -9   3  232.48   11.30
   2  -9   3  210.48   13.30
  -3   9  -3   -2.00    4.20
  -3   9  -3   -1.70    4.40
  -3   9  -3   -0.60    3.90
   3  -9   3    0.60    5.10
   3  -9   3    2.80    4.10
   3  -9   3    3.10    5.20
  -4   9  -3  135.89   11.20
  -4   9  -3  139.49   10.30
   4  -9   3  164.78    9.30
   4  -9   3  135.19   11.70
   4  -9   3  129.59   11.80
   4  -9   3  114.69    9.90
  -5   9  -3   18.70    6.00
  -5   9  -3   -4.90    6.20
   5  -9   3    6.10    5.10
   5  -9   3    2.30    6.60
   5  -9   3    3.90    6.70
   5  -9   3   12.20    6.60
   6  -9   3   -1.10    5.80
   6  -9   3   -2.60    7.60
   6  -9   3  -12.40    6.40
   6  -9   3    1.40    7.50
   6  -9   3    3.70    6.10
   7  -9   3   19.80    9.60
   7  -9   3    2.40   10.80
   6   8  -3    9.30   10.90
   6   8  -3    2.00   10.40
  -6  -8   3   -0.30    7.30
  -6  -8   3    5.00    7.80
   5   8  -3   10.90    3.80
  -5  -8   3    5.60    5.90
  -5  -8   3    7.10    6.40
   4   8  -3    6.30    7.60
   4   8  -3    2.00    8.00
   4   8  -3    4.50    3.80
  -4  -8   3   -2.90    4.90
  -4  -8   3    7.00    3.80
  -4  -8   3   -2.50    5.20
  -4  -8   3   -2.10    5.00
   3   8  -3  362.66   19.70
   3   8  -3  352.36   18.70
   3   8  -3  366.26   15.80
  -3  -8   3  336.07   17.70
  -3  -8   3  330.67   17.20
  -3  -8   3  355.66   14.80
  -3  -8   3  354.76   15.90
  -3  -8   3  355.56   17.10
   2   8  -3   62.19    6.50
   2   8  -3   55.79    5.90
   2   8  -3   66.99    8.00
   2   8  -3   62.79    7.40
  -2  -8   3   56.59    5.50
  -2  -8   3   53.49    6.80
  -2  -8   3   47.50    5.90
  -2  -8   3   56.49   10.70
  -2  -8   3   53.49    5.70
   1   8  -3   13.30    2.60
   1   8  -3   19.70    5.40
   1   8  -3   21.90    5.20
   1   8  -3   13.80    3.70
  -1  -8   3   17.20    3.60
  -1  -8   3   22.30    4.50
  -1  -8   3   19.90    4.00
  -1  -8   3   18.80    4.80
  -1  -8   3   14.40    4.00
   0   8  -3   48.40    4.80
   0   8  -3   41.40    5.20
   0   8  -3   38.90    4.10
   0   8  -3   47.30    4.90
   0  -8   3   43.70    5.10
   0  -8   3   48.40    5.70
   0  -8   3   53.09    6.50
   0  -8   3   39.90    5.20
  -1   8  -3    8.90    3.50
  -1   8  -3   15.00    4.20
  -1   8  -3   11.60    3.60
  -1   8  -3   13.20    2.60
   1  -8   3    9.50    4.50
   1  -8   3   12.70    3.70
   1  -8   3   17.40    4.30
   1  -8   3   10.10    4.40
  -2   8  -3  140.39    9.70
  -2   8  -3  138.09    8.30
  -2   8  -3   98.59   10.80
   2  -8   3  132.69    9.30
   2  -8   3  133.79   10.30
   2  -8   3  112.59   14.50
   2  -8   3  126.29    8.50
  -3   8  -3   11.90    4.60
  -3   8  -3   11.70    4.90
  -3   8  -3    8.30    4.30
   3  -8   3   17.70    3.30
   3  -8   3   17.50    4.40
   3  -8   3   14.60    3.50
   3  -8   3    9.80    4.90
   3  -8   3   13.70    6.60
  -4   8  -3    2.90    4.80
  -4   8  -3    1.50    5.10
   4  -8   3    4.40    5.30
   4  -8   3   11.00    4.60
   4  -8   3    8.60    5.60
  -5   8  -3   -4.80    5.80
  -5   8  -3   -0.60    5.30
   5  -8   3   -5.40    5.80
   5  -8   3   -7.60    5.80
   5  -8   3   -7.60    7.10
   5  -8   3    6.50    5.70
   6  -8   3   -2.00    5.50
   6  -8   3    0.70    6.10
   6  -8   3    2.20    9.80
   6  -8   3    5.80    8.60
   6  -8   3    0.50    7.40
   6  -8   3    1.00    6.00
   7  -8   3    3.40    8.00
   7  -8   3    8.70    7.10
   7  -8   3   13.30    7.10
   7  -8   3   12.20    8.80
   7  -8   3   13.30    8.00
   7  -8   3    1.30    8.50
   6   7  -3    7.40   10.50
   6   7  -3   25.80   11.10
  -6  -7   3    9.10    7.30
  -6  -7   3   21.70    6.70
   5   7  -3   48.70   10.10
   5   7  -3   67.69    6.60
   5   7  -3   42.80    9.60
  -5  -7   3   49.20    6.90
  -5  -7   3   48.60    8.30
  -5  -7   3   61.19    8.70
   4   7  -3   39.10    4.80
   4   7  -3   54.29    8.30
   4   7  -3   30.80    8.30
  -4  -7   3   30.70    6.00
  -4  -7   3   33.80    4.40
  -4  -7   3   39.20    6.30
  -4  -7   3   35.10    6.00
   3   7  -3  101.19    7.60
   3   7  -3  100.29   12.30
   3   7  -3   89.89    8.90
  -3  -7   3   86.69    8.30
  -3  -7   3   69.89    8.60
  -3  -7   3  109.09    7.40
  -3  -7   3   85.79    9.20
   2   7  -3  661.63   26.60
   2   7  -3  638.54   28.50
   2   7  -3  615.24   26.60
   2   7  -3  621.04   27.70
  -2  -7   3  651.93   27.70
  -2  -7   3  667.43   26.80
  -2  -7   3  633.04   27.10
  -2  -7   3  663.43   26.80
  -2  -7   3  622.74   26.00
  -2  -7   3  659.53   26.30
   1   7  -3  113.39    8.90
   1   7  -3  114.39    7.60
   1   7  -3  116.39    7.20
   1   7  -3  112.69    9.40
   1   7  -3  119.69    6.20
  -1  -7   3  122.19    7.10
  -1  -7   3  116.89    7.40
  -1  -7   3  115.89    7.00
  -1  -7   3  104.79    7.50
  -1  -7   3  114.79    8.70
  -1  -7   3  120.09    7.70
   0   7  -3   31.30    3.60
   0   7  -3   28.20    3.90
   0   7  -3   29.00    4.40
   0   7  -3   29.70    3.80
   0  -7   3   35.90    4.00
   0  -7   3   33.40    3.90
   0  -7   3   36.30    3.90
   0  -7   3   30.20    4.10
   0  -7   3   33.90    3.90
   0  -7   3   30.20    4.60
  -1   7  -3   30.10    4.00
  -1   7  -3   31.50    3.10
  -1   7  -3   32.00    4.50
  -1   7  -3   32.90    3.70
   1  -7   3   31.30    4.30
   1  -7   3   30.00    3.70
   1  -7   3   23.20    3.90
   1  -7   3   30.00    4.20
  -2   7  -3   32.20    4.50
  -2   7  -3   45.20    5.60
  -2   7  -3   31.40    4.60
   2  -7   3   38.50    4.20
   2  -7   3   40.70    5.10
   2  -7   3   35.80    5.10
   2  -7   3   35.50    4.60
  -3   7  -3  301.07   14.60
  -3   7  -3  327.97   15.40
  -3   7  -3  320.77   15.70
   3  -7   3  283.97   13.90
   3  -7   3  317.17   13.80
   3  -7   3  308.47   14.50
   3  -7   3  310.57   15.80
   3  -7   3  306.27   16.90
  -4   7  -3  421.16   23.60
  -4   7  -3  421.26   19.90
   4  -7   3  399.26   21.30
   4  -7   3  422.66   18.60
   4  -7   3  413.66   20.00
  -5   7  -3   -9.60    5.00
   5  -7   3   -3.90    5.20
   5  -7   3    1.40    5.80
   5  -7   3   -3.10    5.40
   5  -7   3    6.10    4.80
   6  -7   3   34.50    7.80
   6  -7   3   28.70    7.00
   6  -7   3   27.30    7.30
   6  -7   3   43.90   11.40
   6  -7   3   27.50    6.40
   7  -7   3   14.00    6.80
   7  -7   3    6.60    7.40
   7  -7   3   -5.30    8.80
   7  -7   3    5.90    8.70
   7  -7   3    6.40    6.90
   7  -7   3    3.80    7.60
   7   6  -3   53.89   13.50
  -7  -6   3   54.19    8.10
   6   6  -3   25.50   11.30
   6   6  -3   23.50    9.80
   6   6  -3   20.40    4.90
  -6  -6   3   28.90    7.60
  -6  -6   3   34.80    6.70
  -6  -6   3   18.20    8.00
   5   6  -3   83.09    7.50
   5   6  -3   65.59    9.80
   5   6  -3   63.49   10.40
  -5  -6   3   46.70    7.90
  -5  -6   3   53.99    7.60
  -5  -6   3   72.09    8.90
   4   6  -3   -4.10    4.20
   4   6  -3   -8.80    6.20
   4   6  -3   -2.80    7.00
  -4  -6   3   -3.70    3.40
  -4  -6   3    0.70    5.00
  -4  -6   3   -4.00    4.60
  -4  -6   3   -5.40    5.10
   3   6  -3  103.09    8.00
   3   6  -3  136.59   15.10
   3   6  -3   97.69   10.30
  -3  -6   3   82.79    8.40
  -3  -6   3   97.09    8.40
  -3  -6   3   96.59    8.80
  -3  -6   3  100.99    7.90
   2   6  -3    4.00    5.00
   2   6  -3    0.80    3.10
   2   6  -3    6.10    4.40
   2   6  -3    2.80    2.70
  -2  -6   3    1.70    3.80
  -2  -6   3   -6.80    3.10
  -2  -6   3    4.00    3.10
  -2  -6   3    0.40    2.10
  -2  -6   3   -1.60    3.60
   1   6  -3  528.75   21.60
   1   6  -3  535.45   21.10
   1   6  -3  520.05   22.60
   1   6  -3  505.55   21.80
   1   6  -3  490.15   21.60
   1   6  -3  500.75   21.90
  -1  -6   3  545.05   22.90
  -1  -6   3  532.15   21.50
  -1  -6   3  501.85   21.70
  -1  -6   3  537.35   21.60
  -1  -6   3  502.95   21.30
  -1  -6   3  540.55   22.20
  -1  -6   3  492.05   21.40
  -1  -6   3  533.35   22.30
   0   6  -3  143.69    7.80
   0   6  -3  146.69    8.60
   0   6  -3  124.19    7.70
   0   6  -3  143.19    8.00
   0   6  -3  141.49    7.60
   0  -6   3  140.29    7.70
   0  -6   3  147.59    7.80
   0  -6   3  145.09    8.90
   0  -6   3  135.99    8.80
   0  -6   3  147.09    8.80
   0  -6   3  149.59    8.20
   0  -6   3  142.39    8.00
  -1   6  -3  105.59    6.30
  -1   6  -3  100.79    6.80
  -1   6  -3   97.39    6.70
  -1   6  -3   99.19    5.80
  -1   6  -3  105.19    7.30
   1  -6   3  100.59    6.80
   1  -6   3  103.09    6.70
   1  -6   3  109.39    7.00
   1  -6   3   99.29    7.10
   1  -6   3  102.99    6.60
   1  -6   3  101.29    6.80
   1  -6   3  105.89    7.40
  -2   6  -3   -0.30    3.20
  -2   6  -3   -0.30    2.70
  -2   6  -3   -1.40    2.70
   2  -6   3    0.00    2.80
   2  -6   3   -0.10    2.00
   2  -6   3   -2.10    3.10
   2  -6   3    0.60    3.20
   2  -6   3   -0.40    1.90
   2  -6   3   -2.10    2.90
   2  -6   3    0.10    2.20
  -3   6  -3  542.75   23.10
  -3   6  -3  549.25   23.10
  -3   6  -3  506.55   22.50
   3  -6   3  526.95   22.30
   3  -6   3  541.55   23.40
   3  -6   3  549.65   22.30
   3  -6   3  556.34   23.40
   3  -6   3  469.55   23.50
   3  -6   3  527.65   22.00
  -4   6  -3   43.90    5.80
  -4   6  -3   46.10    6.00
   4  -6   3   38.70    6.10
   4  -6   3   43.80    6.00
   4  -6   3   51.99    5.40
   5  -6   3   75.29    8.40
   5  -6   3   71.69    9.60
   5  -6   3   80.79    9.80
   5  -6   3   76.89    7.90
   6  -6   3    1.10    7.90
   6  -6   3   -1.00    7.40
   6  -6   3    9.60    6.30
   6  -6   3    4.20    5.80
   6  -6   3    5.80    5.80
   6  -6   3    5.60    6.80
   7  -6   3    4.00    8.70
   7  -6   3   -8.50    6.40
   7  -6   3   -0.20    7.30
   7  -6   3   -1.50    7.00
   7  -6   3   -5.40    7.90
   7  -6   3    0.40    8.20
   7  -6   3    1.70    6.40
   7   5  -3  -17.50    9.50
   7   5  -3    1.60   11.00
  -7  -5   3   16.50    8.70
  -7  -5   3  -16.40    7.50
  -7  -5   3  -10.10    6.20
   6   5  -3   30.70    6.00
   6   5  -3   17.10    9.40
   6   5  -3   27.40   10.50
  -6  -5   3   36.90    6.10
  -6  -5   3   21.40    7.50
  -6  -5   3   14.70    7.60
   5   5  -3    8.20    7.50
   5   5  -3    0.00    8.10
   5   5  -3    3.50    4.80
  -5  -5   3    3.60    5.80
  -5  -5   3    8.50    4.70
  -5  -5   3    1.60    5.40
   4   5  -3   45.40    7.30
   4   5  -3   51.19    5.70
   4   5  -3   49.20    8.30
  -4  -5   3   39.70    5.20
  -4  -5   3   45.80    5.90
  -4  -5   3   39.90    6.30
  -4  -5   3   44.00    6.00
   3   5  -3   24.40    6.40
   3   5  -3   15.00    5.40
   3   5  -3   24.80    4.40
  -3  -5   3   25.40    4.80
  -3  -5   3   43.50    7.30
  -3  -5   3   22.30    4.40
  -3  -5   3   21.30    4.70
   2   5  -3  498.05   20.30
   2   5  -3  466.85   21.30
   2   5  -3  488.85   20.70
   2   5  -3  464.65   20.40
  -2  -5   3  497.95   20.40
  -2  -5   3  487.35   20.70
  -2  -5   3  477.85   19.40
  -2  -5   3  469.55   20.20
  -2  -5   3  506.35   20.70
  -2  -5   3  469.25   19.30
  -2  -5   3  475.15   20.20
   1   5  -3    0.70    2.60
   1   5  -3    0.30    2.10
   1   5  -3   -1.80    3.80
   1   5  -3   -2.10    2.60
   1   5  -3   -0.50    3.10
   1   5  -3   -2.60    3.10
  -1  -5   3   -5.60    3.10
  -1  -5   3   -2.50    2.70
  -1  -5   3   -2.40    2.10
  -1  -5   3   -1.10    2.20
  -1  -5   3   -0.20    2.80
  -1  -5   3   -2.60    2.20
  -1  -5   3    0.40    2.60
   0   5  -3  152.58    7.60
   0   5  -3  138.09    7.20
   0   5  -3  149.49    8.10
   0   5  -3  127.79    7.40
   0   5  -3  126.39    7.50
   0  -5   3  134.99    7.10
   0  -5   3  139.99    7.50
   0  -5   3  154.78    8.10
   0  -5   3  136.89    8.30
   0  -5   3  151.58    7.80
   0  -5   3  138.19    7.60
  -1   5  -3  123.29    6.40
  -1   5  -3  115.39    7.40
  -1   5  -3  112.69    6.30
  -1   5  -3  123.89    7.00
   1  -5   3  121.59    7.40
   1  -5   3  131.39    6.60
   1  -5   3  133.39    7.20
   1  -5   3  114.79    7.20
   1  -5   3  129.89    7.70
   1  -5   3  117.19    9.90
  -2   5  -3  514.85   20.90
  -2   5  -3  506.45   20.50
  -2   5  -3  501.35   20.90
   2  -5   3  486.35   20.90
   2  -5   3  509.15   20.50
   2  -5   3  480.05   20.90
   2  -5   3  485.95   20.30
   2  -5   3  488.05   21.00
   2  -5   3  475.95   20.80
   2  -5   3  513.35   21.30
   2  -5   3  485.65   20.40
   2  -5   3  500.65   20.10
  -3   5  -3  131.19    8.70
  -3   5  -3  136.79    8.80
  -3   5  -3  137.29    8.70
   3  -5   3  116.09    8.60
   3  -5   3  140.49    9.60
   3  -5   3  140.79    7.60
   3  -5   3  143.39    8.30
   3  -5   3  135.49    8.30
  -4   5  -3    7.70    4.70
   4  -5   3    6.60    4.40
   4  -5   3   13.00    5.00
   4  -5   3    8.10    5.10
   5  -5   3    1.50    5.00
   5  -5   3    2.10    6.40
   5  -5   3    7.80    5.30
   5  -5   3   -2.20    5.10
   6  -5   3  118.39   12.70
   6  -5   3  113.39   11.40
   6  -5   3   80.69    8.80
   6  -5   3   86.19   10.70
   6  -5   3   98.29   12.90
   7  -5   3   -5.20    7.10
   7  -5   3   -8.10    6.20
   7  -5   3   17.10    7.80
   7  -5   3    5.90    6.70
   7  -5   3   -4.60    8.40
   7  -5   3   -0.60    6.30
   7  -5   3    7.30    8.60
   7   4  -3   13.40   11.10
   7   4  -3   20.10   10.30
  -7  -4   3   34.50    8.90
  -7  -4   3   20.70    6.30
  -7  -4   3   12.00    8.60
   6   4  -3   47.70    9.80
   6   4  -3   36.90   10.00
  -6  -4   3   43.70    8.20
  -6  -4   3   38.70    8.20
  -6  -4   3   40.60    6.00
   5   4  -3    6.80    7.20
   5   4  -3   -0.60    7.50
   5   4  -3   -0.30    5.10
  -5  -4   3   -7.00    3.90
  -5  -4   3   -0.30    5.60
  -5  -4   3   -2.40    5.10
   4   4  -3   74.89    8.70
   4   4  -3   67.79    6.50
   4   4  -3   58.39    7.60
  -4  -4   3   79.29    8.50
  -4  -4   3   66.49    8.60
  -4  -4   3   61.09    6.30
  -4  -4   3   67.69    7.40
   3   4  -3  149.79   11.80
   3   4  -3  152.68    9.00
   3   4  -3  170.68   10.60
   3   4  -3  166.78    9.50
  -3  -4   3  155.68    9.60
  -3  -4   3  170.58    9.20
  -3  -4   3  143.09    9.60
   2   4  -3  137.69    7.90
   2   4  -3  138.49    7.60
   2   4  -3  133.39    8.40
   2   4  -3  142.09    8.00
   2   4  -3  134.69    7.80
   2   4  -3  138.99    9.50
  -2  -4   3  132.49    8.10
  -2  -4   3  143.89    7.90
  -2  -4   3  136.59    7.70
  -2  -4   3  134.69    7.80
  -2  -4   3  133.89    8.40
   1   4  -3    4.80    2.20
   1   4  -3    2.80    2.70
   1   4  -3    0.40    3.50
   1   4  -3    0.70    2.10
   1   4  -3    2.80    2.60
   1   4  -3    0.10    2.30
  -1  -4   3    2.30    3.10
  -1  -4   3    3.40    4.50
  -1  -4   3    3.40    2.60
  -1  -4   3    4.90    2.70
  -1  -4   3    0.90    2.00
  -1  -4   3    1.70    2.40
  -1  -4   3    3.80    2.10
   0   4  -3   16.70    2.70
   0   4  -3   13.40    3.10
   0   4  -3   13.80    2.20
   0   4  -3   15.10    2.50
   0   4  -3   24.30    3.00
   0   4  -3   20.10    2.70
   0  -4   3   18.70    2.80
   0  -4   3   18.20    2.90
   0  -4   3   16.20    3.10
   0  -4   3   18.80    3.00
   0  -4   3   15.70    2.50
   0  -4   3   17.00    2.10
  -1   4  -3    6.70    2.00
  -1   4  -3    4.60    2.50
  -1   4  -3    3.80    2.50
  -1   4  -3    5.00    1.80
  -1   4  -3    0.60    2.20
   1  -4   3    3.10    2.90
   1  -4   3    4.20    2.30
   1  -4   3    3.10    2.30
   1  -4   3    0.90    1.60
   1  -4   3    3.60    2.30
   1  -4   3    3.70    2.40
   1  -4   3    0.10    1.90
  -2   4  -3  342.57   15.20
  -2   4  -3  347.87   15.60
  -2   4  -3  358.76   15.40
  -2   4  -3  345.97   14.90
   2  -4   3  340.07   15.20
   2  -4   3  343.67   14.80
   2  -4   3  348.17   15.30
   2  -4   3  367.66   15.60
   2  -4   3  365.56   14.90
   2  -4   3  358.76   15.10
   2  -4   3  365.36   15.70
   2  -4   3  336.87   14.90
   2  -4   3  358.36   15.50
   2  -4   3  368.16   14.80
  -3   4  -3    4.50    3.40
  -3   4  -3    1.50    3.10
  -3   4  -3    1.40    3.40
  -3   4  -3    5.40    3.30
   3  -4   3    4.70    2.60
   3  -4   3    4.50    3.30
   3  -4   3    0.60    2.90
   3  -4   3   -1.00    3.00
   3  -4   3    5.30    2.90
   3  -4   3    6.40    3.20
   5  -4   3   18.30    6.00
   5  -4   3    9.10    5.20
   5  -4   3   20.70    6.40
   5  -4   3   18.10    5.40
   6  -4   3    8.80    7.30
   6  -4   3   10.60    7.60
   6  -4   3    6.40    5.40
   6  -4   3    0.20    5.90
   7  -4   3   67.79   10.60
   7  -4   3   98.59   12.00
   7  -4   3  111.39   14.20
   7  -4   3  132.89   11.60
   7  -4   3  110.99   14.40
   7  -4   3  109.29   11.60
   7   3  -3   20.40   10.20
   7   3  -3   12.60   10.80
   7   3  -3   19.50    6.80
  -7  -3   3   10.50    7.90
  -7  -3   3   12.20    7.60
  -7  -3   3   -3.60    5.70
   6   3  -3  183.98   12.70
   6   3  -3  201.68   19.90
  -6  -3   3  164.58   15.70
  -6  -3   3  186.58   11.50
  -6  -3   3  196.78   14.20
   5   3  -3   54.79    8.30
   5   3  -3   69.19    7.10
   5   3  -3   61.69    9.10
  -5  -3   3   54.59    7.50
  -5  -3   3   79.79    9.10
  -5  -3   3   68.69    7.40
   4   3  -3    0.50    6.40
   4   3  -3   -4.60    3.30
   4   3  -3   -1.40    5.40
   4   3  -3   -3.60    4.80
  -4  -3   3   -1.80    3.70
  -4  -3   3   -1.10    3.30
  -4  -3   3   -0.10    4.40
  -4  -3   3   -3.90    4.40
   3   3  -3    0.60    4.00
   3   3  -3    1.10    3.80
   3   3  -3   13.00    5.00
   3   3  -3    6.10    2.80
  -3  -3   3    2.90    3.50
  -3  -3   3    7.20    3.50
  -3  -3   3    3.80    2.80
   2   3  -3   15.30    3.20
   2   3  -3   21.50    3.60
   2   3  -3   20.80    3.50
   2   3  -3   15.20    4.20
   2   3  -3   21.70    3.20
   2   3  -3   19.70    2.80
  -2  -3   3   14.50    3.30
  -2  -3   3   17.60    3.30
  -2  -3   3   20.30    3.20
  -2  -3   3   17.00    2.90
  -2  -3   3   16.50    3.60
   1   3  -3   60.59    4.20
   1   3  -3   47.40    3.40
   1   3  -3   46.90    4.20
   1   3  -3   38.90    4.80
   1   3  -3   57.19    4.10
   1   3  -3   49.99    4.50
   1   3  -3   47.10    4.20
  -1  -3   3   44.60    4.60
  -1  -3   3   51.69    3.40
  -1  -3   3   47.50    4.50
  -1  -3   3   48.10    4.70
  -1  -3   3   44.30    4.70
  -1  -3   3   47.00    4.90
   0   3  -3    7.20    2.20
   0   3  -3   14.00    2.30
   0   3  -3    6.10    2.20
   0   3  -3    3.60    2.50
   0  -3   3    2.90    2.00
   0  -3   3    5.90    2.50
   0  -3   3    8.30    2.00
   0  -3   3    9.00    2.30
   0  -3   3    7.20    1.70
   0  -3   3    9.70    2.50
  -1   3  -3  354.66   15.40
  -1   3  -3  388.86   15.70
  -1   3  -3  358.36   15.00
  -1   3  -3  373.76   15.80
   1  -3   3  362.56   15.50
   1  -3   3  392.86   15.70
   1  -3   3  363.96   15.70
   1  -3   3  390.46   16.00
   1  -3   3  371.86   15.80
   1  -3   3  388.56   15.80
   1  -3   3  391.76   15.30
  -2   3  -3  115.69    7.10
  -2   3  -3  117.89    6.70
  -2   3  -3  112.59    6.50
  -2   3  -3  109.79    6.50
  -2   3  -3  115.79    7.00
   2  -3   3  107.69    6.50
   2  -3   3  126.59    6.80
   2  -3   3  114.99    7.10
   2  -3   3  117.29    6.50
   2  -3   3  115.49    6.40
   2  -3   3  119.09    6.70
   2  -3   3  116.59    6.30
   2  -3   3  115.09    6.60
   2  -3   3  121.49    6.60
  -3   3  -3  187.08    9.80
  -3   3  -3  186.58    9.60
  -3   3  -3  176.48    9.80
  -3   3  -3  193.48    9.50
   3  -3   3  190.38    9.50
   3  -3   3  174.08    9.10
   3  -3   3  184.48    9.70
   3  -3   3  182.18    9.40
   3  -3   3  182.28    9.40
   3  -3   3  184.18    9.40
   3  -3   3  176.58    9.40
  -4   3  -3  107.69    8.70
  -4   3  -3  111.79    9.00
   4  -3   3  108.79    9.40
   4  -3   3  115.59    8.40
   4  -3   3  115.59    9.70
  -5   3  -3  201.08   12.10
  -5   3  -3  209.58   12.50
   5  -3   3  203.28   12.00
   5  -3   3  200.48   12.90
   5  -3   3  194.28   13.30
  -6   3  -3   13.90    6.00
   6  -3   3   19.00    6.90
   6  -3   3   17.10    5.30
   6  -3   3   30.80    8.20
   6  -3   3   31.00    6.40
   6  -3   3   47.60    8.40
   7  -3   3   10.90    5.90
   7  -3   3   21.00    7.00
   7  -3   3   10.70    6.70
   7  -3   3   20.50    9.50
   7  -3   3   18.40    8.10
   7  -3   3   16.60    9.40
   7   2  -3   16.70   10.40
   7   2  -3   22.70    7.40
   7   2  -3    9.60    9.50
  -7  -2   3   13.60    7.00
  -7  -2   3    8.80    7.80
   6   2  -3   33.30    9.80
   6   2  -3   48.00    7.60
  -6  -2   3   38.70    5.20
  -6  -2   3   52.29    7.60
   5   2  -3    1.60    7.00
   5   2  -3   -3.50    6.30
   5   2  -3    0.90    3.50
   5   2  -3   -0.40    5.60
  -5  -2   3   -3.10    3.30
  -5  -2   3    2.00    5.30
  -5  -2   3    4.20    4.90
   4   2  -3   17.20    6.50
   4   2  -3   18.90    5.80
   4   2  -3    9.80    3.50
   4   2  -3   15.30    5.30
  -4  -2   3   16.20    3.40
  -4  -2   3   13.30    4.80
   3   2  -3  247.28   12.00
   3   2  -3  236.58   11.80
   3   2  -3  235.88   12.60
   3   2  -3  217.28   10.60
  -3  -2   3  239.08   10.60
  -3  -2   3  226.08   11.80
  -3  -2   3  235.18   11.50
  -3  -2   3  240.28   11.30
   2   2  -3   34.20    3.80
   2   2  -3   46.90    5.80
   2   2  -3   38.10    3.80
   2   2  -3   35.10    4.60
   2   2  -3   44.70    4.90
   2   2  -3   46.30    5.30
  -2  -2   3   31.70    4.00
  -2  -2   3   32.90    3.60
  -2  -2   3   30.50    3.70
  -2  -2   3   35.70    3.70
   1   2  -3   46.50    4.20
   1   2  -3   46.40    4.10
   1   2  -3   42.10    3.40
   1   2  -3   41.30    4.00
   1   2  -3   43.80    3.20
   1   2  -3   53.39    3.80
   1   2  -3   39.00    3.70
  -1  -2   3   38.60    4.40
  -1  -2   3   51.59    4.50
  -1  -2   3   52.79    4.50
  -1  -2   3   50.39    3.80
   0   2  -3   -1.90    2.00
   0   2  -3   -7.40    2.50
   0  -2   3    0.60    2.30
   0  -2   3   -5.40    2.70
   0  -2   3    0.80    2.30
  -1   2  -3 3523.55  138.19
  -1   2  -3 3461.05  137.89
  -1   2  -3 3547.65  137.49
  -1   2  -3 3589.54  137.89
  -1   2  -3 3588.24  137.59
   1  -2   3 3533.05  137.89
   1  -2   3 3603.54  137.89
   1  -2   3 3428.06  137.69
   1  -2   3 3457.25  137.49
   1  -2   3 3771.32  137.69
   1  -2   3 3779.42  137.79
   1  -2   3 3282.57  137.49
  -2   2  -3  248.28   11.40
  -2   2  -3  238.08   10.90
  -2   2  -3  244.08   11.40
  -2   2  -3  238.18   10.90
   2  -2   3  244.98   11.20
   2  -2   3  269.57   11.30
   2  -2   3  246.18   11.30
   2  -2   3  242.18   10.90
   2  -2   3  247.08   10.80
   2  -2   3  253.07   10.90
   2  -2   3  234.88   10.90
   2  -2   3  259.37   11.30
  -3   2  -3  173.28    9.30
  -3   2  -3  179.08    8.70
  -3   2  -3  175.48    9.20
  -3   2  -3  181.68    9.30
   3  -2   3  179.68    9.00
   3  -2   3  169.68    9.00
   3  -2   3  137.79    9.20
   3  -2   3  181.98    9.20
   3  -2   3  168.78    9.60
   3  -2   3  169.58    8.90
   3  -2   3  173.68    9.40
   3  -2   3  154.28    9.10
  -4   2  -3  106.29    8.60
  -4   2  -3   94.59    8.00
  -4   2  -3  102.09    8.50
   4  -2   3   79.59    8.00
   4  -2   3   93.59    8.70
   4  -2   3   90.59    7.80
   4  -2   3  110.29    9.40
  -5   2  -3   15.40    5.10
  -5   2  -3   12.80    5.10
   5  -2   3   -1.60    4.40
   5  -2   3    3.00    5.80
   5  -2   3    8.50    6.00
  -6   2  -3    0.50    5.60
  -6   2  -3    0.70    5.80
   6  -2   3    1.60    6.00
   6  -2   3   -8.30    8.60
   6  -2   3    1.30    7.10
   6  -2   3    1.10    5.40
   6  -2   3   -2.00    7.10
  -7   2  -3   34.40    7.70
   7  -2   3   32.00    6.00
   7  -2   3   43.50   10.50
   7  -2   3   16.80    7.60
   7  -2   3   15.30    8.90
   7  -2   3   33.90    6.70
   7   1  -3   36.90   11.10
   7   1  -3   41.40   10.40
   7   1  -3   50.69    8.80
  -7  -1   3   37.10    9.20
  -7  -1   3   37.80    7.90
   6   1  -3   46.90   10.70
   6   1  -3   38.70    9.40
   6   1  -3   46.90    7.50
  -6  -1   3   57.89    6.70
  -6  -1   3   51.59    7.30
  -6  -1   3   26.00    8.60
   5   1  -3   25.40    7.60
   5   1  -3   17.70    6.90
   5   1  -3   11.40    4.60
   5   1  -3   20.40    7.30
  -5  -1   3   10.50    5.60
  -5  -1   3   30.10    5.50
  -5  -1   3   23.70    3.80
   4   1  -3    4.60    3.10
   4   1  -3   -1.80    4.90
   4   1  -3    0.40    6.00
  -4  -1   3    1.60    2.60
  -4  -1   3    5.60    4.00
  -4  -1   3    5.40    4.20
   3   1  -3    7.80    4.10
   3   1  -3   19.70    3.40
   3   1  -3    8.50    3.90
   3   1  -3    8.10    2.20
  -3  -1   3   16.30    3.40
  -3  -1   3   13.20    3.20
  -3  -1   3    8.30    3.50
  -3  -1   3   13.50    2.10
   2   1  -3   11.00    3.30
   2   1  -3   10.10    2.70
   2   1  -3    5.30    1.60
   2   1  -3   10.60    3.30
   2   1  -3   10.60    2.70
   2   1  -3   10.90    1.70
   2   1  -3    8.40    2.80
  -2  -1   3   14.80    2.90
  -2  -1   3   10.80    2.70
  -2  -1   3   11.60    3.00
  -2  -1   3   12.50    1.80
  -2  -1   3   10.90    2.90
  -2  -1   3   11.00    3.00
   1   1  -3   42.70    3.40
   1   1  -3   34.20    3.30
   1   1  -3   40.00    4.00
  -1  -1   3   37.70    4.10
  -1  -1   3   40.20    3.80
  -1  -1   3   27.20    2.80
  -1  -1   3   38.40    3.90
   0   1  -3  139.29    7.20
   0   1  -3  140.79    6.90
   0   1  -3  148.59    7.30
   0   1  -3  166.58    7.00
   0   1  -3  151.68    7.50
   0   1  -3  140.99    7.40
   0  -1   3  153.28    7.50
   0  -1   3  139.49    7.30
   0  -1   3  154.48    7.40
   0  -1   3  144.99    7.50
   0  -1   3  133.19    6.90
   0  -1   3  155.28    7.60
  -1   1  -3  807.52   31.30
  -1   1  -3  765.92   31.50
  -1   1  -3  814.12   30.90
  -1   1  -3  826.52   31.30
  -1   1  -3  818.62   31.50
   1  -1   3  781.62   31.50
   1  -1   3  789.52   31.50
   1  -1   3  766.92   31.40
   1  -1   3  788.22   31.30
   1  -1   3  785.52   31.20
   1  -1   3  770.72   31.30
   1  -1   3  790.12   30.90
   1  -1   3  767.62   31.00
  -2   1  -3  248.28   11.10
  -2   1  -3  254.97   11.20
  -2   1  -3  254.97   11.10
  -2   1  -3  228.78   11.10
   2  -1   3  239.28   11.00
   2  -1   3  243.58   10.50
   2  -1   3  245.48   11.10
   2  -1   3  248.48   11.10
   2  -1   3  240.28   10.50
   2  -1   3  247.38   10.90
   2  -1   3  224.68   11.00
   2  -1   3  239.78   10.80
   2  -1   3  225.48   10.70
  -3   1  -3  187.08    9.50
  -3   1  -3  197.88    9.80
  -3   1  -3  185.78    9.80
   3  -1   3  185.98   12.30
   3  -1   3  173.58    9.40
   3  -1   3  184.38    9.50
   3  -1   3  180.48    9.20
   3  -1   3  181.18    8.80
   3  -1   3  183.88    9.40
   3  -1   3  181.88    9.90
  -4   1  -3    5.30    3.60
  -4   1  -3   10.80    4.00
   4  -1   3   11.10    4.90
   4  -1   3    8.10    3.30
   4  -1   3   16.50    3.40
   4  -1   3    6.70    5.00
   4  -1   3   -2.80    3.50
  -5   1  -3   -5.70    4.50
  -5   1  -3    0.20    4.40
   5  -1   3    4.00    4.20
   5  -1   3   -2.30    5.70
   5  -1   3  -12.30    5.40
  -6   1  -3   -0.10    5.80
  -6   1  -3    0.90    5.70
   6  -1   3    5.80    7.10
   6  -1   3    6.50    4.90
   6  -1   3   10.70    6.20
   6  -1   3   -2.10    4.20
   6  -1   3   10.90    7.90
  -7   1  -3   23.60    7.80
  -7   1  -3   14.60    7.20
   7  -1   3   18.20    5.80
   7  -1   3   10.70    7.50
   7  -1   3   25.40    9.80
   7  -1   3   28.00    9.00
   7   0  -3   14.40    7.90
   7   0  -3   -2.80    9.10
   7   0  -3   -5.90    9.20
  -7   0   3    2.40    7.60
  -7   0   3    1.50    6.90
   6   0  -3   11.50    8.40
   6   0  -3   13.00    8.60
   6   0  -3    0.70    6.60
  -6   0   3    9.10    6.70
  -6   0   3    7.80    5.70
   5   0  -3    7.80    6.70
   5   0  -3   11.00    6.00
   5   0  -3   20.00    3.50
   5   0  -3   23.30    7.20
  -5   0   3    9.60    4.60
  -5   0   3    4.80    5.10
  -5   0   3    8.30    3.00
   4   0  -3   22.30    7.30
   4   0  -3    7.00    2.80
   4   0  -3    2.70    4.90
  -4   0   3    5.40    2.60
  -4   0   3    9.50    3.90
  -4   0   3    0.10    4.40
   3   0  -3  187.68    8.80
   3   0  -3  189.48    9.60
   3   0  -3  180.18   10.60
   3   0  -3  190.58   10.40
  -3   0   3  188.68   10.40
  -3   0   3  184.08   10.20
  -3   0   3  182.78    8.00
  -3   0   3  195.48    9.40
  -3   0   3  199.58    9.50
   2   0  -3  216.88   10.20
   2   0  -3  222.78   10.50
   2   0  -3  217.38   10.20
   2   0  -3  220.98   10.70
   2   0  -3  215.68    9.70
   2   0  -3  216.98   10.50
  -2   0   3  208.68    9.50
  -2   0   3  234.08   10.50
  -2   0   3  228.78   10.20
  -2   0   3  222.38   10.20
  -2   0   3  229.38   10.70
   1   0  -3 6802.62  248.68
   1   0  -3 6156.38  248.38
   1   0  -3 6262.27  248.38
   1   0  -3 7063.09  248.78
   1   0  -3 6227.68  248.48
   1   0  -3 6323.37  248.38
  -1   0   3 6266.17  248.38
  -1   0   3 7015.20  248.78
  -1   0   3 6079.09  248.08
  -1   0   3 6111.89  248.08
  -1   0   3 6474.65  248.38
  -1   0   3 6655.33  248.58
  -1   0   3 6289.77  248.38
  -1   0   3 6086.29  248.38
   0   0  -3  112.89    6.20
   0   0  -3  111.19    5.70
   0   0  -3  105.69    5.10
   0   0  -3   98.69    5.70
   0   0  -3   99.39    6.30
   0   0  -3   85.69    6.20
   0   0   3  102.19    6.20
   0   0   3  106.29    6.10
   0   0   3  118.29    6.10
   0   0   3  121.89    5.70
   0   0   3   97.79    6.50
   0   0   3  100.49    5.50
  -1   0  -3   46.50    4.10
  -1   0  -3   44.90    3.50
  -1   0  -3   39.00    4.70
  -1   0  -3   38.10    3.30
  -1   0  -3   44.30    3.70
   1   0   3   37.00    3.70
   1   0   3   43.00    4.10
   1   0   3   36.90    3.70
   1   0   3   47.50    4.20
   1   0   3   29.40    3.50
   1   0   3   34.70    4.20
  -2   0  -3   14.30    2.60
  -2   0  -3   15.50    2.00
  -2   0  -3   19.80    3.20
  -2   0  -3   17.60    3.00
   2   0   3   20.50    2.90
   2   0   3   26.00    3.30
   2   0   3   19.40    3.10
   2   0   3   18.40    3.10
   2   0   3   16.40    2.20
   2   0   3   22.10    2.70
   2   0   3   15.20    3.00
   2   0   3   23.10    3.30
   2   0   3   20.60    2.80
  -3   0  -3   81.59    5.90
  -3   0  -3   76.59    6.50
  -3   0  -3   73.49    6.40
   3   0   3   63.39    5.80
   3   0   3   78.99    5.70
   3   0   3   73.29    7.30
   3   0   3   77.39    6.80
   3   0   3   76.79    5.00
   3   0   3   72.19    6.60
   3   0   3   75.69    6.30
   3   0   3   81.19    7.30
  -4   0  -3   23.70    4.80
  -4   0  -3   29.40    5.00
  -4   0  -3   17.10    3.80
   4   0   3   20.80    6.20
   4   0   3   24.70    5.00
   4   0   3   25.60    3.90
   4   0   3   26.50    3.90
   4   0   3   22.70    5.50
   4   0   3   15.00    3.30
  -5   0  -3    4.30    4.50
  -5   0  -3    0.70    4.90
   5   0   3    3.50    4.00
   5   0   3   -7.60    6.30
   5   0   3   -1.40    6.00
   5   0   3    8.60    5.20
   5   0   3    6.10    3.20
  -6   0  -3   22.40    6.30
  -6   0  -3   20.60    6.70
   6   0   3   16.00    7.70
   6   0   3   20.90    4.60
   6   0   3   17.60    4.90
   6   0   3   12.50    8.10
  -7   0  -3    9.60    8.50
  -7   0  -3   15.90    7.30
   7   0   3    4.50    8.80
   7   0   3   -1.30    9.10
   7   0   3   -5.00    6.70
   7  -1  -3    7.40    8.10
   7  -1  -3   38.20   10.50
   7  -1  -3   20.00   10.20
  -7   1   3   11.50    8.40
  -7   1   3   23.50    7.10
   6  -1  -3   -6.00    8.20
   6  -1  -3   10.30    7.20
   6  -1  -3    9.00    8.40
  -6   1   3    9.10    6.70
  -6   1   3   12.80    5.50
   5  -1  -3    5.70    6.50
   5  -1  -3    9.30    3.60
   5  -1  -3   13.00    3.20
   5  -1  -3    4.20    5.80
  -5   1   3    3.10    5.00
  -5   1   3    5.50    4.30
   4  -1  -3  156.38   12.50
   4  -1  -3  164.08    8.40
   4  -1  -3  174.98   11.10
   4  -1  -3  154.48    8.90
  -4   1   3  169.18   11.10
  -4   1   3  148.09   11.90
  -4   1   3  151.88    9.40
   3  -1  -3  118.39    7.20
   3  -1  -3  124.69    8.40
   3  -1  -3  112.99    8.30
  -3   1   3  117.19    7.00
  -3   1   3  120.39    6.70
  -3   1   3  117.79    7.30
  -3   1   3  117.39    7.90
  -3   1   3  126.19    8.40
   2  -1  -3   36.50    4.50
   2  -1  -3   23.80    3.50
   2  -1  -3   16.20    3.10
   2  -1  -3   21.70    3.30
  -1   1   3  237.58   10.00
  -1   1   3  198.08   10.60
  -1   1   3  243.78   10.30
  -1   1   3  260.17    9.50
  -1   1   3  234.78   10.30
   0  -1  -3    4.50    2.90
   0  -1  -3   12.90    2.30
   0  -1  -3   10.00    1.40
   0  -1  -3    9.40    1.80
   0   1   3    4.80    3.00
  -1  -1  -3  257.67   11.40
  -1  -1  -3  268.57   10.80
  -1  -1  -3  261.57   11.50
  -1  -1  -3  253.27   11.60
  -1  -1  -3  273.57   11.40
  -1  -1  -3  271.27   11.50
   1   1   3  263.77   11.20
   1   1   3  260.57   11.50
   1   1   3  256.17   11.40
   1   1   3  268.87   11.70
  -2  -1  -3   18.60    3.10
  -2  -1  -3   15.70    2.90
  -2  -1  -3   18.00    3.10
  -2  -1  -3   13.10    2.90
   2   1   3   15.60    3.20
   2   1   3   16.30    2.70
   2   1   3   14.60    2.50
   2   1   3   14.20    3.50
   2   1   3   19.30    2.90
   2   1   3   18.50    3.20
  -3  -1  -3    7.90    2.70
  -3  -1  -3    8.40    3.30
  -3  -1  -3    4.00    3.20
   3   1   3   13.30    4.30
   3   1   3    7.20    2.00
   3   1   3    4.40    2.80
   3   1   3    2.90    3.60
   3   1   3   11.40    3.50
   3   1   3    6.30    2.00
  -4  -1  -3  370.16   17.40
  -4  -1  -3  375.86   17.60
  -4  -1  -3  379.26   16.30
   4   1   3  374.46   19.60
   4   1   3  339.77   16.20
   4   1   3  365.46   15.90
   4   1   3  357.06   15.40
   4   1   3  360.16   17.80
   4   1   3  381.06   17.70
  -5  -1  -3  169.08    9.60
  -5  -1  -3  181.58   11.80
  -5  -1  -3  177.18   11.40
   5   1   3  166.78    8.90
   5   1   3  165.08   11.80
   5   1   3  163.98   13.30
   5   1   3  150.88    8.20
   5   1   3  137.59    9.50
   5   1   3  176.08   12.50
  -6  -1  -3    8.80    5.80
   6   1   3   -2.90   11.60
   6   1   3   -9.50    7.00
   6   1   3   14.80    7.50
   6   1   3   -2.20    3.70
  -7  -1  -3   19.30    8.00
  -7  -1  -3   22.10    7.70
   7   1   3    0.40    7.10
   7   1   3   24.10    9.00
   7   1   3   13.30    9.80
   7  -2  -3   18.40   10.00
   7  -2  -3   11.00   10.00
  -7   2   3   13.00    8.00
   6  -2  -3    0.10    7.90
   6  -2  -3    0.30    4.10
   6  -2  -3   -0.40    6.90
  -6   2   3    0.70    5.10
  -6   2   3    2.30    6.30
   5  -2  -3    8.70    4.10
   5  -2  -3    8.40    5.90
   5  -2  -3   12.80    4.30
   5  -2  -3   20.70    6.80
  -5   2   3    9.10    6.70
  -5   2   3    5.70    5.90
  -5   2   3    6.20    5.20
   4  -2  -3   14.90    3.70
   4  -2  -3   14.00    5.40
   4  -2  -3   10.90    5.30
   4  -2  -3   10.90    4.10
  -4   2   3    5.90    3.40
  -4   2   3    5.70    6.70
  -4   2   3   12.50    5.30
   3  -2  -3  315.07   14.30
   3  -2  -3  327.17   15.30
   3  -2  -3  332.77   14.70
   3  -2  -3  332.97   15.40
  -3   2   3  318.27   15.20
  -3   2   3  333.77   14.20
  -3   2   3  339.77   14.40
  -3   2   3  324.67   15.20
   2  -2  -3  997.70   39.30
   2  -2  -3  994.00   40.10
   2  -2  -3 1042.10   40.10
   2  -2  -3  961.50   39.70
   2  -2  -3  911.81   41.60
  -2   2   3 1073.29   40.20
  -2   2   3 1020.20   40.00
  -2   2   3 1006.30   39.70
  -2   2   3  972.30   39.30
   1  -2  -3  744.93   31.00
   1  -2  -3  706.03   30.50
   1  -2  -3  764.62   30.50
   1  -2  -3  793.82   31.20
   1  -2  -3  766.92   30.90
   1  -2  -3  807.62   31.20
   1  -2  -3  785.92   31.20
  -1   2   3  784.82   31.00
  -1   2   3  760.32   31.00
  -1   2   3  766.72   30.50
  -1   2   3  762.92   31.10
  -1   2   3  853.31   31.40
  -1   2   3  806.92   31.10
   0  -2  -3   90.29    4.80
   0  -2  -3  105.59    5.90
   0  -2  -3   98.19    5.60
   0  -2  -3   88.09    6.00
   0  -2  -3   87.99    5.40
   0  -2  -3   91.19    5.30
   0   2   3  101.09    4.70
   0   2   3   93.49    4.90
   0   2   3   90.59    6.10
   0   2   3   93.09    4.90
   0   2   3   93.69    5.80
   0   2   3   99.19    5.20
   0   2   3  102.99    6.30
   0   2   3   92.99    4.70
  -1  -2  -3  499.15   19.50
  -1  -2  -3  487.65   20.30
  -1  -2  -3  506.55   20.40
  -1  -2  -3  507.95   20.30
  -1  -2  -3  507.95   20.10
  -1  -2  -3  448.76   20.30
  -1  -2  -3  515.95   20.30
   1   2   3  502.15   19.60
   1   2   3  516.25   20.50
   1   2   3  427.56   19.50
   1   2   3  485.75   20.30
   1   2   3  487.75   20.20
   1   2   3  510.85   20.60
   1   2   3  503.85   20.00
  -2  -2  -3   47.60    4.90
  -2  -2  -3   54.79    5.60
  -2  -2  -3   41.90    5.20
  -2  -2  -3   54.29    5.10
  -2  -2  -3   55.49    4.30
   2   2   3   62.39    5.30
   2   2   3   51.89    6.70
   2   2   3   53.89    5.50
   2   2   3   48.70    5.00
   2   2   3   48.00    5.70
   2   2   3   52.09    4.40
   2   2   3   53.29    5.10
  -3  -2  -3   33.70    3.70
  -3  -2  -3   33.20    4.40
  -3  -2  -3   27.50    4.30
  -3  -2  -3   29.70    3.70
   3   2   3   41.80    4.90
   3   2   3   28.40    4.40
   3   2   3   32.20    5.40
   3   2   3   30.60    3.70
  -4  -2  -3  173.98    9.40
  -4  -2  -3  172.48   10.80
  -4  -2  -3  165.58   12.90
   4   2   3  150.48   10.00
   4   2   3  176.98   11.10
   4   2   3  184.48   12.60
   4   2   3  172.88   11.70
  -5  -2  -3   20.20    5.80
  -5  -2  -3   25.40    4.30
  -5  -2  -3   24.40    5.70
   5   2   3   43.60    7.10
   5   2   3   37.40    7.80
   5   2   3   23.30    5.90
   5   2   3   13.40    3.50
  -6  -2  -3   11.00    6.80
  -6  -2  -3   12.20    6.20
   6   2   3   26.20    8.20
   6   2   3    5.30    6.50
   6   2   3   -1.90   11.40
  -7  -2  -3    5.50    7.30
  -7  -2  -3    4.70    6.80
   7   2   3   20.00    7.70
   7   2   3   13.30    9.00
   7   2   3   -0.90    9.20
   7  -3  -3  -14.80    8.90
   7  -3  -3   16.90    8.60
   7  -3  -3   16.80    9.70
  -7   3   3    4.90    6.10
  -7   3   3   -1.70    7.10
   6  -3  -3   13.90    7.50
   6  -3  -3   14.80    5.30
   6  -3  -3   14.20   10.20
  -6   3   3    6.70    6.50
  -6   3   3   17.40    5.30
   5  -3  -3   14.70    4.80
   5  -3  -3   18.80    6.90
   5  -3  -3   15.80    6.30
  -5   3   3    6.50    5.00
  -5   3   3    9.60    4.10
  -5   3   3   16.30    6.20
   4  -3  -3   -5.40    4.90
   4  -3  -3    9.00    8.50
   4  -3  -3   -1.90    4.20
   4  -3  -3   -2.40    3.50
  -4   3   3    3.50    6.20
  -4   3   3    3.90    4.80
  -4   3   3    1.70    3.10
   3  -3  -3   43.70    4.80
   3  -3  -3   48.50    5.30
   3  -3  -3   56.49    5.90
   3  -3  -3   42.50    5.30
  -3   3   3   42.30    4.90
  -3   3   3   45.50    4.60
  -3   3   3   45.60    5.20
  -3   3   3   50.69    6.30
   2  -3  -3  237.88   10.30
   2  -3  -3  247.58   11.80
   2  -3  -3  239.58   11.50
   2  -3  -3  239.08   11.30
   2  -3  -3  262.97   11.80
   2  -3  -3  230.08   10.00
  -2   3   3  242.88   11.60
  -2   3   3  243.78   10.20
  -2   3   3  270.37   11.80
  -2   3   3  241.68   11.70
  -2   3   3  248.18   11.30
  -2   3   3  248.08   11.30
  -2   3   3  209.88   10.20
   1  -3  -3  115.69    6.80
   1  -3  -3  105.49    6.80
   1  -3  -3  113.29    7.30
   1  -3  -3  107.09    5.70
   1  -3  -3  109.49    6.70
   1  -3  -3  106.39    6.20
  -1   3   3  109.19    5.70
  -1   3   3  114.49    6.80
  -1   3   3  120.49    7.10
  -1   3   3  110.09    5.30
  -1   3   3  113.29    6.60
  -1   3   3  110.69    6.30
  -1   3   3  117.89    6.20
   0  -3  -3   74.09    5.80
   0  -3  -3   76.69    5.10
   0  -3  -3   77.19    5.60
   0  -3  -3   66.19    4.90
   0  -3  -3   78.19    4.50
   0  -3  -3   73.29    5.00
   0   3   3   80.69    5.70
   0   3   3   74.99    4.40
   0   3   3   76.49    5.30
   0   3   3   70.09    5.60
   0   3   3   76.79    4.90
   0   3   3   74.29    4.00
   0   3   3   69.49    4.50
  -1  -3  -3   25.80    3.60
  -1  -3  -3   31.30    3.90
  -1  -3  -3   27.10    2.90
  -1  -3  -3   24.20    2.90
  -1  -3  -3   33.00    3.60
  -1  -3  -3   26.00    3.30
  -1  -3  -3   17.80    2.80
   1   3   3   23.20    3.20
   1   3   3   17.00    3.20
   1   3   3   21.80    2.50
   1   3   3   25.20    3.90
   1   3   3   21.30    2.50
   1   3   3   21.30    3.10
  -2  -3  -3  351.86   15.00
  -2  -3  -3  363.16   15.90
  -2  -3  -3  366.56   15.60
  -2  -3  -3  354.06   15.70
  -2  -3  -3  369.76   15.50
   2   3   3  359.16   15.80
   2   3   3  355.16   15.30
   2   3   3  327.77   15.20
   2   3   3  363.76   16.40
   2   3   3  355.96   15.40
   2   3   3  347.27   15.70
   2   3   3  360.76   15.80
  -3  -3  -3  124.89    8.70
  -3  -3  -3  126.19    8.80
  -3  -3  -3  133.79    7.60
   3   3   3  120.79    8.80
   3   3   3  141.09    9.30
   3   3   3  137.39   10.90
   3   3   3  113.19    7.60
  -4  -3  -3   40.40    5.60
  -4  -3  -3   36.70    4.20
  -4  -3  -3   29.90    5.40
   4   3   3   35.60    5.60
   4   3   3   24.30    3.90
   4   3   3   30.80    7.00
   4   3   3   40.00    6.50
  -5  -3  -3   -4.40    4.60
  -5  -3  -3   -1.00    5.00
  -5  -3  -3   -2.60    3.30
   5   3   3    2.10    3.20
   5   3   3    3.20    7.10
   5   3   3    0.60    5.00
   5   3   3   -0.60    6.60
  -6  -3  -3    8.60    6.30
  -6  -3  -3    6.40    6.70
   6   3   3    2.80    8.00
   6   3   3    9.50    8.90
   6   3   3    2.00    5.80
  -7  -3  -3   37.00    8.40
  -7  -3  -3   23.40    7.70
   7   3   3   37.70    9.80
   7   3   3   24.00    8.40
   7   3   3   37.60   11.30
   7  -4  -3   -9.50    8.90
   7  -4  -3    4.70    8.40
  -7   4   3    7.60    6.20
  -7   4   3   -0.40    7.10
   6  -4  -3    0.30    7.20
   6  -4  -3    3.00    7.40
  -6   4   3    8.20   11.10
  -6   4   3   -4.60    5.90
  -6   4   3    3.70    4.60
   5  -4  -3   -3.00    6.10
   5  -4  -3   -8.60    4.80
   5  -4  -3   -7.70    5.70
   5  -4  -3    0.10    0.20
  -5   4   3    1.00    5.80
  -5   4   3    1.50    4.90
  -5   4   3    2.80    3.70
   4  -4  -3   -1.60    5.60
   4  -4  -3   -3.70    5.60
   4  -4  -3   -0.20    4.20
   4  -4  -3    6.10    4.70
  -4   4   3    1.50    2.80
  -4   4   3   -3.80    4.80
  -4   4   3   -5.20    4.60
   3  -4  -3    8.20    2.90
   3  -4  -3    9.30    4.20
   3  -4  -3   10.30    4.40
  -3   4   3   10.70    3.60
  -3   4   3   12.70    2.40
  -3   4   3   10.90    3.70
  -3   4   3   13.60    4.10
   2  -4  -3  179.08    9.90
   2  -4  -3  162.68    8.00
   2  -4  -3  176.68    9.40
   2  -4  -3  174.18    9.60
   2  -4  -3  167.18    9.60
   2  -4  -3  175.18    9.10
  -2   4   3  153.28    7.80
  -2   4   3  188.78    9.40
  -2   4   3  181.38    9.50
  -2   4   3  187.38    9.20
  -2   4   3  186.28    9.30
   1  -4  -3   80.89    6.00
   1  -4  -3   77.29    5.30
   1  -4  -3   78.59    5.60
   1  -4  -3   78.89    7.00
   1  -4  -3   83.09    5.90
  -1   4   3   79.39    6.60
  -1   4   3   81.79    5.80
  -1   4   3   77.89    5.30
  -1   4   3   81.09    6.40
   0  -4  -3   36.60    4.80
   0  -4  -3   46.90    5.90
   0  -4  -3   45.50    4.90
   0  -4  -3   43.20    4.40
   0  -4  -3   43.30    4.40
   0  -4  -3   52.69    6.60
   0   4   3   43.90    5.50
   0   4   3   40.70    4.70
   0   4   3   47.30    5.70
   0   4   3   40.00    3.20
   0   4   3   34.20    4.10
   0   4   3   39.70    4.90
  -1  -4  -3  439.66   18.20
  -1  -4  -3  433.86   18.20
  -1  -4  -3  400.46   16.90
  -1  -4  -3  429.66   17.00
  -1  -4  -3  423.36   18.30
  -1  -4  -3  423.26   17.60
  -1  -4  -3  433.76   17.70
   1   4   3  412.46   18.70
   1   4   3  393.26   17.80
   1   4   3  418.96   17.50
   1   4   3  445.46   18.30
   1   4   3  420.56   18.10
   1   4   3  428.86   17.50
  -2  -4  -3   -3.20    2.70
  -2  -4  -3    2.70    2.80
  -2  -4  -3   -4.20    2.80
  -2  -4  -3   -5.10    2.60
   2   4   3    0.90    2.90
   2   4   3   -2.30    3.30
   2   4   3   -0.10    3.00
   2   4   3   -3.70    4.40
  -3  -4  -3   40.00    5.20
  -3  -4  -3   35.50    4.20
  -3  -4  -3   31.80    4.20
  -3  -4  -3   35.20    5.30
   3   4   3   30.00    5.00
   3   4   3   27.60    4.30
   3   4   3   39.80    5.50
   3   4   3   41.10    6.90
  -4  -4  -3   94.39    8.90
  -4  -4  -3   71.79    8.60
  -4  -4  -3   80.79    6.70
   4   4   3   74.69    8.70
   4   4   3   81.09    8.80
   4   4   3   74.79    7.60
  -5  -4  -3   19.90    3.80
  -5  -4  -3   34.90    6.50
  -5  -4  -3   33.20    6.20
   5   4   3   18.00    3.90
   5   4   3   24.10    7.40
   5   4   3   16.50    5.80
   5   4   3   23.90    8.60
  -6  -4  -3   14.70    7.00
  -6  -4  -3   25.60    7.60
   6   4   3   12.00    6.80
   6   4   3   14.20    8.50
   6   4   3   19.80   10.20
  -7  -4  -3   32.40    8.00
   7   4   3   19.50   10.30
   7   4   3   25.70    9.20
   7   4   3   52.09   12.50
   7  -5  -3    2.30    8.80
   7  -5  -3  -11.20    6.30
   7  -5  -3   19.40    9.70
  -7   5   3    0.20    6.70
  -7   5   3   11.20    6.20
   6  -5  -3   39.20    6.70
   6  -5  -3   18.40    8.30
   6  -5  -3   32.60    8.70
  -6   5   3   37.20    7.40
  -6   5   3   23.40    7.80
  -6   5   3   28.00    5.30
   5  -5  -3   27.80    7.20
   5  -5  -3   25.90    7.30
   5  -5  -3   28.80    6.40
  -5   5   3   35.60    4.30
  -5   5   3   26.90    5.90
  -5   5   3   37.40    6.90
   4  -5  -3   21.90    5.90
   4  -5  -3   15.60    3.70
   4  -5  -3   26.90    5.60
  -4   5   3   24.40    5.60
  -4   5   3   23.90    5.10
  -4   5   3   23.10    3.20
   3  -5  -3    3.90    2.80
   3  -5  -3   11.00    4.40
   3  -5  -3   14.80    4.80
   3  -5  -3   11.00    2.50
  -3   5   3   15.20    4.50
  -3   5   3   10.50    4.40
  -3   5   3    9.80    3.80
   2  -5  -3   19.60    3.00
   2  -5  -3   28.00    4.50
   2  -5  -3   22.60    4.00
   2  -5  -3   23.40    3.80
  -2   5   3   23.90    3.80
  -2   5   3   18.80    2.60
  -2   5   3   20.20    4.00
  -2   5   3   23.80    3.70
   1  -5  -3  125.09    7.30
   1  -5  -3  123.39    8.10
   1  -5  -3  125.19    7.40
   1  -5  -3  130.09    7.60
   1  -5  -3  124.29    7.60
   1  -5  -3  132.79    8.50
   1  -5  -3  120.79    7.00
  -1   5   3  125.69    8.10
  -1   5   3  127.19    8.00
  -1   5   3  121.79    6.90
  -1   5   3  138.19    7.50
  -1   5   3  127.49    7.70
   0  -5  -3  160.18    7.70
   0  -5  -3  123.69    7.50
   0  -5  -3  151.58    7.40
   0  -5  -3  152.88    8.30
   0  -5  -3  155.48    9.30
   0  -5  -3  155.78    8.00
   0  -5  -3  151.78    7.90
   0  -5  -3  150.28    9.10
   0   5   3  154.28    6.90
   0   5   3  154.98    7.80
   0   5   3  152.88    8.60
   0   5   3  149.29    8.30
   0   5   3  145.49    9.00
  -1  -5  -3  357.36   15.60
  -1  -5  -3  379.86   16.20
  -1  -5  -3  356.06   14.70
  -1  -5  -3  343.87   14.50
  -1  -5  -3  357.26   15.50
  -1  -5  -3  356.66   16.00
  -1  -5  -3  362.36   15.20
   1   5   3  342.87   15.70
   1   5   3  347.27   15.10
   1   5   3  353.16   16.50
   1   5   3  349.87   15.30
   1   5   3  382.86   16.70
   1   5   3  360.36   15.90
  -2  -5  -3  416.56   18.60
  -2  -5  -3  401.76   17.90
  -2  -5  -3  395.06   18.40
  -2  -5  -3  426.26   18.10
   2   5   3  391.76   17.70
   2   5   3  426.36   18.10
   2   5   3  418.16   18.60
   2   5   3  415.86   19.60
  -3  -5  -3    9.20    4.60
  -3  -5  -3   13.90    4.50
  -3  -5  -3    6.60    4.00
  -3  -5  -3    6.70    3.50
   3   5   3    9.60    4.50
   3   5   3   10.20    5.40
   3   5   3    9.00    3.20
   3   5   3    7.20    6.70
  -4  -5  -3   79.49    8.80
  -4  -5  -3   69.29    9.00
  -4  -5  -3   65.09    6.80
   4   5   3   61.59    7.20
   4   5   3   72.49    6.00
   4   5   3   69.69    8.80
   4   5   3   74.99    7.70
  -5  -5  -3   51.39    5.80
  -5  -5  -3   50.99    7.30
  -5  -5  -3   53.29    7.40
   5   5   3   43.00    7.40
   5   5   3   44.50    7.90
   5   5   3   56.19    9.60
  -6  -5  -3   24.60    7.40
  -6  -5  -3   19.00    7.10
   6   5   3   12.80    8.20
   6   5   3    3.40    7.20
   6   5   3    7.40    9.70
  -7  -5  -3   -2.30    6.90
  -7  -5  -3    9.80    7.60
   7   5   3  -12.80   13.40
   7   5   3   -3.50    8.30
   7   5   3  -10.60    7.00
   7  -6  -3   -8.40    7.10
   7  -6  -3   20.80   10.20
   7  -6  -3   14.90    9.50
  -7   6   3   19.40    8.70
  -7   6   3   -1.90    6.80
   6  -6  -3   13.40    8.60
   6  -6  -3   12.20    7.70
   6  -6  -3   -3.20    6.20
  -6   6   3    8.80    4.30
  -6   6   3    1.20    7.30
  -6   6   3    7.30    6.30
   5  -6  -3    8.00    3.80
   5  -6  -3   -6.90    6.50
   5  -6  -3    3.50    6.00
   5  -6  -3   -3.00    6.60
  -5   6   3    0.90    3.10
  -5   6   3   -0.50    4.50
  -5   6   3   -3.90    5.80
   4  -6  -3   53.19    4.70
   4  -6  -3   50.89    6.90
   4  -6  -3   53.29    7.00
   4  -6  -3   42.00    6.30
  -4   6   3   51.89    6.90
  -4   6   3   49.10    6.00
   3  -6  -3   15.00    3.60
   3  -6  -3   21.20    5.50
   3  -6  -3   25.10    5.30
  -3   6   3   27.90    5.10
  -3   6   3   23.90    4.40
  -3   6   3   28.60    5.60
   2  -6  -3  107.39    8.30
   2  -6  -3  102.89    9.20
   2  -6  -3  118.49    7.50
   2  -6  -3  125.09    8.30
  -2   6   3  119.39    8.70
  -2   6   3  129.79    7.90
  -2   6   3  119.19    6.90
  -2   6   3  111.59    8.40
   1  -6  -3   27.50    3.50
   1  -6  -3   31.40    5.00
   1  -6  -3   23.80    4.20
   1  -6  -3   33.90    4.00
   1  -6  -3   27.90    4.10
   1  -6  -3   35.00    4.00
  -1   6   3   27.80    4.40
  -1   6   3   41.10    5.30
  -1   6   3   34.20    4.40
   0  -6  -3  130.39    8.10
   0  -6  -3  122.99    7.10
   0  -6  -3  127.49    6.80
   0  -6  -3  136.59    9.20
   0  -6  -3  132.99    7.80
   0  -6  -3  126.39    6.60
   0   6   3  127.79    8.10
   0   6   3  130.79    8.90
   0   6   3  128.49    7.60
   0   6   3  126.09    6.20
   0   6   3  119.89    8.00
  -1  -6  -3 1196.68   46.60
  -1  -6  -3 1122.99   46.00
  -1  -6  -3 1168.08   46.90
  -1  -6  -3 1172.78   47.20
  -1  -6  -3 1182.18   47.40
  -1  -6  -3 1216.38   47.40
   1   6   3 1181.28   46.80
   1   6   3 1167.08   46.80
   1   6   3 1194.38   47.20
   1   6   3 1138.99   47.60
  -2  -6  -3    4.60    3.70
  -2  -6  -3    6.50    4.00
  -2  -6  -3    1.20    3.30
  -2  -6  -3    3.80    3.30
   2   6   3   12.00    5.80
   2   6   3    5.90    4.20
   2   6   3   -6.40    5.40
   2   6   3    6.40    4.10
  -3  -6  -3  194.48   11.10
  -3  -6  -3  191.68   10.40
  -3  -6  -3  175.38   11.70
   3   6   3  174.88   14.10
   3   6   3  178.68   11.50
   3   6   3  192.38   12.20
  -4  -6  -3    5.20    3.60
  -4  -6  -3    4.80    4.90
  -4  -6  -3   12.20    5.30
   4   6   3    9.20    5.20
   4   6   3   13.50    7.70
  -5  -6  -3   -6.00    5.30
  -5  -6  -3    2.70    3.60
   5   6   3   -1.10    6.20
   5   6   3   -3.90    6.80
  -6  -6  -3   11.90    7.40
  -6  -6  -3   28.70    7.40
   6   6   3   11.00   10.50
   6   6   3   13.30    7.60
   6   6   3   19.10    8.70
   7  -7  -3    7.20   11.80
   7  -7  -3    0.20    8.80
  -7   7   3   10.00    8.30
  -7   7   3   -1.10    6.60
   6  -7  -3   23.10    8.60
   6  -7  -3    8.40    8.20
   6  -7  -3   20.50    7.50
  -6   7   3    5.90    6.40
  -6   7   3   20.70    8.10
   5  -7  -3    1.90    6.20
   5  -7  -3   -2.10    7.50
   5  -7  -3    2.40    6.90
  -5   7   3    1.30    4.80
  -5   7   3    0.00    6.20
   4  -7  -3  358.56   16.80
   4  -7  -3  401.96   19.40
   4  -7  -3  400.06   19.60
   4  -7  -3  400.46   16.40
  -4   7   3  368.96   19.30
  -4   7   3  393.36   19.40
  -4   7   3  382.96   18.30
   3  -7  -3    0.20    4.70
   3  -7  -3    0.90    5.20
   3  -7  -3   -2.70    3.50
  -3   7   3   -0.80    3.60
  -3   7   3   -3.80    4.30
  -3   7   3    7.70    3.40
  -3   7   3    2.60    4.70
   2  -7  -3    5.10    3.60
   2  -7  -3    4.30    4.90
   2  -7  -3    6.00    4.30
   2  -7  -3    0.20    3.60
  -2   7   3    4.20    4.80
  -2   7   3    5.10    3.10
  -2   7   3    6.20    4.10
  -2   7   3   -0.30    3.30
   1  -7  -3   37.20    4.30
   1  -7  -3   35.30    5.60
   1  -7  -3   42.10    4.80
   1  -7  -3   39.00    4.70
  -1   7   3   45.80    5.50
  -1   7   3   42.30    4.50
  -1   7   3   43.90    4.80
  -1   7   3   47.90    5.00
   0  -7  -3   29.30    5.60
   0  -7  -3   33.90    3.70
   0  -7  -3   30.90    3.90
   0  -7  -3   33.50    4.00
   0  -7  -3   37.00    3.10
   0  -7  -3   33.00    5.50
   0  -7  -3   26.90    4.50
   0   7   3   29.80    4.30
   0   7   3   33.20    2.90
   0   7   3   35.50    4.60
   0   7   3   28.80    5.10
  -1  -7  -3    7.20    2.60
  -1  -7  -3    7.50    4.50
  -1  -7  -3    5.30    3.00
  -1  -7  -3    8.90    2.20
  -1  -7  -3    6.30    4.00
  -1  -7  -3    3.30    4.10
   1   7   3    7.40    5.20
   1   7   3    9.20    4.10
   1   7   3    9.40    3.70
   1   7   3    4.50    2.50
  -2  -7  -3  368.96   17.10
  -2  -7  -3  387.46   17.80
  -2  -7  -3  367.06   18.10
   2   7   3  378.46   17.90
   2   7   3  380.56   19.80
   2   7   3  392.26   17.60
  -3  -7  -3  126.19    9.50
  -3  -7  -3  140.69    9.10
  -3  -7  -3  128.49   10.50
   3   7   3  128.59   10.60
   3   7   3  144.89   10.70
   3   7   3  135.09   13.40
  -4  -7  -3    1.80    3.60
  -4  -7  -3    3.80    5.20
  -4  -7  -3    6.40    5.10
   4   7   3   14.60    8.20
   4   7   3    7.00    5.50
   4   7   3    8.70    6.20
  -5  -7  -3    0.90    6.30
  -5  -7  -3    3.90    3.60
   5   7   3   -6.00    9.10
   5   7   3   -2.40    6.20
   5   7   3   11.60    7.30
  -6  -7  -3   18.10    7.70
  -6  -7  -3   13.10    6.70
   6   7   3    6.50   10.70
   6   7   3    8.30    7.50
   7  -8  -3   -4.50   13.70
   7  -8  -3   14.40    8.10
  -7   8   3    7.50    6.70
   6  -8  -3    9.50    7.90
   6  -8  -3   -0.30    8.50
   6  -8  -3   -4.50    7.90
  -6   8   3   -8.90    7.30
   5  -8  -3  178.38   14.10
   5  -8  -3  169.88   17.50
  -5   8   3  161.08   13.70
  -5   8   3  155.38   11.50
   4  -8  -3   59.09    7.60
   4  -8  -3   39.00    5.60
   4  -8  -3   69.09    6.80
   4  -8  -3   50.09    7.50
  -4   8   3   51.59    6.10
  -4   8   3   48.20    7.10
  -4   8   3   49.00    7.10
   3  -8  -3    8.10    5.60
   3  -8  -3    2.10    3.90
   3  -8  -3    0.60    4.80
  -3   8   3    6.90    2.90
  -3   8   3    3.70    4.80
  -3   8   3    5.10    3.70
  -3   8   3    5.80    4.70
   2  -8  -3   41.70    5.10
   2  -8  -3   43.50    6.00
   2  -8  -3   44.50    6.80
   2  -8  -3   26.10    5.50
  -2   8   3   44.00    5.50
  -2   8   3   48.10    6.20
  -2   8   3   36.50    4.60
   1  -8  -3   15.10    4.60
   1  -8  -3   13.30    4.20
   1  -8  -3   15.10    3.70
   1  -8  -3   12.80    8.50
  -1   8   3   15.60    4.10
  -1   8   3   13.80    4.20
   0  -8  -3   15.70    5.80
   0  -8  -3   22.70    3.30
   0  -8  -3   31.30    4.20
   0  -8  -3   15.50    4.70
   0  -8  -3   27.30    3.00
   0  -8  -3   18.70    3.40
   0   8   3   20.50    2.80
   0   8   3   18.20    4.60
   0   8   3   20.40    4.50
  -1  -8  -3   -2.90    3.00
  -1  -8  -3   -1.40    2.30
  -1  -8  -3   -0.40    4.70
  -1  -8  -3   -4.00    2.70
  -1  -8  -3   -0.60    4.20
   1   8   3    3.20    4.30
   1   8   3    8.10    5.60
   1   8   3    4.30    3.90
   1   8   3   -1.30    2.60
  -2  -8  -3   10.30    4.80
  -2  -8  -3   12.10    4.00
  -2  -8  -3   19.20    4.90
   2   8   3   17.10    4.60
   2   8   3   14.50    6.40
  -3  -8  -3    2.10    4.80
  -3  -8  -3    2.40    4.10
  -3  -8  -3   -0.80    3.90
   3   8   3    0.20    6.90
   3   8   3    7.00    5.80
   3   8   3    2.10    4.80
  -4  -8  -3    5.90    5.40
  -4  -8  -3    1.00    5.40
  -4  -8  -3   -6.90    3.80
   4   8   3   -3.30    5.40
   4   8   3  -16.00    7.60
   4   8   3    4.20    6.10
  -5  -8  -3    3.00    3.70
  -5  -8  -3   -4.10    5.70
  -5  -8  -3    1.10    6.30
   5   8   3    1.00    7.20
   5   8   3   18.40    7.40
   5   8   3    0.90    9.70
  -6  -8  -3    0.60    6.30
  -6  -8  -3   -3.20    6.90
   6   8   3   19.40   11.80
   6   8   3    5.30    7.50
   6   8   3    8.00    8.10
   6  -9  -3   24.40   10.00
   6  -9  -3   18.40    8.70
   6  -9  -3    7.80    8.70
  -6   9   3   26.90    8.30
   5  -9  -3   11.90    7.80
   5  -9  -3   -4.50    7.00
   5  -9  -3    2.30    3.50
  -5   9   3   11.40    5.30
  -5   9   3   -0.80    7.10
   4  -9  -3    0.30    5.80
   4  -9  -3    1.50    6.30
   4  -9  -3    4.60    3.90
  -4   9   3    0.50    5.60
  -4   9   3   -3.60    5.20
  -4   9   3   -0.60    3.90
   3  -9  -3    7.50    5.90
   3  -9  -3   10.00    5.40
   3  -9  -3   11.10    4.30
  -3   9   3   12.30    4.10
  -3   9   3    9.00    5.00
  -3   9   3    6.70    5.30
   2  -9  -3    3.50    4.70
   2  -9  -3   -7.90    4.00
   2  -9  -3   -2.40    5.50
  -2   9   3    0.30    3.40
  -2   9   3   -2.20    4.20
  -2   9   3   -2.50    4.50
   1  -9  -3   12.80    4.80
   1  -9  -3   12.30    4.40
   1  -9  -3   13.60    5.70
   1  -9  -3    9.40    3.30
  -1   9   3   13.90    4.50
  -1   9   3   11.90    5.20
  -1   9   3   11.60    4.00
   0  -9  -3  391.46   16.40
   0  -9  -3  389.66   18.80
   0  -9  -3  392.16   17.50
   0  -9  -3  380.76   19.60
   0   9   3  391.66   17.90
   0   9   3  380.36   16.30
   0   9   3  391.96   19.30
   0   9   3  397.66   18.20
  -1  -9  -3  520.15   23.70
  -1  -9  -3  514.95   21.90
  -1  -9  -3  507.85   23.60
  -1  -9  -3  514.75   21.70
   1   9   3  527.05   23.20
   1   9   3  530.05   23.00
   1   9   3  529.65   24.30
  -2  -9  -3    7.00    5.30
  -2  -9  -3    9.80    4.10
  -2  -9  -3   13.20    5.00
   2   9   3   14.40    6.40
   2   9   3    9.90    4.80
   2   9   3   10.30    6.80
  -3  -9  -3   -1.30    4.90
  -3  -9  -3    4.50    4.50
  -3  -9  -3   -4.00    8.10
   3   9   3    0.90    5.10
   3   9   3    0.60    5.00
   3   9   3    0.60    7.30
  -4  -9  -3    7.90    4.70
  -4  -9  -3   15.60    6.00
   4   9   3    8.50    6.30
   4   9   3    8.00    6.10
   4   9   3    0.70    8.50
  -5  -9  -3  -13.30    6.00
  -5  -9  -3    5.40    6.90
  -5  -9  -3    9.20    6.70
   5   9   3   -8.90    6.70
   5   9   3    2.40    9.70
   5   9   3    3.50    6.60
  -6  -9  -3   58.29   10.20
  -6  -9  -3   75.39   12.20
   6   9   3   94.69   12.10
   6 -10  -3   -0.90    8.70
   6 -10  -3  -18.70    8.00
   6 -10  -3    2.50    8.30
  -6  10   3   -4.80    5.90
  -6  10   3   -7.60    7.60
   5 -10  -3   42.30    8.80
   5 -10  -3   34.20    4.60
   5 -10  -3   43.50    9.50
  -5  10   3   24.30    5.90
  -5  10   3   22.00    7.90
   4 -10  -3   -6.50    5.90
   4 -10  -3    8.30    6.80
   4 -10  -3    4.70    4.30
  -4  10   3   -1.40    5.90
  -4  10   3   -9.00    5.70
  -4  10   3    4.20    4.10
   3 -10  -3   21.30    6.90
   3 -10  -3   24.30    5.00
   3 -10  -3   18.40    6.20
  -3  10   3   14.70    5.70
  -3  10   3   15.00    5.90
  -3  10   3   16.30    4.10
   2 -10  -3    2.40    9.90
   2 -10  -3    4.70    5.90
   2 -10  -3   -0.50    4.90
  -2  10   3    2.20    5.10
  -2  10   3    4.70    3.50
  -2  10   3    6.20    4.70
   1 -10  -3   -6.40    5.00
   1 -10  -3   -2.20    4.20
   1 -10  -3    1.60    4.60
  -1  10   3   -6.40    4.00
  -1  10   3   -6.90    4.70
  -1  10   3   -2.60    3.50
   0 -10  -3   20.10    5.40
   0 -10  -3   13.60    6.10
   0 -10  -3   14.40    2.90
   0 -10  -3   25.20    4.60
   0  10   3   27.00    5.10
   0  10   3   19.90    4.60
   0  10   3   16.70    2.80
   0  10   3   13.20    5.90
  -1 -10  -3   25.80    6.00
  -1 -10  -3   26.50    3.50
  -1 -10  -3   16.50    5.40
  -1 -10  -3   21.40    3.80
  -1 -10  -3   27.90    3.80
   1  10   3   30.20    5.30
   1  10   3   22.00    6.60
   1  10   3   28.90    5.30
  -2 -10  -3    6.70    3.90
  -2 -10  -3    1.70    4.90
  -2 -10  -3    2.60    4.90
   2  10   3    3.20    4.90
   2  10   3   -3.60    4.50
   2  10   3   -1.20    6.80
  -3 -10  -3   17.20    5.20
  -3 -10  -3   14.00    5.20
  -3 -10  -3   19.90    6.30
   3  10   3    9.90    8.00
   3  10   3   10.50    5.40
   3  10   3   18.70    5.90
  -4 -10  -3   -3.20    4.60
  -4 -10  -3    4.80    5.90
  -4 -10  -3    3.40    5.80
   4  10   3   -0.40    6.80
   4  10   3   -0.40    9.00
   4  10   3    3.00    6.00
  -5 -10  -3   60.99    9.20
  -5 -10  -3   65.59    9.00
   5  10   3   67.29    9.20
   5  10   3   89.39   12.60
   5  10   3   67.89   12.40
   6 -11  -3   84.49   11.20
  -6  11   3   99.39   10.60
  -6  11   3   84.59   13.20
   5 -11  -3    4.70    7.80
   5 -11  -3   33.30    8.80
   5 -11  -3   10.90    5.00
  -5  11   3    7.90    7.80
  -5  11   3   16.10    5.40
  -5  11   3   -8.40    7.20
   4 -11  -3   37.50    7.00
   4 -11  -3   64.19    8.90
  -4  11   3   47.50    8.20
  -4  11   3   39.00    5.50
  -4  11   3   40.80   12.60
   3 -11  -3   29.10    6.70
   3 -11  -3   38.00    5.80
   3 -11  -3   42.60    8.20
  -3  11   3   30.90    6.60
  -3  11   3   29.70    4.50
  -3  11   3   41.80    6.90
   2 -11  -3   34.70    6.00
   2 -11  -3   23.70    6.70
   2 -11  -3   41.60    6.40
  -2  11   3   26.70    4.30
  -2  11   3   28.50    5.90
  -2  11   3   37.70    6.60
   1 -11  -3    6.30    4.60
   1 -11  -3    9.40    5.10
   1 -11  -3   -3.70    5.80
  -1  11   3   11.40    5.50
  -1  11   3    1.10    4.50
  -1  11   3    2.30    3.50
   0 -11  -3  306.17   16.20
   0 -11  -3  331.77   17.10
   0 -11  -3  307.47   17.70
   0  11   3  301.67   15.30
   0  11   3  340.07   16.20
   0  11   3  334.77   17.40
   0  11   3  293.87   13.70
  -1 -11  -3   -0.50    3.30
  -1 -11  -3   -2.60    3.20
  -1 -11  -3   -6.30    5.00
  -1 -11  -3   -2.30    4.80
   1  11   3    3.60    6.20
   1  11   3   -1.40    4.40
  -2 -11  -3    7.60    4.00
  -2 -11  -3   15.30    5.80
  -2 -11  -3    8.40    5.70
   2  11   3   19.60    7.70
   2  11   3   17.90    5.70
   2  11   3   18.90    5.50
  -3 -11  -3    8.60    5.10
  -3 -11  -3    3.20    5.70
  -3 -11  -3   -0.20    4.90
   3  11   3    7.80    5.80
   3  11   3   -0.50    5.50
   3  11   3    4.00    8.30
  -4 -11  -3  219.28   15.70
  -4 -11  -3  211.78   12.80
  -4 -11  -3  200.48   14.30
   4  11   3  231.48   18.80
   4  11   3  208.98   14.20
   4  11   3  175.08   14.80
  -5 -11  -3   75.89    9.10
  -5 -11  -3   62.69   10.20
   5  11   3   53.69    8.80
   5  11   3   56.49    8.20
   5 -12  -3   90.09   11.20
   5 -12  -3  120.09   14.40
  -5  12   3   77.69    9.00
  -5  12   3   68.99    9.90
  -5  12   3   71.59   10.10
   4 -12  -3   59.99    8.90
   4 -12  -3   32.40    5.90
   4 -12  -3   29.60    8.60
  -4  12   3   28.40    7.70
  -4  12   3   28.10    5.10
  -4  12   3   43.50    8.40
   3 -12  -3  155.58   14.60
   3 -12  -3  131.49   10.90
  -3  12   3  124.89    8.60
   2 -12  -3   65.79    7.70
   2 -12  -3   70.09    8.80
   2 -12  -3   63.29    7.30
  -2  12   3   80.09    9.80
  -2  12   3   55.29    7.40
  -2  12   3   47.90    5.20
   1 -12  -3    9.10    6.70
   1 -12  -3    5.00    5.30
   1 -12  -3    4.00    4.70
  -1  12   3   -2.00    3.20
  -1  12   3    3.30    4.90
  -1  12   3    2.40    5.70
   0 -12  -3   87.49    9.40
   0 -12  -3   77.99   10.10
   0 -12  -3   77.79    8.00
   0  12   3   86.69    8.40
   0  12   3  107.99    9.50
   0  12   3   74.09    7.10
   0  12   3   89.69    9.20
  -1 -12  -3  199.38   11.20
  -1 -12  -3  218.68   14.30
  -1 -12  -3  215.38   11.10
  -1 -12  -3  207.68   14.50
   1  12   3  226.38   13.40
   1  12   3  195.58   12.90
   1  12   3  233.28   15.20
  -2 -12  -3    4.10    5.80
  -2 -12  -3   -9.50    3.70
  -2 -12  -3    0.40    5.30
   2  12   3   18.50    9.20
   2  12   3    7.80    5.40
   2  12   3    1.70    5.20
  -3 -12  -3    6.50    5.00
  -3 -12  -3    2.60    5.60
  -3 -12  -3    6.10    5.80
   3  12   3    5.20    8.90
   3  12   3    5.10    6.30
   3  12   3   -1.20    5.60
  -4 -12  -3   29.00    6.00
  -4 -12  -3   33.20    7.70
  -4 -12  -3   19.60    6.40
   4  12   3    7.70    7.00
   4  12   3   12.10    6.90
   4  12   3   11.40   10.30
   5 -13  -3   21.50    9.30
  -5  13   3    8.80    8.30
  -5  13   3    3.20    7.90
   4 -13  -3  137.59   10.40
   4 -13  -3  116.39   13.80
   4 -13  -3  117.29   14.60
  -4  13   3   93.19    8.70
  -4  13   3  115.69   14.00
  -4  13   3  116.99   13.20
   3 -13  -3   16.50    8.00
   3 -13  -3   16.90    6.90
   3 -13  -3   21.00    6.10
  -3  13   3   12.10    6.50
  -3  13   3    7.70    3.80
  -3  13   3   26.80    7.40
   2 -13  -3    5.80    5.70
   2 -13  -3    1.40    5.70
   2 -13  -3    2.60    6.90
  -2  13   3    1.60   10.30
  -2  13   3   -0.80    3.10
   1 -13  -3   -0.80    5.60
   1 -13  -3   -1.30    4.70
  -1  13   3   -0.50    5.00
  -1  13   3    1.10    3.40
   0 -13  -3  132.89   13.00
   0 -13  -3  137.79   12.10
   0 -13  -3  122.49    9.50
   0  13   3  111.29    9.10
   0  13   3  150.88   11.30
  -1 -13  -3    8.00    6.40
  -1 -13  -3   10.40    5.50
  -1 -13  -3    5.40    4.10
  -1 -13  -3   12.70    6.00
   1  13   3   13.10    5.20
   1  13   3   10.60    5.90
   1  13   3   10.20    7.00
  -2 -13  -3    7.60    4.40
  -2 -13  -3    4.10    6.10
  -2 -13  -3    8.40    6.40
   2  13   3   -1.30    5.60
   2  13   3   -0.70    7.50
   2  13   3   -0.10    5.40
  -3 -13  -3   49.70    7.40
  -3 -13  -3   35.60    7.90
  -3 -13  -3   41.40    6.30
   3  13   3   51.29    7.40
   3  13   3   41.00   10.30
   3  13   3   44.40    9.30
  -4 -13  -3    2.70    5.70
   4  13   3   13.00    7.30
   4  13   3   -5.20    5.80
   4 -14  -3    2.90    7.80
   4 -14  -3    5.10    8.10
   4 -14  -3    2.60    5.50
  -4  14   3   15.30    7.60
  -4  14   3   16.30    7.40
   3 -14  -3   49.30    7.20
   3 -14  -3   70.19    9.70
   3 -14  -3   41.60    8.30
  -3  14   3   51.69    8.40
  -3  14   3   60.49    8.70
  -3  14   3   33.20    5.00
   2 -14  -3   13.20    6.10
   2 -14  -3   18.00    6.60
   2 -14  -3   12.20    7.70
  -2  14   3    3.70    3.30
  -2  14   3    2.20    6.10
  -2  14   3   -3.40    6.00
   1 -14  -3   -1.00    7.30
   1 -14  -3    0.70    5.10
  -1  14   3    2.80    5.50
  -1  14   3    7.00    6.40
  -1  14   3    1.70    3.40
   0 -14  -3   -3.70    5.90
   0 -14  -3    0.60    4.40
   0 -14  -3   -1.90    6.60
   0  14   3   -2.50    6.10
   0  14   3    6.10    6.80
  -1 -14  -3   22.40    6.70
  -1 -14  -3   23.80    7.20
  -1 -14  -3   27.20    4.70
  -1 -14  -3   27.20    4.30
   1  14   3   20.70    7.80
   1  14   3   26.10    5.90
   1  14   3   26.00    7.00
  -2 -14  -3    5.80    6.10
  -2 -14  -3    8.90    4.50
  -2 -14  -3    3.70    6.60
   2  14   3    8.10    6.00
   2  14   3    2.70    5.60
   2  14   3    6.50    8.00
  -3 -14  -3   -0.50    6.50
  -3 -14  -3   -2.30    7.60
  -3 -14  -3    7.40    5.10
   3  14   3   -5.70    5.20
   3  14   3    0.20    6.10
   3  14   3    4.80    8.90
   3 -15  -3   -6.10    7.60
   3 -15  -3    5.90    7.10
   3 -15  -3    3.80    6.00
  -3  15   3    0.30    6.60
  -3  15   3   -6.60    6.60
   2 -15  -3    8.70    6.30
   2 -15  -3    4.60    8.00
   2 -15  -3   10.90    6.60
  -2  15   3    7.30    6.70
  -2  15   3    8.80    6.60
   1 -15  -3   15.10    6.50
   1 -15  -3   14.80    8.00
  -1  15   3   17.30    6.80
  -1  15   3   15.60    7.00
   0 -15  -3   50.79    6.60
   0 -15  -3   56.09    8.90
   0 -15  -3   56.59    8.50
   0  15   3   34.70    8.10
   0  15   3   59.59    8.10
  -1 -15  -3    2.80    4.40
  -1 -15  -3   20.40    6.90
  -1 -15  -3   12.10    6.90
   1  15   3   15.50    5.00
   1  15   3   19.30    6.20
   1  15   3   15.50    7.60
  -2 -15  -3   -0.60    6.10
  -2 -15  -3   -3.50    6.50
  -2 -15  -3   -2.10    4.20
   2  15   3    9.20    6.10
   2  15   3    8.30    5.90
   2  15   3    5.10    7.90
   2 -16  -3   14.70    6.30
   2 -16  -3    5.70    6.20
  -2  16   3   14.10    7.30
  -2  16   3    1.10    6.50
   1 -16  -3   76.69    9.10
   1 -16  -3   66.59   10.20
   1 -16  -3   61.29    7.90
  -1  16   3  105.69   11.70
  -1  16   3   68.29    9.50
   0 -16  -3   -2.80    5.30
   0 -16  -3    6.10    7.40
   0 -16  -3    4.60    6.40
   0  16   3    4.10    6.60
  -1 -16  -3    3.50    6.80
   1  16   3    3.10    5.80
   1  17  -4   17.80    7.20
   1  17  -4   22.10    5.70
  -1 -17   4   24.40    8.00
  -1 -17   4   22.00    8.30
   0  17  -4   -7.90    5.20
   0  17  -4   -3.90    6.90
   0  17  -4    4.10    6.30
   0 -17   4   -1.30    7.60
   0 -17   4    2.70    7.50
  -1  17  -4   58.79    7.60
  -1  17  -4   51.29    8.60
   1 -17   4   73.29   10.60
   1 -17   4   65.69   10.00
  -2  17  -4    1.90    5.70
   2 -17   4    2.10    8.00
   2 -17   4   -7.20    9.60
   2  16  -4    9.20    4.80
   2  16  -4   19.90    8.50
   2  16  -4    7.20    7.70
  -2 -16   4    8.00    7.80
  -2 -16   4   18.40    5.40
  -2 -16   4    7.30    9.40
   1  16  -4    3.90    7.00
   1  16  -4   -4.90    7.00
  -1 -16   4   -1.40    4.40
  -1 -16   4    0.30    6.90
  -1 -16   4   -8.00    7.30
   0  16  -4    1.70    7.00
   0  16  -4    2.20    7.10
   0  16  -4   12.00    5.60
   0 -16   4   -8.30    7.20
   0 -16   4   -1.60    7.50
   0 -16   4    1.00    4.00
  -1  16  -4   60.99    8.80
  -1  16  -4   51.39    7.80
  -1  16  -4   42.10    6.90
   1 -16   4   59.79   10.00
   1 -16   4   56.49    9.60
  -2  16  -4    4.50    5.70
  -2  16  -4   11.80    6.90
   2 -16   4   18.00    8.30
   2 -16   4    4.20    7.70
  -3  16  -4    6.20    7.00
  -3  16  -4   11.30    6.60
   3 -16   4    8.40    8.30
   3 -16   4    5.40    7.70
   3  15  -4    8.60    7.20
   3  15  -4   -3.60    7.90
   3  15  -4    1.90    9.20
  -3 -15   4   -9.00    6.90
  -3 -15   4  -15.30    7.70
  -3 -15   4    0.80    5.40
   2  15  -4   30.30    8.80
   2  15  -4   33.60    5.70
   2  15  -4   39.80    8.90
  -2 -15   4   24.20    8.90
  -2 -15   4   22.40    8.10
  -2 -15   4   27.10    7.30
   1  15  -4   22.40    5.80
   1  15  -4   40.40    7.90
   1  15  -4   42.70    8.70
  -1 -15   4   37.80    6.00
  -1 -15   4   38.70    8.60
  -1 -15   4   37.80    8.20
   0  15  -4   18.90    6.30
   0  15  -4   25.40    7.30
   0  15  -4   23.50    6.50
   0 -15   4   12.70    4.70
   0 -15   4   16.90    7.70
  -1  15  -4   10.70    5.90
  -1  15  -4   16.20    5.70
  -1  15  -4   12.10    6.80
   1 -15   4    3.80    3.90
   1 -15   4    6.60    7.60
   1 -15   4   -2.70    7.20
  -2  15  -4   -8.30    5.30
  -2  15  -4    0.20    6.20
  -2  15  -4    5.40    5.30
   2 -15   4    4.30    7.50
   2 -15   4    5.50    7.50
  -3  15  -4   -1.60    6.50
  -3  15  -4    7.70    5.60
   3 -15   4    8.90    7.70
   3 -15   4    1.00    7.70
  -4  15  -4    7.40    6.20
  -4  15  -4    7.90    7.30
   4 -15   4   11.80    7.90
   4 -15   4   24.00    8.60
   4 -15   4    1.90    7.90
   4  14  -4  -17.50    8.10
   4  14  -4    7.30    6.00
   4  14  -4   -3.70   10.20
  -4 -14   4    4.30    6.40
  -4 -14   4    7.30    7.30
   3  14  -4   21.50    4.80
   3  14  -4    3.60    9.60
   3  14  -4   13.70    4.90
   3  14  -4   15.30    8.90
  -3 -14   4   20.60    5.70
  -3 -14   4   25.70    6.60
  -3 -14   4   11.60    7.70
   2  14  -4   25.20    5.40
   2  14  -4   48.60    9.00
   2  14  -4   45.00    9.10
  -2 -14   4   48.30    7.40
  -2 -14   4   41.60    6.60
  -2 -14   4   49.90    9.10
   1  14  -4  147.49   12.80
   1  14  -4  146.89   10.60
   1  14  -4  158.18   13.50
  -1 -14   4  146.29   14.60
  -1 -14   4  151.18   13.00
  -1 -14   4  130.29   10.20
   0  14  -4    1.90    5.10
   0  14  -4   -2.60    5.50
   0 -14   4    1.30    6.40
   0 -14   4    5.30    4.20
  -1  14  -4   -4.00    5.10
  -1  14  -4    5.50    5.10
   1 -14   4  -15.60    5.90
   1 -14   4   -2.80    3.70
  -2  14  -4   -2.70    5.80
  -2  14  -4   -0.20    5.50
  -2  14  -4   -3.30    4.80
   2 -14   4   -6.30    3.30
   2 -14   4   -1.80   12.40
   2 -14   4    2.40    6.60
  -3  14  -4   24.10    6.10
  -3  14  -4   23.20    7.30
  -3  14  -4   35.70    7.10
   3 -14   4   37.00    8.60
   3 -14   4   29.00    8.40
  -4  14  -4   -0.50    6.70
  -4  14  -4   11.90    6.00
   4 -14   4   26.30    8.50
   4 -14   4    3.70    7.60
   4 -14   4   12.80    8.00
  -5  14  -4   -2.90    6.20
  -5  14  -4    9.50    9.50
   5 -14   4    6.40    7.90
   4  13  -4    3.80   10.40
   4  13  -4   12.30    5.90
   4  13  -4   -5.70    9.20
  -4 -13   4   11.80    6.60
  -4 -13   4   10.80    7.30
   3  13  -4    3.20    8.10
   3  13  -4    1.30    4.40
   3  13  -4    5.10    4.70
  -3 -13   4    7.90    6.80
  -3 -13   4    3.00    6.00
  -3 -13   4   -3.20    6.00
   2  13  -4   58.39    6.50
   2  13  -4   73.59    9.60
   2  13  -4   78.79    8.10
  -2 -13   4   67.29    7.40
  -2 -13   4   82.69   10.00
   1  13  -4    9.00    4.80
   1  13  -4   16.50    6.50
   1  13  -4   15.70    7.00
  -1 -13   4   13.70    4.80
  -1 -13   4   12.70    6.80
  -1 -13   4   11.60    6.00
   0  13  -4   -1.50    5.50
   0  13  -4    5.30    4.50
   0  13  -4    3.20    5.30
   0 -13   4   -2.30    4.10
   0 -13   4    8.70    6.50
   0 -13   4    1.70    5.60
  -1  13  -4    0.60    4.50
  -1  13  -4    1.30    5.60
  -1  13  -4    1.70    4.60
   1 -13   4    6.40    6.70
   1 -13   4   -6.40    3.60
   1 -13   4    2.10    6.00
  -2  13  -4   -0.50    5.40
  -2  13  -4   10.50    5.50
  -2  13  -4  -11.20    4.30
   2 -13   4    1.30    6.30
   2 -13   4    3.90    3.50
   2 -13   4    4.60    6.50
  -3  13  -4   58.89    9.60
  -3  13  -4   40.10    7.20
  -3  13  -4   42.30    6.30
   3 -13   4   42.70    8.30
   3 -13   4   41.30    8.40
  -4  13  -4   11.10    5.70
  -4  13  -4   -2.50    6.40
   4 -13   4    3.00    8.40
   4 -13   4    9.90    7.70
  -5  13  -4   -8.10    6.50
  -5  13  -4   10.40    7.80
   5 -13   4   -8.00    7.70
   5 -13   4    2.70    8.20
   5 -13   4   12.60    7.80
   5  12  -4    3.50    6.00
   5  12  -4    6.80   10.60
   5  12  -4   -1.70   10.20
  -5 -12   4   10.30    7.60
  -5 -12   4   14.20    7.30
   4  12  -4  -12.10    9.00
   4  12  -4   -0.80    9.30
   4  12  -4    3.20    5.20
  -4 -12   4    1.00    6.30
  -4 -12   4   -0.60    6.60
   3  12  -4   60.09    7.10
   3  12  -4   34.60    5.60
   3  12  -4   66.99   12.70
   3  12  -4   54.39    9.60
  -3 -12   4   58.79    9.20
  -3 -12   4   36.60    7.20
  -3 -12   4   59.99    6.10
   2  12  -4    7.60    3.80
   2  12  -4   17.40    4.70
   2  12  -4    6.80    3.50
   2  12  -4   12.10    6.90
   2  12  -4    1.70    7.20
  -2 -12   4    9.00    5.00
  -2 -12   4   11.50    6.40
  -2 -12   4    6.40    6.50
   1  12  -4   -5.10    4.00
   1  12  -4    3.00    5.80
   1  12  -4    9.50    5.90
  -1 -12   4   -0.10    5.90
  -1 -12   4    5.10    4.40
  -1 -12   4    2.70    5.10
   0  12  -4   -3.90    5.50
   0  12  -4    3.30    5.50
   0  12  -4    1.00    4.30
   0 -12   4   -4.50    5.10
   0 -12   4   -6.90    5.50
   0 -12   4   -0.10    4.10
  -1  12  -4    9.00    4.80
  -1  12  -4   12.40    5.70
   1 -12   4   14.80    6.30
   1 -12   4   20.40    4.20
   1 -12   4    7.10    6.20
  -2  12  -4   -2.50    4.60
  -2  12  -4   -7.00    4.90
  -2  12  -4    5.10    5.00
   2 -12   4   -3.80    5.90
   2 -12   4   -0.40    3.70
   2 -12   4   -6.50    5.40
  -3  12  -4   11.90    6.00
  -3  12  -4    4.90    4.70
  -3  12  -4    6.70    5.30
   3 -12   4    3.70    6.70
   3 -12   4    6.80    4.00
   3 -12   4    7.50    6.30
  -4  12  -4   21.20    5.80
  -4  12  -4    7.90    6.60
   4 -12   4    3.50    7.00
   4 -12   4   18.00    7.80
   4 -12   4    4.40    4.20
  -5  12  -4    5.30    6.20
  -5  12  -4    8.80    7.40
   5 -12   4    8.50    7.60
   5 -12   4   10.60    7.90
   5 -12   4   -0.10    7.50
  -6  12  -4    4.30    6.50
   6 -12   4   -7.30    7.10
   6 -12   4   10.90    9.70
   5  11  -4  -15.70   10.60
   5  11  -4    5.30   10.40
   5  11  -4   -2.40    5.60
  -5 -11   4    4.80    7.00
  -5 -11   4   -5.00    6.80
   4  11  -4   18.60    9.90
   4  11  -4   10.50    4.60
   4  11  -4    6.40    5.00
  -4 -11   4   -2.00    5.90
  -4 -11   4    8.40    8.00
   3  11  -4   20.00    8.10
   3  11  -4   19.30    4.50
   3  11  -4   19.30    8.30
  -3 -11   4   12.50    5.90
  -3 -11   4    0.20    4.60
  -3 -11   4   18.20    6.90
  -3 -11   4   13.60    4.50
   2  11  -4   78.09    9.00
   2  11  -4   92.79    6.90
   2  11  -4   76.49    6.90
   2  11  -4   79.29    9.30
   2  11  -4   89.99   11.60
  -2 -11   4   83.69    9.20
  -2 -11   4  101.69   11.40
  -2 -11   4   73.19    8.90
   1  11  -4   -2.60    5.50
   1  11  -4    6.10    4.50
  -1 -11   4    3.40    5.70
  -1 -11   4    2.70    7.70
  -1 -11   4    9.10    4.40
   0  11  -4   75.59    9.70
   0  11  -4   67.89    6.80
   0  11  -4   71.49    7.80
   0 -11   4   70.89    7.70
   0 -11   4   72.39    7.60
   0 -11   4   59.79    8.10
  -1  11  -4    5.70    4.20
  -1  11  -4    6.50    4.40
  -1  11  -4   12.00    5.40
   1 -11   4   -2.20    4.40
   1 -11   4    1.10    3.90
   1 -11   4    3.80    5.50
  -2  11  -4  294.87   15.80
  -2  11  -4  278.07   14.30
  -2  11  -4  302.47   15.30
   2 -11   4  293.57   16.90
   2 -11   4  302.97   13.90
   2 -11   4  255.97   16.10
  -3  11  -4   11.10    5.30
  -3  11  -4    8.50    4.70
  -3  11  -4    6.80    5.80
   3 -11   4    5.40    4.30
   3 -11   4   10.40    3.80
   3 -11   4   21.60    6.10
   3 -11   4   10.50    6.20
  -4  11  -4    9.00    5.30
  -4  11  -4    6.30    5.90
   4 -11   4    4.60    6.80
   4 -11   4   -5.40    4.50
   4 -11   4    6.10    6.70
  -5  11  -4    8.60    5.80
  -5  11  -4    5.80    7.20
   5 -11   4   25.70    7.80
   5 -11   4    7.70    4.70
   5 -11   4    6.50    7.30
   5 -11   4   16.30    7.60
   5 -11   4    1.50    5.60
   6 -11   4   13.00    8.60
   6 -11   4   14.20    8.70
   6 -11   4   24.40    8.10
   6  10  -4    3.50    6.20
   6  10  -4   13.80   18.00
   6  10  -4   20.90   12.80
  -6 -10   4   26.70    7.80
  -6 -10   4   24.50   10.30
   5  10  -4   11.70   10.70
   5  10  -4   12.40   10.80
   5  10  -4   13.10    4.50
  -5 -10   4    9.10    6.80
   4  10  -4    7.10    8.90
   4  10  -4   25.20   15.60
   4  10  -4   10.00    4.20
  -4 -10   4    8.50    7.70
  -4 -10   4    2.20    6.00
   3  10  -4  152.88   14.80
   3  10  -4  145.99    9.40
   3  10  -4  142.19   13.70
  -3 -10   4  154.58   12.60
  -3 -10   4  116.29   10.80
  -3 -10   4  145.99   10.70
  -3 -10   4  141.19    8.90
   2  10  -4   -3.60    3.00
   2  10  -4   -3.50    6.20
   2  10  -4   -3.10    4.00
   2  10  -4   -1.90    6.30
  -2 -10   4   -5.40    5.20
  -2 -10   4   -0.90    4.30
  -2 -10   4   -4.60    4.40
   1  10  -4    8.00    4.40
   1  10  -4    7.30    5.50
   1  10  -4    3.60    5.60
  -1 -10   4    7.40    5.40
  -1 -10   4    3.30    4.40
  -1 -10   4    9.90    5.00
   0  10  -4    0.50    4.20
   0  10  -4   -0.20    4.70
   0  10  -4   -1.00    4.90
   0 -10   4    3.50    4.10
   0 -10   4    4.50    5.10
  -1  10  -4  205.28   12.70
  -1  10  -4  220.68   11.90
  -1  10  -4  219.48   11.30
  -1  10  -4  174.78   10.70
   1 -10   4  202.98   12.90
   1 -10   4  198.58   13.60
   1 -10   4  228.38   11.40
  -2  10  -4   68.69    7.10
  -2  10  -4   79.89    7.50
  -2  10  -4   66.79    8.10
   2 -10   4   76.29    9.70
   2 -10   4   63.29    7.60
   2 -10   4   96.39   10.30
  -3  10  -4  169.88   10.50
  -3  10  -4  163.68   11.60
  -3  10  -4  178.08   12.00
   3 -10   4  173.68   12.70
   3 -10   4  179.78   13.00
   3 -10   4  150.88   10.70
   3 -10   4  172.18   10.50
  -4  10  -4    5.40    5.70
  -4  10  -4    5.30    4.90
   4 -10   4   19.30    6.70
   4 -10   4   13.10    6.50
   4 -10   4    2.00    4.90
   4 -10   4   10.10    3.60
  -5  10  -4   88.09   10.40
   5 -10   4  121.79   12.30
   5 -10   4  102.89   12.60
   5 -10   4  128.49   13.40
   5 -10   4  135.19   13.20
   5 -10   4  108.79   11.80
   6 -10   4   19.70   10.50
   6 -10   4   20.10    8.70
   6 -10   4   28.40    6.90
   6 -10   4   23.90    8.60
   6   9  -4   -3.80   10.30
   6   9  -4   -3.30   11.10
  -6  -9   4    6.40    6.70
  -6  -9   4    4.30    7.50
   5   9  -4    2.40    9.70
   5   9  -4    7.10    4.10
   5   9  -4    7.10   10.60
  -5  -9   4   21.50    7.00
  -5  -9   4   15.10    6.60
   4   9  -4   82.49    7.40
   4   9  -4   81.69   11.10
   4   9  -4   65.29    9.90
  -4  -9   4   90.49   10.10
  -4  -9   4   55.99    7.70
  -4  -9   4   95.29   10.40
   3   9  -4   13.20    7.80
   3   9  -4    8.00    7.10
   3   9  -4    7.70    4.40
  -3  -9   4    8.90    5.10
  -3  -9   4    5.00    8.10
  -3  -9   4    5.00    2.90
  -3  -9   4    2.90    3.60
  -3  -9   4   11.00    5.70
   2   9  -4   53.49    7.30
   2   9  -4   44.10    7.80
   2   9  -4   43.50    4.60
   2   9  -4   44.10    5.20
  -2  -9   4   38.00    5.60
  -2  -9   4   43.90    5.70
  -2  -9   4   37.60    5.10
  -2  -9   4   40.60    6.60
   1   9  -4  105.49   10.60
   1   9  -4   87.39    6.10
   1   9  -4  114.99    8.30
   1   9  -4  114.09   10.50
  -1  -9   4  104.99    8.60
  -1  -9   4  102.79    8.40
  -1  -9   4   97.49   10.50
   0   9  -4  200.78   11.10
   0   9  -4  196.78   11.30
   0  -9   4  191.18   10.90
   0  -9   4  191.68   11.80
   0  -9   4  221.58   14.30
   0  -9   4  193.08   10.90
  -1   9  -4    0.20    2.80
  -1   9  -4    5.00    3.60
   1  -9   4    3.50    4.20
   1  -9   4   -3.90    4.20
   1  -9   4    2.60    5.10
  -2   9  -4  619.34   27.00
  -2   9  -4  632.24   27.30
  -2   9  -4  644.74   26.20
   2  -9   4  638.64   27.90
   2  -9   4  623.14   27.50
   2  -9   4  653.73   26.30
   2  -9   4  566.64   26.70
  -3   9  -4   46.70    5.40
  -3   9  -4   50.69    6.20
  -3   9  -4   40.00    6.00
   3  -9   4   42.80    5.70
   3  -9   4   46.30    6.60
   3  -9   4   42.00    6.20
   3  -9   4   47.90    6.90
  -4   9  -4    1.10    5.00
  -4   9  -4    4.40    5.30
  -4   9  -4   -0.90    4.70
   4  -9   4    3.00    3.70
   4  -9   4   -9.70    4.60
   4  -9   4   -2.20    5.60
   4  -9   4   -4.40    3.50
   4  -9   4    8.90    5.90
  -5   9  -4   15.40    6.80
  -5   9  -4   15.20    5.90
   5  -9   4   18.60    5.70
   5  -9   4   17.70    7.40
   5  -9   4   12.40    5.30
   5  -9   4   12.60    7.10
   5  -9   4   18.30    6.90
   6  -9   4   31.50    6.60
   6  -9   4   30.10    8.60
   6  -9   4   26.70    8.50
   6  -9   4   21.50    7.50
   6  -9   4   24.70    7.10
   6   8  -4   15.20   10.90
   6   8  -4   10.20   11.50
  -6  -8   4    9.50    7.70
  -6  -8   4   -2.90    6.10
   5   8  -4   -3.70   11.30
   5   8  -4    4.50    4.50
  -5  -8   4    3.10    6.00
  -5  -8   4    4.50    6.30
  -5  -8   4    6.00    6.80
   4   8  -4   94.29   10.10
   4   8  -4   83.39    8.10
   4   8  -4   71.69   10.40
  -4  -8   4   89.79    9.80
  -4  -8   4   71.39    9.20
  -4  -8   4   99.69   10.10
   3   8  -4   64.09    6.00
   3   8  -4   45.60    8.60
   3   8  -4   53.99    7.70
  -3  -8   4   45.70    6.80
  -3  -8   4   53.39    6.10
  -3  -8   4   47.90    6.30
   2   8  -4  693.63   31.00
   2   8  -4  704.53   30.10
   2   8  -4  725.23   29.10
   2   8  -4  689.53   28.80
  -2  -8   4  677.13   32.30
  -2  -8   4  717.33   28.60
  -2  -8   4  655.13   28.40
  -2  -8   4  705.63   28.80
   1   8  -4  323.47   16.40
   1   8  -4  342.47   14.90
   1   8  -4  303.87   13.60
   1   8  -4  312.87   15.70
  -1  -8   4  324.57   16.30
  -1  -8   4  311.27   15.00
  -1  -8   4  305.87   14.40
  -1  -8   4  311.17   14.40
  -1  -8   4  319.87   14.90
   0   8  -4   69.59    7.00
   0   8  -4   70.09    7.10
   0   8  -4   71.19    8.00
   0   8  -4   74.59    6.20
   0  -8   4   81.89    7.30
   0  -8   4   75.19    7.20
   0  -8   4   83.59    6.90
   0  -8   4   74.49    8.60
  -1   8  -4  147.09   10.00
  -1   8  -4  145.89    8.00
  -1   8  -4  151.48    8.50
  -1   8  -4  147.39    9.10
   1  -8   4  143.59    9.10
   1  -8   4  146.29   10.20
   1  -8   4  141.19    9.80
   1  -8   4  152.88    9.40
  -2   8  -4  508.45   22.40
  -2   8  -4  487.35   21.20
  -2   8  -4  534.05   23.20
   2  -8   4  536.55   24.00
   2  -8   4  496.35   22.80
   2  -8   4  463.35   21.60
   2  -8   4  496.35   21.60
  -3   8  -4 1080.99   43.40
  -3   8  -4 1006.90   42.30
  -3   8  -4 1046.20   43.20
   3  -8   4 1092.69   41.80
   3  -8   4 1077.49   42.40
   3  -8   4 1046.10   43.60
   3  -8   4 1056.89   43.60
   3  -8   4  982.00   41.70
  -4   8  -4    1.10    7.00
  -4   8  -4   -4.60    4.80
  -4   8  -4    4.20    4.90
   4  -8   4   -4.90    4.70
   4  -8   4    4.30    3.90
   4  -8   4    1.50    5.40
   4  -8   4    3.00    5.30
  -5   8  -4    8.60    5.60
  -5   8  -4   13.80    6.40
   5  -8   4   15.70    6.60
   5  -8   4   18.20    6.70
   5  -8   4   13.40    5.30
   5  -8   4   13.70    6.40
   5  -8   4   24.60    5.80
   6  -8   4   -0.70    8.50
   6  -8   4   -2.10    8.60
   6  -8   4   13.10    7.70
   6  -8   4    1.80    6.50
   6  -8   4    0.60    5.90
   6  -8   4    6.70    6.30
   7  -8   4   -5.10    7.50
   7  -8   4    9.60    7.00
   7  -8   4    4.60    7.20
   7  -8   4   -2.40    8.30
   7  -8   4   -0.90    6.50
   7  -8   4   -0.10    7.10
   7  -8   4   -4.00    8.10
   6   7  -4   -1.30   10.80
   6   7  -4    2.20    9.80
  -6  -7   4   -4.10    6.00
  -6  -7   4    0.50    6.90
  -6  -7   4   -8.50    6.80
   5   7  -4    1.90    8.30
   5   7  -4   -8.30    8.90
   5   7  -4    7.60    4.80
  -5  -7   4    4.30    5.50
  -5  -7   4   -1.00    6.10
   4   7  -4   76.79    9.90
   4   7  -4   61.39    8.60
   4   7  -4   71.39    8.00
  -4  -7   4   60.89    7.30
  -4  -7   4   65.99    7.40
  -4  -7   4   62.29    6.90
   3   7  -4  186.18   10.80
   3   7  -4  167.18   14.30
  -3  -7   4  170.58   11.60
  -3  -7   4  187.88   12.00
  -3  -7   4  191.18   11.00
   2   7  -4  113.69    7.70
   2   7  -4  119.79    8.40
   2   7  -4  111.79   10.10
   2   7  -4  143.39   11.90
  -2  -7   4  119.89    7.90
  -2  -7   4  108.89    9.50
  -2  -7   4  115.29    6.90
  -2  -7   4  116.49    9.10
  -2  -7   4  107.29    9.90
  -2  -7   4  116.69    7.30
   1   7  -4   28.40    5.50
   1   7  -4   23.10    4.40
   1   7  -4   34.20    4.10
   1   7  -4   32.90    4.20
  -1  -7   4   25.60    4.70
  -1  -7   4   31.30    3.90
  -1  -7   4   28.90    3.20
  -1  -7   4   36.50    6.90
  -1  -7   4   32.40    4.40
  -1  -7   4   22.40    4.50
   0   7  -4   15.30    4.20
   0   7  -4   19.40    3.40
   0   7  -4   18.50    3.60
   0   7  -4   13.30    3.10
   0  -7   4   18.70    4.40
   0  -7   4   19.60    3.80
   0  -7   4   22.70    4.10
   0  -7   4   20.70    3.60
   0  -7   4   20.40    3.30
  -1   7  -4   49.70    5.80
  -1   7  -4   36.00    4.80
  -1   7  -4   39.40    4.80
   1  -7   4   34.50    4.90
   1  -7   4   47.00    4.30
   1  -7   4   42.00    4.80
   1  -7   4   39.10    4.40
  -2   7  -4   75.29    7.70
  -2   7  -4   83.89    6.10
  -2   7  -4   77.79    7.00
   2  -7   4   73.79    6.90
   2  -7   4   88.49    8.20
   2  -7   4   70.89    7.20
   2  -7   4   80.79    8.40
  -3   7  -4   72.79    7.00
  -3   7  -4   69.59    7.90
  -3   7  -4   57.39    6.30
   3  -7   4   69.79    6.30
   3  -7   4   67.49    6.00
   3  -7   4   81.39    8.70
   3  -7   4   72.19    8.00
   3  -7   4   55.49    7.10
  -4   7  -4   -4.20    4.90
  -4   7  -4    5.40    4.70
  -4   7  -4    9.20    4.50
   4  -7   4   13.70    5.50
   4  -7   4    4.70    5.40
   4  -7   4    2.80    4.10
   4  -7   4   11.00    4.80
   5  -7   4    5.00    5.80
   5  -7   4    5.10    5.80
   5  -7   4    3.10    5.10
   5  -7   4    4.50    5.10
   5  -7   4    2.90    5.80
   6  -7   4   53.99    7.40
   6  -7   4   37.90    7.80
   6  -7   4   42.40    7.60
   6  -7   4   40.20    8.10
   6  -7   4   49.30    9.10
   7  -7   4   -7.20    7.50
   7  -7   4   -4.20    7.00
   7  -7   4   -8.00    7.10
   7  -7   4   12.30    7.20
   7  -7   4    8.80    7.70
   7  -7   4  -10.00    8.00
   7  -7   4  -14.40    6.00
   7   6  -4    2.50   17.90
  -7  -6   4    0.70   10.50
   6   6  -4  -10.40    9.40
   6   6  -4  -21.20   10.00
   6   6  -4   -1.40    5.50
  -6  -6   4  -11.40    5.30
  -6  -6   4    6.50    7.50
  -6  -6   4    5.70    6.80
   5   6  -4   -2.30    7.50
   5   6  -4    6.50    5.20
   5   6  -4   11.00    9.00
  -5  -6   4    0.00    5.90
  -5  -6   4    6.80    6.00
  -5  -6   4   -0.10    4.70
   4   6  -4  207.58   11.40
   4   6  -4  182.68   13.30
   4   6  -4  180.88   15.00
  -4  -6   4  201.18   11.60
  -4  -6   4  160.58   11.80
  -4  -6   4  174.28   12.00
   3   6  -4  204.78   12.90
   3   6  -4  207.68   11.50
   3   6  -4  210.88   14.40
  -3  -6   4  188.68   11.70
  -3  -6   4  197.78   11.60
  -3  -6   4  193.08   12.60
  -3  -6   4  183.58   11.80
   2   6  -4  169.38    9.50
   2   6  -4  151.08    8.90
   2   6  -4  158.38   10.30
   2   6  -4  158.98   11.70
  -2  -6   4  169.68   10.40
  -2  -6   4  160.68    8.90
  -2  -6   4  160.58    9.80
  -2  -6   4  179.18    9.40
  -2  -6   4  161.68    7.80
  -2  -6   4  143.49    8.80
   1   6  -4   29.50    3.90
   1   6  -4   34.40    4.30
   1   6  -4   32.50    3.20
   1   6  -4   37.20    3.90
   1   6  -4   37.70    4.20
   1   6  -4   39.00    5.30
  -1  -6   4   35.80    4.30
  -1  -6   4   30.60    4.30
  -1  -6   4   36.50    4.30
  -1  -6   4   32.70    4.00
  -1  -6   4   41.90    4.50
  -1  -6   4   32.70    3.70
  -1  -6   4   33.70    4.20
   0   6  -4    3.10    2.80
   0   6  -4    1.00    2.60
   0   6  -4   -1.10    3.20
   0  -6   4    1.40    2.30
   0  -6   4    4.80    3.20
   0  -6   4   -0.70    2.90
   0  -6   4    0.90    2.50
   0  -6   4   -2.20    2.80
   0  -6   4    0.90    3.60
  -1   6  -4  614.74   25.70
  -1   6  -4  584.04   25.70
  -1   6  -4  655.73   26.40
  -1   6  -4  642.64   26.40
  -1   6  -4  642.84   26.50
   1  -6   4  617.34   26.90
   1  -6   4  635.64   25.70
   1  -6   4  681.13   26.20
   1  -6   4  680.33   26.80
   1  -6   4  623.74   26.50
  -2   6  -4    8.00    3.60
  -2   6  -4   15.80    3.40
  -2   6  -4   10.10    2.80
   2  -6   4    8.80    3.00
   2  -6   4    7.60    3.40
   2  -6   4    8.90    3.30
   2  -6   4    5.20    2.10
   2  -6   4    7.60    2.70
  -3   6  -4   38.20    5.20
  -3   6  -4   39.70    4.70
  -3   6  -4   35.10    4.80
   3  -6   4   32.80    4.30
   3  -6   4   40.70    5.00
   3  -6   4   38.50    5.80
   3  -6   4   30.70    4.30
  -4   6  -4   -0.70    4.20
  -4   6  -4   -0.80    4.40
  -4   6  -4    2.20    4.20
   4  -6   4    3.10    4.40
   4  -6   4    3.60    5.20
   4  -6   4    4.90    4.10
   4  -6   4    3.90    4.80
   5  -6   4   16.40    5.50
   5  -6   4   22.70    6.40
   5  -6   4   24.00    6.10
   5  -6   4   23.90    5.70
   5  -6   4   15.80    6.10
   6  -6   4   14.50    7.00
   6  -6   4   29.60    7.10
   6  -6   4   19.60    7.00
   6  -6   4   25.10    8.40
   6  -6   4   20.70    6.90
   6  -6   4   24.80    8.20
   6  -6   4   26.30    7.20
   7  -6   4   13.30    8.50
   7  -6   4   -1.20    7.10
   7  -6   4    8.10    6.70
   7  -6   4    3.50    7.00
   7  -6   4  -13.50    8.40
   7  -6   4   10.40    7.30
   7  -6   4  -10.90    6.40
   7   5  -4   -8.00    9.60
   7   5  -4  -15.30   10.70
  -7  -5   4   -5.20    7.30
  -7  -5   4   -1.50    7.20
   6   5  -4    5.20    6.10
   6   5  -4    6.00    9.80
   6   5  -4    8.20    9.30
  -6  -5   4   -6.20    6.50
  -6  -5   4   -3.00    6.90
  -6  -5   4   -2.40    5.00
   5   5  -4   -7.90    5.10
   5   5  -4    4.60    7.40
   5   5  -4    0.80    8.30
  -5  -5   4    7.30    6.00
  -5  -5   4    2.10    4.30
  -5  -5   4    2.90    5.70
   4   5  -4    8.90    7.30
   4   5  -4    6.00    5.10
   4   5  -4   -6.60    5.90
  -4  -5   4   -3.30    4.70
  -4  -5   4    1.00    4.80
  -4  -5   4    1.30    3.90
   3   5  -4    0.60    3.80
   3   5  -4    1.00    5.00
   3   5  -4    1.40    4.60
   3   5  -4    4.10   10.20
  -3  -5   4    2.00    3.80
  -3  -5   4    0.90    3.90
  -3  -5   4    3.50    3.90
   2   5  -4   36.40    5.50
   2   5  -4   35.80    4.50
   2   5  -4   39.70    5.20
   2   5  -4   34.60    4.40
   2   5  -4   33.00    3.90
  -2  -5   4   28.50    4.30
  -2  -5   4   40.30    3.70
  -2  -5   4   36.00    4.40
  -2  -5   4   34.00    3.90
  -2  -5   4   31.60    4.20
  -2  -5   4   38.70    5.10
   1   5  -4  842.42   34.10
   1   5  -4  814.12   33.20
   1   5  -4  805.32   33.40
   1   5  -4  852.71   33.10
   1   5  -4  837.82   34.70
   1   5  -4  861.01   33.60
  -1  -5   4  784.92   33.00
  -1  -5   4  871.61   33.80
  -1  -5   4  834.92   33.90
  -1  -5   4  838.92   33.60
  -1  -5   4  778.32   32.90
  -1  -5   4  844.52   33.10
   0   5  -4   63.49    5.60
   0   5  -4   68.99    4.70
   0   5  -4   56.09    5.20
   0   5  -4   66.29    5.70
   0   5  -4   67.49    6.40
   0   5  -4   75.09    6.00
   0   5  -4   68.49    4.20
   0  -5   4   73.19    6.10
   0  -5   4   64.99    6.10
   0  -5   4   64.89    6.30
   0  -5   4   54.59    5.50
   0  -5   4   77.09    6.90
   0  -5   4   56.39    4.20
   0  -5   4   65.69    4.10
  -1   5  -4  305.47   12.70
  -1   5  -4  296.07   13.30
  -1   5  -4  310.97   13.90
  -1   5  -4  313.77   13.70
  -1   5  -4  323.07   13.80
   1  -5   4  319.57   13.70
   1  -5   4  297.27   12.90
   1  -5   4  296.67   13.70
   1  -5   4  318.87   13.90
   1  -5   4  311.47   14.10
   1  -5   4  301.07   13.80
  -2   5  -4  851.11   34.70
  -2   5  -4  831.32   34.20
  -2   5  -4  844.62   35.10
  -2   5  -4  859.91   34.90
   2  -5   4  854.51   34.20
   2  -5   4  838.72   34.20
   2  -5   4  864.81   35.00
   2  -5   4  840.82   34.80
   2  -5   4  906.91   35.40
   2  -5   4  881.31   34.70
   2  -5   4  889.01   34.30
  -3   5  -4    5.00    3.90
  -3   5  -4    6.00    3.50
  -3   5  -4    4.40    3.60
  -3   5  -4    2.00    3.50
   3  -5   4    4.70    4.20
   3  -5   4    4.70    3.80
   3  -5   4    2.00    2.90
   3  -5   4    7.40    3.30
   3  -5   4    0.30    3.30
  -4   5  -4   23.40    5.10
  -4   5  -4   36.10    6.50
   4  -5   4   23.00    5.00
   4  -5   4   21.90    4.90
   4  -5   4   35.30    9.70
   5  -5   4   25.20    6.00
   5  -5   4   38.00    6.50
   5  -5   4   43.40    6.60
   5  -5   4   36.00    6.90
   5  -5   4   37.30    7.20
   5  -5   4   31.20    5.90
   5  -5   4   32.10    6.20
   6  -5   4    2.90    6.30
   6  -5   4   -6.50    6.10
   6  -5   4    4.30    7.30
   6  -5   4    3.70    6.60
   6  -5   4    7.60    6.50
   6  -5   4    5.00    7.20
   6  -5   4    3.40    6.00
   7  -5   4   24.50    8.30
   7  -5   4   29.80    9.00
   7  -5   4   31.40    7.30
   7  -5   4   34.00   13.30
   7  -5   4   11.10    8.40
   7  -5   4   16.30    7.70
   7  -5   4    3.60    6.90
   7   4  -4   -1.00   11.10
   7   4  -4    7.20    6.60
   7   4  -4    2.50   10.30
  -7  -4   4   -2.60    7.30
  -7  -4   4   -3.90    7.40
   6   4  -4   30.10   10.30
   6   4  -4   35.90    9.70
   6   4  -4   16.90    6.60
  -6  -4   4   11.80    5.10
  -6  -4   4   16.90    7.70
  -6  -4   4    2.50    6.70
   5   4  -4  133.09   12.80
   5   4  -4  110.89   13.80
   5   4  -4  115.59   10.70
  -5  -4   4  123.79   10.90
  -5  -4   4  145.09    8.90
  -5  -4   4  100.69   11.00
   4   4  -4  149.19   11.70
   4   4  -4  139.29    8.90
   4   4  -4  120.49   13.00
   4   4  -4  145.29   10.70
  -4  -4   4  158.88    9.10
  -4  -4   4  144.69   10.50
  -4  -4   4  130.99   10.50
   3   4  -4   57.79    6.90
   3   4  -4   62.89    8.00
   3   4  -4   52.59    7.20
   3   4  -4   67.09    7.80
  -3  -4   4   65.79    6.70
  -3  -4   4   73.89    6.60
  -3  -4   4   58.69    6.90
  -3  -4   4   71.69    7.40
   2   4  -4  152.48    8.50
   2   4  -4  156.08    8.90
   2   4  -4  166.48    9.00
   2   4  -4  149.88   10.20
   2   4  -4  144.69    8.10
  -2  -4   4  165.58    9.10
  -2  -4   4  157.78    7.20
  -2  -4   4  160.88    8.60
  -2  -4   4  160.78    8.60
   1   4  -4  568.74   23.40
   1   4  -4  581.14   23.10
   1   4  -4  554.44   23.20
   1   4  -4  555.64   23.80
   1   4  -4  536.05   23.10
  -1  -4   4  588.04   23.10
  -1  -4   4  591.84   23.50
  -1  -4   4  564.24   23.40
  -1  -4   4  542.65   22.80
  -1  -4   4  567.24   24.00
  -1  -4   4  583.24   23.40
   0   4  -4  397.56   16.80
   0   4  -4  395.56   16.60
   0   4  -4  397.46   16.70
   0   4  -4  377.56   16.50
   0   4  -4  399.86   16.90
   0   4  -4  404.06   16.10
   0  -4   4  362.56   16.40
   0  -4   4  389.56   16.70
   0  -4   4  384.06   16.80
   0  -4   4  409.36   16.10
   0  -4   4  395.26   16.80
   0  -4   4  415.96   17.00
  -1   4  -4  993.30   40.80
  -1   4  -4  994.40   41.20
  -1   4  -4 1032.90   41.10
  -1   4  -4 1028.60   41.00
   1  -4   4 1059.19   40.60
   1  -4   4 1002.60   41.00
   1  -4   4 1109.69   41.50
   1  -4   4 1019.10   41.40
   1  -4   4 1044.50   41.00
  -2   4  -4   23.40    3.70
  -2   4  -4   20.90    3.20
  -2   4  -4   22.50    3.30
  -2   4  -4   27.40    3.00
   2  -4   4   21.90    2.90
   2  -4   4   21.20    3.50
   2  -4   4   20.80    3.40
   2  -4   4   21.80    3.40
   2  -4   4   24.80    3.40
   2  -4   4   15.00    3.10
   2  -4   4   19.80    2.90
   2  -4   4   23.00    3.30
   2  -4   4   23.90    3.90
   2  -4   4   20.70    2.80
  -3   4  -4   47.10    6.10
  -3   4  -4   41.20    5.00
  -3   4  -4   41.50    4.50
   3  -4   4   48.20    4.80
   3  -4   4   52.49    6.10
   3  -4   4   57.69    6.00
   3  -4   4   52.09    5.90
   3  -4   4   57.59    5.40
  -4   4  -4    9.40    4.40
   4  -4   4   -1.20    4.30
   4  -4   4    9.90    5.00
   4  -4   4   -2.10    4.20
   5  -4   4   81.19    9.50
   5  -4   4   95.39    9.60
   5  -4   4  102.89    9.40
   5  -4   4   85.99   10.10
   5  -4   4   90.19   10.40
   6  -4   4   20.90    6.40
   6  -4   4   12.90    6.00
   6  -4   4   23.50    6.90
   6  -4   4    2.00    6.20
   6  -4   4   22.10    7.90
   6  -4   4   14.90    7.90
   7  -4   4    9.00    7.80
   7  -4   4   18.50   12.20
   7  -4   4   29.60    7.50
   7  -4   4   29.80    9.50
   7  -4   4   29.20    7.90
   7  -4   4    5.30    8.20
   7  -4   4   18.20    6.60
   7   3  -4    1.50   11.10
   7   3  -4    0.70    7.10
   7   3  -4    9.90   10.00
  -7  -3   4    4.80    7.50
  -7  -3   4  -10.40    6.90
   6   3  -4   75.99   14.10
   6   3  -4   77.49    8.90
   6   3  -4   92.49   12.80
  -6  -3   4   65.59    9.40
  -6  -3   4   86.79    8.00
   5   3  -4   10.90    7.10
   5   3  -4    3.20    3.70
   5   3  -4   11.10    7.70
  -5  -3   4   18.50    4.00
  -5  -3   4    7.90    5.50
  -5  -3   4    5.60    5.70
   4   3  -4  625.04   27.00
   4   3  -4  608.54   27.60
   4   3  -4  641.04   26.20
  -4  -3   4  603.14   25.00
  -4  -3   4  530.75   26.40
  -4  -3   4  609.34   26.30
   3   3  -4   20.90    3.30
   3   3  -4   28.30    4.80
   3   3  -4   18.70    5.40
   3   3  -4   25.30    4.80
  -3  -3   4   24.60    4.30
  -3  -3   4   26.50    3.40
  -3  -3   4   26.40    4.00
  -3  -3   4   30.20    4.30
   2   3  -4    4.70    3.50
   2   3  -4    0.50    3.90
   2   3  -4   -2.60    2.70
   2   3  -4   -1.10    2.00
   2   3  -4   -4.00    2.50
   2   3  -4   -1.20    1.70
   2   3  -4   -2.40    2.90
   2   3  -4    3.20    3.20
  -2  -3   4   -0.70    3.00
  -2  -3   4    1.90    1.80
  -2  -3   4   -3.60    2.30
  -2  -3   4   -3.40    3.10
  -2  -3   4   -4.70    3.30
  -2  -3   4    1.60    2.90
   1   3  -4  186.68    8.60
   1   3  -4  185.98    9.10
   1   3  -4  189.48    9.40
   1   3  -4  165.78    8.40
   1   3  -4  172.28    8.20
   1   3  -4  172.78    8.20
   1   3  -4  175.68    8.70
   1   3  -4  179.08    8.30
  -1  -3   4  167.98    8.60
  -1  -3   4  195.68    8.80
  -1  -3   4  167.28    8.90
  -1  -3   4  181.98    8.20
  -1  -3   4  183.58    9.20
  -1  -3   4  181.08    8.90
   0   3  -4   89.79    5.60
   0   3  -4   95.69    5.80
   0   3  -4   96.89    9.40
   0   3  -4  105.19    5.50
   0   3  -4   96.29    6.20
   0  -3   4  105.99    6.30
   0  -3   4   97.89    6.30
   0  -3   4   99.29    6.00
   0  -3   4   92.49    5.70
   0  -3   4  109.49    5.80
   0  -3   4   95.19    6.00
  -1   3  -4   65.89    4.10
  -1   3  -4   63.89    5.20
  -1   3  -4   59.49    5.10
  -1   3  -4   64.29    4.60
  -1   3  -4   59.69    4.90
   1  -3   4   62.39    4.90
   1  -3   4   71.69    5.40
   1  -3   4   57.99    5.10
   1  -3   4   61.49    5.30
   1  -3   4   62.79    5.10
   1  -3   4   58.79    4.60
   1  -3   4   55.29    4.60
  -2   3  -4  185.88    9.20
  -2   3  -4  185.48    9.70
  -2   3  -4  181.08    9.80
  -2   3  -4  187.08    9.00
   2  -3   4  199.98    9.60
   2  -3   4  185.28    9.20
   2  -3   4  192.48    9.80
   2  -3   4  197.48    9.60
   2  -3   4  200.68    8.80
   2  -3   4  188.78    9.00
   2  -3   4  184.18    9.50
   2  -3   4  190.28    9.20
   2  -3   4  200.08    9.50
  -3   3  -4   38.50    4.60
  -3   3  -4   45.00    5.50
  -3   3  -4   45.90    5.00
  -3   3  -4   46.20    5.70
   3  -3   4   52.59    5.60
   3  -3   4   44.60    5.50
   3  -3   4   48.30    5.50
   3  -3   4   45.20    6.10
   3  -3   4   48.00    5.70
   3  -3   4   48.40    6.00
  -4   3  -4  166.28   10.60
  -4   3  -4  154.88   10.20
   4  -3   4  149.59   10.20
   4  -3   4  142.29   10.60
   4  -3   4  167.18   10.50
  -5   3  -4   21.40    5.70
   5  -3   4   39.40    6.80
   5  -3   4   32.90    6.50
   5  -3   4   14.50    5.40
   6  -3   4   53.49    6.80
   6  -3   4   63.29    8.80
   6  -3   4   49.80    7.00
   6  -3   4   53.59    8.90
   7  -3   4   33.80    6.70
   7  -3   4   14.10    9.60
   7  -3   4   25.40    8.40
   7  -3   4   47.90    6.90
   7  -3   4    9.20    8.60
   7   2  -4    4.90   10.30
   7   2  -4    0.30    7.60
   7   2  -4   -5.90    9.30
  -7  -2   4   -1.60    7.50
  -7  -2   4    3.20    7.00
   6   2  -4    8.80    7.10
  -6  -2   4    6.30    3.80
  -6  -2   4   19.80    8.10
  -6  -2   4    3.20    6.20
   5   2  -4   11.30    4.60
   5   2  -4   14.80    6.90
   5   2  -4   10.70    7.20
   5   2  -4   10.80    6.30
  -5  -2   4   19.00    5.80
  -5  -2   4    0.20    3.20
  -5  -2   4    4.30    5.10
   4   2  -4   52.89    7.50
   4   2  -4   75.29    6.10
   4   2  -4   70.59    7.20
   4   2  -4   66.39    7.50
  -4  -2   4   60.59    6.70
  -4  -2   4   50.89    6.40
  -4  -2   4   76.49    5.80
   3   2  -4   -1.10    4.70
   3   2  -4    3.40    2.30
   3   2  -4    7.90    4.40
  -3  -2   4    3.50    3.50
  -3  -2   4    2.00    3.30
  -3  -2   4    6.00    3.80
  -3  -2   4   10.40    3.60
   2   2  -4  215.28   11.10
   2   2  -4  227.48    9.40
   2   2  -4  216.48   10.20
   2   2  -4  202.18    9.60
   2   2  -4  230.38   10.90
   2   2  -4  248.38   11.70
   2   2  -4  215.58   10.60
  -2  -2   4  234.38   10.70
  -2  -2   4  226.08   10.80
  -2  -2   4  224.98   11.00
  -2  -2   4  206.08   10.70
  -2  -2   4  214.28    9.80
  -2  -2   4  215.48    9.40
   1   2  -4    1.30    1.80
   1   2  -4    3.90    2.10
   1   2  -4    1.70    2.90
   1   2  -4    2.50    2.40
   1   2  -4    1.20    2.40
   1   2  -4    1.70    2.80
   1   2  -4   -1.00    1.70
  -1  -2   4    1.00    1.90
  -1  -2   4   -1.00    2.60
  -1  -2   4   -1.30    2.50
  -1  -2   4    0.10    2.50
  -1  -2   4   -1.40    1.70
  -1  -2   4    1.70    2.00
  -1  -2   4    4.20    2.50
   0   2  -4  754.02   30.70
   0   2  -4  751.22   30.60
   0   2  -4  768.22   30.50
   0   2  -4  788.62   30.60
   0   2  -4  770.02   30.60
   0  -2   4  844.42   30.70
   0  -2   4  754.22   30.60
   0  -2   4  752.72   30.40
   0  -2   4  804.02   30.70
   0  -2   4  770.12   30.70
   0  -2   4  741.33   30.60
   0  -2   4  712.23   30.60
  -1   2  -4  738.03   28.80
  -1   2  -4  727.13   28.90
  -1   2  -4  718.93   28.50
  -1   2  -4  710.73   29.10
  -1   2  -4  702.43   28.80
  -1   2  -4  735.83   29.20
   1  -2   4  711.23   29.00
   1  -2   4  775.02   29.00
   1  -2   4  699.13   29.00
   1  -2   4  700.83   28.80
   1  -2   4  754.82   28.90
   1  -2   4  704.73   28.30
   1  -2   4  698.23   28.50
  -2   2  -4  930.21   35.90
  -2   2  -4  883.31   36.30
  -2   2  -4  937.61   36.20
   2  -2   4  874.71   35.60
   2  -2   4  892.61   36.10
   2  -2   4  898.41   35.60
   2  -2   4  896.31   35.80
   2  -2   4  891.31   36.00
   2  -2   4  897.31   36.00
   2  -2   4  898.81   36.20
   2  -2   4  916.81   36.00
   2  -2   4  873.91   35.70
  -3   2  -4   97.99    7.50
  -3   2  -4  102.99    6.60
  -3   2  -4  105.49    7.50
   3  -2   4  100.89    7.20
   3  -2   4  100.79    7.00
   3  -2   4  103.79    7.50
   3  -2   4   94.19    7.20
   3  -2   4   99.89    7.40
   3  -2   4  103.69    6.60
  -4   2  -4   18.80    4.30
  -4   2  -4    7.20    4.30
  -4   2  -4   21.10    4.70
   4  -2   4   10.80    4.80
   4  -2   4   13.00    5.10
   4  -2   4    2.70    4.00
  -5   2  -4   23.80    5.60
  -5   2  -4    6.90    5.10
   5  -2   4    9.20    5.30
   5  -2   4   14.90    6.30
   5  -2   4   22.30    6.40
   5  -2   4   14.30    4.80
  -6   2  -4    9.40    6.40
  -6   2  -4   10.70    6.00
   6  -2   4   12.40    8.20
   6  -2   4    9.90    5.40
   6  -2   4   18.10    7.60
   6  -2   4   15.90    5.60
   6  -2   4   13.10    6.90
   7  -2   4    1.80    5.80
   7  -2   4   18.10    9.10
   7  -2   4   13.00    9.20
   7  -2   4   18.50    8.30
   7   1  -4    1.10    8.10
   7   1  -4    0.90   10.20
   7   1  -4   -9.00    8.90
  -7  -1   4  -14.10    6.20
  -7  -1   4    8.10    7.80
   6   1  -4   -3.10    6.90
  -6  -1   4    9.10    5.90
   5   1  -4   24.70    7.20
   5   1  -4   21.50    3.50
   5   1  -4   38.00    7.90
   5   1  -4   20.40    6.60
  -5  -1   4   20.90    3.60
  -5  -1   4   29.00    5.60
  -5  -1   4   31.30    6.20
   4   1  -4   39.90    4.80
   4   1  -4   32.50    6.80
   4   1  -4   30.80    6.30
  -4  -1   4   37.10    5.20
  -4  -1   4   29.50    3.20
   3   1  -4   28.70    3.50
   3   1  -4   24.80    4.90
   3   1  -4   27.40    5.00
  -3  -1   4   30.60    4.00
  -3  -1   4   30.90    3.90
  -3  -1   4   33.10    3.30
  -3  -1   4   29.70    4.60
  -3  -1   4   30.30    4.40
   2   1  -4  303.07   13.60
   2   1  -4  303.57   13.80
   2   1  -4  351.16   14.50
   2   1  -4  280.87   12.90
   2   1  -4  315.17   14.40
   2   1  -4  301.17   13.10
   2   1  -4  324.47   14.30
  -2  -1   4  319.67   12.80
  -2  -1   4  336.07   14.30
  -2  -1   4  277.57   15.70
  -2  -1   4  313.07   13.10
  -2  -1   4  338.27   14.10
  -2  -1   4  287.37   14.70
  -2  -1   4  330.97   13.80
   1   1  -4  817.52   30.90
   1   1  -4  777.62   30.70
   1   1  -4  775.32   30.50
   1   1  -4  774.62   30.40
   1   1  -4  774.92   30.80
   1   1  -4  768.02   30.70
  -1  -1   4  784.52   30.70
  -1  -1   4  766.82   30.40
  -1  -1   4  751.62   30.30
  -1  -1   4  808.52   31.00
  -1  -1   4  759.12   30.70
  -1  -1   4  765.82   30.60
  -1  -1   4  667.73   30.20
  -1  -1   4  769.32   30.50
   0   1  -4  112.19    6.50
   0   1  -4  108.09    7.20
   0   1  -4  116.29    6.30
   0   1  -4  109.49    5.60
   0   1  -4  123.19    6.00
   0   1  -4  123.89    6.60
   0   1  -4  123.19    6.60
   0  -1   4  128.19    6.60
   0  -1   4  133.89    5.80
   0  -1   4  135.99    5.50
   0  -1   4  125.29    6.50
   0  -1   4  110.89    6.50
   0  -1   4  135.09    6.20
   0  -1   4  123.39    7.60
  -1   1  -4   46.30    4.00
  -1   1  -4   51.89    3.60
  -1   1  -4   51.89    4.40
  -1   1  -4   58.79    4.70
   1  -1   4   47.10    4.10
   1  -1   4   47.10    4.50
   1  -1   4   45.90    4.20
   1  -1   4   49.80    4.60
   1  -1   4   47.10    4.30
   1  -1   4   48.20    4.10
   1  -1   4   39.50    4.70
  -2   1  -4  529.55   22.10
  -2   1  -4  569.64   22.70
  -2   1  -4  592.84   23.00
   2  -1   4  536.15   22.50
   2  -1   4  557.24   22.30
   2  -1   4  547.55   22.20
   2  -1   4  542.15   22.80
   2  -1   4  559.74   22.80
   2  -1   4  543.95   22.40
   2  -1   4  535.45   22.70
   2  -1   4  526.95   22.00
  -3   1  -4    3.70    3.20
  -3   1  -4   -2.00    3.10
  -3   1  -4    3.60    2.50
  -3   1  -4   -1.00    2.80
   3  -1   4    1.30    3.10
   3  -1   4    4.60    3.40
   3  -1   4   -0.60    3.60
   3  -1   4    2.50    2.90
   3  -1   4    4.00    2.60
   3  -1   4    1.70    2.60
   3  -1   4   10.00    3.00
  -4   1  -4   17.80    4.70
  -4   1  -4   15.30    4.90
  -4   1  -4   16.30    4.10
   4  -1   4   19.50    4.00
   4  -1   4   22.00    5.60
   4  -1   4   12.80    4.80
   4  -1   4   21.10    5.20
   4  -1   4   17.50    3.50
  -5   1  -4    1.80    4.30
  -5   1  -4    0.40    5.00
  -5   1  -4   -4.90    4.30
   5  -1   4    0.20    4.10
   5  -1   4    4.20    5.10
   5  -1   4   10.50   10.70
   5  -1   4    3.00    6.20
  -6   1  -4    9.50    6.30
  -6   1  -4    8.50    6.40
   6  -1   4    4.80    7.30
   6  -1   4   10.30    4.70
   6  -1   4   10.90    8.00
  -7   1  -4   37.20    8.50
  -7   1  -4   16.90    7.40
   7  -1   4   14.60    8.00
   7  -1   4   19.40    9.60
   7   0  -4   18.40   11.50
   7   0  -4   41.50   10.60
   7   0  -4   13.10   10.40
  -7   0   4   19.30    8.20
  -7   0   4   26.60    7.10
   6   0  -4   -2.60   10.10
   6   0  -4   -4.70    7.00
  -6   0   4   -1.60    5.30
   5   0  -4   18.50    7.10
   5   0  -4   16.30    6.20
  -5   0   4   10.30    4.80
  -5   0   4   17.50    5.70
   4   0  -4    3.10    3.70
   4   0  -4    5.80    5.80
   4   0  -4   -0.50    5.30
   4   0  -4   -0.10    2.60
  -4   0   4    4.00    4.60
  -4   0   4    1.00    3.80
  -4   0   4    1.60    5.00
   3   0  -4   71.49    7.50
   3   0  -4   81.39    7.70
   3   0  -4   62.79    6.50
   3   0  -4   63.89    8.20
  -3   0   4   72.79    6.80
  -3   0   4   79.69    6.20
  -3   0   4   74.99    5.20
  -3   0   4   76.49    7.70
   2   0  -4  141.69    8.40
   2   0  -4  129.49    7.90
   2   0  -4  131.99    8.20
   2   0  -4  130.69    7.50
   2   0  -4  124.09    7.50
  -2   0   4  139.49    7.00
  -2   0   4  150.98    7.50
  -2   0   4  145.89    7.90
  -2   0   4  141.69    8.30
   1   0  -4  987.40   37.80
   1   0  -4  931.01   37.40
   1   0  -4  931.61   37.80
   1   0  -4  970.10   37.70
   1   0  -4  952.30   37.40
  -1   0   4  960.60   37.50
  -1   0   4  952.10   37.50
  -1   0   4 1016.10   37.90
  -1   0   4  825.82   37.10
  -1   0   4  920.11   37.40
  -1   0   4  972.50   37.60
   0   0  -4  391.26   15.90
   0   0  -4  367.06   15.80
   0   0  -4  374.56   15.40
   0   0  -4  377.76   15.60
   0   0  -4  358.96   15.30
   0   0  -4  357.56   15.00
   0   0   4  379.66   15.60
   0   0   4  377.06   15.40
   0   0   4  376.66   15.70
   0   0   4  370.86   15.70
   0   0   4  399.16   16.00
   0   0   4  383.66   15.30
  -1   0  -4   45.80    4.20
  -1   0  -4   47.10    4.10
  -1   0  -4   53.79    5.00
  -1   0  -4   50.49    4.20
  -1   0  -4   52.59    4.60
   1   0   4   53.09    4.10
   1   0   4   40.60    4.80
   1   0   4   54.89    5.00
   1   0   4   48.00    4.30
   1   0   4   52.79    4.70
   1   0   4   55.09    4.50
   1   0   4   45.90    4.20
  -2   0  -4  147.09    8.10
  -2   0  -4  137.69    6.60
  -2   0  -4  149.19    7.60
  -2   0  -4  143.69    7.80
  -2   0  -4  142.19    7.80
   2   0   4  135.59    7.80
   2   0   4  142.79    8.20
   2   0   4  146.59    8.10
   2   0   4  136.39    6.90
   2   0   4  141.19    6.60
   2   0   4  145.69    8.00
   2   0   4  141.19    7.30
   2   0   4  149.49    7.00
   2   0   4  140.39    7.70
  -3   0  -4   14.30    3.60
  -3   0  -4   12.50    3.40
  -3   0  -4   17.10    2.50
  -3   0  -4   14.70    3.70
   3   0   4   16.80    3.40
   3   0   4   14.30    3.90
   3   0   4   13.60    4.30
   3   0   4   13.50    2.60
   3   0   4   14.90    2.90
   3   0   4   15.20    3.60
  -4   0  -4    4.10    3.70
  -4   0  -4   -3.80    4.20
   4   0   4   -1.70    4.30
   4   0   4    0.10    2.80
   4   0   4   -3.00    4.60
   4   0   4   -2.60    3.90
   4   0   4    2.80    3.20
  -5   0  -4   31.20    5.80
  -5   0  -4   33.90    5.10
  -5   0  -4   21.10    5.90
   5   0   4   42.00    4.70
   5   0   4   32.70    7.30
   5   0   4   29.00    4.30
   5   0   4   37.00    6.40
  -6   0  -4   -3.50    5.50
   6   0   4    2.20    7.30
   6   0   4   -2.00    7.10
   6   0   4    1.50    7.70
   6   0   4   -1.20    4.10
  -7   0  -4   -3.40    6.80
  -7   0  -4   10.80    7.20
   7   0   4   -2.40    9.20
   7   0   4   14.40    7.70
   7  -1  -4   -4.80    9.50
   7  -1  -4    6.90   10.00
   7  -1  -4   17.80    9.80
  -7   1   4    8.80    7.70
  -7   1   4    4.20    6.60
   6  -1  -4   10.60    7.30
  -6   1   4   15.60    5.60
  -6   1   4   10.70    8.10
   5  -1  -4    8.80    6.20
   5  -1  -4    3.20    3.10
   5  -1  -4    7.30    3.60
   5  -1  -4    9.60    6.80
  -5   1   4   12.40    4.60
  -5   1   4    0.80    5.00
  -5   1   4   15.30    6.20
   4  -1  -4   51.39    6.50
   4  -1  -4   36.70    6.40
   4  -1  -4   37.10    6.40
  -4   1   4   37.50    6.10
  -4   1   4   23.10    5.30
  -4   1   4   38.00    4.70
   3  -1  -4  124.99    9.10
   3  -1  -4  102.59    7.70
   3  -1  -4  137.19    7.70
   3  -1  -4  124.59    8.90
  -3   1   4  107.89    8.40
  -3   1   4  125.39    7.40
  -3   1   4  128.39    8.60
  -3   1   4  128.99    7.10
   2  -1  -4 1325.77   52.39
   2  -1  -4 1323.57   52.49
   2  -1  -4 1259.97   52.19
   2  -1  -4 1323.37   51.99
   2  -1  -4 1336.67   51.89
  -2   1   4 1284.37   52.19
  -2   1   4 1342.77   51.89
  -2   1   4 1362.66   52.69
  -2   1   4 1317.27   51.89
  -2   1   4 1306.57   52.29
   1  -1  -4   53.99    4.90
   1  -1  -4   32.60    4.50
  -1   1   4   37.80    3.60
  -1   1   4   52.59    4.70
  -1   1   4   42.00    3.20
  -1   1   4   40.70    3.60
  -1   1   4   48.80    5.30
   0  -1  -4   27.50    3.30
   0  -1  -4   31.40    3.20
   0  -1  -4   34.20    3.40
   0  -1  -4   27.80    2.60
   0  -1  -4   32.00    4.10
   0   1   4   31.50    3.20
   0   1   4   32.40    3.40
   0   1   4   28.70    3.20
   0   1   4   40.20    3.40
   0   1   4   30.30    3.80
   0   1   4   32.00    3.40
  -1  -1  -4   55.69    4.10
  -1  -1  -4   61.49    5.10
  -1  -1  -4   58.19    4.70
  -1  -1  -4   60.19    5.00
  -1  -1  -4   57.19    5.30
   1   1   4   56.79    4.40
   1   1   4   50.99    4.20
   1   1   4   54.49    5.50
   1   1   4   59.59    5.20
   1   1   4   52.99    5.40
   1   1   4   57.39    4.80
  -2  -1  -4   46.10    5.20
  -2  -1  -4   43.00    5.40
  -2  -1  -4   42.10    3.10
  -2  -1  -4   50.49    4.50
  -2  -1  -4   43.30    5.30
   2   1   4   47.10    3.90
   2   1   4   39.80    4.20
   2   1   4   51.09    4.80
   2   1   4   44.30    5.10
   2   1   4   42.40    5.40
   2   1   4   34.80    4.50
   2   1   4   46.40    4.80
  -3  -1  -4    1.60    2.90
  -3  -1  -4    0.60    3.20
  -3  -1  -4    2.70    3.60
   3   1   4    4.20    3.50
   3   1   4    3.10    3.30
   3   1   4    7.90    2.80
   3   1   4    1.30    3.70
   3   1   4    1.60    2.30
   3   1   4    5.30    4.50
  -4  -1  -4  160.18   10.50
  -4  -1  -4  149.39   10.40
  -4  -1  -4  162.18    9.30
   4   1   4  160.58   11.70
   4   1   4  161.38   10.50
   4   1   4  152.28   10.70
   4   1   4  119.99    9.80
  -5  -1  -4  144.59   11.10
  -5  -1  -4  126.89   10.90
  -5  -1  -4  139.79    9.30
   5   1   4  116.99   10.90
   5   1   4  131.89   12.60
  -6  -1  -4    5.20    5.90
  -6  -1  -4    3.90    6.40
   6   1   4    3.50    6.40
   6   1   4    1.00    7.00
  -7  -1  -4   20.50    7.70
  -7  -1  -4   19.80    7.80
   7   1   4   18.00    9.90
   7   1   4    9.10    8.10
   7  -2  -4   12.60   10.00
   7  -2  -4   17.20    8.50
   7  -2  -4    6.80    9.60
  -7   2   4   20.40    8.30
   6  -2  -4   -5.80    7.30
   6  -2  -4   -6.10    3.90
  -6   2   4    5.40    7.30
  -6   2   4    0.20    5.00
   5  -2  -4   17.30    6.80
   5  -2  -4    5.10    4.20
   5  -2  -4   -1.30    3.70
   5  -2  -4    4.80    6.30
  -5   2   4   -2.80    5.90
  -5   2   4    1.30    5.20
  -5   2   4    8.10    6.00
   4  -2  -4   10.10    4.40
   4  -2  -4   13.20    5.70
   4  -2  -4    9.80    6.20
  -4   2   4   10.60    5.40
  -4   2   4    8.80    4.70
  -4   2   4   10.90    3.60
   3  -2  -4  194.88   10.80
   3  -2  -4  202.48   11.20
   3  -2  -4  185.28    9.70
   3  -2  -4  198.08   10.30
  -3   2   4  184.18    9.20
  -3   2   4  190.88   10.60
  -3   2   4  176.98    9.60
  -3   2   4  169.58   10.60
   2  -2  -4  227.58   10.70
   2  -2  -4  211.28   10.80
   2  -2  -4  235.18   10.60
   2  -2  -4  221.98   10.60
   2  -2  -4  219.88   11.00
   2  -2  -4  221.08    9.80
   2  -2  -4  187.58   10.00
  -2   2   4  212.38   10.70
  -2   2   4  183.18    9.40
  -2   2   4  196.78   10.60
  -2   2   4  195.28   10.00
  -2   2   4  210.08   10.20
   1  -2  -4   15.60    2.00
   1  -2  -4   19.60    3.20
   1  -2  -4   22.30    2.40
   1  -2  -4   18.40    3.40
   1  -2  -4   18.20    2.60
   1  -2  -4   17.30    3.10
   1  -2  -4   22.30    3.40
  -1   2   4   19.40    2.80
  -1   2   4   24.70    3.30
  -1   2   4   20.20    3.10
  -1   2   4   19.90    2.60
  -1   2   4   19.40    2.10
  -1   2   4   20.40    3.70
   0  -2  -4  273.57   12.10
   0  -2  -4  273.77   11.80
   0  -2  -4  276.77   12.30
   0  -2  -4  272.67   12.00
   0  -2  -4  278.97   12.10
   0  -2  -4  257.17   11.10
   0   2   4  273.57   11.70
   0   2   4  270.97   11.70
   0   2   4  276.77   12.30
   0   2   4  242.48   11.70
   0   2   4  265.57   11.30
   0   2   4  272.47   11.10
   0   2   4  256.67   12.00
   0   2   4  276.07   12.10
  -1  -2  -4 1053.99   40.40
  -1  -2  -4 1004.60   40.20
  -1  -2  -4 1024.40   40.30
  -1  -2  -4  993.60   39.90
  -1  -2  -4  984.90   40.10
  -1  -2  -4 1042.50   39.50
   1   2   4 1022.30   40.40
   1   2   4 1008.80   40.30
   1   2   4  985.70   40.10
   1   2   4  968.00   39.80
   1   2   4  974.20   40.10
   1   2   4 1015.60   39.50
  -2  -2  -4  123.09    6.30
  -2  -2  -4  135.19    7.60
  -2  -2  -4  125.59    7.70
  -2  -2  -4  136.59    7.90
  -2  -2  -4  122.59    7.50
   2   2   4  134.89    6.90
   2   2   4  118.09    8.20
   2   2   4  126.99    7.00
   2   2   4  136.59    8.20
   2   2   4  132.39    8.90
  -3  -2  -4  357.26   16.00
  -3  -2  -4  357.96   16.70
  -3  -2  -4  359.16   16.50
   3   2   4  347.97   17.60
   3   2   4  356.56   16.20
   3   2   4  352.86   15.90
   3   2   4  367.56   17.00
  -4  -2  -4   27.40    5.20
  -4  -2  -4   16.40    5.10
  -4  -2  -4   20.90    4.20
   4   2   4   16.70    5.30
   4   2   4   26.60    5.90
   4   2   4   25.60    6.50
  -5  -2  -4  116.99   10.40
  -5  -2  -4  112.89    8.40
  -5  -2  -4   93.99   10.30
   5   2   4  108.99   12.40
   5   2   4  109.49   10.60
  -6  -2  -4    6.30    6.30
  -6  -2  -4    5.40    6.60
   6   2   4   32.80    8.20
   6   2   4    8.90    7.00
   6   2   4   14.60    9.00
  -7  -2  -4   -2.70    6.40
  -7  -2  -4   -4.20    6.90
   7   2   4  -12.70    6.80
   7   2   4    4.40   10.20
   7   2   4    3.20   10.70
   7  -3  -4    8.50    9.80
   7  -3  -4    7.80    8.70
  -7   3   4  -11.60    5.90
  -7   3   4   -3.20    7.20
   6  -3  -4   -1.50    4.70
   6  -3  -4   -8.30    9.00
   6  -3  -4   -0.50    7.40
  -6   3   4    5.40    4.90
  -6   3   4    5.00    8.10
  -6   3   4    3.70    7.40
   5  -3  -4   19.40    7.30
   5  -3  -4   15.30    5.30
   5  -3  -4   10.30    6.40
  -5   3   4    3.30    5.20
  -5   3   4   16.30    4.20
  -5   3   4   10.00    6.10
   4  -3  -4    6.60    5.40
   4  -3  -4    9.00    4.80
   4  -3  -4    1.70    5.50
   4  -3  -4    7.60    3.90
  -4   3   4   -1.60    4.30
  -4   3   4   -1.00    4.40
  -4   3   4   11.40    3.30
  -4   3   4   10.30    5.20
   3  -3  -4   18.90    3.50
   3  -3  -4    6.00    4.70
   3  -3  -4   14.50    4.90
   3  -3  -4   13.80    4.30
  -3   3   4    9.90    3.90
  -3   3   4   12.30    4.50
  -3   3   4   13.10    3.70
  -3   3   4   14.90    2.70
   2  -3  -4  812.52   32.10
   2  -3  -4  814.32   33.20
   2  -3  -4  757.52   32.80
   2  -3  -4  799.32   33.20
   2  -3  -4  858.31   33.20
   2  -3  -4  755.32   32.90
  -2   3   4  835.12   33.30
  -2   3   4  826.72   33.10
  -2   3   4  800.92   32.10
  -2   3   4  878.81   33.30
  -2   3   4  789.32   33.10
   1  -3  -4  441.46   18.60
   1  -3  -4  417.26   17.70
   1  -3  -4  422.66   17.40
   1  -3  -4  460.75   19.00
   1  -3  -4  441.16   18.50
   1  -3  -4  463.15   18.80
   1  -3  -4  398.46   17.90
  -1   3   4  417.66   18.10
  -1   3   4  420.96   17.70
  -1   3   4  445.86   18.10
  -1   3   4  461.95   18.80
  -1   3   4  422.96   17.50
  -1   3   4  417.36   19.20
  -1   3   4  438.06   18.50
   0  -3  -4  708.43   28.30
   0  -3  -4  692.33   27.90
   0  -3  -4  672.93   27.60
   0  -3  -4  711.03   28.50
   0  -3  -4  679.93   28.20
   0  -3  -4  712.33   28.10
   0   3   4  690.73   27.60
   0   3   4  724.93   28.50
   0   3   4  673.53   27.50
   0   3   4  700.53   28.20
   0   3   4  689.73   27.70
   0   3   4  695.63   27.60
   0   3   4  660.33   27.90
   0   3   4  694.43   28.50
  -1  -3  -4   44.40    3.60
  -1  -3  -4   36.50    3.90
  -1  -3  -4   31.40    3.60
  -1  -3  -4   43.30    4.10
  -1  -3  -4   35.10    4.50
  -1  -3  -4   45.20    4.40
   1   3   4   47.90    5.50
   1   3   4   36.70    3.50
   1   3   4   35.50    3.80
   1   3   4   34.60    3.30
   1   3   4   37.90    4.60
   1   3   4   31.20    4.10
  -2  -3  -4   11.40    3.30
  -2  -3  -4    9.10    3.20
  -2  -3  -4    7.80    2.40
  -2  -3  -4    7.80    3.40
   2   3   4   12.10    3.00
   2   3   4    7.90    3.60
   2   3   4    3.70    4.40
  -3  -3  -4  200.08   10.00
  -3  -3  -4  205.98   11.60
  -3  -3  -4  172.28   12.70
  -3  -3  -4  223.28   11.00
   3   3   4  213.68   13.40
   3   3   4  202.68   10.50
   3   3   4  210.88   11.30
   3   3   4  199.38   13.40
  -4  -3  -4    6.00    4.70
  -4  -3  -4   -2.80    4.20
  -4  -3  -4    4.90    3.60
   4   3   4    5.20    4.80
   4   3   4   -2.60    5.10
   4   3   4   17.00    6.80
  -5  -3  -4   -3.10    5.00
  -5  -3  -4    2.50    3.80
  -5  -3  -4    1.70    5.40
   5   3   4    6.90    7.10
   5   3   4    2.40    5.50
   5   3   4  -12.40    7.10
  -6  -3  -4    4.40    6.60
   6   3   4    8.40    9.30
   6   3   4   -2.20    7.50
   6   3   4    8.60    7.10
  -7  -3  -4   -9.30    7.90
  -7  -3  -4  -10.70    6.30
   7   3   4   -1.20   10.20
   7   3   4    0.70    8.50
   7   3   4   13.20    8.80
   7  -4  -4    3.60    9.40
   7  -4  -4    2.20    8.50
  -7   4   4   -1.30    7.10
  -7   4   4   10.80    6.10
   6  -4  -4    3.60    8.00
   6  -4  -4    5.20    8.10
  -6   4   4   12.30    7.20
  -6   4   4   12.50    4.80
  -6   4   4   12.40    8.20
   5  -4  -4   30.90    7.40
   5  -4  -4   19.00    7.00
   5  -4  -4   24.20    5.80
  -5   4   4   20.20    5.80
  -5   4   4   21.40    4.10
  -5   4   4   18.40    6.80
   4  -4  -4   23.80    5.00
   4  -4  -4   28.50    6.10
   4  -4  -4   25.90    5.50
   4  -4  -4   17.50    6.10
  -4   4   4   12.60    5.00
  -4   4   4   24.70    5.70
  -4   4   4   25.50    3.40
   3  -4  -4    0.60    4.40
   3  -4  -4    4.60    5.00
   3  -4  -4   -1.20    3.00
  -3   4   4    6.70    3.90
  -3   4   4    0.70    2.20
  -3   4   4   -1.30    3.90
   2  -4  -4   14.70    3.70
   2  -4  -4   14.90    4.50
   2  -4  -4   12.20    2.10
   2  -4  -4   13.20    3.30
   2  -4  -4   16.30    4.30
   2  -4  -4   14.20    2.30
  -2   4   4   12.40    2.00
  -2   4   4   12.20    3.80
  -2   4   4   13.30    3.70
  -2   4   4   14.70    3.40
  -2   4   4   19.10    3.70
   1  -4  -4   98.29    7.20
   1  -4  -4   89.49    6.10
   1  -4  -4   97.09    8.10
   1  -4  -4  100.59    6.00
   1  -4  -4  110.89    8.00
   1  -4  -4  106.39    7.40
  -1   4   4  109.09    6.60
  -1   4   4  108.69    6.10
  -1   4   4   98.29    4.90
  -1   4   4  107.49    7.70
  -1   4   4  102.29    6.10
  -1   4   4  103.19    6.90
  -1   4   4   98.09    7.30
  -1   4   4  100.89    5.40
   0  -4  -4   -1.20    2.20
   0  -4  -4   -0.70    2.30
   0  -4  -4   -1.90    3.30
   0  -4  -4    3.30    3.40
   0  -4  -4   -3.40    2.60
   0   4   4   -1.30    2.60
   0   4   4   -1.30    2.20
   0   4   4   -1.50    2.00
   0   4   4   -2.30    3.10
   0   4   4    1.20    3.20
   0   4   4   -0.50    1.60
   0   4   4   -0.80    2.30
   0   4   4   -0.50    1.90
  -1  -4  -4  140.99    8.30
  -1  -4  -4  132.39    7.20
  -1  -4  -4  144.99    8.20
  -1  -4  -4  138.09    7.40
  -1  -4  -4  122.79    7.10
  -1  -4  -4  137.39    8.20
  -1  -4  -4  127.99    6.60
   1   4   4  132.19    8.10
   1   4   4  124.79    8.90
   1   4   4  117.99    7.70
   1   4   4  116.79    7.60
   1   4   4  144.89    7.20
   1   4   4  116.89    7.50
  -2  -4  -4   64.49    6.70
  -2  -4  -4   60.99    6.30
  -2  -4  -4   65.89    5.50
  -2  -4  -4   58.79    6.50
   2   4   4   77.09    7.00
   2   4   4   60.19    6.20
   2   4   4   66.99    7.30
   2   4   4   63.89    6.10
  -3  -4  -4   73.29    8.10
  -3  -4  -4   61.09    6.10
  -3  -4  -4   63.79    6.60
  -3  -4  -4   69.89    7.30
   3   4   4   77.69    8.50
   3   4   4   62.89    8.40
   3   4   4   66.99    7.70
  -4  -4  -4  102.79    7.70
  -4  -4  -4   84.99    9.50
  -4  -4  -4  101.19    9.30
   4   4   4   99.49    9.60
   4   4   4  101.29    9.80
   4   4   4   88.89    9.50
  -5  -4  -4   -1.50    3.60
  -5  -4  -4   -1.90    5.10
  -5  -4  -4   -3.70    5.20
   5   4   4    3.80    5.90
   5   4   4    1.90    6.00
   5   4   4  -10.00    7.60
  -6  -4  -4   -2.80    6.40
  -6  -4  -4   -1.90    6.10
   6   4   4   17.90    7.60
   6   4   4   -3.60    6.70
   6   4   4   -1.50    9.50
  -7  -4  -4    3.40    6.70
  -7  -4  -4    3.20    7.40
   7   4   4   17.10    8.50
   7   4   4   -5.50    8.20
   7  -5  -4   11.10    8.80
   7  -5  -4    8.10    9.30
  -7   5   4    6.60    7.40
  -7   5   4    0.70    5.70
   6  -5  -4   -2.30    8.80
   6  -5  -4    1.10    7.90
   6  -5  -4   -1.80    6.20
  -6   5   4    3.90    7.30
  -6   5   4    1.00    4.40
   5  -5  -4   59.59    8.30
   5  -5  -4   61.29    7.40
   5  -5  -4   66.09    8.70
  -5   5   4   76.29    6.50
  -5   5   4   67.09    8.20
  -5   5   4   56.29    7.20
   4  -5  -4  139.09   10.90
   4  -5  -4  143.19   12.20
   4  -5  -4  129.99    8.30
   4  -5  -4  136.19   11.60
  -4   5   4  145.29   11.30
  -4   5   4  137.69   10.30
  -4   5   4  160.98    7.50
   3  -5  -4    1.20    2.20
   3  -5  -4   11.00    5.00
   3  -5  -4   10.40    6.00
  -3   5   4    8.40    4.00
  -3   5   4    9.30    5.70
   2  -5  -4  118.09    9.30
   2  -5  -4  112.39    8.50
   2  -5  -4  113.79    6.70
   2  -5  -4  110.49    9.70
  -2   5   4  132.59    8.20
  -2   5   4  127.59    8.30
  -2   5   4  110.89    8.50
  -2   5   4  120.09    6.50
   1  -5  -4   10.20    3.30
   1  -5  -4   10.40    2.80
   1  -5  -4   19.90    4.50
   1  -5  -4   13.70    3.00
   1  -5  -4   15.70    3.60
  -1   5   4   18.40    3.20
  -1   5   4   12.50    3.80
  -1   5   4   13.40    3.10
  -1   5   4   11.70    4.10
   0  -5  -4   14.60    3.10
   0  -5  -4    8.40    3.80
   0  -5  -4    6.70    2.90
   0  -5  -4   14.60    3.30
   0  -5  -4   10.90    2.90
   0   5   4   15.60    3.90
   0   5   4   11.90    1.90
   0   5   4   10.90    2.80
   0   5   4   11.90    3.60
   0   5   4    8.10    3.00
  -1  -5  -4  320.67   14.50
  -1  -5  -4  329.87   13.60
  -1  -5  -4  345.87   15.50
  -1  -5  -4  294.57   13.70
  -1  -5  -4  345.17   14.50
  -1  -5  -4  339.57   15.30
   1   5   4  328.37   14.20
   1   5   4  321.17   16.10
   1   5   4  320.97   14.10
   1   5   4  351.86   15.40
  -2  -5  -4  124.09    7.60
  -2  -5  -4  129.19    8.80
  -2  -5  -4  132.89    9.10
  -2  -5  -4  121.89    8.30
   2   5   4  117.69    9.10
   2   5   4  133.79   11.20
   2   5   4  119.19    7.90
  -3  -5  -4   10.00    4.60
  -3  -5  -4    8.50    4.10
  -3  -5  -4   21.90    3.70
  -3  -5  -4   15.90    4.50
   3   5   4   22.20    7.10
   3   5   4   23.30    5.20
   3   5   4   18.40    5.30
  -4  -5  -4  118.89   10.20
  -4  -5  -4   93.69    8.30
  -4  -5  -4  102.99    9.70
   4   5   4  121.09   10.40
   4   5   4  106.19   13.20
   4   5   4  108.69   10.20
  -5  -5  -4   -9.20    7.70
  -5  -5  -4    6.30    4.10
  -5  -5  -4   -5.90    5.10
   5   5   4   11.90    6.50
   5   5   4   -3.90    8.50
   5   5   4    6.70    6.10
  -6  -5  -4    8.20    6.50
  -6  -5  -4   26.10    7.80
   6   5   4   19.40    8.00
   6   5   4   13.10    7.60
   6   5   4   31.10   10.70
   7  -6  -4    3.10    9.30
   7  -6  -4   16.80    9.90
   7  -6  -4    1.70    7.30
  -7   6   4    3.90    8.00
  -7   6   4  -12.00    6.40
   6  -6  -4   33.70    9.40
   6  -6  -4   27.00    8.70
   6  -6  -4   20.50    7.40
  -6   6   4   18.40    7.90
  -6   6   4   18.20    4.60
   5  -6  -4    0.40    6.60
   5  -6  -4   -3.50    5.70
   5  -6  -4    6.90    5.10
   5  -6  -4    0.50    6.60
  -5   6   4   -3.80    2.80
  -5   6   4    4.60    5.20
  -5   6   4   -2.10    6.00
   4  -6  -4    9.50    6.50
   4  -6  -4   16.50    6.00
  -4   6   4   20.60    5.00
  -4   6   4   27.70    6.10
   3  -6  -4   41.90    5.40
   3  -6  -4   33.70    6.00
   3  -6  -4   34.50   10.50
  -3   6   4   30.90    4.90
  -3   6   4   36.70    5.90
  -3   6   4   39.40    5.70
   2  -6  -4  128.89    9.20
   2  -6  -4  129.89   10.40
   2  -6  -4  123.39    7.80
  -2   6   4  128.09    9.40
  -2   6   4  126.69    7.30
  -2   6   4  126.99    8.70
  -2   6   4  111.49    8.80
   1  -6  -4   18.80    4.00
   1  -6  -4   28.10    5.20
   1  -6  -4   21.60    4.00
   1  -6  -4   25.60    3.70
   1  -6  -4   26.20    4.00
  -1   6   4   22.90    4.50
  -1   6   4   20.40    3.60
  -1   6   4   14.60    4.40
  -1   6   4   25.10    3.80
   0  -6  -4    5.70    3.50
   0  -6  -4   16.20    3.50
   0  -6  -4   15.20    3.00
   0  -6  -4   16.60    3.80
   0  -6  -4   14.20    3.20
   0  -6  -4   13.70    4.50
   0   6   4   15.80    2.20
   0   6   4   20.30    4.60
   0   6   4   18.00    4.20
   0   6   4   14.20    3.20
  -1  -6  -4  126.09    7.50
  -1  -6  -4  112.69    7.30
  -1  -6  -4  116.89    8.60
  -1  -6  -4  131.29    6.30
  -1  -6  -4  115.09    9.40
   1   6   4  130.49    6.90
   1   6   4  130.19   10.50
   1   6   4  132.89    9.10
   1   6   4  133.69    7.70
  -2  -6  -4   30.30    5.10
  -2  -6  -4   25.50    4.10
  -2  -6  -4   26.20    4.20
  -2  -6  -4   26.20    4.90
   2   6   4   29.90    7.10
   2   6   4   19.60    4.10
   2   6   4   26.90    5.30
  -3  -6  -4  128.79    9.50
  -3  -6  -4  129.39   10.20
  -3  -6  -4  133.69    9.00
   3   6   4  131.59    9.70
   3   6   4  136.79   13.40
   3   6   4  132.29   10.40
  -4  -6  -4   -1.60    4.80
  -4  -6  -4   -0.30    4.80
  -4  -6  -4   -1.80    3.70
   4   6   4    5.60    5.60
   4   6   4    8.80    5.60
   4   6   4   16.90    8.00
  -5  -6  -4   74.39    8.70
  -5  -6  -4   73.19    7.60
   5   6   4   86.29   11.40
   5   6   4   70.29   11.50
   5   6   4   76.39    8.70
  -6  -6  -4   35.60    8.20
  -6  -6  -4   39.00    8.10
   6   6   4   23.20    7.90
   6   6   4   39.20    8.70
   6   6   4   14.80   11.20
   7  -7  -4    3.00    9.80
  -7   7   4   -0.80    7.00
   6  -7  -4    5.00    8.80
   6  -7  -4    3.60    8.10
   6  -7  -4    5.10    7.50
  -6   7   4    5.30    6.50
  -6   7   4   -0.30    7.50
   5  -7  -4   -1.30    6.30
   5  -7  -4    3.30    7.40
   5  -7  -4   -2.60    6.90
  -5   7   4    2.80    5.00
  -5   7   4   -7.30    6.20
   4  -7  -4   -1.10    2.40
   4  -7  -4    8.30    6.00
   4  -7  -4   -2.20    5.80
  -4   7   4    0.90    5.30
  -4   7   4    8.40    4.50
   3  -7  -4   47.20    6.50
   3  -7  -4   47.90    6.90
   3  -7  -4   50.19    6.10
  -3   7   4   46.30    6.50
  -3   7   4   47.40    4.80
  -3   7   4   49.99    6.20
  -3   7   4   44.90    5.40
   2  -7  -4   13.80    5.70
   2  -7  -4    8.30    3.70
  -2   7   4    8.40    4.70
  -2   7   4   15.30    4.60
  -2   7   4   10.60    3.30
  -2   7   4   11.00    4.30
   1  -7  -4   13.90    5.40
   1  -7  -4   10.20    3.90
   1  -7  -4   10.70    3.70
  -1   7   4   12.90    4.50
  -1   7   4    7.30    4.50
  -1   7   4   11.40    3.70
   0  -7  -4  125.69    7.90
   0  -7  -4  119.39   10.10
   0  -7  -4  119.69    8.80
   0  -7  -4  121.09    7.20
   0   7   4  127.99   10.20
   0   7   4  132.59    6.60
   0   7   4  134.79    9.60
   0   7   4  128.99    8.10
  -1  -7  -4   82.69    9.10
  -1  -7  -4   91.49    9.40
  -1  -7  -4   72.69    6.60
  -1  -7  -4   80.59    8.00
  -1  -7  -4   85.09    6.20
  -1  -7  -4   83.99    5.30
   1   7   4   80.99    7.20
   1   7   4   80.09    8.70
   1   7   4   82.79    5.80
  -2  -7  -4   34.20    5.70
  -2  -7  -4   34.40    4.80
  -2  -7  -4   44.10    5.80
   2   7   4   37.40    6.90
   2   7   4   36.10    6.50
   2   7   4   41.90    5.00
  -3  -7  -4   34.90    6.10
  -3  -7  -4   33.20    5.20
  -3  -7  -4   38.70    5.50
   3   7   4   39.40    7.70
   3   7   4   34.60    6.10
   3   7   4   54.59    5.90
  -4  -7  -4   95.99   10.90
  -4  -7  -4   96.39   10.10
  -4  -7  -4  116.79    8.70
   4   7   4  114.19   10.50
   4   7   4   91.99   10.90
   4   7   4  110.49   14.40
  -5  -7  -4    8.70    6.30
  -5  -7  -4    4.70    6.30
  -5  -7  -4   -0.30    4.10
   5   7   4    8.40    7.10
   5   7   4   -2.30    6.40
   5   7   4   12.10    9.80
  -6  -7  -4   -1.90    6.50
  -6  -7  -4    2.80    7.00
   6   7   4    2.50    7.40
   6   7   4    0.10    7.60
   6   7   4    1.60   10.50
   6  -8  -4   32.60    9.30
   6  -8  -4   16.90    9.10
   6  -8  -4   32.20    9.40
  -6   8   4   17.10    8.30
  -6   8   4    9.80    6.40
   5  -8  -4   32.00    9.10
   5  -8  -4   30.60    7.80
   5  -8  -4   37.50   10.70
  -5   8   4   16.00    5.80
   4  -8  -4   16.00    3.20
   4  -8  -4   15.30    3.40
   4  -8  -4   21.30    6.80
   4  -8  -4   21.70    6.70
  -4   8   4   12.40    6.10
  -4   8   4    8.60    4.60
  -4   8   4   13.30    6.30
   3  -8  -4    4.70    5.70
   3  -8  -4   -2.20    5.00
   3  -8  -4    2.30    3.60
  -3   8   4   -2.40    4.80
  -3   8   4   -7.30    4.60
  -3   8   4    2.00    2.70
  -3   8   4    0.80    3.80
   2  -8  -4    0.90    3.80
   2  -8  -4    6.80    5.50
   2  -8  -4   -6.40    4.20
  -2   8   4    1.60    4.90
  -2   8   4   -5.40    4.20
  -2   8   4    2.40    3.90
   1  -8  -4   37.30    6.70
   1  -8  -4   25.90    4.90
   1  -8  -4   28.90    4.80
  -1   8   4   34.00    5.20
  -1   8   4   32.70    4.90
  -1   8   4   32.70    5.70
   0  -8  -4  282.37   14.00
   0  -8  -4  318.77   16.30
   0  -8  -4  303.67   14.20
   0  -8  -4  303.57   15.40
   0   8   4  310.17   15.40
   0   8   4  300.27   16.20
   0   8   4  315.37   14.60
   0   8   4  292.97   13.00
  -1  -8  -4   55.49    7.80
  -1  -8  -4   52.29    6.10
  -1  -8  -4   49.90    4.70
  -1  -8  -4   49.99    4.70
  -1  -8  -4   45.70    5.70
   1   8   4   53.99    6.30
   1   8   4   49.10    7.10
   1   8   4   57.59    5.50
  -2  -8  -4   26.60    7.90
  -2  -8  -4   27.90    5.00
  -2  -8  -4   25.50    5.40
   2   8   4   23.90    5.50
   2   8   4   32.50    4.90
   2   8   4   19.90    6.90
  -3  -8  -4   -5.40    4.00
  -3  -8  -4   -3.90    4.40
  -3  -8  -4   -3.00    4.40
   3   8   4   -0.50    5.00
   3   8   4    8.00    4.80
   3   8   4   -5.40    7.00
  -4  -8  -4  110.39   11.90
  -4  -8  -4  126.09   10.70
  -4  -8  -4  102.29   11.60
   4   8   4  104.39   10.50
   4   8   4  107.39   11.50
   4   8   4  104.19   15.60
  -5  -8  -4  181.18   14.40
  -5  -8  -4  169.98   11.20
  -5  -8  -4  179.18   14.10
   5   8   4  158.48   17.70
   5   8   4  151.78   14.40
   5   8   4  177.68   13.20
  -6  -8  -4   -2.90    6.70
   6   8   4    7.80    7.40
   6   8   4   11.50    9.30
   6  -9  -4   -3.90    8.20
   6  -9  -4   22.30    9.70
   6  -9  -4    6.80    8.50
  -6   9   4    4.20    6.00
  -6   9   4  -12.70    7.60
   5  -9  -4   40.80    8.50
   5  -9  -4   40.90    8.80
  -5   9   4   29.60    8.00
  -5   9   4   25.70    6.30
   4  -9  -4   -0.90    6.50
   4  -9  -4   -4.70    3.30
   4  -9  -4    1.70    6.20
   4  -9  -4   -1.00    3.70
  -4   9   4    1.20    5.80
  -4   9   4    6.50    6.20
  -4   9   4    4.90    4.40
   3  -9  -4   20.40    6.70
   3  -9  -4   18.50    4.40
   3  -9  -4   21.90    6.00
  -3   9   4   18.60    5.30
  -3   9   4   19.30    5.80
   2  -9  -4    1.80    5.80
   2  -9  -4   11.20    5.10
   2  -9  -4    7.60    4.30
  -2   9   4   10.90    4.90
  -2   9   4   16.50    5.40
  -2   9   4    6.90    4.00
   1  -9  -4  251.37   15.20
   1  -9  -4  231.18   13.90
  -1   9   4  237.28   12.90
  -1   9   4  251.17   13.10
  -1   9   4  243.78   14.10
   0  -9  -4  162.48   12.50
   0  -9  -4  195.08   11.80
   0  -9  -4  185.08   10.20
   0   9   4  180.58   11.10
   0   9   4  173.28   11.10
   0   9   4  178.88   12.50
   0   9   4  175.58    8.60
  -1  -9  -4   50.29    5.70
  -1  -9  -4   46.90    6.50
  -1  -9  -4   49.60    4.70
  -1  -9  -4   49.99    6.80
   1   9   4   44.90    6.80
   1   9   4   43.60    5.40
   1   9   4   48.80    7.20
  -2  -9  -4   20.20    4.40
  -2  -9  -4   18.90    5.30
  -2  -9  -4   18.50    5.30
   2   9   4   24.20    7.40
   2   9   4   13.30    5.60
  -3  -9  -4  141.49   10.50
  -3  -9  -4  136.29   10.40
  -3  -9  -4  139.49   11.90
   3   9   4  137.79   11.70
   3   9   4  130.49   14.40
   3   9   4  159.88   10.60
  -4  -9  -4   70.29    8.70
  -4  -9  -4   70.49    8.80
   4   9   4   76.69   10.90
   4   9   4   67.59    9.80
   4   9   4   69.29    7.70
  -5  -9  -4   -0.60    6.20
  -5  -9  -4   13.00    6.90
   5   9   4    4.50    6.60
   5   9   4    9.80    6.30
   5   9   4   -4.50    9.40
   6 -10  -4    0.60    8.50
   6 -10  -4    1.50    9.70
   6 -10  -4   -8.70    8.20
  -6  10   4    2.00    6.00
  -6  10   4   12.10    8.40
   5 -10  -4   14.20    8.40
   5 -10  -4    3.60    8.10
  -5  10   4    8.80    5.60
  -5  10   4    6.80    7.50
   4 -10  -4    7.50    4.00
   4 -10  -4   -2.10    6.70
  -4  10   4    3.70    4.40
   3 -10  -4   14.20    6.80
   3 -10  -4   24.10    6.40
   3 -10  -4   23.00    4.80
  -3  10   4   11.50    6.10
  -3  10   4   14.50    5.60
  -3  10   4   18.20    4.50
   2 -10  -4    5.60    5.10
   2 -10  -4   -5.50    5.70
   2 -10  -4   -4.20    5.10
  -2  10   4   -2.30    3.60
  -2  10   4    4.30    5.10
  -2  10   4   -2.80    4.50
   1 -10  -4  484.65   21.10
   1 -10  -4  434.46   22.30
   1 -10  -4  434.16   20.50
  -1  10   4  421.46   20.10
  -1  10   4  452.75   21.50
  -1  10   4  457.85   20.70
   0 -10  -4   95.59    9.60
   0 -10  -4   95.39    7.90
   0 -10  -4   97.29   10.80
   0  10   4   80.79   10.70
   0  10   4  114.09    8.80
   0  10   4   85.09    9.20
   0  10   4   99.19    6.00
  -1 -10  -4   15.10    3.80
  -1 -10  -4   17.30    5.30
  -1 -10  -4   15.40    3.60
  -1 -10  -4   12.60    5.60
  -1 -10  -4   17.20    3.30
   1  10   4   23.60    6.60
   1  10   4   20.10    5.50
   1  10   4   12.20    4.60
  -2 -10  -4   36.90    6.40
  -2 -10  -4   39.30    6.30
  -2 -10  -4   36.40    5.10
   2  10   4   25.60    7.80
   2  10   4   44.00    5.60
   2  10   4   31.70    6.30
  -3 -10  -4   16.10    5.20
  -3 -10  -4   19.10    5.30
   3  10   4   16.60    5.50
   3  10   4   14.80    6.20
  -4 -10  -4    8.20    6.30
  -4 -10  -4   21.10    5.50
  -4 -10  -4   16.10    6.30
   4  10   4   17.90    6.00
   4  10   4   17.00    9.40
   4  10   4   11.50    6.70
  -5 -10  -4    9.30    6.50
  -5 -10  -4   13.50    7.00
   5  10   4    3.10    9.90
   5  10   4    4.90    7.20
   6 -11  -4   -7.80    9.50
   6 -11  -4    6.20    8.70
   6 -11  -4   -0.60    8.60
  -6  11   4   -6.80    5.90
   5 -11  -4   66.19   10.50
   5 -11  -4   29.20    9.20
  -5  11   4   47.70    6.80
  -5  11   4   51.99    9.30
   4 -11  -4   37.10    8.40
   4 -11  -4   34.40    5.90
   4 -11  -4   49.90    8.80
  -4  11   4   33.30    7.70
  -4  11   4   43.90    7.90
  -4  11   4   32.60    5.60
   3 -11  -4   25.50    5.30
   3 -11  -4   21.40    6.70
   3 -11  -4   27.10    7.60
  -3  11   4   27.90    6.40
  -3  11   4   21.40    6.80
  -3  11   4   21.50    4.70
   2 -11  -4   52.59    7.10
   2 -11  -4   49.30    8.10
   2 -11  -4   65.79    6.90
  -2  11   4   47.00    7.00
  -2  11   4   49.30    5.50
  -2  11   4   50.99    6.70
   1 -11  -4   -2.60    4.40
   1 -11  -4    0.50    4.20
   1 -11  -4    0.10    6.20
  -1  11   4   -1.90    3.90
  -1  11   4   -3.80    4.30
  -1  11   4    7.00    5.60
   0 -11  -4   54.19    7.60
   0 -11  -4   51.59    6.60
   0  11   4   46.60    5.40
   0  11   4   51.29    6.30
   0  11   4   43.50    7.40
  -1 -11  -4    9.30    5.40
  -1 -11  -4    7.70    3.60
  -1 -11  -4    7.20    5.60
  -1 -11  -4   11.00    3.50
   1  11   4   13.90    4.90
   1  11   4   14.20    5.30
   1  11   4    7.70    6.50
  -2 -11  -4   11.10    4.20
  -2 -11  -4   10.60    5.50
  -2 -11  -4    4.50    5.60
   2  11   4   -2.80    5.40
   2  11   4    6.80    8.20
   2  11   4   -1.10    4.50
  -3 -11  -4    7.00    5.80
  -3 -11  -4    5.90    5.00
  -3 -11  -4    5.10    5.20
   3  11   4    9.80    9.00
   3  11   4    7.10    5.20
   3  11   4    6.10    6.40
  -4 -11  -4   88.69   10.50
  -4 -11  -4   50.19    8.20
  -4 -11  -4   59.19    7.20
   4  11   4   63.79    8.90
   4  11   4   50.49    7.70
   4  11   4   75.59   11.90
  -5 -11  -4   26.30    8.60
   5  11   4   24.10    6.60
   5  11   4   32.70    8.30
   5 -12  -4   83.29   11.20
   5 -12  -4   67.99   10.70
  -5  12   4   59.69    7.30
  -5  12   4   63.39    9.70
   4 -12  -4    6.90    7.90
   4 -12  -4    8.60    4.70
   4 -12  -4   -6.50    7.20
  -4  12   4   -4.80    6.60
  -4  12   4   13.50    7.40
  -4  12   4    4.40    4.50
   3 -12  -4   20.60    5.60
   3 -12  -4   10.40    8.20
   3 -12  -4   25.90    8.00
  -3  12   4   17.60    6.40
  -3  12   4   26.80    4.80
  -3  12   4   37.00    7.40
   2 -12  -4   -4.40    4.80
   2 -12  -4    0.30    5.30
  -2  12   4    4.70    6.80
  -2  12   4    1.70    5.30
   1 -12  -4    8.30    6.70
   1 -12  -4    3.60    5.10
   1 -12  -4   -4.90    4.50
  -1  12   4   -4.00    5.30
  -1  12   4    0.30    4.90
  -1  12   4   -5.40    5.40
   0 -12  -4    9.70    4.40
   0 -12  -4    8.20    6.40
   0 -12  -4    9.80    5.40
   0  12   4    7.80    6.20
   0  12   4   11.30    5.00
   0  12   4    8.40    4.60
  -1 -12  -4   42.70    7.00
  -1 -12  -4   40.90    4.80
  -1 -12  -4   39.30    5.70
  -1 -12  -4   38.80    7.30
   1  12   4   52.39    6.60
   1  12   4   38.10    6.50
  -2 -12  -4    4.10    4.10
  -2 -12  -4    2.30    5.90
  -2 -12  -4    3.40    5.70
   2  12   4    3.40    4.90
   2  12   4    5.70    7.50
   2  12   4   -3.60    5.50
  -3 -12  -4    6.00    5.70
  -3 -12  -4   -4.40    5.50
   3  12   4    7.90    9.20
   3  12   4   -6.90    4.80
   3  12   4    1.50    8.30
  -4 -12  -4    5.00    5.60
  -4 -12  -4    6.90    6.00
  -4 -12  -4    9.80    6.60
   4  12   4   19.60    7.60
   4  12   4   12.10    9.90
   4  12   4    7.40    6.00
   5 -13  -4   21.60   10.20
  -5  13   4   -4.50    8.10
  -5  13   4  -12.40    6.50
   4 -13  -4   41.40    8.90
   4 -13  -4   35.40    9.10
   4 -13  -4   23.90    5.50
  -4  13   4   33.60    8.40
  -4  13   4   22.00    5.20
  -4  13   4   26.40    7.90
   3 -13  -4   18.90    5.60
   3 -13  -4    4.40    6.90
   3 -13  -4   14.20    8.10
  -3  13   4   11.30    6.60
  -3  13   4   14.90    4.40
  -3  13   4    8.30    7.00
   2 -13  -4  105.99   14.10
   2 -13  -4  131.19   11.50
   2 -13  -4  163.68   12.10
  -2  13   4  113.79   12.60
  -2  13   4  118.49   10.00
  -2  13   4  118.99   13.10
   1 -13  -4   11.90    5.90
   1 -13  -4   12.30    7.10
   1 -13  -4    7.80    5.30
  -1  13   4    5.40    4.10
  -1  13   4    6.20    5.80
  -1  13   4    7.50    6.30
   0 -13  -4   13.70    4.80
   0  13   4   22.40    5.10
   0  13   4   18.40    7.10
   0  13   4   25.30    6.00
  -1 -13  -4    7.10    5.90
  -1 -13  -4   -1.70    3.80
   1  13   4   -2.40    4.90
   1  13   4    5.40    5.20
   1  13   4    4.20    7.10
  -2 -13  -4    6.40    6.10
  -2 -13  -4    0.90    4.10
   2  13   4    3.20    7.60
   2  13   4    0.50    5.10
   2  13   4    8.20    6.20
  -3 -13  -4   56.79    6.80
  -3 -13  -4   71.99    9.00
   3  13   4   66.69    9.00
   3  13   4   57.19    7.50
   3  13   4   72.19   11.20
   4 -14  -4   11.00    6.70
   4 -14  -4   -2.10   10.00
   4 -14  -4   -2.90    7.60
  -4  14   4    6.30    7.50
  -4  14   4    2.90    7.60
   3 -14  -4    4.70    7.00
   3 -14  -4    8.80    8.00
   3 -14  -4   14.50    5.70
  -3  14   4   17.80    7.30
  -3  14   4    4.70    4.00
  -3  14   4    1.20    6.30
   2 -14  -4   10.90    7.80
   2 -14  -4   -1.60    5.80
  -2  14   4    3.50    6.10
  -2  14   4   11.40    6.50
  -2  14   4    5.20    4.10
   1 -14  -4   17.30    6.40
   1 -14  -4   12.50    5.70
   1 -14  -4    3.00    7.60
  -1  14   4    2.40    5.80
  -1  14   4    3.70    4.10
  -1  14   4   16.10    7.00
   0 -14  -4   -0.70    5.90
   0 -14  -4    1.60    4.80
   0 -14  -4    2.20    6.60
   0  14   4    0.60    4.40
   0  14   4   12.00    6.80
   0  14   4    9.60    5.70
  -1 -14  -4    8.20    6.00
  -1 -14  -4    4.40    5.60
  -1 -14  -4   -1.30    6.60
   1  14   4   -1.10    7.00
   1  14   4   10.10    5.60
   1  14   4   -0.50    5.00
  -2 -14  -4    8.80    6.50
  -2 -14  -4    6.50    4.20
  -2 -14  -4    4.30    6.20
   2  14   4   -4.20    7.50
   2  14   4   -3.90    5.10
   2  14   4    2.10    5.90
  -3 -14  -4    2.30    6.60
  -3 -14  -4    2.30    4.90
  -3 -14  -4   10.20    6.20
   3  14   4    1.00    6.20
   3  14   4    3.10    5.40
   3 -15  -4   -7.20    5.30
   3 -15  -4   16.90    7.30
  -3  15   4    7.90    6.50
  -3  15   4    1.80    7.20
   2 -15  -4   -3.00    7.30
   2 -15  -4    7.90    6.20
   2 -15  -4    1.40    5.80
  -2  15   4   -0.10    6.70
  -2  15   4   -4.30    6.10
   1 -15  -4    7.50    5.70
   1 -15  -4   -4.80    5.70
   1 -15  -4    2.00    6.90
  -1  15   4   13.10    6.00
  -1  15   4   -4.10    4.10
  -1  15   4    5.90    6.70
   0 -15  -4    5.00    6.20
   0 -15  -4   -6.90    6.50
   0 -15  -4    0.20    4.70
   0  15   4   -2.10    6.50
   0  15   4   -3.00    5.50
   0  15   4    4.20    4.20
  -1 -15  -4   12.80    7.20
  -1 -15  -4    7.30    6.10
   1  15   4    7.20    5.50
   1  15   4    5.10    5.10
   1  15   4   16.90    7.50
  -2 -15  -4   18.60   10.20
  -2 -15  -4   22.30    7.30
   2  15   4   17.00    6.20
   2  15   4   23.80    7.00
   2 -16  -4   13.40    6.40
   2 -16  -4    3.30    7.60
   2 -16  -4    4.70    5.90
   1 -16  -4   20.70    6.40
   1 -16  -4   24.90    7.20
  -1  16   4    5.10    6.20
   0 -16  -4   10.00    6.70
   0 -16  -4   15.70    7.50
   0  16   4    0.50    5.60
   1  17  -5   -1.50    6.40
   1  17  -5    0.60    5.10
  -1 -17   5    5.30    7.20
  -1 -17   5    8.80    4.90
   0  17  -5   11.80    5.80
   0  17  -5    9.20    6.20
   0  17  -5    6.80    8.00
   0 -17   5   14.40    5.20
   0 -17   5   10.00    8.60
   0 -17   5   17.10    8.20
  -1  17  -5   72.69    9.80
  -1  17  -5   73.99    9.00
   1 -17   5   81.89   10.80
   1 -17   5   66.79   10.30
  -2  17  -5   56.09    9.10
  -2  17  -5   47.80    8.50
   2 -17   5   23.70   10.30
   2  16  -5    5.60    5.40
   2  16  -5    8.70    7.80
   2  16  -5    7.80    8.30
  -2 -16   5   -5.20    7.40
  -2 -16   5    3.60    8.30
  -2 -16   5    4.80    5.00
   1  16  -5   -4.20    4.80
   1  16  -5    2.00    7.40
  -1 -16   5    5.20    7.30
  -1 -16   5   -8.00    6.80
  -1 -16   5   -8.30    4.90
   0  16  -5   45.40    8.60
   0  16  -5   31.80    7.00
   0  16  -5   37.90    6.90
   0 -16   5   20.80    8.20
   0 -16   5   42.70    8.70
   0 -16   5   40.10    5.50
  -1  16  -5    3.30    6.80
  -1  16  -5   -0.10    5.60
  -1  16  -5    8.40    5.60
   1 -16   5    4.90    7.70
   1 -16   5   10.40    7.80
   1 -16   5    8.30    4.20
  -2  16  -5   -0.90    6.20
  -2  16  -5   -3.20    6.20
  -2  16  -5    1.40    5.40
   2 -16   5   -5.80    7.40
   2 -16   5  -12.40    7.50
  -3  16  -5   -1.40    5.50
  -3  16  -5    1.10    6.80
   3 -16   5   -4.00    7.30
   3 -16   5    2.00    8.40
   3  15  -5    5.50    8.40
   3  15  -5   13.30    9.50
   3  15  -5    5.20    4.80
  -3 -15   5    2.40    5.80
  -3 -15   5   13.30    7.80
   2  15  -5   -2.20    4.70
   2  15  -5   -4.50    7.80
  -2 -15   5    2.20    7.70
  -2 -15   5   -1.40    5.50
  -2 -15   5    9.40    7.00
   1  15  -5   29.30    7.30
   1  15  -5   24.00    5.90
   1  15  -5   26.80    8.20
  -1 -15   5   24.80    8.50
  -1 -15   5   19.50    7.30
  -1 -15   5   30.70    5.80
   0  15  -5   18.10    6.00
   0  15  -5   22.60    7.80
   0 -15   5    6.50    4.70
   0 -15   5   20.50    8.30
  -1  15  -5    2.70    6.80
  -1  15  -5    2.70    5.60
  -1  15  -5    3.90    5.00
   1 -15   5   10.20    4.20
   1 -15   5    5.30    7.30
   1 -15   5    0.10    7.60
  -2  15  -5   -0.30    5.50
  -2  15  -5    5.10    5.20
  -2  15  -5    2.20    6.20
   2 -15   5    2.00    7.70
   2 -15   5    5.80    4.00
   2 -15   5   -7.00    6.90
  -3  15  -5   61.39    8.60
  -3  15  -5   63.09    9.10
  -3  15  -5   47.70    6.70
   3 -15   5   70.79   10.10
   3 -15   5   50.19    9.70
  -4  15  -5   29.80    8.20
  -4  15  -5   12.90    8.30
   4 -15   5   18.30   10.20
   4 -15   5   31.30    9.00
   4  14  -5    5.10    6.00
   4  14  -5  -11.20   10.00
  -4 -14   5    0.90    7.10
  -4 -14   5    2.90    6.40
   3  14  -5    3.10    8.80
   3  14  -5   -2.30    4.70
   3  14  -5    9.50    9.70
   3  14  -5    1.40    4.60
  -3 -14   5    4.80    7.10
  -3 -14   5    0.80    5.60
  -3 -14   5    6.70    5.80
   2  14  -5   11.60    5.30
   2  14  -5   -0.60    7.80
   2  14  -5    7.00    7.80
  -2 -14   5    1.70    6.10
  -2 -14   5   -2.30    7.30
  -2 -14   5   -5.20    5.40
   1  14  -5   16.20    5.60
   1  14  -5    2.30    7.00
   1  14  -5   -0.30    6.40
  -1 -14   5   -0.40    7.00
  -1 -14   5    5.00    6.40
  -1 -14   5   13.10    5.20
   0  14  -5   73.99    9.50
   0  14  -5   83.59   10.60
   0  14  -5   76.39    9.30
   0 -14   5   78.09    9.80
   0 -14   5   69.99    8.20
   0 -14   5   75.39    9.10
  -1  14  -5   80.79   10.50
  -1  14  -5   70.39    8.50
  -1  14  -5   83.39    9.60
   1 -14   5   71.89    7.80
   1 -14   5   62.89    9.10
   1 -14   5   64.79   10.60
  -2  14  -5    9.40    6.00
  -2  14  -5   11.50    6.40
  -2  14  -5   11.60    5.00
   2 -14   5   10.90    7.60
   2 -14   5    5.30    7.10
   2 -14   5    9.20    4.10
  -3  14  -5   35.80    7.30
  -3  14  -5   12.40    5.40
  -3  14  -5   29.70    7.80
   3 -14   5   21.70    4.40
   3 -14   5   30.40    8.20
   3 -14   5   31.70    8.50
  -4  14  -5   10.60    7.00
  -4  14  -5    4.70    5.70
   4 -14   5   -2.70    7.50
   4 -14   5    5.00    7.90
  -5  14  -5    2.60    6.20
  -5  14  -5   20.60    9.40
   5 -14   5   18.80    8.20
   5 -14   5   -5.70    8.30
   5 -14   5   26.10   12.50
   4  13  -5   -1.40    4.50
   4  13  -5    5.80    5.60
   4  13  -5  -22.30    8.70
   4  13  -5   -0.20   10.10
  -4 -13   5    7.90    6.70
  -4 -13   5    4.10    7.20
   3  13  -5    0.80    4.80
   3  13  -5   26.40    9.20
   3  13  -5    7.70    9.20
   3  13  -5   -1.50    4.50
  -3 -13   5   10.70    7.60
  -3 -13   5    5.80    6.20
  -3 -13   5   11.90    5.60
   2  13  -5   20.70    5.60
   2  13  -5   22.80    8.50
   2  13  -5   25.40    8.00
  -2 -13   5   21.80    6.50
  -2 -13   5   23.40    6.20
   1  13  -5   -1.90    6.00
   1  13  -5    4.40    4.80
   1  13  -5    2.60    6.50
  -1 -13   5    0.50    5.70
  -1 -13   5    1.30    4.80
  -1 -13   5   -4.10    6.60
   0  13  -5   30.90    6.00
   0  13  -5   32.00    5.90
   0  13  -5   44.00    7.40
   0 -13   5   43.90    5.60
   0 -13   5   35.30    7.10
   0 -13   5   30.60    7.60
  -1  13  -5   89.39    9.60
  -1  13  -5   96.49   11.20
  -1  13  -5   93.89    8.70
   1 -13   5  108.19   10.20
   1 -13   5   98.39   12.80
   1 -13   5   87.69    9.90
  -2  13  -5    2.60    5.10
  -2  13  -5   -2.20    5.50
  -2  13  -5   -1.60    4.40
   2 -13   5   -4.50    3.90
   2 -13   5    7.70    7.00
   2 -13   5   -1.30    6.20
  -3  13  -5   59.09    9.20
  -3  13  -5   36.50    5.90
  -3  13  -5   46.80    7.30
   3 -13   5   41.40    5.30
   3 -13   5   40.40    8.30
  -4  13  -5   -0.40    6.60
  -4  13  -5    9.40    5.50
   4 -13   5    2.50    4.40
   4 -13   5   -0.40    7.60
   4 -13   5   -2.40    7.30
  -5  13  -5    0.60    7.20
  -5  13  -5   11.40    8.20
   5 -13   5   38.90    9.00
   5 -13   5   15.40    7.80
   5 -13   5    7.60    8.10
   5  12  -5  -10.20   10.70
   5  12  -5    7.20   10.90
   5  12  -5   -1.70    5.50
  -5 -12   5   -3.60    7.20
  -5 -12   5    0.80    6.60
   4  12  -5   60.69   11.30
   4  12  -5   43.90    6.70
   4  12  -5   53.99    6.30
   4  12  -5   55.89   11.50
  -4 -12   5   44.10    8.00
  -4 -12   5   63.39    9.30
   3  12  -5   20.40    8.80
   3  12  -5    5.40    4.00
   3  12  -5   -2.40    8.60
   3  12  -5    3.70    4.80
  -3 -12   5   -5.80    5.80
  -3 -12   5   -1.60    4.60
  -3 -12   5   -2.60    6.80
   2  12  -5   10.70    7.20
   2  12  -5    9.40    3.40
   2  12  -5    3.50    3.60
   2  12  -5   16.30    7.50
   2  12  -5   11.20    5.10
  -2 -12   5    5.50    6.70
  -2 -12   5    2.50    5.80
  -2 -12   5    7.40    5.40
   1  12  -5   16.20    6.40
   1  12  -5   16.50    6.00
   1  12  -5   18.60    5.40
  -1 -12   5   16.30    6.70
  -1 -12   5   24.80    6.00
  -1 -12   5   21.00    5.30
   0  12  -5   -0.10    4.50
   0  12  -5    2.80    5.00
   0  12  -5    0.70    5.70
   0 -12   5   -4.50    5.30
   0 -12   5    5.80    6.50
   0 -12   5   -0.80    4.30
  -1  12  -5   12.40    5.30
  -1  12  -5    5.10    4.30
  -1  12  -5   18.80    5.90
   1 -12   5   13.20    6.10
   1 -12   5   12.60    6.30
   1 -12   5   22.50    4.80
  -2  12  -5  211.28   11.70
  -2  12  -5  199.28   13.00
  -2  12  -5  220.78   13.60
   2 -12   5  193.78   15.10
   2 -12   5  225.08   11.80
   2 -12   5  187.58   14.30
  -3  12  -5   43.60    7.10
  -3  12  -5   44.50    7.30
  -3  12  -5   42.30    6.00
   3 -12   5   49.20    5.50
   3 -12   5   47.80    8.00
   3 -12   5   44.20    8.40
  -4  12  -5    3.10    6.50
  -4  12  -5   -2.20    5.80
  -4  12  -5    3.20    5.10
   4 -12   5   -1.90    8.50
   4 -12   5    5.00    4.80
   4 -12   5    0.10    6.80
  -5  12  -5   -3.90    5.50
  -5  12  -5    4.40    7.10
   5 -12   5    2.90    7.90
   5 -12   5    0.80    7.50
   5 -12   5    4.70    7.70
   5 -12   5    0.30    6.00
   5  11  -5   66.49   12.90
   5  11  -5   54.99   12.20
  -5 -11   5   64.39    9.20
  -5 -11   5   61.89    9.30
   4  11  -5   27.00   10.40
   4  11  -5   24.40    5.20
   4  11  -5   14.00   10.10
  -4 -11   5   13.50    7.10
  -4 -11   5    6.50    6.50
   3  11  -5  221.98   15.20
   3  11  -5  215.78   11.50
   3  11  -5  212.58   16.50
  -3 -11   5  173.18   12.80
  -3 -11   5  196.58   14.60
  -3 -11   5  144.69   11.70
  -3 -11   5  181.18   10.50
   2  11  -5    2.60    3.30
   2  11  -5   -0.60    2.90
   2  11  -5    8.40    6.40
   2  11  -5    0.10    6.80
   2  11  -5    7.20    4.90
  -2 -11   5    2.50    6.20
  -2 -11   5   -0.60    4.90
  -2 -11   5   -3.30    4.50
   1  11  -5   30.70    6.30
   1  11  -5   47.30    6.00
   1  11  -5   31.90    6.80
  -1 -11   5   46.60    5.90
  -1 -11   5   27.90    6.00
  -1 -11   5   36.80    7.20
   0  11  -5   71.29    8.70
   0  11  -5   70.19    8.50
   0  11  -5   85.59   10.10
   0 -11   5   84.19   10.60
   0 -11   5   75.59    9.40
   0 -11   5   80.39    7.80
  -1  11  -5  264.97   14.90
  -1  11  -5  253.87   12.90
  -1  11  -5  269.37   14.20
   1 -11   5  264.87   13.60
   1 -11   5  272.67   16.00
   1 -11   5  235.98   15.00
  -2  11  -5   48.10    5.30
  -2  11  -5   47.10    6.40
  -2  11  -5   44.30    6.50
   2 -11   5   58.09    7.60
   2 -11   5   50.19    5.80
   2 -11   5   44.80    7.50
  -3  11  -5    8.10    4.60
  -3  11  -5    8.70    5.70
  -3  11  -5   10.00    5.40
   3 -11   5    8.70    6.20
   3 -11   5    9.70    4.80
   3 -11   5    2.90    6.30
  -4  11  -5    6.40    5.00
  -4  11  -5   15.00    6.20
   4 -11   5    4.40    5.50
   4 -11   5   12.00    7.20
  -5  11  -5   24.80    7.60
  -5  11  -5   32.80    6.50
   5 -11   5   27.00    7.80
   5 -11   5   30.40    6.30
   5 -11   5   31.60    8.20
   5 -11   5   24.90    5.40
   5 -11   5   22.30   10.90
   6 -11   5   10.70    8.20
   6 -11   5    3.50    8.30
   6 -11   5    5.80    7.50
   6  10  -5   10.00   12.30
  -6 -10   5    3.10    8.30
  -6 -10   5    6.20    7.40
   5  10  -5    5.70   10.70
   5  10  -5   10.10    4.90
   5  10  -5   11.00   10.60
  -5 -10   5    8.50    7.30
   4  10  -5  123.89   14.80
   4  10  -5  144.49    9.70
  -4 -10   5  127.59   12.60
   3  10  -5    9.30    8.30
   3  10  -5    4.30    7.40
   3  10  -5    4.60    4.70
  -3 -10   5   -1.20    3.70
  -3 -10   5    9.50    5.80
  -3 -10   5    4.00    6.30
  -3 -10   5   13.60    4.90
   2  10  -5  138.29   12.80
   2  10  -5  126.69    8.20
   2  10  -5  131.39   10.40
  -2 -10   5  131.99   10.30
  -2 -10   5  142.09   12.00
  -2 -10   5  135.69    9.30
   1  10  -5   42.00    5.70
   1  10  -5   37.60    6.70
   1  10  -5   40.80    6.30
  -1 -10   5   42.10    5.80
  -1 -10   5   37.00    5.30
  -1 -10   5   33.80    6.70
   0  10  -5   -4.30    3.90
   0  10  -5    0.70    5.00
   0  10  -5   -3.60    4.30
   0 -10   5   -1.60    5.30
   0 -10   5    3.80    4.40
   0 -10   5    9.40    3.90
   0 -10   5   -6.10    4.60
  -1  10  -5   69.19    6.90
  -1  10  -5   87.99    9.30
  -1  10  -5   68.99    8.20
   1 -10   5   68.19    9.10
   1 -10   5   70.79    8.30
   1 -10   5   72.39    8.20
   1 -10   5   82.69    7.90
  -2  10  -5   26.20    5.20
  -2  10  -5   26.90    5.50
  -2  10  -5   27.00    4.30
   2 -10   5   23.40    6.20
   2 -10   5   23.00    5.00
   2 -10   5   28.10    6.00
  -3  10  -5    5.40    4.10
  -3  10  -5    0.50    5.10
  -3  10  -5    1.90    4.70
   3 -10   5    1.70    5.60
   3 -10   5    0.50    6.00
   3 -10   5    0.80    4.90
  -4  10  -5   13.00    5.90
  -4  10  -5   16.60    6.10
  -4  10  -5   24.80    5.10
   4 -10   5    8.60    7.10
   4 -10   5   14.20    6.40
   4 -10   5   12.30    7.00
  -5  10  -5   18.50    5.90
   5 -10   5   14.10    6.70
   5 -10   5   21.20    8.00
   5 -10   5    9.60    7.40
   5 -10   5   10.00    5.80
   6 -10   5   19.20    8.30
   6 -10   5   11.70    7.90
   6 -10   5   22.80    8.00
   6 -10   5    8.90    6.30
   6 -10   5   15.30    6.90
   6   9  -5    5.80   11.60
   6   9  -5   23.50   11.50
  -6  -9   5  -10.80    7.30
  -6  -9   5   -1.70    6.90
   5   9  -5   -2.20    4.80
   5   9  -5    1.10   10.70
   5   9  -5    5.60    9.90
  -5  -9   5   -6.40    6.40
  -5  -9   5    2.40    6.30
   4   9  -5   -4.80    6.80
   4   9  -5    6.10    9.30
   4   9  -5   13.00    8.30
  -4  -9   5    8.50    6.10
  -4  -9   5    3.80    5.60
  -4  -9   5    7.40    5.70
   3   9  -5  332.97   15.90
   3   9  -5  333.27   17.90
   3   9  -5  328.17   19.30
  -3  -9   5  300.97   13.70
  -3  -9   5  313.97   19.20
  -3  -9   5  311.87   16.80
  -3  -9   5  308.27   14.20
  -3  -9   5  319.17   17.20
   2   9  -5  352.96   16.50
   2   9  -5  342.37   19.10
   2   9  -5  331.87   17.80
   2   9  -5  327.67   15.50
  -2  -9   5  358.96   15.80
  -2  -9   5  343.67   15.40
  -2  -9   5  352.46   16.00
  -2  -9   5  331.67   17.10
  -2  -9   5  361.46   18.20
   1   9  -5   34.50    6.50
   1   9  -5   23.40    5.70
   1   9  -5   11.50    3.00
   1   9  -5   24.00    4.80
  -1  -9   5   19.30    5.10
  -1  -9   5   24.30    5.00
  -1  -9   5   20.90    6.00
   0   9  -5    3.20    4.30
   0   9  -5    0.40    5.00
   0  -9   5   10.00    4.70
   0  -9   5    3.10    4.40
   0  -9   5   14.10    5.40
   0  -9   5   -1.40    5.20
  -1   9  -5   73.59    8.30
  -1   9  -5   62.19    6.20
  -1   9  -5   67.69    7.80
   1  -9   5   64.59    6.20
   1  -9   5   59.59    5.70
   1  -9   5   56.89    6.80
   1  -9   5   52.69    6.50
  -2   9  -5   -1.10    4.10
  -2   9  -5    3.20    3.50
  -2   9  -5    2.80    4.50
   2  -9   5    1.90    5.20
   2  -9   5   -0.40    4.30
   2  -9   5    1.60    5.10
   2  -9   5    1.20    4.70
  -3   9  -5   16.90    5.20
  -3   9  -5    6.90    4.00
  -3   9  -5   15.80    4.90
   3  -9   5    8.70    5.50
   3  -9   5   15.50    5.10
   3  -9   5   10.30    5.80
  -4   9  -5   20.20    7.50
  -4   9  -5   26.50    6.10
  -4   9  -5   28.60    5.70
   4  -9   5   22.70    6.50
   4  -9   5   17.50    6.70
   4  -9   5   16.10    4.30
   4  -9   5   19.50    5.00
  -5   9  -5   92.79   11.40
   5  -9   5   88.09    9.90
   5  -9   5   99.49    9.60
   5  -9   5   83.79   11.40
   5  -9   5   81.59   10.00
   6  -9   5    0.60    6.30
   6  -9   5   -7.60    6.30
   6  -9   5   17.30    7.10
   6  -9   5    7.00    7.50
   6  -9   5    6.20    7.70
   6   8  -5   12.10    6.30
   6   8  -5   36.20   11.50
   6   8  -5   11.50   11.80
  -6  -8   5   22.90    8.20
  -6  -8   5   18.80    6.60
  -6  -8   5   11.80    7.80
   5   8  -5   -1.50    9.90
   5   8  -5   -1.10    4.90
  -5  -8   5   -6.20    6.00
  -5  -8   5   -0.80    5.60
  -5  -8   5   11.80    6.50
   4   8  -5   30.10    7.10
   4   8  -5   31.10    9.10
   4   8  -5   39.30    8.40
  -4  -8   5   25.40    6.50
  -4  -8   5   23.40    5.90
  -4  -8   5   23.10    6.10
   3   8  -5    0.50    6.30
   3   8  -5    2.70    4.70
   3   8  -5   -5.40    7.30
  -3  -8   5   -7.90    4.80
  -3  -8   5    0.90    4.50
  -3  -8   5    3.20    5.20
   2   8  -5   53.49    8.30
   2   8  -5   48.40    6.40
   2   8  -5   69.09    7.40
   2   8  -5   48.00    6.10
  -2  -8   5   92.99    9.60
  -2  -8   5   64.09    6.70
  -2  -8   5   53.69    6.70
  -2  -8   5   68.99    6.70
   1   8  -5    4.40    4.80
   1   8  -5   -1.40    5.60
   1   8  -5   -3.50    3.90
   1   8  -5    3.50    2.80
  -1  -8   5    1.50    2.70
  -1  -8   5    0.80    3.60
  -1  -8   5   -4.30    2.90
  -1  -8   5   -1.30    4.30
  -1  -8   5    6.80    3.50
  -1  -8   5   -1.20    4.60
   0   8  -5  248.78   12.20
   0   8  -5  263.07   13.70
   0   8  -5  270.17   13.00
   0  -8   5  240.38   11.50
   0  -8   5  253.97   13.10
   0  -8   5  255.57   14.10
   0  -8   5  251.27   13.30
  -1   8  -5   28.10    4.70
  -1   8  -5   35.90    5.40
  -1   8  -5   42.60    5.20
   1  -8   5   38.60    4.50
   1  -8   5   39.50    5.40
   1  -8   5   45.10    5.40
   1  -8   5   35.20    5.70
  -2   8  -5    3.20    4.00
  -2   8  -5    3.10    3.20
  -2   8  -5    2.20    4.30
   2  -8   5    3.60    4.80
   2  -8   5    4.40    5.00
   2  -8   5    9.00    4.20
   2  -8   5    6.00    5.00
  -3   8  -5   89.99    8.60
  -3   8  -5   99.69    7.50
  -3   8  -5   88.59    9.00
   3  -8   5   78.09    8.70
   3  -8   5   77.99   10.00
   3  -8   5   77.59    6.70
   3  -8   5   74.79    9.50
   3  -8   5   87.09    6.10
   3  -8   5   92.09    9.60
  -4   8  -5    8.30    4.90
  -4   8  -5    3.50    5.00
  -4   8  -5    0.20    4.40
   4  -8   5   10.20    6.00
   4  -8   5    2.20    4.10
   4  -8   5   -7.50    9.90
   4  -8   5   -0.90    5.60
  -5   8  -5   44.80    7.40
   5  -8   5   65.39    8.40
   5  -8   5   47.00    7.00
   5  -8   5   53.09    7.00
   5  -8   5   74.89    8.80
   6  -8   5   -0.70    7.30
   6  -8   5   19.80    8.20
   6  -8   5   23.20   11.40
   6  -8   5   23.60    9.20
   6  -8   5   21.40    7.00
   6  -8   5   10.60    6.90
   6  -8   5   10.60    7.20
   7  -8   5   -5.50    8.40
   7  -8   5    4.80    8.60
   7  -8   5   -1.90    7.60
   6   7  -5   16.20   11.60
   6   7  -5    3.90   10.10
   6   7  -5   16.40    5.80
  -6  -7   5    7.50    5.80
  -6  -7   5    3.30    7.10
  -6  -7   5   28.50    7.80
   5   7  -5    4.70    8.40
   5   7  -5   -6.20    5.40
  -5  -7   5   -0.20    6.40
  -5  -7   5    9.20    5.60
   4   7  -5   -1.70    8.00
   4   7  -5    1.90    6.90
   4   7  -5    4.00    5.20
  -4  -7   5    2.80    4.80
  -4  -7   5    1.80    5.40
  -4  -7   5    6.80    5.30
   3   7  -5   77.09    8.50
   3   7  -5   67.89    8.80
  -3  -7   5   60.89    7.80
  -3  -7   5   61.39    6.80
  -3  -7   5   65.19    7.00
   2   7  -5   86.49    7.30
   2   7  -5  111.89    8.50
   2   7  -5  104.39    9.60
  -2  -7   5   93.29    9.50
  -2  -7   5  100.59    6.50
  -2  -7   5   90.29    7.50
  -2  -7   5   67.39   10.20
  -2  -7   5  101.69    7.10
   1   7  -5  106.59    8.00
   1   7  -5  105.79   10.00
   1   7  -5   95.29    8.20
   1   7  -5  106.19    6.60
  -1  -7   5  111.29    7.40
  -1  -7   5  104.99    8.30
  -1  -7   5  111.39    8.80
  -1  -7   5   98.49    6.30
  -1  -7   5  103.49    6.20
  -1  -7   5   93.89    6.80
   0   7  -5    1.40    3.30
   0   7  -5    1.60    5.10
   0   7  -5   -3.30    3.70
   0   7  -5   -0.50    3.10
   0  -7   5    3.20    3.60
   0  -7   5    4.00    2.40
   0  -7   5    2.40    3.80
  -1   7  -5  135.99    8.40
  -1   7  -5  120.39    7.30
  -1   7  -5  133.49    8.80
   1  -7   5  118.49    9.40
   1  -7   5  138.09    9.10
   1  -7   5  126.99    7.70
  -2   7  -5  373.66   16.10
  -2   7  -5  384.06   17.50
  -2   7  -5  372.06   17.40
   2  -7   5  382.26   18.10
   2  -7   5  366.46   16.50
   2  -7   5  397.26   17.30
  -3   7  -5   -3.40    3.90
  -3   7  -5   -2.20    4.10
  -3   7  -5   -4.20    3.30
   3  -7   5    2.00    5.50
   3  -7   5   -8.10    4.50
   3  -7   5    0.00    3.60
   3  -7   5    3.80    3.60
   3  -7   5    6.40    3.50
  -4   7  -5   10.50    5.10
  -4   7  -5   -0.20    4.40
   4  -7   5    7.20    5.50
   4  -7   5   -1.20    5.10
   4  -7   5   -2.70    6.10
   4  -7   5    5.40    4.30
   5  -7   5   11.40    6.40
   5  -7   5   18.20    5.70
   5  -7   5   12.10    5.50
   5  -7   5   11.20    6.50
   6  -7   5   -5.50    8.80
   6  -7   5    6.50    6.40
   6  -7   5   -0.30    6.40
   6  -7   5   -9.60    7.20
   6  -7   5   17.30    7.20
   7  -7   5    4.40    7.50
   7  -7   5   -3.50    6.90
   7  -7   5    1.90    7.00
   7  -7   5   -2.90    7.90
   7  -7   5   19.00    7.60
   7  -7   5    2.60    7.40
   7  -7   5    7.40    8.10
   6   6  -5    4.50   11.10
   6   6  -5   -1.60    9.30
   6   6  -5    4.60    6.20
  -6  -6   5    8.30    5.40
  -6  -6   5   12.60    7.10
  -6  -6   5    0.40    7.30
   5   6  -5   12.00    6.10
   5   6  -5   22.50    9.60
   5   6  -5   21.80    8.20
  -5  -6   5    9.40    6.60
  -5  -6   5   14.40    5.30
  -5  -6   5   26.60    6.80
   4   6  -5  144.79   13.80
   4   6  -5  143.39   12.10
   4   6  -5  117.09   10.50
  -4  -6   5  134.39   10.70
  -4  -6   5   96.79   10.20
  -4  -6   5  147.99   10.00
   3   6  -5   56.59    6.80
   3   6  -5   44.50    7.90
   3   6  -5   51.89    6.20
  -3  -6   5   47.80    5.70
  -3  -6   5   47.70    6.20
  -3  -6   5   49.80    5.80
   2   6  -5    7.00    4.50
   2   6  -5    1.10    5.70
   2   6  -5    1.80    3.20
   2   6  -5    0.90    3.20
   2   6  -5    7.90    4.40
  -2  -6   5   -3.60    4.10
  -2  -6   5   -2.10    2.70
  -2  -6   5    5.40    2.60
  -2  -6   5    3.10    3.30
  -2  -6   5   -0.30    4.00
   1   6  -5    1.60    2.70
   1   6  -5    2.30    3.60
   1   6  -5    1.50    4.60
   1   6  -5   -5.70    3.20
  -1  -6   5   -2.70    3.50
  -1  -6   5    1.20    2.50
  -1  -6   5   -1.30    2.40
  -1  -6   5    3.50    3.70
   0   6  -5  393.96   16.80
   0   6  -5  371.56   15.70
   0   6  -5  351.56   16.30
   0   6  -5  392.16   16.80
   0   6  -5  380.86   17.10
   0   6  -5  380.46   15.60
   0  -6   5  368.06   17.10
   0  -6   5  365.76   16.50
   0  -6   5  406.56   17.30
   0  -6   5  395.86   15.60
   0  -6   5  364.16   15.50
   0  -6   5  394.96   17.00
  -1   6  -5   37.20    4.30
  -1   6  -5   38.30    4.80
  -1   6  -5   35.80    4.40
  -1   6  -5   46.30    6.00
   1  -6   5   36.90    4.70
   1  -6   5   34.20    4.50
   1  -6   5   34.50    4.80
  -2   6  -5  216.58   11.40
  -2   6  -5  230.28   11.50
  -2   6  -5  219.78   10.20
  -2   6  -5  224.98   11.90
   2  -6   5  228.18   10.40
   2  -6   5  221.58   11.50
   2  -6   5  232.98   10.10
   2  -6   5  219.28   10.40
   2  -6   5  216.68   12.60
  -3   6  -5   35.30    4.40
  -3   6  -5   31.80    4.90
  -3   6  -5   31.30    5.40
   3  -6   5   33.80    4.20
   3  -6   5   36.10    4.60
   3  -6   5   40.20    4.00
   3  -6   5   38.70    5.30
  -4   6  -5    7.90    4.90
  -4   6  -5    5.40    4.40
   4  -6   5   11.30    5.80
   4  -6   5    3.50    4.90
   4  -6   5    8.40    4.50
   5  -6   5   -6.70    5.60
   5  -6   5   -2.10    5.20
   5  -6   5   -3.00    5.60
   5  -6   5    1.70    6.00
   5  -6   5   -2.40    5.00
   6  -6   5   82.49    9.70
   6  -6   5   96.29   11.70
   6  -6   5   67.19    9.50
   6  -6   5   91.09   11.50
   6  -6   5   59.79    9.20
   6  -6   5   93.69   11.20
   6  -6   5   93.99   12.00
   7  -6   5   62.09   10.20
   7  -6   5   72.99   10.30
   7  -6   5   57.59    8.70
   7  -6   5   68.79    9.10
   7  -6   5   67.59    8.90
   7  -6   5   67.09    8.80
   7  -6   5   59.09    9.50
   7   5  -5   25.90   12.50
   7   5  -5   -1.60   10.00
  -7  -5   5   19.30    8.50
  -7  -5   5   12.20    8.50
   6   5  -5   11.10    9.60
   6   5  -5   -5.60    6.40
   6   5  -5    0.70   10.20
  -6  -5   5    9.00    7.40
  -6  -5   5    4.70    6.80
  -6  -5   5   -2.80    6.80
   5   5  -5    0.90    6.00
   5   5  -5   -4.00    8.30
   5   5  -5   -0.50    7.40
  -5  -5   5    1.60    5.80
  -5  -5   5   -1.00    4.30
  -5  -5   5    9.50    6.10
   4   5  -5   -3.50    7.20
   4   5  -5   -0.10    6.10
   4   5  -5  -12.80    5.10
  -4  -5   5    1.20    4.90
  -4  -5   5   -0.50    4.70
  -4  -5   5   -2.70    3.90
   3   5  -5    2.30    5.00
   3   5  -5    3.20    3.40
   3   5  -5    0.30    6.30
   3   5  -5    7.30    5.20
  -3  -5   5    2.70    4.00
  -3  -5   5    3.90    4.00
  -3  -5   5    8.40    4.70
   2   5  -5   13.30    3.20
   2   5  -5   10.80    4.00
   2   5  -5    6.30    3.30
   2   5  -5   14.20    4.30
   2   5  -5   14.70    3.10
   2   5  -5   12.10    5.10
  -2  -5   5    7.40    3.60
  -2  -5   5   11.10    4.00
  -2  -5   5   13.60    3.40
  -2  -5   5    4.30    4.70
  -2  -5   5    9.60    2.60
   1   5  -5  519.35   21.90
   1   5  -5  495.45   21.20
   1   5  -5  523.85   21.30
   1   5  -5  530.55   22.50
   1   5  -5  520.75   21.30
   1   5  -5  488.45   21.50
   1   5  -5  487.05   21.70
  -1  -5   5  511.35   22.00
  -1  -5   5  506.55   21.80
  -1  -5   5  515.75   22.00
  -1  -5   5  544.05   22.00
  -1  -5   5  539.45   21.30
  -1  -5   5  522.65   21.30
   0   5  -5  211.28   10.30
   0   5  -5  215.38    9.50
   0   5  -5  207.98   10.30
   0   5  -5  213.28   10.60
   0   5  -5  211.48   10.80
   0   5  -5  196.68   10.10
   0  -5   5  226.38   10.90
   0  -5   5  227.88    9.60
   0  -5   5  205.38   10.50
   0  -5   5  185.88   10.40
   0  -5   5  220.48   10.80
  -1   5  -5  149.49    8.00
  -1   5  -5  152.38    8.00
  -1   5  -5  136.69    8.20
  -1   5  -5  129.79    7.30
   1  -5   5  140.99    7.20
   1  -5   5  126.79    8.00
   1  -5   5  139.49    8.90
   1  -5   5  141.39    7.90
   1  -5   5  139.79    8.30
   1  -5   5  129.69    7.80
   1  -5   5  132.89    8.40
  -2   5  -5    1.80    3.30
  -2   5  -5   -0.80    2.80
  -2   5  -5   -5.20    2.90
   2  -5   5   -3.00    2.30
   2  -5   5    2.60    3.10
   2  -5   5   -1.20    2.50
   2  -5   5   -1.20    2.40
   2  -5   5   -0.90    3.70
   2  -5   5   -0.70    2.80
   2  -5   5   -3.10    3.30
  -3   5  -5   41.70    5.40
  -3   5  -5   41.90    4.80
  -3   5  -5   35.40    4.50
   3  -5   5   28.50    4.50
   3  -5   5   36.80    5.80
   3  -5   5   38.40    4.20
   3  -5   5   39.20    5.20
   3  -5   5   29.40    4.40
  -4   5  -5  129.99    9.50
  -4   5  -5  134.49   10.40
   4  -5   5  132.49   10.10
   4  -5   5  144.59    9.90
   4  -5   5  152.18   10.00
   4  -5   5  132.99   10.70
   5  -5   5    7.20    5.80
   5  -5   5    5.30    5.60
   5  -5   5    1.20    5.80
   5  -5   5    6.90    5.30
   5  -5   5    6.30    5.30
   5  -5   5   -5.70    5.10
   6  -5   5   33.30    8.00
   6  -5   5   10.70    6.50
   6  -5   5   33.90    8.30
   6  -5   5   23.60    7.70
   6  -5   5   20.00    6.90
   6  -5   5   31.30    7.60
   6  -5   5   31.00    7.30
   7  -5   5    3.90    7.80
   7  -5   5   -4.50    7.00
   7  -5   5   12.70    8.50
   7  -5   5    7.70    8.20
   7  -5   5    5.00    7.50
   7  -5   5    1.50    7.20
   7  -5   5   -8.00    8.50
   7   4  -5   -3.40    7.10
   7   4  -5   16.60    9.90
   7   4  -5  -15.00   11.00
  -7  -4   5   -6.80    7.50
  -7  -4   5   -5.40    7.20
   6   4  -5   25.10    9.80
   6   4  -5   11.80   10.40
   6   4  -5    9.80    7.20
  -6  -4   5   11.80    4.50
  -6  -4   5   15.70    7.20
  -6  -4   5   18.60    7.90
   5   4  -5   -1.50    8.00
   5   4  -5   -4.40    5.90
   5   4  -5    2.70    7.20
  -5  -4   5   -0.50    3.70
  -5  -4   5    2.40    5.60
  -5  -4   5   -2.50    5.50
   4   4  -5    6.00    7.00
   4   4  -5   18.80    5.90
   4   4  -5    1.30    5.80
   4   4  -5   10.70    3.50
  -4  -4   5   10.90    5.10
  -4  -4   5    0.90    4.80
  -4  -4   5    8.00    3.70
   3   4  -5    1.80    6.10
   3   4  -5   10.80    5.10
   3   4  -5    7.50    4.70
  -3  -4   5    4.20    4.00
  -3  -4   5    9.80    3.70
  -3  -4   5    9.80    4.50
   2   4  -5   -4.30    4.30
   2   4  -5    1.60    3.80
   2   4  -5    5.80    3.30
   2   4  -5    1.10    2.10
   2   4  -5    1.20    2.90
   2   4  -5   -3.20    2.20
  -2  -4   5    1.10    2.10
  -2  -4   5   -0.30    3.00
  -2  -4   5    1.60    3.00
  -2  -4   5   -5.10    3.50
  -2  -4   5    0.80    3.50
   1   4  -5   -1.00    3.20
   1   4  -5   -0.30    2.40
   1   4  -5    5.30    2.90
   1   4  -5    5.70    2.60
   1   4  -5    3.60    2.50
   1   4  -5   -0.70    3.70
   1   4  -5    3.90    2.10
   1   4  -5    3.30    2.90
  -1  -4   5    4.80    2.60
  -1  -4   5    8.20    2.90
  -1  -4   5    4.20    3.30
  -1  -4   5    4.90    3.40
  -1  -4   5    1.20    3.30
  -1  -4   5    8.90    2.50
   0   4  -5   47.30    5.70
   0   4  -5   54.69    4.70
   0   4  -5   48.90    5.90
   0   4  -5   57.69    5.30
   0  -4   5   78.79    7.50
   0  -4   5   52.59    5.50
   0  -4   5   54.69    5.90
   0  -4   5   62.19    6.30
   0  -4   5   42.20    5.00
   0  -4   5   51.79    5.40
  -1   4  -5  852.61   34.50
  -1   4  -5  872.11   34.20
  -1   4  -5  882.01   35.00
  -1   4  -5  866.91   34.80
  -1   4  -5  859.81   34.70
   1  -4   5  856.31   34.60
   1  -4   5  930.51   35.30
   1  -4   5  861.71   34.90
   1  -4   5  849.81   34.90
   1  -4   5  831.42   34.80
   1  -4   5  830.62   34.80
   1  -4   5  863.41   34.70
  -2   4  -5    4.90    2.80
  -2   4  -5    4.00    2.70
  -2   4  -5    3.20    3.10
   2  -4   5    8.10    3.40
   2  -4   5   12.20    3.50
   2  -4   5    3.20    3.00
   2  -4   5   10.20    2.60
   2  -4   5    7.70    2.60
   2  -4   5    4.70    2.80
   2  -4   5   11.00    3.00
   2  -4   5    3.30    2.20
  -3   4  -5   22.40    3.80
  -3   4  -5   25.30    4.10
  -3   4  -5   19.80    4.60
   3  -4   5   24.70    4.20
   3  -4   5   19.50    4.00
   3  -4   5   22.90    3.90
   3  -4   5   22.40    4.60
   3  -4   5   22.80    4.00
   3  -4   5   23.20    4.30
  -4   4  -5  136.99   10.40
  -4   4  -5  140.09    9.40
   4  -4   5  139.89   10.00
   4  -4   5  140.39   10.50
   4  -4   5  139.89    9.90
   5  -4   5   39.70    6.70
   5  -4   5   44.80    6.30
   5  -4   5   47.20    7.10
   5  -4   5   43.40    6.50
   5  -4   5   40.50    6.60
   6  -4   5    7.70    6.80
   6  -4   5    7.00    6.20
   6  -4   5   -2.00    7.00
   6  -4   5    5.00    5.80
   6  -4   5    7.70    7.70
   6  -4   5   10.20    7.10
   7  -4   5   -2.40    6.70
   7  -4   5   17.30    6.80
   7  -4   5   -1.40    8.00
   7  -4   5    6.40    8.70
   7  -4   5    4.80    7.50
   7  -4   5   13.20    6.70
   7  -4   5    5.50    7.50
   7   3  -5   -7.80    7.30
   7   3  -5    6.00   11.30
   7   3  -5    9.20   10.10
  -7  -3   5   11.40    7.30
  -7  -3   5    0.60    8.00
   6   3  -5    8.80    7.40
   6   3  -5   -1.00    8.50
   6   3  -5   -0.20    9.00
  -6  -3   5   -4.40    3.70
  -6  -3   5   -4.70    6.60
   5   3  -5   -3.00    6.80
   5   3  -5   -4.90    5.20
   5   3  -5  -15.00    7.20
   5   3  -5    5.80    6.40
  -5  -3   5   -0.50    3.20
  -5  -3   5    2.80    5.40
  -5  -3   5    7.70    5.50
   4   3  -5   12.90    5.90
   4   3  -5    9.50    3.40
   4   3  -5   15.80    6.00
   4   3  -5   14.00    7.10
  -4  -3   5   13.30    3.30
  -4  -3   5   20.50    5.10
  -4  -3   5   13.20    5.10
   3   3  -5   47.20    6.00
   3   3  -5   48.50    5.60
   3   3  -5   38.20    4.70
   3   3  -5   28.80    6.20
  -3  -3   5   37.70    5.10
  -3  -3   5   51.49    5.50
  -3  -3   5   46.40    5.30
   2   3  -5   59.89    7.00
   2   3  -5   61.99    7.80
   2   3  -5   56.79    5.10
   2   3  -5   48.90    5.90
   2   3  -5   62.89    5.90
   2   3  -5   60.39    4.70
   2   3  -5   60.59    4.60
   2   3  -5   57.39    5.90
  -2  -3   5   68.19    6.60
  -2  -3   5   61.49    6.10
  -2  -3   5   64.59    6.30
  -2  -3   5   54.69    5.50
  -2  -3   5   66.79    6.20
  -2  -3   5   60.29    4.70
   1   3  -5   23.60    2.80
   1   3  -5   28.30    4.00
   1   3  -5   22.80    3.60
   1   3  -5   21.80    2.90
   1   3  -5   24.20    2.60
   1   3  -5   21.90    3.80
   1   3  -5   20.70    2.60
   1   3  -5   23.70    3.80
  -1  -3   5   25.70    3.70
  -1  -3   5   19.20    3.30
  -1  -3   5   24.80    3.00
  -1  -3   5   27.40    3.60
  -1  -3   5   15.30    2.80
   0   3  -5  498.15   20.50
   0   3  -5  476.95   20.40
   0   3  -5  494.55   20.50
   0   3  -5  503.75   20.70
   0   3  -5  499.65   20.30
   0  -3   5  511.25   20.50
   0  -3   5  480.75   20.40
   0  -3   5  512.85   20.80
   0  -3   5  516.45   20.80
   0  -3   5  469.45   20.40
   0  -3   5  486.05   20.30
   0  -3   5  469.75   20.60
  -1   3  -5  122.09    7.30
  -1   3  -5  116.49    7.70
  -1   3  -5  107.59    7.50
  -1   3  -5  131.29    6.50
   1  -3   5  124.09    7.00
   1  -3   5  129.49    7.30
   1  -3   5  128.69    7.80
   1  -3   5  132.79    7.30
   1  -3   5  120.09    7.20
   1  -3   5  129.29    7.10
  -2   3  -5  175.38    9.20
  -2   3  -5  159.48    8.20
  -2   3  -5  167.28    9.20
  -2   3  -5  172.58    8.70
   2  -3   5  162.78    8.20
   2  -3   5  158.98    8.60
   2  -3   5  173.58    9.70
   2  -3   5  180.38    9.20
   2  -3   5  155.48    8.70
   2  -3   5  173.28    9.20
   2  -3   5  172.28    8.80
   2  -3   5  175.28    8.10
  -3   3  -5    5.40    2.90
  -3   3  -5    3.80    4.00
  -3   3  -5    2.20    3.70
   3  -3   5    0.30    3.80
   3  -3   5    2.40    3.50
   3  -3   5    1.50    3.40
   3  -3   5    3.20    3.20
   3  -3   5    5.70    3.70
  -4   3  -5   -1.60    4.50
  -4   3  -5    3.00    4.40
  -4   3  -5   -0.10    3.70
   4  -3   5    3.00    4.70
   4  -3   5    0.20    4.50
   4  -3   5    4.90    4.90
  -5   3  -5    5.20    4.90
  -5   3  -5    1.10    5.10
   5  -3   5   -7.50    5.40
   5  -3   5   -3.80    5.90
   5  -3   5  -12.00    4.60
  -6   3  -5   12.40    7.50
   6  -3   5   24.50    6.10
   6  -3   5   11.20    7.80
   6  -3   5   22.10    7.60
   6  -3   5   22.30    6.30
   6  -3   5   38.90    8.80
   7  -3   5   -6.30    7.70
   7  -3   5   18.40    8.50
   7  -3   5    4.90    6.00
   7  -3   5    7.90    7.40
   7  -3   5   20.90    6.20
   7  -3   5   17.30    9.40
   7   2  -5   14.90    9.60
   7   2  -5   19.40   11.00
   7   2  -5   14.90    9.80
  -7  -2   5    0.70    7.80
  -7  -2   5    7.00    6.80
   6   2  -5    9.20    7.50
   6   2  -5    5.90    9.60
   6   2  -5   15.30   10.20
  -6  -2   5   12.00    7.20
  -6  -2   5   13.50    6.50
   5   2  -5   30.50    3.20
   5   2  -5   43.70    7.40
   5   2  -5   66.39    8.40
   5   2  -5   39.50    8.50
  -5  -2   5   43.50    7.00
   4   2  -5    6.80    6.00
   4   2  -5    2.60    6.30
   4   2  -5    8.50    5.80
   4   2  -5    9.40    2.50
  -4  -2   5    2.00    4.30
  -4  -2   5    6.10    3.10
  -4  -2   5    3.30    4.60
   3   2  -5   -2.20    4.70
   3   2  -5   -0.70    4.40
   3   2  -5    0.20    1.90
  -3  -2   5    1.30    3.70
  -3  -2   5   -4.60    3.60
  -3  -2   5    2.10    2.40
   2   2  -5  373.36   15.50
   2   2  -5  341.87   15.90
   2   2  -5  366.66   16.10
   2   2  -5  368.36   16.40
   2   2  -5  317.77   15.30
   2   2  -5  361.66   16.30
   2   2  -5  334.67   14.90
  -2  -2   5  375.56   16.00
  -2  -2   5  401.16   15.80
  -2  -2   5  342.77   15.20
  -2  -2   5  366.96   16.20
  -2  -2   5  378.16   16.00
  -2  -2   5  371.66   15.20
  -2  -2   5  374.06   16.00
   1   2  -5    3.70    2.50
   1   2  -5    6.30    2.00
   1   2  -5    3.10    3.20
   1   2  -5    5.90    3.20
   1   2  -5    1.80    2.80
   1   2  -5    1.60    3.20
  -1  -2   5    3.00    2.70
  -1  -2   5    7.00    3.00
  -1  -2   5    2.10    3.10
  -1  -2   5    4.70    3.00
  -1  -2   5    3.50    2.20
  -1  -2   5    2.60    1.90
  -1  -2   5    3.00    2.40
  -1  -2   5    2.70    2.10
   0   2  -5  342.17   14.90
   0   2  -5  341.67   15.20
   0   2  -5  335.87   14.80
   0   2  -5  358.86   15.10
   0   2  -5  363.76   15.20
   0  -2   5  340.67   14.80
   0  -2   5  347.77   15.20
   0  -2   5  345.87   15.10
   0  -2   5  387.86   15.20
   0  -2   5  341.77   14.70
   0  -2   5  356.66   15.20
  -1   2  -5  381.46   15.70
  -1   2  -5  388.36   16.70
  -1   2  -5  399.66   16.80
  -1   2  -5  373.46   16.30
  -1   2  -5  333.57   17.80
  -1   2  -5  380.36   16.40
   1  -2   5  375.06   15.80
   1  -2   5  400.36   16.60
   1  -2   5  374.36   16.40
   1  -2   5  426.16   16.70
   1  -2   5  419.36   17.20
  -2   2  -5  412.96   17.60
  -2   2  -5  393.76   16.50
  -2   2  -5  409.06   17.60
  -2   2  -5  384.96   16.90
   2  -2   5  403.56   16.70
   2  -2   5  398.56   16.50
   2  -2   5  413.46   17.60
   2  -2   5  390.66   16.80
   2  -2   5  389.86   17.00
   2  -2   5  417.76   17.40
   2  -2   5  402.96   17.40
   2  -2   5  378.16   17.00
   2  -2   5  420.66   17.50
  -3   2  -5   70.99    7.00
  -3   2  -5   60.49    5.60
  -3   2  -5   70.19    7.30
   3  -2   5   73.99    6.00
   3  -2   5   72.39    6.10
   3  -2   5   61.49    7.30
   3  -2   5   73.09    6.10
   3  -2   5   72.29    5.70
   3  -2   5   69.69    7.10
  -4   2  -5   59.59    7.80
  -4   2  -5   73.49    8.30
   4  -2   5   65.89    7.80
   4  -2   5   47.00    6.10
   4  -2   5   56.29    6.50
  -5   2  -5    1.20    4.60
  -5   2  -5    4.40    5.00
   5  -2   5    8.30    5.40
   5  -2   5    8.20    4.50
   5  -2   5    3.80    6.30
  -6   2  -5    2.60    6.40
   6  -2   5    3.80    7.70
   6  -2   5    1.80    6.80
   6  -2   5   -2.90    5.20
  -7   2  -5   21.30    8.40
   7  -2   5   11.70    9.10
   7  -2   5   13.00    8.20
   7  -2   5   16.10    5.90
   7   1  -5   16.10   10.90
   7   1  -5   16.20   10.00
  -7  -1   5   19.60    6.80
  -7  -1   5    0.40    7.30
   6   1  -5    2.80    7.70
   6   1  -5    5.80   10.00
  -6  -1   5    1.40    6.60
  -6  -1   5   12.00    6.20
   5   1  -5    4.10    6.50
   5   1  -5   -3.80    6.90
   5   1  -5    7.20    7.20
  -5  -1   5    3.00    4.90
  -5  -1   5   -6.20    5.00
   4   1  -5   14.70    6.40
   4   1  -5   13.70    6.30
  -4  -1   5   17.90    5.20
  -4  -1   5   17.20    5.60
   3   1  -5   10.00    4.70
   3   1  -5    5.40    2.80
   3   1  -5   10.00    4.80
  -3  -1   5    7.60    2.50
  -3  -1   5    2.60    3.80
  -3  -1   5    8.10    4.20
  -3  -1   5   16.70    3.90
   2   1  -5   39.10    4.90
   2   1  -5   34.20    3.90
   2   1  -5   32.00    4.40
   2   1  -5   26.80    4.20
   2   1  -5   30.80    4.70
   2   1  -5   38.70    4.60
  -2  -1   5   41.90    3.60
  -2  -1   5   40.70    3.20
  -2  -1   5   55.29    6.10
  -2  -1   5   54.99    5.80
  -2  -1   5   47.70    5.60
   1   1  -5    3.20    2.60
   1   1  -5    5.00    3.10
   1   1  -5    1.10    2.70
   1   1  -5    4.70    2.20
   1   1  -5    1.90    2.80
   1   1  -5    5.90    2.60
  -1  -1   5    2.70    2.80
  -1  -1   5    2.70    3.00
  -1  -1   5    1.70    2.30
  -1  -1   5    0.70    2.80
  -1  -1   5    2.40    1.70
  -1  -1   5    6.80    2.20
  -1  -1   5    1.90    2.50
   0   1  -5  274.07   12.40
   0   1  -5  290.47   12.50
   0   1  -5  283.27   12.30
   0   1  -5  265.97   11.70
   0   1  -5  265.07   11.60
   0   1  -5  273.47   12.40
   0   1  -5  262.67   12.00
   0  -1   5  269.77   11.60
   0  -1   5  282.17   12.30
   0  -1   5  276.87   12.00
   0  -1   5  278.17   12.30
   0  -1   5  302.97   12.70
   0  -1   5  289.47   11.50
   0  -1   5  280.27   12.30
  -1   1  -5   49.20    4.70
  -1   1  -5   29.20    3.50
  -1   1  -5   41.30    4.50
  -1   1  -5   54.99    5.40
  -1   1  -5   44.60    3.60
   1  -1   5   33.40    3.60
   1  -1   5   42.70    5.00
   1  -1   5   30.20    3.80
   1  -1   5   35.00    4.50
   1  -1   5   48.60    4.60
   1  -1   5   43.10    5.50
  -2   1  -5   22.70    2.80
  -2   1  -5   25.20    3.50
  -2   1  -5   23.20    3.60
   2  -1   5   17.10    2.10
   2  -1   5   16.60    2.90
   2  -1   5   20.60    3.10
   2  -1   5   19.30    3.30
   2  -1   5   27.50    3.40
   2  -1   5   19.00    3.30
   2  -1   5   14.10    3.10
   2  -1   5   15.20    3.50
   2  -1   5   21.30    3.50
  -3   1  -5   23.00    4.30
  -3   1  -5   23.10    4.40
  -3   1  -5   22.80    3.10
   3  -1   5   26.40    4.60
   3  -1   5   20.70    3.40
   3  -1   5   20.10    3.00
   3  -1   5   27.20    3.90
   3  -1   5   28.60    3.80
   3  -1   5   21.50    4.40
  -4   1  -5  201.98   12.00
  -4   1  -5  205.68   11.50
  -4   1  -5  199.48   12.00
   4  -1   5  205.78   10.30
   4  -1   5  195.88   12.30
   4  -1   5  203.48   12.60
   4  -1   5  208.58   11.60
   4  -1   5  184.08    9.90
  -5   1  -5   21.70    5.90
  -5   1  -5   17.00    5.40
  -5   1  -5   23.60    5.90
   5  -1   5   33.60    4.80
   5  -1   5   31.10    7.10
   5  -1   5   32.40    6.50
   5  -1   5   14.20    5.90
  -6   1  -5    5.70    6.30
  -6   1  -5    3.60    6.30
   6  -1   5   -6.10    6.80
   6  -1   5   -4.00    4.40
   6  -1   5   -2.20    6.40
   6  -1   5   -9.80    7.40
  -7   1  -5   22.40    8.20
   7  -1   5   20.20    8.50
   7  -1   5   20.00    7.90
   7  -1   5   20.10    9.80
   7   0  -5   -2.90    9.10
   7   0  -5   14.90    8.80
   7   0  -5   12.50   10.80
  -7   0   5   -7.70    7.10
  -7   0   5  -13.60    6.20
   6   0  -5   11.10    9.80
   6   0  -5   -3.00    7.60
  -6   0   5    6.00    5.50
  -6   0   5   13.90    7.90
   5   0  -5    7.10    6.50
   5   0  -5   -4.50    6.70
  -5   0   5   -1.80    4.50
  -5   0   5    2.20    5.20
   4   0  -5   23.50    6.70
   4   0  -5   24.00    3.80
  -4   0   5   34.70    6.10
  -4   0   5   23.80    4.50
  -4   0   5   25.40    5.60
   3   0  -5    2.90    4.50
   3   0  -5    5.30    4.50
   3   0  -5   -0.70    3.00
   3   0  -5    8.10    3.70
  -3   0   5   -1.10    4.00
  -3   0   5    0.50    3.70
  -3   0   5    4.80    2.70
  -3   0   5   -4.70    3.10
   2   0  -5  340.37   14.50
   2   0  -5  319.37   14.70
   2   0  -5  307.97   15.20
   2   0  -5  337.27   15.40
   2   0  -5  335.17   15.10
  -2   0   5  320.47   15.30
  -2   0   5  341.57   14.40
  -2   0   5  354.56   14.70
  -2   0   5  338.87   15.00
  -2   0   5  349.07   14.80
   1   0  -5  105.29    6.10
   1   0  -5  103.09    7.00
   1   0  -5  105.39    6.40
   1   0  -5  117.89    7.30
   1   0  -5  102.49    5.40
   1   0  -5  100.09    6.60
   1   0  -5  100.99    6.50
  -1   0   5  120.49    6.80
  -1   0   5  102.99    5.40
  -1   0   5  103.69    6.30
  -1   0   5  110.39    7.40
  -1   0   5  112.79    6.70
  -1   0   5   92.59    6.60
   0   0  -5  995.80   39.60
   0   0  -5 1018.60   40.00
   0   0  -5  953.30   39.10
   0   0  -5  969.50   39.60
   0   0  -5 1007.90   39.70
   0   0  -5  979.10   39.40
   0   0  -5 1010.00   39.90
   0   0   5  975.80   39.80
   0   0   5 1000.00   39.40
   0   0   5 1051.79   40.10
   0   0   5  997.00   39.70
   0   0   5 1057.99   39.80
   0   0   5  985.10   39.60
  -1   0  -5    3.60    2.40
  -1   0  -5    2.30    2.90
  -1   0  -5    2.00    2.50
  -1   0  -5    4.30    2.40
  -1   0  -5    0.80    2.30
   1   0   5    2.60    2.60
   1   0   5    5.80    2.60
   1   0   5    0.30    2.80
   1   0   5    6.30    3.30
   1   0   5    4.00    2.40
   1   0   5    3.70    2.50
  -2   0  -5   63.79    4.50
  -2   0  -5   64.89    6.00
  -2   0  -5   70.69    5.60
  -2   0  -5   73.69    6.10
   2   0   5   63.99    5.10
   2   0   5   62.59    6.60
   2   0   5   63.09    6.60
   2   0   5   52.99    5.60
  -3   0  -5   69.19    7.30
  -3   0  -5   69.19    6.70
  -3   0  -5   65.09    7.20
  -3   0  -5   66.99    5.00
   3   0   5   61.19    6.20
   3   0   5   64.29    5.30
   3   0   5   66.69    5.70
   3   0   5   71.09    8.30
   3   0   5   73.29    7.50
  -4   0  -5   25.00    4.70
  -4   0  -5   30.70    5.30
  -4   0  -5   33.20    5.50
   4   0   5   34.00    5.40
   4   0   5   28.80    5.90
   4   0   5   36.90    4.10
   4   0   5   37.60    4.10
   4   0   5   39.00    3.90
  -5   0  -5  109.19   10.30
  -5   0  -5   91.59   10.10
  -5   0  -5  101.89   10.80
   5   0   5  121.89   11.80
   5   0   5   90.29   10.60
   5   0   5  118.09   10.50
   5   0   5  117.69    7.50
  -6   0  -5   -8.30    5.60
  -6   0  -5    2.50    6.10
   6   0   5   -1.60    6.50
   6   0   5  -14.40    6.50
  -7   0  -5   24.10    7.60
  -7   0  -5   16.80    7.50
   7   0   5    8.20    9.20
   7   0   5   18.90    8.30
   7   0   5   -0.30    9.30
   7  -1  -5   -0.90    9.90
   7  -1  -5   -5.70    9.80
   7  -1  -5   -4.40    8.40
  -7   1   5   -2.00    5.90
  -7   1   5  -10.40    7.10
   6  -1  -5   -8.10    8.70
   6  -1  -5    4.60    7.60
  -6   1   5    2.90    5.30
  -6   1   5    7.60    7.30
   5  -1  -5   72.99    9.00
   5  -1  -5   48.90    6.30
   5  -1  -5   52.09    7.80
   5  -1  -5   55.39    6.00
  -5   1   5   61.39    6.30
  -5   1   5   58.49    7.90
  -5   1   5   52.99    7.30
   4  -1  -5   45.70    7.00
   4  -1  -5   33.70    4.70
   4  -1  -5   45.60    6.80
  -4   1   5   35.70    6.40
  -4   1   5   43.80    4.60
  -4   1   5   36.00    4.80
  -4   1   5   40.60    6.00
   3  -1  -5  241.98   12.00
   3  -1  -5  230.98   12.90
   3  -1  -5  247.88   11.90
   3  -1  -5  239.18   13.20
  -3   1   5  261.47   11.60
  -3   1   5  228.88   12.80
  -3   1   5  258.77   11.80
  -3   1   5  228.58   12.50
   2  -1  -5 1258.57   51.19
   2  -1  -5 1342.97   51.19
   2  -1  -5 1238.98   51.19
   2  -1  -5 1225.08   51.59
   2  -1  -5 1315.07   51.59
   2  -1  -5 1290.87   51.29
   2  -1  -5 1297.67   50.99
  -2   1   5 1300.17   51.29
  -2   1   5 1274.47   51.79
  -2   1   5 1331.87   50.99
  -2   1   5 1294.07   51.39
  -2   1   5 1319.47   51.09
   1  -1  -5  380.56   16.00
   1  -1  -5  351.96   15.20
   1  -1  -5  380.46   15.80
   1  -1  -5  359.96   15.50
   1  -1  -5  354.96   14.80
   1  -1  -5  372.06   15.30
   1  -1  -5  325.47   15.20
  -1   1   5  367.46   16.10
  -1   1   5  367.96   16.20
  -1   1   5  365.16   15.50
  -1   1   5  370.26   15.70
  -1   1   5  359.96   15.40
  -1   1   5  353.86   14.80
   0  -1  -5  461.15   19.20
   0  -1  -5  461.95   18.90
   0  -1  -5  430.66   18.10
   0  -1  -5  396.76   18.50
   0  -1  -5  454.15   18.90
   0  -1  -5  472.15   18.90
   0  -1  -5  447.26   18.60
   0  -1  -5  470.55   19.30
   0   1   5  458.45   19.20
   0   1   5  455.05   18.70
   0   1   5  472.85   19.50
   0   1   5  485.55   18.90
   0   1   5  443.26   18.90
   0   1   5  463.45   18.90
  -1  -1  -5   89.29    6.00
  -1  -1  -5   93.69    6.60
  -1  -1  -5   80.89    6.20
  -1  -1  -5   91.89    6.30
   1   1   5   87.19    6.70
   1   1   5   92.49    6.10
   1   1   5   93.49    7.00
   1   1   5   87.79    7.20
   1   1   5   78.29    5.60
   1   1   5   88.09    6.20
  -2  -1  -5  142.19    6.70
  -2  -1  -5  148.59    8.20
  -2  -1  -5  138.89    8.40
  -2  -1  -5  140.59    8.40
  -2  -1  -5  139.89    8.30
   2   1   5  152.18    9.00
   2   1   5  127.89    9.30
   2   1   5  147.99    7.10
   2   1   5  139.79    8.20
  -3  -1  -5   40.20    5.10
  -3  -1  -5   48.40    5.50
  -3  -1  -5   38.90    4.60
   3   1   5   41.50    4.70
   3   1   5   35.40    4.50
   3   1   5   49.70    6.30
   3   1   5   43.80    5.50
   3   1   5   37.30    4.80
  -4  -1  -5   -2.80    3.80
  -4  -1  -5    2.40    4.30
  -4  -1  -5   -1.40    4.50
   4   1   5    5.80    5.80
   4   1   5    0.20    3.00
   4   1   5   -3.50    4.50
   4   1   5   -6.10    4.60
  -5  -1  -5    6.70    5.50
  -5  -1  -5    2.80    5.40
  -5  -1  -5   -2.00    4.20
   5   1   5    7.20    5.90
   5   1   5    3.30    5.70
   5   1   5    8.20    6.90
  -6  -1  -5   51.19    8.00
  -6  -1  -5   63.79    8.70
  -6  -1  -5   74.49    9.70
   6   1   5   69.99   13.90
   6   1   5   66.79    8.70
   6   1   5   40.60    8.50
  -7  -1  -5    0.80    6.90
  -7  -1  -5   -1.70    7.00
   7   1   5    4.30    7.50
   7   1   5   24.20   10.40
   7   1   5   10.60    9.50
   7  -2  -5   14.10    9.90
   7  -2  -5    9.10    9.10
   7  -2  -5   33.00   10.50
  -7   2   5    6.40    7.80
   6  -2  -5   57.09   10.10
   6  -2  -5   64.49    7.00
   6  -2  -5   66.69    9.50
  -6   2   5   68.29    7.20
  -6   2   5   54.89    9.80
   5  -2  -5    9.10    6.60
   5  -2  -5    0.30    4.40
   5  -2  -5   -4.10    3.70
   5  -2  -5    0.60    6.70
  -5   2   5   -3.50    4.10
  -5   2   5    5.50    5.20
  -5   2   5   -4.70    5.70
   4  -2  -5   10.50    6.00
   4  -2  -5    7.80    4.40
   4  -2  -5    7.00    6.00
  -4   2   5   16.50    3.90
  -4   2   5   10.40    5.50
  -4   2   5   10.20    5.10
  -4   2   5    4.20    3.60
   3  -2  -5   13.30    4.20
   3  -2  -5   18.30    4.70
   3  -2  -5    9.80    6.00
   3  -2  -5   23.80    5.30
  -3   2   5   18.90    3.40
  -3   2   5   10.00    4.30
  -3   2   5   19.80    4.60
  -3   2   5   24.50    4.00
   2  -2  -5  425.56   18.30
   2  -2  -5  398.46   17.70
   2  -2  -5  392.96   17.70
   2  -2  -5  386.16   17.50
   2  -2  -5  420.86   17.20
   2  -2  -5  424.96   18.00
  -2   2   5  414.26   18.00
  -2   2   5  414.56   17.10
  -2   2   5  401.96   18.30
   1  -2  -5  293.17   12.50
   1  -2  -5  291.17   12.70
   1  -2  -5  299.17   13.60
   1  -2  -5  291.07   13.50
   1  -2  -5  300.17   13.50
   1  -2  -5  289.27   13.30
   1  -2  -5  285.87   12.40
  -1   2   5  309.47   14.00
  -1   2   5  284.17   12.80
  -1   2   5  289.87   12.40
  -1   2   5  300.07   13.30
   0  -2  -5  745.73   30.50
   0  -2  -5  737.53   30.00
   0  -2  -5  700.83   29.40
   0  -2  -5  791.52   31.10
   0  -2  -5  722.33   30.20
   0  -2  -5  750.12   30.10
   0   2   5  726.43   30.00
   0   2   5  753.22   29.90
   0   2   5  711.13   29.70
   0   2   5  760.22   30.20
   0   2   5  767.32   30.60
   0   2   5  717.53   29.90
   0   2   5  819.82   30.80
  -1  -2  -5  214.68   10.30
  -1  -2  -5  218.78   10.50
  -1  -2  -5  209.38   10.60
  -1  -2  -5  205.88   10.50
  -1  -2  -5  200.68   10.00
   1   2   5  217.68   10.90
   1   2   5  216.18   10.80
   1   2   5  213.68   10.10
   1   2   5  214.48    9.50
   1   2   5  210.08   10.50
   1   2   5  207.88   10.20
   1   2   5  222.98   10.10
  -2  -2  -5    2.00    2.90
  -2  -2  -5   -0.20    3.10
  -2  -2  -5    2.80    3.20
  -2  -2  -5   -0.80    2.90
   2   2   5    3.40    3.60
   2   2   5    3.30    3.00
   2   2   5   -0.10    4.20
  -3  -2  -5  995.90   39.00
  -3  -2  -5  885.51   42.80
   3   2   5  967.60   39.70
   3   2   5  959.10   38.30
  -4  -2  -5  285.97   15.40
  -4  -2  -5  304.97   14.30
  -4  -2  -5  311.57   15.50
   4   2   5  269.17   13.40
   4   2   5  286.77   16.60
   4   2   5  289.07   15.60
   4   2   5  290.07   14.70
  -5  -2  -5   28.30    6.40
  -5  -2  -5   27.00    5.00
  -5  -2  -5   27.60    6.10
   5   2   5   40.00    6.80
   5   2   5   30.60    6.80
   5   2   5   24.40    8.00
  -6  -2  -5   14.50    8.90
  -6  -2  -5   18.10    7.80
  -6  -2  -5   17.00    7.00
   6   2   5   17.40    7.60
   6   2   5   27.10    9.60
   6   2   5   10.60    7.40
  -7  -2  -5  -12.60    6.30
   7   2   5    9.50    9.90
   7   2   5    1.10    9.90
   7  -3  -5    0.80    9.80
   7  -3  -5    2.90    8.80
  -7   3   5    5.10    6.00
  -7   3   5    1.90    7.30
   6  -3  -5    2.70    8.10
   6  -3  -5   -5.00    5.00
   6  -3  -5   11.40    8.20
  -6   3   5   10.70    7.30
  -6   3   5   -7.50    4.70
  -6   3   5    4.90    7.60
   5  -3  -5    9.60    6.80
   5  -3  -5   -3.00    4.80
   5  -3  -5  -13.30    6.40
  -5   3   5   -5.30    5.10
  -5   3   5    8.30    4.10
  -5   3   5   -5.40    6.10
   4  -3  -5   21.70    4.80
   4  -3  -5   26.10    5.40
   4  -3  -5   18.00    6.10
   4  -3  -5   20.40    6.30
  -4   3   5   23.60    5.30
  -4   3   5   27.80    3.90
  -4   3   5   28.60    6.00
   3  -3  -5  282.37   15.00
   3  -3  -5  299.47   14.60
   3  -3  -5  290.77   13.40
   3  -3  -5  294.47   14.60
  -3   3   5  305.77   12.90
  -3   3   5  291.47   14.60
  -3   3   5  290.47   14.60
  -3   3   5  240.58   14.80
   2  -3  -5  252.27   12.70
   2  -3  -5  238.08   12.70
   2  -3  -5  231.78   11.80
   2  -3  -5  269.07   11.20
  -2   3   5  253.27   12.40
  -2   3   5  262.17   12.20
  -2   3   5  248.08   11.10
  -2   3   5  251.67   12.80
   1  -3  -5   14.20    3.50
   1  -3  -5   18.80    3.90
   1  -3  -5   15.90    4.10
   1  -3  -5   17.30    3.50
   1  -3  -5   18.10    2.70
   1  -3  -5   18.60    2.40
   1  -3  -5   18.80    2.80
  -1   3   5   19.80    2.60
  -1   3   5   16.50    3.00
  -1   3   5   18.70    3.00
  -1   3   5   18.90    3.40
  -1   3   5   16.00    3.20
  -1   3   5   22.10    4.30
  -1   3   5   17.90    3.90
   0  -3  -5  392.26   16.50
   0  -3  -5  386.56   17.20
   0  -3  -5  391.36   16.50
   0  -3  -5  389.16   15.90
   0  -3  -5  392.36   16.90
   0   3   5  399.46   17.10
   0   3   5  359.66   16.80
   0   3   5  388.76   16.10
   0   3   5  399.16   17.20
   0   3   5  386.46   16.10
   0   3   5  377.36   15.80
   0   3   5  375.06   16.40
   0   3   5  379.36   15.90
  -1  -3  -5  773.12   30.60
  -1  -3  -5  696.93   29.90
  -1  -3  -5  741.53   30.60
  -1  -3  -5  811.32   31.10
  -1  -3  -5  736.63   30.40
   1   3   5  724.63   29.90
   1   3   5  779.02   30.80
   1   3   5  764.92   30.70
   1   3   5  728.53   29.50
   1   3   5  710.33   30.30
   1   3   5  716.63   30.40
  -2  -3  -5   30.10    4.20
  -2  -3  -5   28.20    4.10
  -2  -3  -5   27.20    4.30
  -2  -3  -5   31.10    2.90
   2   3   5   28.90    5.40
   2   3   5   36.40    4.90
   2   3   5   30.80    3.10
  -3  -3  -5   -5.50    4.00
  -3  -3  -5    0.10    4.00
  -3  -3  -5    1.50    3.90
   3   3   5    4.20    4.00
   3   3   5    0.40    4.60
   3   3   5   -1.80    6.30
  -4  -3  -5   -5.30    3.60
  -4  -3  -5   -0.10    4.40
  -4  -3  -5   -1.60    4.70
   4   3   5   -4.20    4.50
   4   3   5    6.60    4.60
   4   3   5    3.90    6.60
   4   3   5   10.60    3.50
  -5  -3  -5    2.40    5.30
  -5  -3  -5    5.60    4.20
  -5  -3  -5    1.90    5.60
   5   3   5    2.90    5.70
   5   3   5   -1.50    5.80
   5   3   5   -7.20    7.60
  -6  -3  -5    1.40    5.40
  -6  -3  -5  -11.00    5.70
  -6  -3  -5    5.80    6.50
   6   3   5    1.00    6.70
   6   3   5    9.40    7.00
   6   3   5    1.50    9.30
  -7  -3  -5   30.00    7.50
  -7  -3  -5   32.10    9.20
   7   3   5   17.60    9.50
   7  -4  -5  -10.90    9.00
   7  -4  -5    1.20    8.90
  -7   4   5   -8.30    5.50
  -7   4   5    7.90    7.30
   6  -4  -5   10.30    8.30
   6  -4  -5   -3.00    6.00
   6  -4  -5    4.30    8.80
  -6   4   5    4.00    6.50
  -6   4   5   11.10    7.40
  -6   4   5    7.60    4.80
   5  -4  -5   -5.80    6.50
   5  -4  -5   -3.10    6.00
   5  -4  -5  -15.80    6.50
  -5   4   5   -3.10    3.40
  -5   4   5    0.90    6.30
  -5   4   5    5.80    5.40
   4  -4  -5   65.39    7.30
   4  -4  -5   73.69    8.20
   4  -4  -5   93.99   10.10
   4  -4  -5   89.69    9.70
  -4   4   5   81.29    9.50
  -4   4   5   71.49    8.80
  -4   4   5  106.79    6.40
   3  -4  -5  135.59   10.40
   3  -4  -5  109.99   12.20
   3  -4  -5  105.59   10.20
   3  -4  -5  111.89    7.60
  -3   4   5  111.29    9.30
  -3   4   5  117.39    6.50
   2  -4  -5   33.10    5.20
   2  -4  -5   34.50    2.90
   2  -4  -5   27.40    2.70
   2  -4  -5   27.00    4.90
  -2   4   5   27.90    4.60
  -2   4   5   30.80    2.90
  -2   4   5   33.40    4.80
  -2   4   5   30.30    4.40
  -2   4   5   28.20    3.70
   1  -4  -5   14.40    3.60
   1  -4  -5   23.70    3.00
   1  -4  -5   21.90    4.30
   1  -4  -5   25.90    3.20
   1  -4  -5   22.00    4.10
  -1   4   5   27.10    3.40
  -1   4   5   22.40    4.50
  -1   4   5   19.10    4.60
  -1   4   5   24.40    4.10
  -1   4   5   25.60    3.10
  -1   4   5   20.50    3.10
  -1   4   5   24.90    2.30
   0  -4  -5  253.07   12.70
   0  -4  -5  255.07   11.90
   0  -4  -5  264.67   11.30
   0  -4  -5  258.87   11.70
   0  -4  -5  241.28   12.70
   0  -4  -5  255.87   12.10
   0   4   5  259.27   12.70
   0   4   5  240.38   11.80
   0   4   5  246.78   11.20
   0   4   5  253.27   12.80
   0   4   5  258.87   11.30
   0   4   5  246.48   10.90
   0   4   5  260.27   11.20
  -1  -4  -5  486.35   20.80
  -1  -4  -5  482.05   19.80
  -1  -4  -5  493.35   21.10
   1   4   5  475.05   19.50
   1   4   5  475.35   20.00
   1   4   5  472.45   20.90
   1   4   5  499.05   21.20
   1   4   5  482.95   21.40
  -2  -4  -5   25.40    3.30
  -2  -4  -5   22.50    4.30
  -2  -4  -5   26.30    4.20
  -2  -4  -5   31.20    4.70
   2   4   5   21.10    5.80
   2   4   5   26.60    5.00
   2   4   5   23.30    3.20
  -3  -4  -5   95.09    8.60
  -3  -4  -5   86.59    6.10
  -3  -4  -5   80.59    8.10
  -3  -4  -5   76.99    8.60
   3   4   5   96.39    9.10
   3   4   5   84.09    7.90
   3   4   5   78.49    9.30
  -4  -4  -5   15.80    5.30
  -4  -4  -5    9.90    4.20
  -4  -4  -5   16.60    5.40
   4   4   5   17.40    5.70
   4   4   5    9.90    5.10
   4   4   5   11.40    7.40
  -5  -4  -5   20.60    5.00
  -5  -4  -5   21.60    9.60
  -5  -4  -5   21.80    6.30
   5   4   5   28.30    9.00
   5   4   5   14.20    7.20
  -6  -4  -5   49.40    7.90
  -6  -4  -5   38.50    6.40
  -6  -4  -5   39.50    7.80
   6   4   5   27.30    7.60
   6   4   5   38.70   10.20
   6   4   5   45.80    8.90
   7  -5  -5   40.70   10.60
   7  -5  -5   36.70   10.70
  -7   5   5   19.10    8.00
  -7   5   5   16.50    6.30
  -7   5   5   32.00    9.70
   6  -5  -5   13.80    6.70
   6  -5  -5   17.50    9.10
   6  -5  -5    7.40    8.30
  -6   5   5    1.40    7.50
  -6   5   5    0.50    6.60
   5  -5  -5   95.29   11.90
   5  -5  -5   69.19    9.10
   5  -5  -5   75.09    8.10
  -5   5   5   83.79    6.50
  -5   5   5   74.29    8.90
  -5   5   5   58.89    7.60
   4  -5  -5   -0.50    5.80
   4  -5  -5    2.50    6.30
   4  -5  -5    2.60    5.70
   4  -5  -5    5.80    3.40
  -4   5   5    3.80    2.50
  -4   5   5   -1.10    5.20
  -4   5   5   -1.20    4.60
   3  -5  -5    4.40    5.40
   3  -5  -5   10.20    5.70
  -3   5   5   12.10    4.80
  -3   5   5    0.90    4.80
   2  -5  -5  268.87   12.60
   2  -5  -5  283.77   14.60
   2  -5  -5  302.67   15.30
  -2   5   5  308.77   14.10
  -2   5   5  296.27   14.50
  -2   5   5  298.57   14.60
  -2   5   5  268.17   12.50
   1  -5  -5  201.08    9.70
   1  -5  -5  181.58    9.70
   1  -5  -5  204.68   10.90
   1  -5  -5  203.88   11.40
  -1   5   5  190.98    8.50
  -1   5   5  190.98    9.00
  -1   5   5  194.88    9.90
  -1   5   5  210.58   11.60
  -1   5   5  209.08   10.00
  -1   5   5  186.58   11.00
   0  -5  -5   84.29    8.10
   0  -5  -5   83.09    5.90
   0  -5  -5   69.99    6.20
   0  -5  -5   85.19    6.60
   0   5   5   68.89    5.60
   0   5   5   78.09    8.20
   0   5   5   80.49    7.70
   0   5   5   64.59    6.40
   0   5   5   76.99    5.40
   0   5   5   69.49    4.70
  -1  -5  -5    3.50    3.20
  -1  -5  -5    7.10    4.00
  -1  -5  -5    7.30    3.00
  -1  -5  -5    9.00    3.70
  -1  -5  -5    9.20    3.00
   1   5   5    9.70    2.40
   1   5   5    5.50    4.70
   1   5   5   11.20    4.20
   1   5   5    8.50    2.60
  -2  -5  -5    1.20    4.00
  -2  -5  -5    3.00    3.10
  -2  -5  -5    3.50    3.80
  -2  -5  -5    5.30    4.00
   2   5   5    4.70    4.90
   2   5   5    1.40    6.10
   2   5   5    4.00    3.00
  -3  -5  -5  375.16   17.80
  -3  -5  -5  366.16   18.30
  -3  -5  -5  360.96   16.80
  -3  -5  -5  388.66   17.60
   3   5   5  381.96   16.90
   3   5   5  375.06   20.00
   3   5   5  368.76   18.60
  -4  -5  -5  167.48   12.20
  -4  -5  -5  147.19   10.40
  -4  -5  -5  179.18   11.70
   4   5   5  155.68   14.90
   4   5   5  168.88   12.50
   4   5   5  155.18   10.90
  -5  -5  -5    2.80   10.50
  -5  -5  -5   -0.30    5.70
  -5  -5  -5    7.30    6.00
   5   5   5   -6.90    6.00
   5   5   5    5.10    6.00
  -6  -5  -5   24.30    7.30
  -6  -5  -5   11.80    7.10
   6   5   5   24.00    7.50
   6   5   5   17.30   10.80
   6   5   5   -2.70    7.20
   7  -6  -5    1.70    9.40
  -7   6   5    1.80    7.00
   6  -6  -5    1.90    8.70
   6  -6  -5    4.00    8.90
   6  -6  -5   28.10    7.60
  -6   6   5   -2.30    3.90
  -6   6   5    0.20    6.10
  -6   6   5    8.00    8.20
   5  -6  -5   39.20    7.60
   5  -6  -5   54.29    8.90
   5  -6  -5   44.30    8.60
  -5   6   5   48.80    7.30
  -5   6   5   43.80    8.20
  -5   6   5   59.99    5.10
   4  -6  -5    8.90    6.20
   4  -6  -5   24.70    7.20
   4  -6  -5   15.30    6.40
  -4   6   5   18.70    5.10
  -4   6   5   13.60    5.60
   3  -6  -5   20.80    6.20
   3  -6  -5    6.10    5.80
  -3   6   5    8.50    4.80
  -3   6   5   10.30    5.30
   2  -6  -5   19.40    8.10
   2  -6  -5   46.80    6.30
   2  -6  -5   29.20    3.80
  -2   6   5   40.40    5.20
  -2   6   5   30.60    4.90
  -2   6   5   35.60    6.60
  -2   6   5   32.00    5.30
   1  -6  -5   22.00    3.90
   1  -6  -5   24.70    4.90
   1  -6  -5   26.70    5.30
  -1   6   5   21.30    4.90
  -1   6   5   19.50    3.90
  -1   6   5   27.90    4.20
  -1   6   5   19.80    5.20
   0  -6  -5   93.59    7.50
   0  -6  -5  101.39    7.50
   0  -6  -5   83.59    6.30
   0  -6  -5   96.99    7.20
   0  -6  -5   97.39    9.40
   0   6   5   96.99    5.50
   0   6   5  102.79    6.70
   0   6   5  110.59    9.00
   0   6   5   94.99    6.20
   0   6   5   99.19    9.50
  -1  -6  -5   19.30    5.10
  -1  -6  -5   16.30    4.40
  -1  -6  -5   17.20    4.80
  -1  -6  -5   11.00    3.40
  -1  -6  -5   14.10    2.40
  -1  -6  -5   17.20    3.30
   1   6   5   11.80    5.50
   1   6   5   17.50    3.30
   1   6   5   14.10    4.90
   1   6   5   13.70    3.20
  -2  -6  -5  130.19   10.30
  -2  -6  -5  138.09   10.20
  -2  -6  -5  142.99    9.40
   2   6   5  140.49    8.70
   2   6   5  144.89   10.50
   2   6   5  144.39   12.30
  -3  -6  -5   86.19    9.30
  -3  -6  -5   60.09    7.50
  -3  -6  -5   94.19    8.10
  -3  -6  -5   77.09    8.40
   3   6   5   86.29    7.50
   3   6   5   82.49    9.00
   3   6   5   75.19    9.30
  -4  -6  -5   15.90    9.40
  -4  -6  -5   19.50    5.70
  -4  -6  -5   18.30    6.00
   4   6   5   16.60    5.30
   4   6   5   16.70    6.30
   4   6   5   24.60    8.50
  -5  -6  -5    1.10    6.10
  -5  -6  -5    8.80    8.70
  -5  -6  -5    0.50    5.80
   5   6   5    5.40    5.90
   5   6   5    2.70    9.00
   5   6   5    7.40    6.70
  -6  -6  -5   21.30    7.40
  -6  -6  -5   15.60    7.40
   6   6   5   26.10   11.20
   6   6   5   19.20    7.20
   6   6   5   13.70    8.00
   7  -7  -5   58.19   10.40
   7  -7  -5   56.79   11.80
  -7   7   5   59.99   11.20
  -7   7   5   48.20    9.10
   6  -7  -5  -13.90    8.50
   6  -7  -5    5.20    7.50
   6  -7  -5  -13.30    8.40
  -6   7   5   -5.90    6.00
  -6   7   5   -6.50    7.40
   5  -7  -5   45.30    8.20
  -5   7   5   44.10    7.00
   4  -7  -5    7.60    6.20
   4  -7  -5    7.60    6.30
  -4   7   5   -3.20    5.30
  -4   7   5    3.50    4.70
   3  -7  -5   32.30    6.80
   3  -7  -5   23.90    6.50
   3  -7  -5   29.40    3.60
  -3   7   5   30.80    5.30
  -3   7   5   35.20    6.10
  -3   7   5   33.20    5.70
  -3   7   5   22.30    3.00
   2  -7  -5   -4.80    5.00
   2  -7  -5    2.00    3.40
   2  -7  -5    2.20    5.70
  -2   7   5   -0.80    4.60
  -2   7   5    4.60    4.30
  -2   7   5    3.10    3.00
   1  -7  -5  895.21   38.60
   1  -7  -5  905.81   37.80
   1  -7  -5  951.50   37.60
  -1   7   5  945.01   37.60
  -1   7   5  904.71   38.20
  -1   7   5  897.51   38.00
   0  -7  -5  724.03   30.10
   0  -7  -5  759.42   33.20
   0  -7  -5  689.63   29.70
   0  -7  -5  726.13   30.70
   0   7   5  729.03   31.10
   0   7   5  701.13   29.20
   0   7   5  738.03   30.10
   0   7   5  726.43   29.30
   0   7   5  779.52   31.70
  -1  -7  -5  101.89    5.80
  -1  -7  -5   83.39    8.70
  -1  -7  -5   90.79    6.70
  -1  -7  -5   99.29    8.20
  -1  -7  -5  101.59    7.30
   1   7   5   86.29   10.80
   1   7   5   92.79    9.60
   1   7   5   92.29    7.20
  -2  -7  -5  125.59    9.10
  -2  -7  -5  135.49   10.10
  -2  -7  -5  129.29   10.40
  -2  -7  -5  133.79   11.10
   2   7   5  136.39    8.60
   2   7   5  142.89   10.70
   2   7   5  137.59   12.70
  -3  -7  -5   41.40    6.10
  -3  -7  -5   36.10    5.50
  -3  -7  -5   28.80    5.30
   3   7   5   36.20    4.90
   3   7   5   47.50    8.20
   3   7   5   28.20    6.20
  -4  -7  -5  149.49   10.40
  -4  -7  -5  135.79   12.30
  -4  -7  -5  158.28   11.70
   4   7   5  143.99   12.30
   4   7   5  142.09   14.70
  -5  -7  -5  123.39   12.80
  -5  -7  -5  136.49   10.50
  -5  -7  -5  147.89   13.10
   5   7   5  149.19   16.70
   5   7   5  122.99   13.40
   5   7   5  142.99   11.50
  -6  -7  -5   12.10    7.10
   6   7   5   30.90   11.80
   6   7   5   11.30    6.90
   6   7   5   -1.10    7.50
   6  -8  -5  164.28   16.00
   6  -8  -5  144.39   15.70
   6  -8  -5  126.29   16.80
  -6   8   5  125.89   12.30
  -6   8   5  116.29   14.50
   5  -8  -5   67.29    9.80
   5  -8  -5   83.89   10.50
   5  -8  -5   82.09    9.70
  -5   8   5   49.99    8.80
  -5   8   5   73.09    9.70
   4  -8  -5    8.80    6.70
   4  -8  -5    4.10    6.70
  -4   8   5    5.50    4.70
  -4   8   5    2.50    5.70
   3  -8  -5   78.59    8.40
   3  -8  -5   73.49    6.50
   3  -8  -5   72.99    8.30
  -3   8   5   58.39    7.00
  -3   8   5   75.59    8.10
  -3   8   5   50.99    5.70
  -3   8   5   60.49    7.30
   2  -8  -5  145.49    9.20
   2  -8  -5  139.79   12.30
   2  -8  -5  135.59   10.70
  -2   8   5  144.89   10.00
  -2   8   5  140.19   11.00
  -2   8   5  132.99    9.90
   1  -8  -5  136.39   10.60
   1  -8  -5  131.59   11.80
   1  -8  -5  152.28   10.00
  -1   8   5  163.68   10.70
  -1   8   5  153.28   11.30
  -1   8   5  163.18   10.00
   0  -8  -5  125.49   10.20
   0  -8  -5  122.99   10.70
   0  -8  -5   97.29    8.30
   0   8   5  113.29    9.70
   0   8   5  110.59    6.80
   0   8   5  101.59    6.30
   0   8   5  113.69   10.70
   0   8   5  123.79    8.30
  -1  -8  -5   44.00    6.40
  -1  -8  -5   50.39    6.10
  -1  -8  -5   39.80    4.50
  -1  -8  -5   48.00    4.50
  -1  -8  -5   41.50    5.80
   1   8   5   43.70    6.20
   1   8   5   48.50    5.10
   1   8   5   45.70    7.00
  -2  -8  -5   50.39    5.60
  -2  -8  -5   40.90    6.40
  -2  -8  -5   44.20    6.30
   2   8   5   45.80    5.00
   2   8   5   47.70    6.80
   2   8   5   49.30    8.10
  -3  -8  -5   27.70    5.40
  -3  -8  -5   30.90    6.20
  -3  -8  -5   24.70    5.20
   3   8   5   31.10    8.10
   3   8   5   16.40    4.80
   3   8   5   23.70    6.10
  -4  -8  -5   22.60    5.30
  -4  -8  -5   20.00    6.50
  -4  -8  -5   24.50    8.30
   4   8   5   15.40    8.40
   4   8   5   21.50    5.20
   4   8   5    4.90    8.90
  -5  -8  -5   20.90    6.90
  -5  -8  -5   19.50    5.10
  -5  -8  -5   13.20    6.90
   5   8   5    6.10    9.40
   5   8   5   26.30    6.00
   5   8   5   18.20    7.50
   6  -9  -5   63.39   11.30
   6  -9  -5   52.39   11.00
   6  -9  -5   57.89    9.30
  -6   9   5   39.90    7.80
  -6   9   5   64.49   10.10
   5  -9  -5   10.20    8.70
   5  -9  -5   -5.20    7.60
  -5   9   5    7.40    7.30
  -5   9   5    7.90    5.60
   4  -9  -5   -0.90    6.60
   4  -9  -5    8.40    7.40
   4  -9  -5   -0.40    3.00
  -4   9   5    2.10    6.20
  -4   9   5   12.80    6.50
  -4   9   5    7.30    4.80
   3  -9  -5    3.90    6.50
   3  -9  -5   -2.40    5.70
   3  -9  -5    2.30    3.60
  -3   9   5   -0.90    5.30
  -3   9   5   -2.30    5.40
  -3   9   5    4.10    4.40
   2  -9  -5    4.20    5.10
   2  -9  -5  -10.40    5.50
   2  -9  -5    2.60    3.90
  -2   9   5    0.30    4.30
  -2   9   5   -1.00    4.90
   1  -9  -5   57.69    7.20
   1  -9  -5   64.19    8.00
   1  -9  -5   59.79    7.70
  -1   9   5   65.29    7.80
  -1   9   5   58.89    7.10
  -1   9   5   58.49    6.40
   0  -9  -5   31.50    5.30
   0  -9  -5   15.80    4.50
   0  -9  -5   21.90    6.10
   0   9   5   20.20    6.00
   0   9   5   18.10    3.00
   0   9   5   24.70    5.10
   0   9   5   21.10    3.20
  -1  -9  -5   42.30    4.50
  -1  -9  -5   38.50    4.40
  -1  -9  -5   37.60    5.90
  -1  -9  -5   33.50    4.10
  -1  -9  -5   42.60    6.60
   1   9   5   42.00    5.20
   1   9   5   36.80    6.90
   1   9   5   33.00    6.20
  -2  -9  -5    0.30    3.80
  -2  -9  -5    1.30    4.70
  -2  -9  -5   -2.80    4.80
   2   9   5    1.60    6.80
   2   9   5   -1.90    3.90
   2   9   5   -6.00    4.90
  -3  -9  -5    4.20    4.70
  -3  -9  -5    3.90    4.60
  -3  -9  -5    6.10    5.50
   3   9   5    4.90    4.40
   3   9   5   -1.20    7.70
   3   9   5    7.10    5.90
  -4  -9  -5   55.39    8.40
  -4  -9  -5   54.49    6.50
  -4  -9  -5   58.49    7.90
   4   9   5   78.69   11.20
   4   9   5   67.39    8.90
   4   9   5   50.19    8.40
  -5  -9  -5    0.10    6.50
  -5  -9  -5    0.80    6.20
  -5  -9  -5    2.50    5.30
   5   9   5   -4.00    6.80
   5   9   5    2.80    9.70
   5   9   5    2.50    5.50
   6 -10  -5   64.49    9.80
  -6  10   5   30.80    7.30
   5 -10  -5   -2.10    7.70
   5 -10  -5    7.20    8.10
  -5  10   5  -11.40    7.00
  -5  10   5    6.80    5.60
   4 -10  -5   -3.50    3.40
   4 -10  -5   -0.90    7.00
  -4  10   5    1.50    4.50
  -4  10   5    0.50    6.30
  -4  10   5    4.40    6.50
   3 -10  -5   15.70    4.50
   3 -10  -5   28.70    7.00
   3 -10  -5   28.70    7.90
  -3  10   5   15.90    6.20
  -3  10   5   14.90    4.70
  -3  10   5   24.40    6.70
   2 -10  -5    6.00    5.40
   2 -10  -5    9.10    6.50
   2 -10  -5    3.20    4.30
  -2  10   5    6.80    4.40
  -2  10   5   10.10    4.80
  -2  10   5    3.10    5.50
   1 -10  -5   59.39    7.80
   1 -10  -5   57.79    6.60
   1 -10  -5   64.79    8.20
  -1  10   5   55.79    7.10
  -1  10   5   71.29    8.20
  -1  10   5   54.89    7.50
   0 -10  -5  447.96   22.60
   0 -10  -5  467.35   20.60
   0 -10  -5  440.56   21.70
   0  10   5  471.45   19.30
   0  10   5  470.85   22.40
   0  10   5  451.85   21.60
   0  10   5  481.65   21.20
  -1 -10  -5    0.20    4.60
  -1 -10  -5    5.00    3.00
  -1 -10  -5   -1.20    5.50
  -1 -10  -5    0.20    3.40
   1  10   5   -6.30    4.80
   1  10   5    2.40    4.00
   1  10   5   -8.10    5.70
  -2 -10  -5    3.00    5.10
  -2 -10  -5    5.80    5.40
  -2 -10  -5    3.90    3.90
   2  10   5    4.00    5.60
   2  10   5    9.70    4.20
   2  10   5   -4.60    6.90
  -3 -10  -5    6.80    5.80
  -3 -10  -5    5.90    5.20
  -3 -10  -5   -1.40    4.70
   3  10   5   -1.30    8.30
   3  10   5   12.10    6.50
   3  10   5    0.70    4.50
  -4 -10  -5   -1.90    5.50
  -4 -10  -5   11.60    5.30
  -4 -10  -5    1.90    5.90
   4  10   5    1.00    9.40
   4  10   5    3.90    6.70
   4  10   5    7.40    5.40
  -5 -10  -5   12.20    6.70
   5  10   5   14.70    6.10
   5  10   5    2.70    7.30
   5 -11  -5   12.00    8.40
   5 -11  -5   -0.50    8.10
  -5  11   5   -8.10    7.20
  -5  11   5   -2.90    5.80
   4 -11  -5    6.10    7.60
   4 -11  -5   -4.30    7.60
   4 -11  -5    5.00    3.90
  -4  11   5    1.00    6.80
  -4  11   5   -2.90    4.50
  -4  11   5   -1.30    6.80
   3 -11  -5   25.30    7.60
   3 -11  -5   40.50    5.40
  -3  11   5   31.40    9.00
  -3  11   5   39.00    7.20
   2 -11  -5   -1.10    5.40
   2 -11  -5    2.20    4.40
   2 -11  -5   -3.10    6.30
  -2  11   5   -5.50    5.40
  -2  11   5   -2.50    4.10
  -2  11   5    0.20    5.00
   1 -11  -5   -2.30    6.00
   1 -11  -5   -4.90    4.60
   1 -11  -5    4.20    4.80
  -1  11   5   -2.30    4.40
  -1  11   5    1.20    5.40
  -1  11   5   -0.90    4.20
   0 -11  -5   -3.30    5.70
   0 -11  -5   -5.50    4.70
   0 -11  -5   -2.20    4.10
   0  11   5    6.30    4.50
   0  11   5   -3.30    2.40
   0  11   5    5.20    4.30
   0  11   5   -0.30    5.70
   0  11   5   -1.50    4.60
  -1 -11  -5    2.50    5.00
  -1 -11  -5   -2.10    3.60
  -1 -11  -5    0.50    5.70
   1  11   5    0.70    4.10
   1  11   5   -0.30    6.20
   1  11   5    3.70    5.20
  -2 -11  -5    0.20    5.60
  -2 -11  -5   -8.50    3.70
  -2 -11  -5   -4.80    5.40
   2  11   5    4.40    5.70
   2  11   5   -1.40    7.00
   2  11   5   -8.50    4.10
  -3 -11  -5   49.80    7.10
  -3 -11  -5   49.70    7.80
  -3 -11  -5   51.89    6.70
   3  11   5   71.99    8.30
   3  11   5   51.69   10.30
  -4 -11  -5   -2.50    6.00
  -4 -11  -5    4.90    5.60
  -4 -11  -5   11.20    5.70
   4  11   5   -4.80    6.90
   4  11   5    2.30    9.40
   4  11   5    5.60    5.10
   5 -12  -5    3.60   10.50
   5 -12  -5   -8.20    8.10
  -5  12   5    2.20    8.00
  -5  12   5   -9.20    7.10
   4 -12  -5    4.30    4.40
   4 -12  -5    7.50    7.80
   4 -12  -5    3.70    8.30
  -4  12   5    1.20    4.60
  -4  12   5    3.70    7.10
  -4  12   5    9.80    7.20
   3 -12  -5   21.90    7.70
   3 -12  -5   13.50    4.90
   3 -12  -5   23.70    8.30
  -3  12   5   20.80    6.60
  -3  12   5   13.60    4.70
  -3  12   5   20.40    7.20
   2 -12  -5    5.90    6.80
   2 -12  -5    7.30    5.00
   2 -12  -5    7.20    5.90
  -2  12   5   -1.60    6.10
  -2  12   5    9.00    5.80
  -2  12   5   -1.50    4.10
   1 -12  -5   -4.30    4.90
   1 -12  -5    5.50    5.10
  -1  12   5   -0.20    4.90
  -1  12   5    0.50    4.40
   0 -12  -5    6.40    5.50
   0 -12  -5    9.70    4.60
   0 -12  -5   16.70    6.70
   0  12   5    8.00    5.10
   0  12   5    7.50    4.60
  -1 -12  -5    0.80    4.00
  -1 -12  -5    3.10    8.50
  -1 -12  -5   10.70    6.60
   1  12   5   12.90    4.80
   1  12   5    8.90    5.70
   1  12   5    4.20    6.80
  -2 -12  -5    5.90    5.90
  -2 -12  -5    1.60    4.10
  -2 -12  -5    3.40    6.20
   2  12   5    4.30    4.90
   2  12   5    9.70    7.70
   2  12   5   13.40    6.40
  -3 -12  -5  177.18   15.00
  -3 -12  -5  185.18   12.50
  -3 -12  -5  192.98   15.00
   3  12   5  226.38   17.90
   3  12   5  202.68   12.40
   3  12   5  163.28   14.70
  -4 -12  -5   -8.20    5.00
  -4 -12  -5    1.80    9.40
  -4 -12  -5   -4.80   10.10
   4  12   5    0.40    5.80
   4  12   5    0.90    7.10
   4 -13  -5   10.20    8.10
   4 -13  -5    2.40    8.20
  -4  13   5    8.30    7.00
  -4  13   5    9.40    7.60
  -4  13   5    1.80    4.90
   3 -13  -5    0.80    6.90
   3 -13  -5    2.00    5.00
   3 -13  -5   -1.30    7.50
  -3  13   5    1.20    6.90
  -3  13   5    2.80    4.40
  -3  13   5    5.90    6.30
   2 -13  -5   -0.30    6.90
   2 -13  -5    2.90    5.20
  -2  13   5    3.90    4.30
  -2  13   5    2.60    5.80
  -2  13   5   -0.40    6.30
   1 -13  -5  101.79   13.10
   1 -13  -5  111.19   11.20
   1 -13  -5  116.99   10.30
  -1  13   5  117.39   12.50
  -1  13   5   81.79    9.00
  -1  13   5   96.09   12.10
   0 -13  -5    1.70    5.80
   0 -13  -5    6.30    6.60
   0 -13  -5   -0.90    4.50
   0  13   5   -2.90    4.50
   0  13   5   -2.30    6.10
   0  13   5    2.70    5.00
  -1 -13  -5    3.60    5.80
  -1 -13  -5    4.20    6.60
  -1 -13  -5    3.80    4.30
   1  13   5    1.70    5.30
   1  13   5    9.40    7.10
   1  13   5   -1.00    4.70
  -2 -13  -5   -3.30    5.60
  -2 -13  -5    0.50    6.40
   2  13   5   -2.20    5.90
   2  13   5   -5.70    7.40
   2  13   5    1.30    4.90
  -3 -13  -5   -6.60    5.90
  -3 -13  -5    7.70    6.10
  -3 -13  -5    5.60    5.00
   3  13   5    7.70    6.60
   3  13   5    5.60    5.60
   3  13   5    1.00    8.40
   4 -14  -5    0.40    8.10
   3 -14  -5   28.20    8.00
   3 -14  -5   10.70    7.80
   3 -14  -5   22.20    5.70
  -3  14   5   31.60    8.10
  -3  14   5   18.40    7.00
  -3  14   5   20.60    5.10
   2 -14  -5    9.10    7.80
   2 -14  -5   26.70    6.80
   2 -14  -5    1.90    8.00
  -2  14   5    8.80    6.40
  -2  14   5   16.00    7.10
  -2  14   5    9.00    4.70
   1 -14  -5   -2.20    5.70
   1 -14  -5   -8.20    7.00
   1 -14  -5    3.30    5.50
  -1  14   5    4.80    4.40
  -1  14   5    1.50    5.70
  -1  14   5   -4.60    6.20
   0 -14  -5   -8.60    5.60
   0 -14  -5  -13.80    6.10
   0 -14  -5    0.90    4.80
   0  14   5   -0.20    4.70
   0  14   5    3.30    5.30
   0  14   5   -5.50    6.30
  -1 -14  -5   41.10    8.10
  -1 -14  -5   53.39    8.30
   1  14   5   52.69    7.00
   1  14   5   30.00    8.10
   1  14   5   37.90    6.70
  -2 -14  -5   21.90    7.20
  -2 -14  -5   36.60    7.80
   2  14   5   27.70    8.80
   2  14   5   16.40    6.80
   2  14   5   33.40    6.20
   3 -15  -5    6.50    5.50
   3 -15  -5   -1.20    7.90
   3 -15  -5    7.10    7.00
  -3  15   5    5.80    8.30
   2 -15  -5   10.70    8.70
   2 -15  -5   -2.20    5.70
   2 -15  -5   13.20    5.90
  -2  15   5   17.50    6.80
  -2  15   5   -3.90    6.70
   1 -15  -5    7.70    6.00
   1 -15  -5    0.30    5.40
   1 -15  -5    2.20    6.90
  -1  15   5   -6.20    5.50
  -1  15   5   13.60    7.10
  -1  15   5    2.90    4.80
   0 -15  -5   16.90    6.60
   0 -15  -5   15.10    5.60
   0 -15  -5    3.70    7.10
   0  15   5    5.20    5.70
   0  15   5    6.10    6.80
   0  15   5    6.30    4.90
  -1 -15  -5   -3.60    6.70
  -1 -15  -5    5.90    6.40
   1  15   5    0.10    5.10
   1  15   5   -2.30    5.20
   1  17  -6   17.90    6.70
   1  17  -6  -10.20    8.10
   1  17  -6    2.70    5.20
  -1 -17   6    2.10    8.80
  -1 -17   6    2.80    5.30
  -1 -17   6    5.90    7.60
   0  17  -6    2.50    6.00
   0  17  -6   -9.90    7.10
   0 -17   6   -5.70    7.20
   0 -17   6    2.30    4.90
  -1  17  -6   25.10    6.10
  -1  17  -6    8.70   11.90
  -1  17  -6   12.70    6.40
   1 -17   6    0.50    7.70
   1 -17   6   28.50   11.50
  -2  17  -6    8.30    6.20
   2  16  -6   42.90   11.50
   2  16  -6   40.40    6.70
   2  16  -6   50.99    8.90
  -2 -16   6   26.30    6.70
  -2 -16   6   53.49    9.50
  -2 -16   6   49.99    9.90
   1  16  -6   21.50    8.60
   1  16  -6   19.70    6.80
   1  16  -6   17.40    5.90
  -1 -16   6   19.80    6.30
  -1 -16   6   18.20    7.50
  -1 -16   6   11.70    8.40
   0  16  -6   15.40    6.00
   0  16  -6   15.00    8.00
   0  16  -6    6.10    6.00
   0 -16   6    7.70    8.50
   0 -16   6    7.00    7.70
   0 -16   6    7.40    5.20
  -1  16  -6   24.10    6.80
  -1  16  -6   14.90    5.70
  -1  16  -6   24.60    7.50
   1 -16   6   21.10    8.60
   1 -16   6   20.10    5.00
   1 -16   6   17.20    8.40
  -2  16  -6   11.20    6.90
  -2  16  -6   18.10    6.80
  -2  16  -6   17.90    5.60
   2 -16   6   22.30    8.90
   2 -16   6   10.50    8.80
  -3  16  -6   -0.30    7.00
  -3  16  -6    1.80    5.80
   3 -16   6    1.50   10.40
   3 -16   6    0.30    8.30
   3  15  -6    5.00    6.10
   3  15  -6    4.20    8.90
   3  15  -6   10.60    9.80
  -3 -15   6   -8.00    7.40
  -3 -15   6    9.20    6.20
   2  15  -6    1.70    8.00
   2  15  -6   -5.10    7.80
  -2 -15   6    1.10    6.70
  -2 -15   6    4.50    5.70
  -2 -15   6    1.70    7.80
   1  15  -6   11.20    7.80
   1  15  -6   11.40    6.60
  -1 -15   6   11.60    7.80
  -1 -15   6   11.70    5.80
  -1 -15   6   11.80    7.10
   0  15  -6   -5.90    5.40
   0  15  -6   -7.10    5.10
   0  15  -6    0.70    7.00
   0 -15   6   -0.10    8.10
   0 -15   6    5.50    5.00
   0 -15   6    4.10    7.70
  -1  15  -6   61.49    7.90
  -1  15  -6   63.59    9.00
  -1  15  -6   57.79    6.60
   1 -15   6   57.99    9.30
   1 -15   6   55.09    6.20
   1 -15   6   47.50    9.40
  -2  15  -6    8.10    6.40
  -2  15  -6    6.20    4.90
  -2  15  -6   10.90    6.50
   2 -15   6   -0.80    7.50
   2 -15   6    6.90    8.30
   2 -15   6   11.70    4.40
  -3  15  -6   10.20    5.40
  -3  15  -6    3.00    6.20
  -3  15  -6    1.70    6.70
   3 -15   6    2.10    7.70
   3 -15   6   -2.00    8.00
  -4  15  -6    0.90    6.00
  -4  15  -6    3.90    7.10
   4 -15   6    1.80    8.10
   4  14  -6   13.00    6.80
   4  14  -6  -15.30    9.60
  -4 -14   6    0.10    6.50
  -4 -14   6    0.90    7.50
   3  14  -6   -8.10    8.20
   3  14  -6   11.70   10.40
   3  14  -6   16.90    5.70
  -3 -14   6    3.50    6.30
  -3 -14   6   -3.90    6.60
  -3 -14   6   10.40    8.00
   2  14  -6   73.99    9.30
   2  14  -6   62.99   10.00
   2  14  -6   71.59    9.50
  -2 -14   6   61.99    9.80
  -2 -14   6   48.70    7.90
   1  14  -6   40.50    8.20
   1  14  -6    3.90    6.40
   1  14  -6   16.40    6.10
  -1 -14   6   18.60    7.20
  -1 -14   6   27.10    6.20
  -1 -14   6   18.50    8.30
   0  14  -6   14.50    5.90
   0  14  -6   14.60    5.30
   0  14  -6   14.90    6.90
   0 -14   6    8.50    6.80
   0 -14   6    9.60    5.30
   0 -14   6    8.30    7.50
  -1  14  -6    6.50    6.50
  -1  14  -6    6.10    4.70
   1 -14   6    4.90    7.20
   1 -14   6   12.50    4.80
  -2  14  -6   12.70    6.40
  -2  14  -6   28.20    6.50
  -2  14  -6    7.90    4.70
   2 -14   6   21.50    5.10
   2 -14   6   12.10    7.80
   2 -14   6   17.00    7.60
  -3  14  -6    3.80    6.60
  -3  14  -6   -2.90    4.90
  -3  14  -6   -1.20    5.70
   3 -14   6  -10.20    7.40
   3 -14   6    2.00    6.50
   3 -14   6  -12.70    6.90
  -4  14  -6   36.10    7.90
  -4  14  -6   23.10    5.90
  -4  14  -6    3.20    6.90
   4 -14   6   26.20    8.90
   4 -14   6    6.80    7.70
   4  13  -6    9.30   10.10
   4  13  -6    9.30    5.60
   4  13  -6   -2.00    4.90
   4  13  -6    2.70   10.00
  -4 -13   6   -6.90    7.10
  -4 -13   6    7.80    6.80
   3  13  -6  144.49   15.60
   3  13  -6  100.79    9.30
   3  13  -6  152.88   15.90
  -3 -13   6  135.49   12.10
  -3 -13   6  136.09   14.60
  -3 -13   6  114.09   10.10
   2  13  -6   38.20    8.70
   2  13  -6   39.20    6.80
   2  13  -6   20.90    7.80
  -2 -13   6   19.20    6.40
  -2 -13   6   35.00   10.50
  -2 -13   6   33.10    6.60
   1  13  -6   10.60    5.90
   1  13  -6    6.60    6.00
   1  13  -6    7.00    7.20
  -1 -13   6   19.70    5.90
  -1 -13   6    4.20    6.00
  -1 -13   6   11.60    7.30
   0  13  -6    5.00    5.20
   0  13  -6    0.50    6.20
   0 -13   6   -5.60    4.50
   0 -13   6   -5.80    6.60
   0 -13   6    9.70    6.30
  -1  13  -6  197.18   11.10
  -1  13  -6  216.38   14.10
  -1  13  -6  207.88   13.10
   1 -13   6  174.98   11.90
   1 -13   6  185.28   14.50
   1 -13   6  184.98   15.50
  -2  13  -6    4.10    4.50
  -2  13  -6    6.80    5.90
   2 -13   6   -2.90    7.40
   2 -13   6    0.30    7.90
   2 -13   6   -5.10    4.60
  -3  13  -6   -4.40    4.40
  -3  13  -6    0.60    5.60
  -3  13  -6    7.40    6.80
   3 -13   6   -1.90    7.40
   3 -13   6   -1.80    5.20
   3 -13   6  -11.60    6.30
  -4  13  -6    0.70    6.50
  -4  13  -6    1.60    6.30
  -4  13  -6  -11.80    5.10
   4 -13   6    9.40    7.10
   4 -13   6    6.60    5.10
   4 -13   6    5.30    8.10
  -5  13  -6  -14.60    6.70
   5 -13   6   12.60    8.50
   5 -13   6    6.90    7.80
   5  12  -6   -4.00    5.60
   5  12  -6    1.60   10.90
  -5 -12   6  -11.30    7.10
   4  12  -6  211.58   18.90
   4  12  -6  238.08   18.70
   4  12  -6  199.08   12.50
  -4 -12   6  179.28   14.70
  -4 -12   6  197.08   16.10
   3  12  -6   14.40    5.70
   3  12  -6   13.60    9.20
   3  12  -6   16.50    9.00
  -3 -12   6   21.20    9.20
  -3 -12   6   16.30    5.10
   2  12  -6    4.90    3.00
   2  12  -6    9.00    4.00
   2  12  -6    8.40    7.10
   2  12  -6    3.60    7.20
   2  12  -6   13.70    5.60
  -2 -12   6   13.80    7.00
  -2 -12   6    4.50    6.50
  -2 -12   6   19.20    6.10
   1  12  -6    7.60    5.20
   1  12  -6   -2.40    6.10
  -1 -12   6    0.40    5.10
  -1 -12   6    0.90    5.60
  -1 -12   6    6.40    6.60
   0  12  -6  201.88   11.80
   0  12  -6  221.38   14.30
   0  12  -6  228.08   13.20
   0 -12   6  206.58   15.10
   0 -12   6  187.88   12.50
   0 -12   6  208.68   13.60
  -1  12  -6    7.30    4.00
  -1  12  -6   -1.70    4.90
  -1  12  -6    7.00    5.90
   1 -12   6    6.90    6.50
   1 -12   6    9.20    6.00
  -2  12  -6  226.28   11.70
  -2  12  -6  241.98   14.30
  -2  12  -6  220.78   13.70
   2 -12   6  206.08   18.30
   2 -12   6  201.18   15.00
   2 -12   6  208.38   16.20
  -3  12  -6   15.50    5.60
  -3  12  -6   11.20    6.10
   3 -12   6   14.40    7.50
   3 -12   6    1.40    5.60
  -4  12  -6   19.80    5.30
  -4  12  -6   27.90    7.30
  -4  12  -6   24.30    6.70
   4 -12   6   28.50    6.10
   4 -12   6   24.90    7.90
   4 -12   6   16.20    8.10
  -5  12  -6   -7.10    6.80
   5 -12   6   -7.10    7.40
   5 -12   6   12.00    7.80
   5 -12   6   -6.80    5.70
   5  11  -6   19.00   11.30
   5  11  -6   15.50    5.60
   5  11  -6   22.80   11.40
  -5 -11   6   -0.60    7.30
  -5 -11   6   14.80    7.60
   4  11  -6   32.30   10.60
   4  11  -6   21.20    5.80
   4  11  -6   19.40    9.70
  -4 -11   6   33.30    8.20
  -4 -11   6   19.00    7.50
   3  11  -6  -10.20    9.20
   3  11  -6    3.10    5.10
   3  11  -6   -1.30    7.70
  -3 -11   6    0.40    4.40
  -3 -11   6    4.40    6.70
  -3 -11   6    6.60    5.90
   2  11  -6   -4.30    6.30
   2  11  -6   -7.40    4.60
   2  11  -6    6.60    7.30
   2  11  -6    2.80    3.70
  -2 -11   6   -0.40    4.50
  -2 -11   6    3.80    6.10
  -2 -11   6    5.70    5.50
   1  11  -6   14.90    6.60
   1  11  -6   19.10    5.40
   1  11  -6   23.70    5.90
  -1 -11   6   20.90    5.50
  -1 -11   6   17.90    5.20
  -1 -11   6   14.40    6.40
   0  11  -6   61.99    6.90
   0  11  -6   63.99    6.00
   0  11  -6   55.09    7.50
   0 -11   6   56.29    7.60
   0 -11   6   56.49    6.50
   0 -11   6   66.89    7.50
  -1  11  -6   68.09    7.80
  -1  11  -6   67.99    6.70
  -1  11  -6   61.99    7.10
   1 -11   6   83.89    7.60
   1 -11   6   56.49    7.50
   1 -11   6   65.69    8.20
   1 -11   6   65.69   10.00
  -2  11  -6   35.30    4.50
  -2  11  -6   31.00    6.00
  -2  11  -6   17.80    5.70
   2 -11   6   22.60    6.20
   2 -11   6   16.40    5.50
   2 -11   6   23.30    6.80
  -3  11  -6    9.20    5.10
  -3  11  -6   -9.00    3.80
  -3  11  -6    3.70    5.70
   3 -11   6   -4.50    5.50
   3 -11   6    5.80    6.60
   3 -11   6   -2.20    6.60
  -4  11  -6    1.90    5.80
  -4  11  -6    5.80    5.80
  -4  11  -6    5.80    4.50
   4 -11   6   -2.90    7.00
   4 -11   6    5.10    5.80
   4 -11   6    8.80    6.80
  -5  11  -6    3.80    6.80
   5 -11   6    6.20    6.30
   5 -11   6   12.20    7.90
   5 -11   6   -0.40    8.10
   6 -11   6    1.30    7.90
   6 -11   6    3.70    8.40
   6 -11   6   15.30    7.80
   6 -11   6    2.80    7.60
   5  10  -6   -9.10    9.80
   5  10  -6  -19.50   10.80
  -5 -10   6    1.30    6.70
  -5 -10   6   11.90    7.90
  -5 -10   6   -3.30    6.80
   4  10  -6   19.50    9.40
   4  10  -6   14.70    5.60
   4  10  -6   11.10    9.80
  -4 -10   6   13.10    6.20
  -4 -10   6   17.90    6.90
  -4 -10   6   -4.80    6.20
   3  10  -6   53.49    9.90
   3  10  -6   51.59    6.50
   3  10  -6   67.69    8.80
  -3 -10   6   60.89    7.70
  -3 -10   6   65.09    8.10
  -3 -10   6   52.29    6.90
  -3 -10   6   60.89    7.80
  -3 -10   6   55.89    7.70
   2  10  -6   68.89    8.90
   2  10  -6   59.89    8.20
   2  10  -6   65.99    8.30
   2  10  -6   46.40    5.40
  -2 -10   6   51.99    7.80
  -2 -10   6   53.89    6.50
  -2 -10   6   56.19    7.20
  -2 -10   6   63.99    6.30
   1  10  -6   10.60    4.90
   1  10  -6   10.80    5.30
   1  10  -6   15.20    6.10
  -1 -10   6    5.90    5.00
  -1 -10   6   14.90    6.00
  -1 -10   6   12.40    5.00
   0  10  -6    5.90    4.70
   0  10  -6   -1.20    5.10
   0  10  -6   -2.20    4.00
   0 -10   6    8.10    4.80
   0 -10   6    0.30    5.60
   0 -10   6   -0.10    2.90
  -1  10  -6  114.29    9.40
  -1  10  -6  101.99    7.30
  -1  10  -6  102.89   10.10
   1 -10   6  122.79    9.70
   1 -10   6  103.09   11.00
   1 -10   6  106.49   10.20
  -2  10  -6  264.87   12.20
  -2  10  -6  288.37   14.60
  -2  10  -6  273.97   14.60
   2 -10   6  256.87   16.00
   2 -10   6  233.78   13.40
   2 -10   6  259.77   14.20
   2 -10   6  247.78   15.30
  -3  10  -6    0.00    4.70
  -3  10  -6    1.10    3.80
  -3  10  -6   -5.10    4.90
   3 -10   6   -1.50    5.40
   3 -10   6    8.00    6.30
  -4  10  -6   -0.70    5.40
  -4  10  -6    2.20    5.30
   4 -10   6    4.80    6.20
   4 -10   6    0.60    5.40
   4 -10   6    5.90    6.90
   5 -10   6   -0.80    6.90
   5 -10   6   -6.30    7.20
   5 -10   6   26.80   10.50
   5 -10   6   -2.60    6.00
   6 -10   6   -2.00    6.70
   6 -10   6   -5.50    6.60
   6 -10   6   -0.90    7.80
   6 -10   6   -0.50    7.60
   6 -10   6  -14.10    7.20
   6   9  -6   12.70   12.60
   6   9  -6   -9.00   10.30
  -6  -9   6    3.00    7.50
   5   9  -6    8.40    5.80
   5   9  -6    1.20    9.80
   5   9  -6   -1.50   10.60
  -5  -9   6   -5.00   10.20
  -5  -9   6    7.10    6.70
  -5  -9   6   -4.10    6.20
   4   9  -6   96.89    9.50
   4   9  -6   76.49   10.10
   4   9  -6   68.09   11.60
  -4  -9   6   85.89   10.90
  -4  -9   6   71.89    8.70
  -4  -9   6   72.19    9.40
   3   9  -6   25.90    7.50
   3   9  -6   17.80    8.50
   3   9  -6   27.50    6.00
  -3  -9   6   23.40    5.50
  -3  -9   6    8.00    5.90
  -3  -9   6   16.70    3.50
  -3  -9   6   14.40    3.90
  -3  -9   6   28.30    6.70
   2   9  -6   -2.80    5.80
   2   9  -6   -3.40    7.00
   2   9  -6   -2.00    3.50
   2   9  -6   -3.80    4.60
  -2  -9   6   -2.30    3.80
  -2  -9   6   -5.60    5.20
  -2  -9   6    3.60    3.70
  -2  -9   6   -4.70    4.90
  -2  -9   6   -1.90    3.70
   1   9  -6  234.88   12.80
   1   9  -6  211.88   10.80
   1   9  -6  230.78   14.50
   1   9  -6  229.68   13.10
  -1  -9   6  236.08   10.70
  -1  -9   6  234.08   13.10
  -1  -9   6  237.28   12.60
  -1  -9   6  236.38   14.20
  -1  -9   6  225.48   11.00
   0   9  -6   48.30    6.40
   0   9  -6   41.70    5.70
   0   9  -6   55.49    6.80
   0  -9   6   42.70    6.10
   0  -9   6   44.00    5.00
   0  -9   6   41.50    5.90
   0  -9   6   53.39    7.10
  -1   9  -6   37.90    5.60
  -1   9  -6   43.50    6.20
  -1   9  -6   44.90    5.30
   1  -9   6   56.49    6.40
   1  -9   6   37.50    5.80
   1  -9   6   43.40    6.60
   1  -9   6   46.30    6.30
  -2   9  -6    3.00    4.50
  -2   9  -6   -6.30    3.00
  -2   9  -6    2.50    4.20
   2  -9   6    3.10    5.20
   2  -9   6    2.40    5.10
   2  -9   6   -2.70    4.10
   2  -9   6    6.20    4.90
  -3   9  -6   66.39    6.60
  -3   9  -6   78.19    8.80
  -3   9  -6   58.89    6.80
   3  -9   6   58.79    7.70
   3  -9   6   52.09    6.90
   3  -9   6   59.49    7.30
   3  -9   6   49.40    7.10
  -4   9  -6   75.19    9.70
  -4   9  -6   87.09   10.00
   4  -9   6   92.39   11.30
   4  -9   6   80.49    7.90
   4  -9   6   92.69    7.70
   4  -9   6   94.79   11.80
  -5   9  -6  142.59   12.50
   5  -9   6  122.39   10.70
   5  -9   6  132.59   13.90
   5  -9   6  109.09   12.50
   5  -9   6  139.99   11.60
   6  -9   6   15.80    8.10
   6  -9   6    2.20    7.30
   6  -9   6    6.80    7.70
   6  -9   6   -4.70    8.40
   6  -9   6   -3.90    6.60
   6  -9   6   15.80    8.60
   6  -9   6    9.70    6.80
   6   8  -6    9.10   10.40
   6   8  -6   13.60    6.10
   6   8  -6   -3.40   11.60
  -6  -8   6   -5.20    5.90
  -6  -8   6   -5.80    7.10
  -6  -8   6   10.20    7.30
   5   8  -6    8.90   10.40
   5   8  -6   -2.30    5.60
  -5  -8   6    6.00    6.90
  -5  -8   6   -1.10    5.60
  -5  -8   6    8.50    7.10
   4   8  -6   37.40    8.50
   4   8  -6   54.69    7.00
   4   8  -6   55.29   10.00
  -4  -8   6   42.80    7.20
  -4  -8   6   42.10    6.80
  -4  -8   6   52.39    7.00
   3   8  -6  141.39   12.00
   3   8  -6  146.59   14.60
   3   8  -6  142.89   11.10
  -3  -8   6  141.19   11.30
  -3  -8   6  157.38   11.70
   2   8  -6  157.28   11.60
   2   8  -6  125.79    9.50
   2   8  -6  167.68   13.80
   2   8  -6  176.28   11.20
  -2  -8   6  172.68    9.60
  -2  -8   6  152.38   14.40
  -2  -8   6  179.98    9.70
  -2  -8   6  158.78   11.30
  -2  -8   6  154.18    9.00
   1   8  -6   69.89    8.50
   1   8  -6   60.79    6.20
   1   8  -6   69.99    8.20
  -1  -8   6   75.99    7.50
  -1  -8   6   50.89    7.40
  -1  -8   6   65.79    5.60
  -1  -8   6   54.89    6.70
   0   8  -6  312.87   14.00
   0   8  -6  313.27   15.90
   0   8  -6  318.87   15.40
   0  -8   6  305.67   13.40
   0  -8   6  316.17   21.00
   0  -8   6  306.77   15.70
  -1   8  -6    8.90    4.60
  -1   8  -6    5.00    4.30
   1  -8   6   11.50    5.20
   1  -8   6   11.20    5.10
  -2   8  -6   86.39    8.30
  -2   8  -6   93.29    8.60
  -2   8  -6   83.29    6.10
   2  -8   6   78.99   10.10
   2  -8   6   77.09    9.50
   2  -8   6  103.29    8.00
  -3   8  -6   15.20    3.70
  -3   8  -6   23.20    5.10
  -3   8  -6   21.90    4.80
   3  -8   6   24.20    6.10
   3  -8   6   21.20    5.40
   3  -8   6    7.50    3.70
   3  -8   6    9.60    3.10
   3  -8   6   21.20    4.00
  -4   8  -6   57.39    6.80
  -4   8  -6   60.29    6.70
   4  -8   6   54.09    7.60
   4  -8   6   42.90    5.70
   4  -8   6   42.00    7.10
   4  -8   6   48.70    6.80
   5  -8   6   10.80    7.10
   5  -8   6   10.10    6.30
   5  -8   6   21.80    6.50
   5  -8   6   12.80    7.30
   5  -8   6   12.70    5.80
   6  -8   6    1.40    6.80
   6  -8   6    2.20    7.90
   6  -8   6    2.10    7.40
   6  -8   6   -2.40    7.20
   6  -8   6    9.70    7.10
   6  -8   6   -2.60    7.20
   6  -8   6   10.40    7.60
   6   7  -6    1.50    9.70
   6   7  -6    7.70    6.60
   6   7  -6    3.30   11.40
  -6  -7   6    0.50    7.00
  -6  -7   6   13.40    7.60
  -6  -7   6    3.40    5.70
   5   7  -6  107.29   11.10
   5   7  -6  106.79   13.00
   5   7  -6  117.59   14.70
  -5  -7   6  121.59   10.40
  -5  -7   6  105.09   11.80
   4   7  -6   -7.90    5.50
   4   7  -6    1.40    6.80
   4   7  -6   -1.90    7.80
  -4  -7   6   -3.70    5.10
  -4  -7   6    3.70    5.60
  -4  -7   6   -2.70    4.80
   3   7  -6   16.30    7.50
   3   7  -6   10.50    6.50
   3   7  -6    7.10    6.40
  -3  -7   6    7.90    5.40
  -3  -7   6   13.60    5.30
  -3  -7   6   21.80    5.70
   2   7  -6  101.29    9.20
   2   7  -6   70.19    8.00
   2   7  -6   67.19    7.60
   2   7  -6  113.89   12.10
   2   7  -6   89.09    9.30
  -2  -7   6   89.99    6.60
  -2  -7   6   95.79    9.70
  -2  -7   6   91.29    7.40
  -2  -7   6   99.99    9.30
  -2  -7   6   88.69    7.30
   1   7  -6   79.89    7.80
   1   7  -6   77.69    6.60
   1   7  -6   87.09    8.20
   1   7  -6   99.49   10.50
  -1  -7   6   86.69    6.00
  -1  -7   6   78.39    8.90
  -1  -7   6   81.79    8.60
  -1  -7   6   75.29    6.70
   0   7  -6   68.89    7.10
   0   7  -6   77.39    8.10
   0   7  -6   87.89    7.50
   0  -7   6   85.99    8.50
   0  -7   6   73.09    8.30
  -1   7  -6 1030.10   41.40
  -1   7  -6  975.50   41.10
  -1   7  -6 1002.60   41.20
   1  -7   6 1023.50   41.20
   1  -7   6 1018.70   41.70
  -2   7  -6  492.65   22.10
  -2   7  -6  584.04   25.60
  -2   7  -6  477.45   21.70
  -2   7  -6  512.55   22.70
   2  -7   6  493.45   20.70
   2  -7   6  517.85   23.40
   2  -7   6  500.25   21.10
   2  -7   6  508.75   22.40
   2  -7   6  485.15   21.00
  -3   7  -6   25.40    5.40
  -3   7  -6   33.80    5.10
  -3   7  -6   34.60    4.90
   3  -7   6   23.40    4.40
   3  -7   6   21.00    5.50
   3  -7   6   34.50    5.80
   3  -7   6   26.50    3.80
   3  -7   6   35.60    6.50
  -4   7  -6   18.00    5.30
  -4   7  -6   21.70    5.30
   4  -7   6    8.90    4.80
   4  -7   6   16.20    5.70
   4  -7   6   10.20    6.10
   5  -7   6   18.10    6.00
   5  -7   6   35.10    7.50
   5  -7   6   22.50    7.30
   5  -7   6   24.60    6.50
   5  -7   6   32.60    6.60
   6  -7   6   12.10    7.10
   6  -7   6   20.60    7.80
   6  -7   6    0.00    7.60
   6  -7   6   -7.90    7.40
   6  -7   6   -6.30    7.00
   6  -7   6   -1.30    6.80
   6  -7   6    8.40    8.30
   7  -7   6   18.30    8.90
   7  -7   6    5.10    8.30
   7  -7   6   11.50    7.60
   7  -7   6    9.70    8.10
  -7  -6   6    1.40    8.20
   6   6  -6   33.00    7.80
   6   6  -6   31.40   11.90
   6   6  -6   46.80   10.40
  -6  -6   6   31.00    5.90
  -6  -6   6   18.60    7.90
  -6  -6   6   27.10    8.30
   5   6  -6    4.90    6.50
   5   6  -6    9.90   11.00
   5   6  -6   16.60    8.50
  -5  -6   6   -2.20    6.30
  -5  -6   6   10.30    6.60
   4   6  -6   29.50    8.60
   4   6  -6   29.90    7.20
   4   6  -6   31.50    6.50
  -4  -6   6   27.20    5.30
  -4  -6   6   29.50    6.40
  -4  -6   6   28.40    5.90
   3   6  -6   57.79    6.80
   3   6  -6   54.59    6.70
   3   6  -6   53.99    8.30
  -3  -6   6   45.00    5.90
  -3  -6   6   48.20    6.60
  -3  -6   6   53.79    6.00
   2   6  -6   -1.00    6.00
   2   6  -6   -3.40    4.60
   2   6  -6   -0.20    4.40
   2   6  -6    2.90    3.30
   2   6  -6    1.10    3.60
  -2  -6   6   -2.30    3.40
  -2  -6   6    2.60    3.00
  -2  -6   6    3.40    5.10
  -2  -6   6    3.80    4.60
   1   6  -6   22.80    3.50
   1   6  -6   13.40    4.30
   1   6  -6   20.40    3.50
   1   6  -6   15.60    2.70
   1   6  -6   17.70    5.40
   1   6  -6   21.00    3.90
  -1  -6   6   18.10    4.70
  -1  -6   6   18.90    4.40
  -1  -6   6   14.80    3.40
  -1  -6   6   20.70    3.50
   0   6  -6    3.60    2.50
   0   6  -6    4.60    3.50
   0   6  -6    4.90    3.40
   0   6  -6    4.20    3.90
   0  -6   6    3.70    3.90
   0  -6   6    0.00    4.20
   0  -6   6    2.10    4.10
   0  -6   6    2.70    4.30
  -1   6  -6   14.30    3.90
  -1   6  -6   15.00    4.00
  -1   6  -6   16.60    3.70
   1  -6   6   11.90    4.20
   1  -6   6   18.60    4.70
   1  -6   6   17.20    4.10
   1  -6   6   16.30    5.20
  -2   6  -6   19.20    4.00
  -2   6  -6   12.60    4.40
  -2   6  -6   11.80    4.00
   2  -6   6   13.60    5.10
   2  -6   6   12.30    3.00
   2  -6   6   16.70    5.50
   2  -6   6   14.90    3.70
   2  -6   6   10.90    4.50
  -3   6  -6    3.20    4.60
  -3   6  -6    1.30    3.80
  -3   6  -6   -5.60    3.80
   3  -6   6   -3.70    4.60
   3  -6   6    1.60    3.00
   3  -6   6    1.40    5.30
   3  -6   6    1.50    4.00
  -4   6  -6   25.00    5.70
  -4   6  -6   31.80    5.40
   4  -6   6   27.00    5.50
   4  -6   6   35.30    5.80
   4  -6   6   22.20    6.50
   4  -6   6   35.60    5.40
   5  -6   6   10.70    5.60
   5  -6   6    9.80    6.70
   5  -6   6    9.30    5.80
   5  -6   6   11.10    5.80
   5  -6   6    8.70    6.70
   6  -6   6    5.10    6.80
   6  -6   6   -4.90   13.70
   6  -6   6   16.20    7.20
   6  -6   6   -4.60    6.50
   6  -6   6    2.20    7.00
   6  -6   6    5.60   11.40
   7  -6   6   21.70    8.50
   7  -6   6   30.80    8.20
   7  -6   6   33.00    7.90
   7  -6   6   26.70    9.30
   7  -6   6   30.60    7.90
   7  -6   6   18.90    7.60
   7  -6   6   52.29    9.20
   7   5  -6   -0.60   11.80
   7   5  -6    6.70   11.10
  -7  -5   6    3.30    9.60
   6   5  -6   20.00   11.30
   6   5  -6   25.90    9.70
   6   5  -6   18.40    7.40
  -6  -5   6    4.70    7.10
  -6  -5   6   13.20    4.80
  -6  -5   6    5.40    7.30
   5   5  -6  184.48   15.20
   5   5  -6  182.98   13.30
   5   5  -6  186.48   16.50
  -5  -5   6  197.98   13.60
  -5  -5   6  195.68   10.80
  -5  -5   6  140.29   13.10
   4   5  -6    2.80    7.30
   4   5  -6  -11.80    5.80
   4   5  -6    2.40    5.90
  -4  -5   6    5.30    5.40
  -4  -5   6    3.20    4.80
  -4  -5   6    0.50    3.90
   3   5  -6   15.90    7.00
   3   5  -6   12.10    3.50
   3   5  -6    6.20    5.20
   3   5  -6   10.70    5.60
  -3  -5   6   13.50    5.20
  -3  -5   6    8.40    4.40
  -3  -5   6    9.70    4.50
   2   5  -6   -0.30    2.90
   2   5  -6    4.00    4.40
   2   5  -6    0.30    3.80
   2   5  -6    0.10    3.30
   2   5  -6   -1.00    2.70
   2   5  -6   -4.30    5.10
   2   5  -6    0.50    2.90
  -2  -5   6   -4.50    2.70
  -2  -5   6    1.10    3.70
  -2  -5   6    2.30    3.50
  -2  -5   6    1.20    4.10
   1   5  -6   12.70    2.40
   1   5  -6   11.00    4.20
   1   5  -6   11.00    3.00
   1   5  -6   15.80    4.90
   1   5  -6   14.20    3.40
   1   5  -6   10.70    3.30
  -1  -5   6   14.50    3.10
  -1  -5   6   11.30    3.40
  -1  -5   6    9.40    3.40
  -1  -5   6   16.50    5.00
  -1  -5   6   12.90    4.20
   0   5  -6  184.88    9.70
   0   5  -6  168.78    9.70
   0   5  -6  174.78    9.90
   0   5  -6  175.68    8.80
   0   5  -6  156.88   10.90
   0  -5   6  162.18    9.30
   0  -5   6  171.98   10.20
   0  -5   6  196.98    9.00
   0  -5   6  187.28    9.90
   0  -5   6  191.48    9.90
  -1   5  -6   -2.20    3.20
  -1   5  -6    0.60    3.00
  -1   5  -6   -4.50    2.90
  -1   5  -6   -1.50    2.00
   1  -5   6    0.50    3.60
   1  -5   6   -1.80    3.60
   1  -5   6   -1.60    3.80
   1  -5   6   -4.00    2.90
  -2   5  -6   41.60    5.00
  -2   5  -6   42.60    4.70
  -2   5  -6   43.80    5.70
   2  -5   6   34.60    5.00
   2  -5   6   39.10    4.40
   2  -5   6   35.10    4.30
   2  -5   6   31.00    5.20
   2  -5   6   43.50    5.00
  -3   5  -6    0.00    3.50
  -3   5  -6    2.60    3.60
  -3   5  -6   -1.40    4.30
   3  -5   6    6.70    3.50
   3  -5   6   -3.30    4.20
   3  -5   6   -4.30    4.50
   3  -5   6    1.20    4.40
   3  -5   6   -0.10    3.90
  -4   5  -6    2.30    4.20
  -4   5  -6   -0.40    4.70
   4  -5   6    3.20    4.60
   4  -5   6    8.80    4.90
   4  -5   6   10.20    5.60
   5  -5   6   58.69    7.40
   5  -5   6   66.69    8.20
   5  -5   6   68.49    7.50
   5  -5   6   57.69    7.40
   5  -5   6   65.29    7.60
   6  -5   6   15.70    7.40
   6  -5   6   11.70    7.20
   6  -5   6    2.50    7.10
   6  -5   6    0.80   10.50
   6  -5   6   12.10    6.50
   6  -5   6    8.30    7.70
   7  -5   6   19.90    7.90
   7  -5   6   14.70    7.90
   7  -5   6   15.00    8.40
   7  -5   6   14.80    7.20
   7  -5   6   14.90    8.40
   7  -5   6   12.50    8.10
   7   4  -6    7.70   12.00
   7   4  -6    5.30   10.20
  -7  -4   6    0.40    7.80
  -7  -4   6   11.80    8.60
   6   4  -6   20.60   10.30
   6   4  -6    5.80    8.90
   6   4  -6   -0.70    7.50
  -6  -4   6   15.10    7.30
  -6  -4   6    5.40    7.20
  -6  -4   6    2.00    3.80
   5   4  -6   12.90    8.50
   5   4  -6   10.40    6.80
   5   4  -6    6.30    7.40
   5   4  -6   12.10    3.30
  -5  -4   6    0.50    3.40
  -5  -4   6   10.00    6.10
  -5  -4   6   12.70    6.30
   4   4  -6   17.70    6.40
   4   4  -6   18.30    6.40
   4   4  -6   11.10    7.40
   4   4  -6   10.90    3.10
  -4  -4   6   19.40    3.90
  -4  -4   6   10.50    5.30
  -4  -4   6   19.00    5.60
   3   4  -6   12.10    8.30
   3   4  -6    4.90    5.50
   3   4  -6    8.20    4.80
  -3  -4   6   11.10    4.60
  -3  -4   6   11.40    3.90
  -3  -4   6    8.20    5.10
   2   4  -6  229.38   13.20
   2   4  -6  273.17   11.90
   2   4  -6  230.98   12.00
   2   4  -6  277.87   12.60
   2   4  -6  286.57   13.60
   2   4  -6  293.47   14.40
  -2  -4   6  263.67   11.80
  -2  -4   6  273.37   12.70
  -2  -4   6  274.67   13.40
  -2  -4   6  274.97   13.10
   1   4  -6    5.30    3.10
   1   4  -6    8.90    2.10
   1   4  -6    7.20    4.00
   1   4  -6    3.90    3.80
   1   4  -6    3.70    3.10
   1   4  -6    8.40    2.50
  -1  -4   6    5.00    2.70
  -1  -4   6    6.90    3.60
  -1  -4   6    8.80    4.40
  -1  -4   6    8.40    3.00
  -1  -4   6    5.60    3.40
  -1  -4   6   10.80    3.20
   0   4  -6  201.78   10.00
   0   4  -6  191.88   10.20
   0   4  -6  200.78   10.20
   0   4  -6  188.78    9.70
   0   4  -6  200.08    9.60
   0  -4   6  196.38   10.10
   0  -4   6  188.38   10.20
   0  -4   6  190.68    9.80
   0  -4   6  179.28    9.70
   0  -4   6  220.88   10.00
   0  -4   6  193.58   10.50
   0  -4   6  208.18   10.40
  -1   4  -6  292.37   12.80
  -1   4  -6  280.57   12.60
  -1   4  -6  282.67   13.30
  -1   4  -6  277.87   12.90
  -1   4  -6  291.17   13.50
   1  -4   6  280.07   13.40
   1  -4   6  303.67   13.20
   1  -4   6  281.97   13.20
   1  -4   6  295.27   13.60
   1  -4   6  302.07   13.90
  -2   4  -6   -3.80    2.70
  -2   4  -6    2.40    2.90
  -2   4  -6    1.00    3.50
   2  -4   6    3.40    3.80
   2  -4   6   -2.30    2.30
   2  -4   6    0.40    3.10
   2  -4   6    1.30    2.80
   2  -4   6    2.10    2.20
  -3   4  -6   69.59    8.50
  -3   4  -6   70.49    6.80
  -3   4  -6   79.59    7.30
   3  -4   6   80.29    7.00
   3  -4   6   78.99    8.20
   3  -4   6   71.79    8.30
   3  -4   6   83.79    7.00
  -4   4  -6   72.69    8.00
  -4   4  -6   72.89    8.10
  -4   4  -6   93.79    9.10
   4  -4   6   73.49    7.30
   4  -4   6   73.79    8.60
   4  -4   6   94.69    8.70
  -5   4  -6    6.00    5.30
   5  -4   6   20.90    5.90
   5  -4   6   18.10    6.00
   5  -4   6   20.10    6.00
   5  -4   6   13.50    6.20
   6  -4   6   -6.40    6.70
   6  -4   6   11.70    8.50
   6  -4   6   11.40    6.10
   6  -4   6    6.20    6.50
   6  -4   6   20.90    7.90
   7  -4   6   -4.80    7.40
   7  -4   6   -7.70    7.60
   7  -4   6    9.10    6.80
   7  -4   6   19.90    7.10
   7  -4   6    1.30    8.20
   7  -4   6   11.10    8.00
   7  -4   6  -11.70    6.60
   7   3  -6   37.80   11.00
   7   3  -6   21.70   12.10
   7   3  -6   15.80    9.10
  -7  -3   6   15.80    8.50
  -7  -3   6   30.80    8.50
   6   3  -6   25.10   10.30
   6   3  -6   43.50   10.00
   6   3  -6   20.30    8.30
  -6  -3   6   16.50    7.70
  -6  -3   6   39.30    8.10
   5   3  -6   33.50    7.70
   5   3  -6   34.60    7.90
   5   3  -6   17.50    8.50
   5   3  -6   18.30    2.90
  -5  -3   6   27.10    6.40
  -5  -3   6   26.70    3.40
  -5  -3   6   12.60    6.30
   4   3  -6    1.60    6.00
   4   3  -6   16.40    6.10
   4   3  -6   20.00    7.10
   4   3  -6    6.70    2.50
  -4  -3   6    9.40    5.10
  -4  -3   6    4.00    4.80
  -4  -3   6    8.80    3.00
   3   3  -6   18.90    6.30
   3   3  -6   21.00    2.90
   3   3  -6   24.00    3.10
   3   3  -6   29.60    5.20
   3   3  -6   24.70    5.90
  -3  -3   6   21.10    5.00
  -3  -3   6   29.20    3.60
  -3  -3   6   17.00    4.90
   2   3  -6   21.50    3.40
   2   3  -6   15.40    5.10
   2   3  -6   14.80    2.90
   2   3  -6   17.10    4.70
   2   3  -6   13.70    2.60
   2   3  -6   19.20    5.00
  -2  -3   6   19.00    4.00
  -2  -3   6   15.30    4.10
  -2  -3   6   11.20    3.00
  -2  -3   6   16.40    3.10
   1   3  -6   78.69    4.70
   1   3  -6   66.79    6.20
   1   3  -6   66.09    6.90
   1   3  -6   58.09    6.00
   1   3  -6   71.19    6.80
   1   3  -6   72.19    5.60
  -1  -3   6   73.49    5.60
  -1  -3   6   62.79    6.70
  -1  -3   6   72.39    5.70
  -1  -3   6   74.59    6.30
  -1  -3   6   68.89    5.20
  -1  -3   6   65.79    6.50
  -1  -3   6   71.89    6.70
   0   3  -6   27.50    3.40
   0   3  -6   19.50    3.80
   0   3  -6   22.70    3.70
   0   3  -6   29.10    3.60
   0   3  -6   23.90    3.30
   0  -3   6   24.90    4.20
   0  -3   6   26.90    3.70
   0  -3   6   27.10    3.90
   0  -3   6   21.70    3.80
   0  -3   6   33.20    3.60
   0  -3   6   23.60    3.80
  -1   3  -6  142.19    8.50
  -1   3  -6  144.09    7.40
  -1   3  -6  137.19    8.10
  -1   3  -6  140.09    7.50
   1  -3   6  144.09    7.50
   1  -3   6  130.59    7.80
   1  -3   6  130.59    8.00
   1  -3   6  141.09    8.30
   1  -3   6  134.59    8.20
   1  -3   6  154.08    8.70
  -2   3  -6  154.68    8.70
  -2   3  -6  165.88    9.40
  -2   3  -6  165.18    9.50
  -2   3  -6  152.48    7.90
   2  -3   6  164.08    7.80
   2  -3   6  174.78    9.40
   2  -3   6  151.58    8.00
   2  -3   6  158.58    8.90
   2  -3   6  165.18    9.30
  -3   3  -6   18.10    4.50
  -3   3  -6   16.30    3.60
  -3   3  -6    9.20    5.30
   3  -3   6   23.50    4.30
   3  -3   6   13.40    4.70
   3  -3   6   13.80    3.80
   3  -3   6   16.70    4.80
   3  -3   6    8.50    3.20
  -4   3  -6  107.69    9.50
  -4   3  -6  123.69    8.50
  -4   3  -6  106.39   10.40
   4  -3   6  102.79    9.60
   4  -3   6  114.49    9.70
   4  -3   6  115.49    8.60
   4  -3   6  105.19    9.60
  -5   3  -6   16.00    6.10
  -5   3  -6    6.70    5.20
   5  -3   6   12.80    6.30
   5  -3   6   17.70    5.60
   5  -3   6    6.30    5.70
   5  -3   6    5.50    5.70
  -6   3  -6   10.10    7.30
   6  -3   6    2.90    8.70
   6  -3   6   18.40    7.20
   6  -3   6    6.70    5.70
   6  -3   6   11.40    7.80
   6  -3   6    6.50    7.20
   7  -3   6  -17.20    8.20
   7  -3   6   11.90    7.70
   7  -3   6   10.30    8.00
   7  -3   6    2.70    7.10
   7   2  -6   21.10   11.40
   7   2  -6   22.30    9.50
   7   2  -6   43.80   10.90
  -7  -2   6   20.70    8.30
  -7  -2   6   33.90    8.30
   6   2  -6    4.40    8.70
   6   2  -6    5.20    8.00
   6   2  -6    4.90    9.50
  -6  -2   6    4.10    6.60
  -6  -2   6   -4.30    6.60
   5   2  -6   44.90    8.30
   5   2  -6   45.60    8.50
   5   2  -6   43.30    7.90
  -5  -2   6   41.20    6.60
  -5  -2   6   30.80    6.90
   4   2  -6   34.00    7.10
   4   2  -6   32.40    6.70
  -4  -2   6   29.20    5.80
  -4  -2   6   33.00    5.60
   3   2  -6    6.10    5.10
   3   2  -6    9.30    5.30
   3   2  -6   12.10    5.50
  -3  -2   6    3.60    4.10
  -3  -2   6    7.90    2.50
  -3  -2   6    1.90    4.20
  -3  -2   6    8.70    3.00
   2   2  -6  688.33   29.20
   2   2  -6  695.13   29.30
   2   2  -6  667.33   28.90
   2   2  -6  716.63   28.30
  -2  -2   6  725.13   29.10
  -2  -2   6  732.03   28.70
  -2  -2   6  693.83   29.30
  -2  -2   6  661.73   27.90
  -2  -2   6  700.43   28.30
  -2  -2   6  731.73   29.50
   1   2  -6  164.58    9.10
   1   2  -6  158.18    8.30
   1   2  -6  139.49    8.50
   1   2  -6  145.09    9.10
   1   2  -6  159.38    7.50
  -1  -2   6  159.68    8.90
  -1  -2   6  162.68    8.20
  -1  -2   6  156.78    8.20
  -1  -2   6  152.48    7.70
  -1  -2   6  164.98    8.90
  -1  -2   6  162.18    8.90
  -1  -2   6  158.58    8.30
   0   2  -6  162.38    9.30
   0   2  -6  191.78    9.70
   0   2  -6  189.38    9.30
   0   2  -6  182.58    9.50
   0   2  -6  194.88    9.60
   0  -2   6  202.48    9.80
   0  -2   6  197.98    9.90
   0  -2   6  179.08    9.10
   0  -2   6  183.18    8.80
   0  -2   6  212.88   10.10
  -1   2  -6   -0.10    2.30
  -1   2  -6   -1.40    2.90
  -1   2  -6   -1.90    1.70
  -1   2  -6    0.20    2.50
  -1   2  -6    0.50    2.80
  -1   2  -6   -0.50    2.70
   1  -2   6   -2.40    3.00
   1  -2   6   -0.70    2.20
   1  -2   6   -3.60    3.00
   1  -2   6    1.20    2.70
   1  -2   6   -2.10    2.10
  -2   2  -6  125.79    8.20
  -2   2  -6  115.09    7.20
  -2   2  -6  137.49    8.30
   2  -2   6  116.29    6.30
   2  -2   6  123.79    8.40
   2  -2   6  122.99    7.70
   2  -2   6  118.79    8.10
   2  -2   6  128.89    6.80
   2  -2   6  119.29    7.60
  -3   2  -6  102.49    9.10
  -3   2  -6  117.69    8.70
  -3   2  -6  124.29    7.30
   3  -2   6  101.19    9.20
   3  -2   6  122.09    6.90
   3  -2   6  118.99    8.70
   3  -2   6   99.09    7.50
   3  -2   6  100.09    7.70
   3  -2   6  109.79    7.30
   3  -2   6  104.79    8.90
  -4   2  -6   44.40    6.00
  -4   2  -6   40.20    4.60
  -4   2  -6   50.29    6.20
   4  -2   6   51.49    5.70
   4  -2   6   53.69    6.50
   4  -2   6   53.69    6.40
   4  -2   6   46.60    6.40
  -5   2  -6   -1.70    5.10
  -5   2  -6    0.20    4.80
   5  -2   6    2.50    6.10
   5  -2   6    2.40    5.50
   5  -2   6   -1.20    5.40
   5  -2   6    0.70    4.40
  -6   2  -6   15.80    8.20
   6  -2   6   24.50    8.60
   6  -2   6   15.70    7.60
   6  -2   6   20.50    7.30
   6  -2   6   23.20    6.60
  -7   2  -6    4.80    7.70
   7  -2   6    4.10    7.70
   7  -2   6    3.60    9.00
   7  -2   6   -0.40    6.30
   7  -2   6   -0.10    7.70
   7  -2   6    1.60    8.60
   7   1  -6   -0.30    8.60
   7   1  -6    2.10   10.80
   7   1  -6   17.40   10.20
  -7  -1   6   -4.70    7.60
  -7  -1   6    9.80    6.70
   6   1  -6   -3.90    9.00
   6   1  -6    2.00    8.70
   6   1  -6    5.20    8.60
  -6  -1   6    7.90    6.00
  -6  -1   6    8.70    6.70
   5   1  -6   -1.70    7.20
   5   1  -6    4.60    7.00
  -5  -1   6    8.00    5.70
  -5  -1   6    9.60    5.20
   4   1  -6   -4.90    5.90
   4   1  -6   -2.40    6.10
  -4  -1   6   -2.30    4.60
  -4  -1   6    5.20    5.50
  -4  -1   6    1.20    4.40
   3   1  -6   13.70    5.60
   3   1  -6    9.30    3.30
   3   1  -6   19.30    5.40
  -3  -1   6    7.40    4.60
  -3  -1   6   11.80    4.70
  -3  -1   6   18.10    4.30
  -3  -1   6   19.10    3.40
   2   1  -6  109.09    8.80
   2   1  -6  124.99    7.50
   2   1  -6  122.79    8.80
   2   1  -6  107.69    8.00
  -2  -1   6  146.09    7.90
  -2  -1   6  134.79    8.30
  -2  -1   6  128.49    7.60
  -2  -1   6  158.38    8.10
  -2  -1   6  119.09    6.40
  -2  -1   6  120.79    8.60
  -2  -1   6  132.49    6.10
   1   1  -6   12.30    3.20
   1   1  -6   20.30    4.00
   1   1  -6   16.60    2.80
   1   1  -6   19.60    3.70
   1   1  -6   17.10    3.40
   1   1  -6   23.50    3.50
  -1  -1   6   26.70    3.20
  -1  -1   6   20.50    3.80
  -1  -1   6   19.80    3.30
  -1  -1   6   24.40    3.70
  -1  -1   6   24.90    2.90
  -1  -1   6   25.90    3.70
  -1  -1   6   28.60    3.70
  -1  -1   6   18.00    2.70
   0   1  -6  337.07   14.80
   0   1  -6  321.47   14.60
   0   1  -6  321.87   14.70
   0   1  -6  309.97   13.70
   0   1  -6  341.57   14.50
   0   1  -6  328.27   14.70
   0   1  -6  316.27   13.80
   0  -1   6  314.17   13.50
   0  -1   6  356.26   16.60
   0  -1   6  331.27   14.20
   0  -1   6  342.87   14.60
   0  -1   6  301.47   15.10
   0  -1   6  329.57   13.60
   0  -1   6  350.66   14.90
  -1   1  -6    2.50    2.60
  -1   1  -6    6.20    3.00
  -1   1  -6    4.20    2.10
  -1   1  -6    3.50    3.00
  -1   1  -6    3.50    2.60
   1  -1   6    3.80    2.80
   1  -1   6    6.60    3.10
   1  -1   6    7.00    3.00
   1  -1   6    2.40    2.40
   1  -1   6    4.00    2.60
   1  -1   6    4.80    3.30
  -2   1  -6   48.20    5.70
  -2   1  -6   48.60    5.90
  -2   1  -6   41.80    4.60
   2  -1   6   45.80    5.00
   2  -1   6   41.20    4.60
   2  -1   6   43.50    5.40
   2  -1   6   42.10    4.50
  -3   1  -6   57.59    7.70
  -3   1  -6   65.59    7.80
  -3   1  -6   73.19    5.70
   3  -1   6   62.79    6.20
   3  -1   6   65.49    8.40
   3  -1   6   64.39    6.70
   3  -1   6   68.39    8.40
   3  -1   6   67.39    5.30
   3  -1   6   57.09    8.20
  -4   1  -6   45.50    5.80
   4  -1   6   39.40    5.30
   4  -1   6   30.40    3.90
   4  -1   6   40.90    7.10
   4  -1   6   39.00    6.10
   4  -1   6   30.50    4.20
  -5   1  -6   32.50    6.30
  -5   1  -6   35.60    5.90
   5  -1   6   35.20    6.80
   5  -1   6   41.00    6.60
   5  -1   6   32.40    7.40
   5  -1   6   38.50    5.00
  -6   1  -6   35.80    6.70
   6  -1   6   39.20    7.70
   6  -1   6   60.39    5.90
   6  -1   6   38.70    9.90
   6  -1   6   34.50    8.30
  -7   1  -6    5.90    7.70
   7  -1   6    9.60    7.90
   7  -1   6    8.70    9.20
   7  -1   6   -2.70    7.10
   7  -1   6   -1.90    7.70
   7   0  -6    2.70    8.70
   7   0  -6    2.90   10.10
   7   0  -6    9.20   10.30
  -7   0   6   -2.40    7.50
  -7   0   6    6.00    6.30
   6   0  -6   11.20    9.00
   6   0  -6   21.50    8.60
   6   0  -6   -4.20    8.50
  -6   0   6   10.70    6.00
  -6   0   6   11.10    7.00
   5   0  -6   11.50    7.40
   5   0  -6   -1.10    6.80
  -5   0   6   -1.40    5.30
  -5   0   6    8.40    4.90
   4   0  -6    1.80    6.20
   4   0  -6    8.60    3.60
   4   0  -6    3.30    6.00
  -4   0   6    9.80    5.40
  -4   0   6    5.80    3.40
  -4   0   6   -2.40    4.70
  -4   0   6   -3.80    4.00
   3   0  -6    9.30    5.00
   3   0  -6   12.10    5.60
   3   0  -6    8.20    3.60
  -3   0   6    8.50    4.50
  -3   0   6   15.70    3.50
  -3   0   6   12.60    4.80
  -3   0   6    5.90    3.80
   2   0  -6  532.05   22.80
   2   0  -6  532.35   23.50
   2   0  -6  528.15   23.00
   2   0  -6  518.65   22.80
   2   0  -6  557.74   23.30
  -2   0   6  584.34   23.10
  -2   0   6  538.25   23.70
  -2   0   6  573.54   22.90
  -2   0   6  583.24   23.10
   1   0  -6  145.69    8.00
   1   0  -6  157.28    8.50
   1   0  -6  146.59    8.80
   1   0  -6  157.28    8.10
   1   0  -6  149.99    8.10
   1   0  -6  141.59    8.80
  -1   0   6  147.59    8.50
  -1   0   6  157.68    9.30
  -1   0   6  154.68    8.00
  -1   0   6  165.88    8.60
  -1   0   6  153.68    9.40
  -1   0   6  150.28    7.30
   0   0  -6 1016.40   41.90
   0   0  -6 1095.19   42.60
   0   0  -6 1057.49   42.20
   0   0  -6 1103.79   42.40
   0   0  -6 1037.80   42.60
   0   0  -6 1060.59   41.60
   0   0   6 1104.49   42.80
   0   0   6 1054.39   42.20
   0   0   6 1055.49   42.50
   0   0   6 1027.60   42.20
   0   0   6 1063.29   42.20
  -1   0  -6   42.00    5.50
  -1   0  -6   36.40    4.00
  -1   0  -6   39.40    5.00
  -1   0  -6   41.80    4.50
  -1   0  -6   44.30    5.00
   1   0   6   35.90    3.80
   1   0   6   40.20    4.50
   1   0   6   43.80    4.60
   1   0   6   44.60    4.90
   1   0   6   38.60    4.00
   1   0   6   41.30    4.20
   1   0   6   45.80    4.00
  -2   0  -6   35.90    4.60
  -2   0  -6   34.20    3.30
  -2   0  -6   34.10    4.40
  -2   0  -6   47.70    5.50
   2   0   6   36.20    3.80
   2   0   6   42.70    4.50
   2   0   6   37.00    4.70
   2   0   6   36.80    4.80
  -3   0  -6    4.60    2.50
  -3   0  -6    3.80    3.70
   3   0   6    5.50    5.50
   3   0   6    6.90    5.20
   3   0   6    6.10    3.30
   3   0   6    6.40    2.40
  -4   0  -6  105.39    9.60
  -4   0  -6  115.19   10.30
   4   0   6   99.89    8.60
   4   0   6  107.49   11.10
   4   0   6  115.69   10.10
   4   0   6  104.79    7.00
  -5   0  -6    9.90    5.60
  -5   0  -6   15.20    5.10
  -5   0  -6   12.60    5.50
   5   0   6   12.40    6.90
   5   0   6   21.70    6.40
   5   0   6   20.50    4.00
   5   0   6   20.70    6.10
  -6   0  -6   52.49    8.40
  -6   0  -6   56.09    7.00
   6   0   6   67.19    8.30
   6   0   6   42.80    8.90
  -7   0  -6    8.00    7.60
   7   0   6    3.20    9.50
   7   0   6    6.20    7.90
   7   0   6   11.60    8.30
   7  -1  -6   18.40   10.40
   7  -1  -6   17.90   10.80
   7  -1  -6   30.00   10.00
  -7   1   6   19.80    8.20
  -7   1   6   20.50    7.20
   6  -1  -6    1.40    8.60
   6  -1  -6   -7.90    8.00
  -6   1   6    2.10    6.50
  -6   1   6    3.30    5.50
   5  -1  -6   62.89    7.00
   5  -1  -6   66.59    9.10
   5  -1  -6   63.09    8.50
  -5   1   6   48.50    7.50
  -5   1   6   74.89    8.20
  -5   1   6   64.99    8.20
   4  -1  -6   15.90    4.40
   4  -1  -6   14.30    6.20
   4  -1  -6   11.00    6.10
  -4   1   6   13.50    4.20
  -4   1   6   24.10    4.70
  -4   1   6   17.20    5.30
  -4   1   6   15.30    5.90
   3  -1  -6   54.79    6.30
   3  -1  -6   60.89    7.40
   3  -1  -6   56.19    5.50
   3  -1  -6   54.29    6.70
  -3   1   6   53.99    6.70
  -3   1   6   68.29    8.00
  -3   1   6   48.90    6.10
  -3   1   6   75.39    6.80
   2  -1  -6  175.78    9.50
   2  -1  -6  177.28    9.00
   2  -1  -6  165.38    9.10
   2  -1  -6  170.98   10.20
   2  -1  -6  181.38    9.40
  -2   1   6  145.69    8.90
  -2   1   6  145.69    9.80
  -2   1   6  151.88    9.10
  -2   1   6  152.98    8.90
   1  -1  -6  717.93   29.30
   1  -1  -6  732.23   29.50
   1  -1  -6  736.63   29.50
   1  -1  -6  717.03   29.50
   1  -1  -6  694.83   30.10
   1  -1  -6  766.22   30.10
   1  -1  -6  731.33   30.00
   1  -1  -6  719.43   29.60
  -1   1   6  732.03   29.60
  -1   1   6  724.63   29.90
  -1   1   6  756.82   30.40
  -1   1   6  732.13   29.80
  -1   1   6  738.43   29.10
  -1   1   6  744.63   29.70
   0  -1  -6   48.50    4.80
   0  -1  -6   34.20    3.00
   0  -1  -6   28.70    3.80
   0  -1  -6   31.20    3.60
   0  -1  -6   43.60    5.60
   0  -1  -6   34.60    3.40
   0  -1  -6   40.00    4.40
   0  -1  -6   33.20    3.90
   0   1   6   34.90    4.40
   0   1   6   35.50    3.70
   0   1   6   30.90    4.50
   0   1   6   39.40    5.00
   0   1   6   32.50    3.90
   0   1   6   31.90    3.70
  -1  -1  -6  155.18    9.40
  -1  -1  -6  160.08    9.00
  -1  -1  -6  166.98    9.10
  -1  -1  -6  179.88    9.00
  -1  -1  -6  170.28    8.40
   1   1   6  170.48    9.70
   1   1   6  163.88    8.70
   1   1   6  164.48    8.30
   1   1   6  173.18    8.90
   1   1   6  159.78    8.40
   1   1   6  161.18    9.00
   1   1   6  174.78    9.40
  -2  -1  -6   32.80    4.10
  -2  -1  -6   41.30    4.80
  -2  -1  -6   44.70    5.00
  -2  -1  -6   48.90    4.40
   2   1   6   42.70    5.20
   2   1   6   44.00    4.80
   2   1   6   42.80    5.50
   2   1   6   42.50    5.10
  -3  -1  -6   99.09    7.70
  -3  -1  -6   90.69    8.10
  -3  -1  -6   86.09    8.60
   3   1   6   96.19   10.50
   3   1   6  103.39    9.40
   3   1   6   72.19    6.30
  -4  -1  -6  148.19   11.00
  -4  -1  -6  156.68   10.90
  -4  -1  -6  157.78   11.10
   4   1   6  153.18   12.40
   4   1   6  147.09   11.50
   4   1   6  151.38   10.10
  -5  -1  -6   30.10    5.50
  -5  -1  -6   36.20    6.40
  -5  -1  -6   30.90    6.40
   5   1   6   30.90    7.00
   5   1   6   38.60    8.50
   5   1   6   27.10    6.50
  -6  -1  -6   14.10    5.70
  -6  -1  -6   14.70    6.70
  -6  -1  -6   10.60    6.70
   6   1   6   11.70    9.30
   6   1   6   16.60    7.30
   6   1   6   11.90    7.50
  -7  -1  -6   44.90    8.30
   7   1   6   25.70   10.30
   7  -2  -6    2.30    9.90
   7  -2  -6   14.50    9.90
   7  -2  -6   30.10   10.40
  -7   2   6   -4.30    7.40
  -7   2   6    2.60    7.60
   6  -2  -6   36.90    5.20
   6  -2  -6   47.70   10.20
  -6   2   6   32.30    8.90
  -6   2   6   38.10    6.20
  -6   2   6   24.40    7.70
   5  -2  -6    3.80    4.70
   5  -2  -6    0.80    6.90
   5  -2  -6    6.30    6.90
  -5   2   6    2.90    6.30
  -5   2   6    1.80    5.60
  -5   2   6    0.70    4.30
   4  -2  -6   93.09    8.80
   4  -2  -6   94.99   10.80
   4  -2  -6   96.19   10.80
  -4   2   6   81.49    9.40
  -4   2   6   85.79    9.90
  -4   2   6  104.39    7.50
   3  -2  -6  440.16   19.70
   3  -2  -6  422.16   19.00
   3  -2  -6  440.76   20.10
  -3   2   6  439.66   20.10
  -3   2   6  420.06   19.30
  -3   2   6  452.35   18.90
   2  -2  -6  128.09    7.70
   2  -2  -6  128.39    8.40
   2  -2  -6  141.19    7.60
   2  -2  -6  126.59    9.00
   2  -2  -6  120.89    9.20
  -2   2   6  133.69    8.60
  -2   2   6  129.69    8.20
  -2   2   6  127.69    7.80
  -2   2   6  123.79    9.20
   1  -2  -6   15.20    4.90
   1  -2  -6   28.20    3.10
   1  -2  -6   25.30    2.90
   1  -2  -6   24.20    4.40
   1  -2  -6   32.90    3.90
   1  -2  -6   33.80    3.20
   1  -2  -6   31.70    3.40
   1  -2  -6   23.30    4.10
  -1   2   6   28.70    3.90
  -1   2   6   25.90    3.60
  -1   2   6   31.20    3.90
  -1   2   6   27.00    3.90
  -1   2   6   25.30    3.50
  -1   2   6   33.80    5.00
   0  -2  -6   96.99    7.20
   0  -2  -6   87.89    6.70
   0  -2  -6   95.09    6.90
   0  -2  -6   90.39    7.20
   0  -2  -6   90.79    4.90
   0  -2  -6   92.99    6.30
   0   2   6   92.19    6.80
   0   2   6  100.59    7.70
   0   2   6   86.19    6.80
   0   2   6   79.59    6.10
   0   2   6   90.69    6.40
   0   2   6   95.09    6.00
   0   2   6   99.69    5.70
  -1  -2  -6    6.40    3.40
  -1  -2  -6    0.20    2.80
  -1  -2  -6    2.80    3.60
  -1  -2  -6    6.70    3.00
   1   2   6    4.80    3.60
   1   2   6    8.00    2.60
   1   2   6    6.10    3.00
   1   2   6    3.30    3.50
   1   2   6    5.70    2.40
   1   2   6    7.30    3.30
  -2  -2  -6  169.08   10.10
  -2  -2  -6  168.68    8.60
  -2  -2  -6  190.98   10.30
   2   2   6  166.68    8.30
   2   2   6  179.98   10.80
   2   2   6  163.98   11.30
  -3  -2  -6  191.08   11.30
  -3  -2  -6  199.18   11.90
  -3  -2  -6  198.48   11.60
   3   2   6  191.28   12.50
   3   2   6  187.68   13.80
  -4  -2  -6  229.78   13.70
  -4  -2  -6  237.88   14.00
  -4  -2  -6  231.78   13.50
   4   2   6  227.78   12.00
   4   2   6  239.28   15.20
   4   2   6  242.48   14.40
  -5  -2  -6   15.30    4.90
  -5  -2  -6    8.90    5.70
  -5  -2  -6   15.80    5.90
   5   2   6   11.30    6.60
   5   2   6   18.40    8.00
   5   2   6   17.40    6.00
  -6  -2  -6   12.20    6.60
  -6  -2  -6    8.70    6.10
  -6  -2  -6   10.20    5.70
   6   2   6   15.70    8.10
   6   2   6    7.10    6.90
   6   2   6   18.60    9.60
  -7  -2  -6   13.80    7.30
  -7  -2  -6   -1.50    6.70
   7   2   6   21.10   12.40
   7   2   6   -4.00    7.80
   7  -3  -6    7.20    9.60
   7  -3  -6    7.70   10.30
  -7   3   6    3.40    6.20
  -7   3   6    8.90    7.90
   6  -3  -6   -3.40    5.20
   6  -3  -6   12.90    8.60
   6  -3  -6  -17.60    7.80
  -6   3   6   17.80    7.70
  -6   3   6    2.70    4.90
  -6   3   6    9.50    7.00
   5  -3  -6   37.80    8.30
   5  -3  -6   54.39    6.40
   5  -3  -6   43.80    8.30
  -5   3   6   38.20    7.90
  -5   3   6   53.59    6.60
  -5   3   6   34.90    7.10
   4  -3  -6   17.90    6.30
   4  -3  -6   10.50    6.40
   4  -3  -6   20.10    5.50
  -4   3   6   14.00    5.30
  -4   3   6   14.20    5.90
  -4   3   6   25.60    4.00
   3  -3  -6   -3.20    5.40
   3  -3  -6    2.80    5.10
   3  -3  -6   18.90    9.00
   3  -3  -6    0.30    4.90
  -3   3   6    1.30    3.20
  -3   3   6   -3.10    7.30
   2  -3  -6   74.19    8.40
   2  -3  -6   78.59    7.60
   2  -3  -6   70.59    8.40
   2  -3  -6   80.29    5.90
   2  -3  -6   72.29    4.60
  -2   3   6   81.29    7.50
  -2   3   6   82.09    5.00
  -2   3   6   75.99    8.00
  -2   3   6   78.59    6.20
   1  -3  -6  125.09    8.00
   1  -3  -6  113.59    6.70
   1  -3  -6  110.39    8.10
   1  -3  -6  124.59    6.60
   1  -3  -6  102.99    8.50
   1  -3  -6  118.69    6.50
  -1   3   6  106.99    7.30
  -1   3   6  131.19    8.40
  -1   3   6  109.99    7.20
  -1   3   6  116.39    9.10
  -1   3   6  113.39    6.60
   0  -3  -6  109.59    8.50
   0  -3  -6  122.49    6.20
   0  -3  -6  119.29    7.60
   0  -3  -6  120.19    8.50
   0  -3  -6  120.69    7.30
   0   3   6  118.39    6.40
   0   3   6  113.69    8.20
   0   3   6  124.59    8.80
   0   3   6  100.69    7.00
   0   3   6  117.49    7.00
   0   3   6  119.79    7.20
   0   3   6  130.29    7.10
  -1  -3  -6   58.99    5.50
  -1  -3  -6   64.79    6.80
  -1  -3  -6   59.29    7.00
  -1  -3  -6   62.39    6.10
   1   3   6   57.09    7.20
   1   3   6   57.19    4.70
   1   3   6   55.19    5.80
   1   3   6   49.00    4.70
   1   3   6   63.29    7.40
  -2  -3  -6  195.88   11.30
  -2  -3  -6  187.48   11.20
   2   3   6  199.18   11.80
   2   3   6  195.48   12.70
  -3  -3  -6  166.48   10.40
  -3  -3  -6  152.08   10.80
  -3  -3  -6  150.98   10.50
   3   3   6  131.99   15.20
   3   3   6  165.18   11.40
   3   3   6  163.68    9.90
  -4  -3  -6   14.40    5.40
  -4  -3  -6   13.20    5.20
   4   3   6   17.90    7.40
   4   3   6    4.30    4.70
   4   3   6    8.90    4.40
   4   3   6    9.40    5.60
  -5  -3  -6    4.70    5.40
  -5  -3  -6    5.80    4.70
   5   3   6    1.70    8.00
   5   3   6    3.40    5.10
  -6  -3  -6   29.10    6.10
  -6  -3  -6   23.20    7.00
  -6  -3  -6   15.80    6.90
   6   3   6   25.10   10.40
   6   3   6   30.50    8.70
   6   3   6   28.30    6.80
   7  -4  -6    5.40    9.10
   7  -4  -6   -1.90   10.00
  -7   4   6    4.80    6.30
  -7   4   6   12.30    7.70
   6  -4  -6    3.30    8.50
   6  -4  -6    8.70    6.10
   6  -4  -6  -11.40    8.10
  -6   4   6   -1.80    6.30
  -6   4   6   -2.20    4.20
  -6   4   6   -7.00    7.20
   5  -4  -6    8.50    7.40
   5  -4  -6    1.50    7.10
   5  -4  -6   -2.20    5.50
  -5   4   6   11.00    5.90
  -5   4   6   -4.60    3.50
  -5   4   6    0.20    6.50
   4  -4  -6   21.70    5.90
   4  -4  -6   37.00    7.00
   4  -4  -6   23.60    6.60
  -4   4   6   14.80    5.80
  -4   4   6   24.90    3.60
  -4   4   6   16.70    5.50
   3  -4  -6  416.76   19.60
   3  -4  -6  408.86   20.00
   3  -4  -6  416.66   17.50
  -3   4   6  401.96   19.80
  -3   4   6  406.46   17.30
  -3   4   6  403.06   19.60
   2  -4  -6  679.83   28.70
   2  -4  -6  686.63   26.90
   2  -4  -6  623.34   27.70
   2  -4  -6  696.63   28.80
  -2   4   6  682.73   27.00
  -2   4   6  669.23   28.80
  -2   4   6  634.44   26.80
  -2   4   6  692.93   28.50
   1  -4  -6   19.90    4.50
   1  -4  -6   18.80    4.70
   1  -4  -6   11.10    3.00
  -1   4   6   16.20    2.30
  -1   4   6   25.00    4.30
  -1   4   6   16.30    3.20
  -1   4   6   15.70    3.30
  -1   4   6   14.10    5.00
  -1   4   6   16.40    3.30
   0  -4  -6   20.50    4.40
   0  -4  -6   19.50    3.90
   0  -4  -6   16.30    3.40
   0  -4  -6   12.60    2.70
   0   4   6   12.90    4.50
   0   4   6   15.50    3.20
   0   4   6   12.00    2.60
   0   4   6   15.90    2.40
   0   4   6   13.30    3.10
   0   4   6   15.00    4.40
   0   4   6   17.30    3.10
  -1  -4  -6   25.90    3.60
  -1  -4  -6   32.80    5.00
  -1  -4  -6   38.70    4.60
  -1  -4  -6   36.70    4.60
   1   4   6   29.00    3.90
   1   4   6   26.40    3.60
   1   4   6   33.80    4.10
   1   4   6   32.40    5.30
   1   4   6   32.80    5.20
  -2  -4  -6  163.68   10.60
  -2  -4  -6  157.88   10.20
  -2  -4  -6  167.08   10.70
   2   4   6  172.58   12.60
   2   4   6  171.78   12.30
  -3  -4  -6  137.49   10.20
  -3  -4  -6  147.89   10.20
  -3  -4  -6  152.38   10.70
   3   4   6  146.59   11.10
   3   4   6  139.99   13.00
   3   4   6  137.69    8.20
  -4  -4  -6  170.28   11.30
  -4  -4  -6  183.28   12.60
  -4  -4  -6  181.08   12.20
   4   4   6  215.48   15.00
   4   4   6  181.48   10.60
   4   4   6  156.68   12.90
  -5  -4  -6    7.70    5.90
  -5  -4  -6   13.30    5.10
   5   4   6   11.30    9.30
   5   4   6   11.50    5.50
   5   4   6   16.90    7.00
  -6  -4  -6   16.40    7.10
  -6  -4  -6    8.20    5.50
  -6  -4  -6    5.30    6.70
   6   4   6   19.60   10.40
   6   4   6    5.90    6.20
   6   4   6    0.00    7.50
   7  -5  -6   11.10    9.70
  -7   5   6    7.40    7.50
   6  -5  -6   15.30    6.80
   6  -5  -6    9.70    9.20
   6  -5  -6   13.10    8.70
  -6   5   6   18.60    8.20
  -6   5   6   16.20    7.30
  -6   5   6   12.30    6.40
   5  -5  -6   17.10    7.80
   5  -5  -6    7.90    6.10
   5  -5  -6   19.80    7.90
  -5   5   6    7.00    5.90
  -5   5   6    7.30    3.40
  -5   5   6    1.10    6.90
   4  -5  -6    2.30    6.10
   4  -5  -6   -0.50    3.50
   4  -5  -6   -1.40    5.50
   4  -5  -6    1.60    5.90
  -4   5   6   -1.00    2.60
  -4   5   6   -5.00    4.70
  -4   5   6   -2.50    5.50
   3  -5  -6   99.39    6.10
   3  -5  -6   92.99   11.90
   3  -5  -6   92.69   10.50
  -3   5   6  107.89   10.00
  -3   5   6   83.09    9.40
  -3   5   6   89.69    6.10
   2  -5  -6    2.60    2.60
   2  -5  -6   -3.10    5.20
   2  -5  -6    9.00    5.30
  -2   5   6    8.30    4.70
  -2   5   6    7.40    4.10
  -2   5   6    5.40    2.90
   1  -5  -6   82.69    8.10
   1  -5  -6   98.09    6.80
   1  -5  -6   94.89    6.90
   1  -5  -6   92.49    9.50
  -1   5   6   84.69    6.40
  -1   5   6   89.19    7.00
  -1   5   6   98.89    5.30
  -1   5   6   85.79    6.90
  -1   5   6  105.19    8.80
  -1   5   6   85.19    9.50
   0  -5  -6  407.46   18.00
   0  -5  -6  420.56   18.80
   0  -5  -6  431.66   18.60
   0  -5  -6  429.66   19.70
   0   5   6  441.26   17.90
   0   5   6  426.26   17.90
   0   5   6  429.16   19.70
   0   5   6  400.06   17.90
   0   5   6  429.36   19.50
  -1  -5  -6   18.80    3.70
  -1  -5  -6   10.60    4.90
  -1  -5  -6   17.80    4.20
  -1  -5  -6   17.80    3.50
   1   5   6    8.90    2.70
   1   5   6   16.10    5.00
   1   5   6    6.20    5.20
  -2  -5  -6  230.38   10.70
  -2  -5  -6  229.08   12.90
  -2  -5  -6  219.38   13.10
   2   5   6  213.28   13.40
   2   5   6  243.28   14.60
   2   5   6  232.08   10.60
  -3  -5  -6    8.00    4.70
  -3  -5  -6   14.10    4.90
  -3  -5  -6   18.90    3.30
  -3  -5  -6   12.00    4.60
   3   5   6    7.10    6.40
   3   5   6    9.40    5.30
   3   5   6    5.90    3.30
  -4  -5  -6    5.40    5.20
  -4  -5  -6    1.50    4.30
  -4  -5  -6   -3.00    4.90
   4   5   6   -1.90    4.00
   4   5   6   -5.90    5.00
   4   5   6    5.60    7.70
  -5  -5  -6    7.90    4.70
  -5  -5  -6   13.40    6.10
  -5  -5  -6    3.60    6.20
   5   5   6   20.40    7.20
   5   5   6    9.70    8.80
   5   5   6    6.40    7.10
  -6  -5  -6    8.30    6.70
  -6  -5  -6   -4.00    8.80
  -6  -5  -6  -10.80    5.70
   6   5   6    0.00    7.50
   6   5   6    7.60   10.40
   6   5   6    0.50    6.80
   7  -6  -6    5.40   10.30
  -7   6   6    8.10    9.00
  -7   6   6   -2.00    7.10
   6  -6  -6  114.79   12.50
   6  -6  -6  109.79   12.40
   6  -6  -6  119.39   14.50
  -6   6   6   85.89    8.10
  -6   6   6  109.49   13.70
  -6   6   6   69.39    9.50
   5  -6  -6   45.50   11.30
   5  -6  -6   35.10    7.60
  -5   6   6   30.20    6.70
   4  -6  -6    3.40    6.50
   4  -6  -6   -1.00    5.90
   4  -6  -6    7.40    6.50
  -4   6   6   -0.20    5.60
  -4   6   6    4.40    4.90
   3  -6  -6   47.30    7.00
   3  -6  -6   45.90    7.00
  -3   6   6   40.40    6.10
  -3   6   6   30.10    6.20
   2  -6  -6  457.35   21.40
   2  -6  -6  461.25   19.50
   2  -6  -6  452.25   21.80
  -2   6   6  472.35   21.60
  -2   6   6  458.95   21.30
  -2   6   6  431.16   19.40
  -2   6   6  477.95   20.60
   1  -6  -6    5.10    3.40
   1  -6  -6   -1.90    4.90
   1  -6  -6    3.50    4.60
  -1   6   6    7.10    3.00
  -1   6   6   -5.40    5.00
  -1   6   6    4.30    1.80
  -1   6   6    5.30    3.80
  -1   6   6    4.90    3.50
   0  -6  -6    5.20    3.80
   0  -6  -6    8.00    3.50
   0  -6  -6    3.60    7.40
   0  -6  -6    2.60    3.80
   0   6   6    6.60    3.20
   0   6   6    5.60    3.10
   0   6   6    2.40    4.90
  -1  -6  -6   24.80    4.20
  -1  -6  -6   21.70    2.90
  -1  -6  -6   19.50    4.90
  -1  -6  -6   18.80    3.80
  -1  -6  -6   24.60    5.80
   1   6   6   21.00    3.40
   1   6   6   16.80    5.80
  -2  -6  -6   55.89    6.50
  -2  -6  -6   65.39    6.60
  -2  -6  -6   53.79    6.00
  -2  -6  -6   54.89    5.70
   2   6   6   58.29    6.90
   2   6   6   51.69    5.70
   2   6   6   57.09    7.70
  -3  -6  -6    4.50    3.30
  -3  -6  -6    0.30    4.30
  -3  -6  -6    2.60    4.60
  -3  -6  -6   -2.20    4.20
   3   6   6    7.80    6.80
   3   6   6   -0.10    3.30
   3   6   6    6.10    5.30
  -4  -6  -6   99.09   10.10
  -4  -6  -6   82.59   10.50
  -4  -6  -6   81.79    9.10
   4   6   6   93.39    7.90
   4   6   6   85.09   10.80
   4   6   6   86.29   10.20
  -5  -6  -6   67.99    8.90
  -5  -6  -6   75.99    8.80
  -5  -6  -6   79.59    7.40
   5   6   6   90.69   11.90
   5   6   6   71.19   11.20
   5   6   6   61.39    7.80
  -6  -6  -6   15.90    7.30
  -6  -6  -6   12.10    8.10
   6   6   6   11.80   10.40
   6   6   6    3.50    7.30
   6  -7  -6   -1.40    8.60
   6  -7  -6   -4.40    7.40
   6  -7  -6   -6.70    8.90
  -6   7   6    4.40    6.30
  -6   7   6  -13.60    7.50
   5  -7  -6   25.20    8.40
   5  -7  -6   26.70    7.80
   5  -7  -6   20.10    8.50
  -5   7   6    8.90    5.80
  -5   7   6   15.30    7.30
   4  -7  -6    4.90    7.20
   4  -7  -6   10.60    6.60
   4  -7  -6    6.60    6.80
  -4   7   6   -1.40    4.80
  -4   7   6    7.00    5.80
   3  -7  -6    2.80    5.80
   3  -7  -6    4.00    2.70
   3  -7  -6   -0.50    5.50
  -3   7   6    4.10    2.30
  -3   7   6    2.60    4.70
  -3   7   6    0.00    4.60
  -3   7   6   -1.20    5.30
   2  -7  -6   14.10    5.40
   2  -7  -6    7.40    3.40
   2  -7  -6    6.20    5.60
  -2   7   6    7.70    4.70
  -2   7   6   11.30    4.60
  -2   7   6    7.60    3.20
  -2   7   6   10.90    5.20
   1  -7  -6  168.58   11.30
   1  -7  -6  181.28   10.50
   1  -7  -6  174.68   12.40
  -1   7   6  170.68   12.00
  -1   7   6  186.98   10.40
  -1   7   6  175.18   12.10
   0  -7  -6    4.50    4.00
   0  -7  -6   -2.40    3.80
   0  -7  -6    8.90    5.50
   0   7   6   -1.40    5.60
   0   7   6   -3.90    3.10
   0   7   6    0.60    2.90
   0   7   6    5.30    3.40
   0   7   6    6.60    5.30
  -1  -7  -6   81.29    7.20
  -1  -7  -6   90.69    5.70
  -1  -7  -6   93.09    9.70
  -1  -7  -6   99.59    7.90
  -1  -7  -6  101.59    9.30
   1   7   6  111.89   10.10
   1   7   6   83.49   10.40
   1   7   6   99.59    7.20
  -2  -7  -6  139.09   10.50
  -2  -7  -6  126.69    8.30
  -2  -7  -6  127.99   10.40
  -2  -7  -6  139.69    9.40
   2   7   6  143.19    8.30
   2   7   6  132.59   13.00
   2   7   6  118.69   11.10
  -3  -7  -6   -3.60    4.80
  -3  -7  -6   -0.60    4.30
  -3  -7  -6    2.70    4.40
   3   7   6   -0.20    5.30
   3   7   6    3.10    3.50
   3   7   6    7.60    7.00
  -4  -7  -6    0.70    4.60
  -4  -7  -6    5.00    5.70
  -4  -7  -6   -2.10    5.30
   4   7   6    0.60    4.00
  -5  -7  -6   12.70    6.70
  -5  -7  -6    5.90    6.20
  -5  -7  -6   -3.80    4.70
   5   7   6    6.70    6.90
   5   7   6    1.20    4.70
   5   7   6   -7.90    8.60
  -6  -7  -6  -12.70    5.80
   6   7   6    3.60    7.50
   6  -8  -6   -2.10    8.70
   6  -8  -6   13.00    9.50
   6  -8  -6    1.00    7.90
  -6   8   6    3.00    6.20
  -6   8   6    7.20    8.40
   5  -8  -6    6.10    8.00
   5  -8  -6   -1.00    8.10
   5  -8  -6   -2.70    7.60
  -5   8   6    5.80    5.80
  -5   8   6   -0.20    7.10
   4  -8  -6    1.80    6.60
   4  -8  -6   10.20    7.00
  -4   8   6    2.40    4.90
  -4   8   6  -10.40    5.70
   3  -8  -6    6.10    3.10
   3  -8  -6    7.90    6.40
   3  -8  -6    2.40    6.00
  -3   8   6    0.10    5.30
  -3   8   6    0.80    5.00
  -3   8   6   -9.00    4.30
  -3   8   6    1.10    4.80
   2  -8  -6  135.99   12.10
   2  -8  -6  138.09   11.20
   2  -8  -6  149.49    9.20
  -2   8   6  147.89   10.20
  -2   8   6  153.68   11.50
  -2   8   6  140.29   10.50
   1  -8  -6  170.38   12.60
   1  -8  -6  147.29   11.80
   1  -8  -6  144.79    9.80
  -1   8   6  142.49   10.90
  -1   8   6  136.49   11.40
  -1   8   6  149.09   10.90
   0  -8  -6   19.30    4.60
   0  -8  -6   25.40    6.30
   0  -8  -6   15.90    4.70
   0   8   6   25.20    3.40
   0   8   6   19.30    5.50
   0   8   6   20.30    3.00
   0   8   6   12.00    5.80
   0   8   6   31.60    4.40
  -1  -8  -6   13.80    5.50
  -1  -8  -6   14.80    5.00
  -1  -8  -6   17.10    3.80
   1   8   6   14.60    5.70
   1   8   6   14.70    3.80
   1   8   6   10.50    6.00
  -2  -8  -6    1.60    4.00
  -2  -8  -6   11.70    5.10
  -2  -8  -6    7.20    5.00
   2   8   6    6.00    5.50
   2   8   6    9.60    3.60
   2   8   6    0.10    6.60
  -3  -8  -6   -2.80    4.50
  -3  -8  -6    5.50    4.80
  -3  -8  -6    4.40    5.30
   3   8   6    1.60    3.70
   3   8   6   -1.80    5.70
   3   8   6   -0.70    7.30
  -4  -8  -6   -2.50    5.30
  -4  -8  -6    1.60    5.00
  -4  -8  -6    7.70    5.90
   4   8   6    2.70    8.60
   4   8   6    7.00    6.50
  -5  -8  -6    4.70    6.40
  -5  -8  -6   25.20    7.10
  -5  -8  -6   26.50    5.80
   5   8   6   11.50    7.20
   5   8   6    7.80    5.00
   5   8   6   25.40   10.20
   6  -9  -6    2.20    8.30
   6  -9  -6    6.20   13.00
   6  -9  -6    6.70   10.80
  -6   9   6    8.50    6.40
  -6   9   6   16.80   10.10
   5  -9  -6    9.00    8.10
   5  -9  -6    5.20    8.10
   5  -9  -6   13.90    8.90
  -5   9   6    0.20    7.20
   4  -9  -6    0.80    7.70
   4  -9  -6   -1.50    7.10
  -4   9   6   -6.40    6.90
  -4   9   6   -0.70    4.80
   3  -9  -6   10.00    3.60
   3  -9  -6   10.40    6.30
   3  -9  -6   12.20    6.90
  -3   9   6   15.40    5.10
  -3   9   6    9.20    5.70
  -3   9   6   11.50    6.10
   2  -9  -6   15.60    6.40
   2  -9  -6   22.20    4.40
   2  -9  -6   27.30    6.30
  -2   9   6   26.00    5.30
  -2   9   6   21.40    5.00
  -2   9   6   14.30    5.90
   1  -9  -6   51.49    7.40
   1  -9  -6   52.89    6.40
   1  -9  -6   48.90    5.90
  -1   9   6   49.10    7.00
  -1   9   6   52.19    6.50
  -1   9   6   54.69    6.10
   0  -9  -6  200.28   12.50
   0  -9  -6  192.88   13.80
   0  -9  -6  203.88   11.60
   0   9   6  209.38   10.10
   0   9   6  200.08   13.10
   0   9   6  203.48   10.40
   0   9   6  207.78   13.70
  -1  -9  -6   23.10    4.00
  -1  -9  -6   29.70    5.80
  -1  -9  -6   24.70    6.40
  -1  -9  -6   15.50    3.10
   1   9   6   28.20    6.00
   1   9   6   18.70    6.60
   1   9   6   32.90    4.50
  -2  -9  -6   -0.40    3.90
  -2  -9  -6    1.20    5.20
  -2  -9  -6   -1.70    4.80
   2   9   6    2.70    3.60
   2   9   6    0.70    5.60
   2   9   6   -0.40    6.90
  -3  -9  -6  115.19    9.90
  -3  -9  -6  105.99   11.20
  -3  -9  -6  103.49   10.50
   3   9   6   98.99   12.00
  -4  -9  -6    6.80    5.70
  -4  -9  -6   -4.00    5.50
  -4  -9  -6   11.70    5.70
   4   9   6    0.40    4.40
   4   9   6    1.90    9.40
   4   9   6    7.00    7.00
  -5  -9  -6    7.10    6.30
  -5  -9  -6   10.30    7.10
  -5  -9  -6   -0.20    6.10
   5   9   6    7.80    7.20
   5   9   6    9.50   10.00
  -6  10   6   11.20    8.40
   5 -10  -6    6.00    8.40
   5 -10  -6    2.10    8.50
   5 -10  -6   -2.30    8.60
  -5  10   6    3.90    5.80
  -5  10   6    4.20    7.80
   4 -10  -6    2.20    7.60
   4 -10  -6   12.30    3.40
   4 -10  -6   13.70    7.70
  -4  10   6    0.30    6.90
  -4  10   6   13.40    7.20
  -4  10   6    4.80    5.20
   3 -10  -6    2.30    7.00
   3 -10  -6   -4.00    6.00
   3 -10  -6    1.30    3.70
  -3  10   6   -4.10    4.40
  -3  10   6   -5.90    5.50
   2 -10  -6   85.19    9.60
   2 -10  -6  118.79   10.70
   2 -10  -6  106.79    9.10
  -2  10   6  108.79   11.20
  -2  10   6  120.99   10.00
  -2  10   6   90.39    9.50
   1 -10  -6    9.00    4.60
   1 -10  -6    7.30    5.00
   1 -10  -6    7.20    6.20
  -1  10   6    8.70    5.00
  -1  10   6   11.50    5.90
  -1  10   6    8.30    4.70
   0 -10  -6   -7.50    5.60
   0 -10  -6    5.90    4.80
   0  10   6    0.60    4.10
   0  10   6   -2.80    4.90
   0  10   6    0.20    3.20
   0  10   6   -1.70    5.50
   0  10   6    0.50    2.70
  -1 -10  -6   12.80    5.30
  -1 -10  -6   15.40    6.10
  -1 -10  -6   12.10    3.90
  -1 -10  -6   10.20    4.90
   1  10   6   13.00    6.70
   1  10   6   14.10    4.40
   1  10   6   10.40    5.80
  -2 -10  -6  170.98   15.90
  -2 -10  -6  161.98   12.90
  -2 -10  -6  172.28   10.60
   2  10   6  173.88   10.60
   2  10   6  152.58   12.90
  -3 -10  -6    1.30    5.40
  -3 -10  -6    2.10    4.90
  -3 -10  -6    8.10    5.80
   3  10   6    0.30    8.50
   3  10   6   -0.60    3.90
  -4 -10  -6    1.50    5.30
  -4 -10  -6    0.00    5.40
  -4 -10  -6    9.10    6.10
   4  10   6    2.80    7.00
   4  10   6    2.00    4.50
   4  10   6    0.10    9.30
   5 -11  -6    0.50    8.40
   5 -11  -6   -1.50    9.20
   5 -11  -6    7.30    8.40
  -5  11   6    7.60    5.70
  -5  11   6    6.40    7.70
   4 -11  -6   16.50    5.70
   4 -11  -6   19.60    8.10
   4 -11  -6   13.50    8.10
  -4  11   6    8.20    7.10
  -4  11   6   13.70    7.40
  -4  11   6    7.90    5.30
   3 -11  -6    4.80    7.50
   3 -11  -6   10.80    4.50
   3 -11  -6   28.70    8.10
  -3  11   6   14.60    5.20
  -3  11   6   21.50    6.90
   2 -11  -6   21.50    4.90
   2 -11  -6    3.70    5.90
  -2  11   6   15.00    5.60
  -2  11   6    6.80    4.90
   1 -11  -6   56.79    7.00
   1 -11  -6   62.69    7.30
   1 -11  -6   88.19   11.50
  -1  11   6   67.39    8.30
  -1  11   6   57.59    6.80
  -1  11   6   79.99    9.10
   0 -11  -6    3.50    5.00
   0 -11  -6    5.30    4.50
   0 -11  -6    0.30    6.00
   0  11   6   -2.00    4.90
   0  11   6   -7.00    4.00
   0  11   6   -6.10    2.60
   0  11   6   -3.10    5.90
  -1 -11  -6   -2.60    5.10
  -1 -11  -6   -0.10    3.80
  -1 -11  -6    2.00    6.10
   1  11   6    2.40    5.70
   1  11   6    1.40    4.00
  -2 -11  -6    3.20    5.70
  -2 -11  -6  -12.40    5.50
   2  11   6    6.60    7.40
   2  11   6   12.00    6.40
   2  11   6    1.60    4.30
  -3 -11  -6   11.70    6.00
  -3 -11  -6    8.10    5.80
   3  11   6    6.30    4.50
   3  11   6   14.60    8.70
   3  11   6   15.30    7.20
  -4 -11  -6    3.70    7.00
  -4 -11  -6    4.70    5.40
   4  11   6   -0.60   10.00
   4  11   6    5.50    5.00
   4  11   6   -3.60    7.10
   5 -12  -6    4.20   10.80
   5 -12  -6   11.50   10.10
  -5  12   6    4.00   12.10
  -5  12   6    4.00    5.90
   4 -12  -6   -4.00    7.70
   4 -12  -6    9.00    8.00
  -4  12   6   -0.90    6.80
  -4  12   6   -1.50    4.80
  -4  12   6   -4.90    6.80
   3 -12  -6    9.10    4.50
   3 -12  -6   11.80    7.70
   3 -12  -6   12.80    7.20
  -3  12   6   13.50    6.90
  -3  12   6    0.10    4.70
  -3  12   6   12.30    7.20
   2 -12  -6   29.70    7.90
   2 -12  -6   18.40    5.40
   2 -12  -6   13.90    6.70
  -2  12   6   19.60    5.40
  -2  12   6   24.40    6.90
  -2  12   6   15.30    6.90
   1 -12  -6   37.20    6.50
   1 -12  -6   27.40    7.50
   1 -12  -6   38.10    6.50
  -1  12   6   27.60    7.30
  -1  12   6   31.30    6.20
  -1  12   6   21.70    5.70
   0 -12  -6    4.80    6.70
   0 -12  -6   13.90    5.10
   0 -12  -6    8.70    5.90
   0  12   6    0.80    6.30
   0  12   6    1.20    5.30
   0  12   6   14.50    5.40
  -1 -12  -6    4.80    5.70
  -1 -12  -6   -1.40    3.90
  -1 -12  -6   -1.50    6.30
   1  12   6   -3.00    3.80
   1  12   6    2.10    6.90
   1  12   6    3.90    4.50
   1  12   6   -4.30    5.30
  -2 -12  -6   13.20    6.70
  -2 -12  -6    6.10    6.20
   2  12   6  -10.60    7.00
   2  12   6   -2.50    4.40
  -3 -12  -6    2.10    4.90
  -3 -12  -6   11.30    6.50
  -3 -12  -6   11.50    6.10
   3  12   6   10.00    5.00
   3  12   6   10.30    8.40
   3  12   6    5.20    6.70
   4 -13  -6   -2.30    7.60
   4 -13  -6   -7.20    7.50
  -4  13   6   -3.50    6.40
  -4  13   6   -2.90   13.00
  -4  13   6    3.70    7.10
   3 -13  -6    5.50    7.00
   3 -13  -6    4.90    4.80
   3 -13  -6    5.40    7.30
  -3  13   6    8.70    7.10
  -3  13   6   -1.70    4.60
  -3  13   6   -2.20    6.60
   2 -13  -6   -2.00    6.00
   2 -13  -6   -9.60    4.70
   2 -13  -6   -1.30    7.00
  -2  13   6   -4.00    6.20
  -2  13   6    5.20    4.90
  -2  13   6    2.70    5.80
   1 -13  -6   10.10    7.30
   1 -13  -6   17.70    5.90
  -1  13   6   15.00    7.10
  -1  13   6   20.10    5.50
   0 -13  -6    1.80    4.90
   0 -13  -6    3.90    5.90
   0 -13  -6   -0.90    6.90
   0  13   6    4.50    6.50
   0  13   6    1.30    5.10
   0  13   6   -8.50    4.60
  -1 -13  -6   -8.00    4.20
  -1 -13  -6   -5.00    6.40
  -1 -13  -6    8.60    6.00
   1  13   6   -0.90    4.60
   1  13   6   -2.00    5.80
   1  13   6   16.30    7.40
   1  13   6    5.60    3.90
  -2 -13  -6   51.09    7.80
  -2 -13  -6   62.89    8.60
   2  13   6   29.00    7.60
   2  13   6   53.49    9.50
   2  13   6   51.39    6.40
  -3 -13  -6    6.80    6.70
  -3 -13  -6   16.70    6.50
   3  13   6   17.70   10.80
   3  13   6    0.30    6.80
   3 -14  -6   20.60    7.50
   3 -14  -6    6.20    5.40
  -3  14   6   11.40    8.80
  -3  14   6   25.10    7.70
  -3  14   6   18.90    5.50
   2 -14  -6   15.30    7.70
   2 -14  -6   -7.50    5.00
   2 -14  -6    8.80    6.30
  -2  14   6   -1.10    4.60
  -2  14   6   -3.50    5.60
  -2  14   6    3.80    6.70
   1 -14  -6   -2.90    6.60
   1 -14  -6    0.20    5.50
  -1  14   6  -11.70    4.40
  -1  14   6   -7.00    5.30
  -1  14   6    8.40    6.90
   0 -14  -6    6.90    5.40
   0 -14  -6    1.30    5.80
   0 -14  -6   -6.00    6.80
   0  14   6    1.20    5.10
   0  14   6    3.40    5.10
   0  14   6   16.70    7.00
  -1 -14  -6   29.80    8.10
  -1 -14  -6   30.20    7.20
   1  14   6   19.40    5.60
   1  14   6   25.70    8.10
  -2 -14  -6   24.60    7.70
   2  14   6   12.40    5.30
   2  14   6    8.30    9.80
   2  14   6   16.10    6.80
   2 -15  -6    1.20    7.60
   2 -15  -6   -3.20    6.30
   2 -15  -6    6.90    5.70
  -2  15   6   12.70    8.30
  -2  15   6   14.50    6.30
   1 -15  -6   23.70    6.40
   1 -15  -6    9.00    6.40
  -1  15   6   19.30    5.70
  -1  15   6   18.30    6.40
   0 -15  -6    1.10    5.70
   0 -15  -6    0.10    6.20
   0 -15  -6   15.70    8.40
   0  15   6    3.90    5.30
   0  15   6   13.90    5.80
   1  17  -7   -9.70    5.20
   1  17  -7   -0.30    7.30
   1  17  -7   -5.30    7.40
  -1 -17   7    5.10    8.00
  -1 -17   7   13.60    8.00
  -1 -17   7   -6.30    5.00
   0  17  -7  105.49   11.40
   0  17  -7  117.49   11.40
   0 -17   7  115.69   14.10
   0 -17   7  115.09   10.40
  -1  17  -7   41.50    8.00
   1 -17   7   32.50    9.00
   1 -17   7   10.90   13.00
   2  16  -7   -1.50    7.30
   2  16  -7    7.50    5.80
  -2 -16   7  -33.70   12.00
  -2 -16   7    2.00    5.50
  -2 -16   7   -5.30   10.00
   1  16  -7   37.30    7.20
   1  16  -7   42.80    7.50
   1  16  -7   37.30    9.40
  -1 -16   7   54.79    8.80
  -1 -16   7   52.19    7.00
  -1 -16   7   33.60    9.60
   0  16  -7  285.57   15.30
   0  16  -7  282.07   17.00
   0  16  -7  312.37   18.90
   0 -16   7  287.17   18.70
   0 -16   7  288.27   20.30
   0 -16   7  271.57   16.20
  -1  16  -7   -1.60    4.90
  -1  16  -7    2.50    6.00
  -1  16  -7    8.50    7.10
   1 -16   7   -2.40    7.60
   1 -16   7    9.00    5.40
   1 -16   7   -0.50    7.80
  -2  16  -7   -1.80    6.20
  -2  16  -7    5.70    6.70
  -2  16  -7   -2.30    6.40
   2 -16   7   -5.50    8.20
   2 -16   7   -0.10    7.90
   2 -16   7   10.70    6.00
  -3  16  -7   -2.30    8.20
   3 -16   7   -4.10   10.80
   3  15  -7   16.20    8.80
   3  15  -7    1.30    6.00
  -3 -15   7    7.30    8.10
  -3 -15   7    1.60    6.70
   2  15  -7   15.60    7.50
   2  15  -7    5.30    5.90
   2  15  -7    7.70    8.30
  -2 -15   7   15.50    6.30
  -2 -15   7    1.50    7.70
  -2 -15   7    2.70    7.00
   1  15  -7   -4.60    7.40
   1  15  -7  -12.60    5.70
   1  15  -7   -4.30    6.00
  -1 -15   7    0.70    7.00
  -1 -15   7   -1.00    7.90
   0  15  -7   48.80    8.70
   0  15  -7   44.00    7.50
   0  15  -7   23.60    5.70
   0 -15   7   26.60    8.20
   0 -15   7   25.30    6.20
   0 -15   7   41.90    9.30
  -1  15  -7   15.20    7.30
  -1  15  -7   16.20    5.00
  -1  15  -7    9.70    6.20
   1 -15   7   14.60    8.00
   1 -15   7   15.90    5.40
   1 -15   7   22.70    8.60
  -2  15  -7   56.79    8.70
  -2  15  -7   64.39    6.60
  -2  15  -7   63.79    8.20
   2 -15   7   50.09    6.50
   2 -15   7   76.79   10.80
   2 -15   7   94.09   10.90
  -3  15  -7   -8.60    6.10
  -3  15  -7  -11.10    6.30
  -3  15  -7    0.20    5.90
   3 -15   7    7.80    7.80
   3 -15   7   -3.20    5.70
   3 -15   7    4.40    8.20
  -4  15  -7    9.90    7.40
  -4  15  -7   -0.10    7.40
   4 -15   7    9.70    7.90
   4 -15   7   17.80    9.40
   4  14  -7    9.90   10.80
   4  14  -7    5.60   10.10
  -4 -14   7   17.70    8.40
   3  14  -7    8.20    8.10
   3  14  -7    0.20    9.00
  -3 -14   7   16.50    8.10
  -3 -14   7    6.30    8.40
  -3 -14   7    2.60    6.40
   2  14  -7   24.50    7.90
   2  14  -7   12.00    8.70
   2  14  -7   24.90    7.20
  -2 -14   7   29.30    8.90
  -2 -14   7   22.10    6.80
  -2 -14   7   11.60    6.50
   1  14  -7    1.20    6.10
   1  14  -7   -3.90    7.30
   1  14  -7   -0.20    5.80
  -1 -14   7    7.10    6.60
  -1 -14   7    8.20    7.60
  -1 -14   7   14.90    6.20
   0  14  -7   16.10    6.10
   0  14  -7   26.60    7.60
   0 -14   7   28.40    7.90
   0 -14   7   44.40    8.70
   0 -14   7   16.50    5.90
  -1  14  -7   57.79    8.50
  -1  14  -7   40.90    7.50
  -1  14  -7   60.99    7.60
   1 -14   7   57.09    6.80
   1 -14   7   54.19    9.20
   1 -14   7   51.39   10.00
  -2  14  -7   59.79    8.00
  -2  14  -7   39.00    6.00
  -2  14  -7   60.59    7.80
   2 -14   7   51.19    9.30
   2 -14   7   58.99    6.40
   2 -14   7   30.30    8.20
  -3  14  -7   18.10    7.10
  -3  14  -7   33.40    7.40
  -3  14  -7    7.80    5.60
   3 -14   7   18.80    5.70
   3 -14   7   23.20    8.90
   3 -14   7    9.70    7.40
  -4  14  -7    4.90    6.90
  -4  14  -7    6.90    7.00
   4 -14   7    5.40    7.70
   4 -14   7   -8.40    8.40
   4  13  -7    4.40   10.30
   4  13  -7   18.10    6.40
   4  13  -7   11.50   10.30
   4  13  -7    5.90    5.30
  -4 -13   7    6.30    7.80
  -4 -13   7   17.50    7.50
   3  13  -7  -12.20    8.90
   3  13  -7    9.50    9.20
   3  13  -7    1.20    4.30
   3  13  -7   -3.70    5.90
  -3 -13   7   -5.20    7.40
  -3 -13   7    4.60    6.60
  -3 -13   7   -1.30    5.60
   2  13  -7   28.60    6.90
   2  13  -7   18.10    7.60
   2  13  -7   41.90    9.30
  -2 -13   7   41.50    8.80
  -2 -13   7   28.60    6.50
  -2 -13   7   27.80    8.50
   1  13  -7   45.10    6.90
   1  13  -7   51.89    7.60
  -1 -13   7   52.89    7.70
  -1 -13   7   49.10    7.10
   0  13  -7   72.59    7.80
   0  13  -7   61.59    8.60
   0  13  -7   68.29    7.80
   0 -13   7   45.50    8.80
   0 -13   7   56.99    7.00
   0 -13   7   61.39    8.30
  -1  13  -7   35.20    7.00
  -1  13  -7   48.20    5.10
  -1  13  -7   28.20    7.20
   1 -13   7   34.60   10.10
   1 -13   7   46.00    8.00
   1 -13   7   48.50    6.30
  -2  13  -7   22.50    4.50
  -2  13  -7   21.00    6.60
  -2  13  -7   16.50    6.10
   2 -13   7   10.20    5.60
   2 -13   7   15.10    8.40
   2 -13   7   20.10    8.20
  -3  13  -7   -2.50    6.20
  -3  13  -7    4.70    5.80
  -3  13  -7    3.50    4.80
   3 -13   7   11.40    7.20
   3 -13   7    4.30    7.80
   3 -13   7   -1.80    5.40
  -4  13  -7    2.00    6.30
  -4  13  -7   15.20    4.80
  -4  13  -7   16.20    6.90
   4 -13   7    0.70    5.70
   4 -13   7   12.00    8.80
   4 -13   7   12.40    7.50
  -5  13  -7   -3.30    7.00
   5 -13   7   -3.50    8.30
   5  12  -7   -3.40   13.10
   5  12  -7    9.20   10.60
  -5 -12   7   -5.90    9.10
  -5 -12   7  -10.60    7.10
   4  12  -7    9.30    6.10
   4  12  -7   -5.70    9.80
   4  12  -7  -13.30   10.20
  -4 -12   7    0.70    7.50
  -4 -12   7   -4.50    6.80
   3  12  -7  -12.30    8.50
   3  12  -7    3.00    8.60
   3  12  -7   -4.00    5.60
  -3 -12   7   -4.30    5.00
  -3 -12   7   -2.80    6.50
   2  12  -7   23.30    6.10
   2  12  -7   15.90    9.90
   2  12  -7    8.80    7.20
  -2 -12   7   10.90    7.20
  -2 -12   7   25.00    6.60
  -2 -12   7    8.70    5.60
   1  12  -7    3.60    5.40
   1  12  -7    3.30    6.60
   1  12  -7    3.60    5.60
  -1 -12   7    0.20    6.80
  -1 -12   7   -0.50    5.50
  -1 -12   7   -5.70    5.10
   0  12  -7    4.30    5.70
   0  12  -7    3.10    4.20
   0  12  -7    5.30    6.40
   0 -12   7    2.20    6.40
   0 -12   7    1.60    5.90
   0 -12   7   10.90    5.60
  -1  12  -7   35.70    4.40
  -1  12  -7   24.00    6.60
  -1  12  -7   33.30    6.50
   1 -12   7   34.70    7.30
   1 -12   7   35.50    6.30
   1 -12   7   41.40    7.90
   1 -12   7   54.59    6.90
  -2  12  -7   16.30    4.00
  -2  12  -7   17.50    6.20
  -2  12  -7   20.90    5.90
   2 -12   7   14.50    7.40
   2 -12   7   20.70    6.80
   2 -12   7    6.80    5.60
  -3  12  -7    5.90    5.50
  -3  12  -7    8.70    6.00
  -3  12  -7   14.50    4.30
   3 -12   7    3.90    5.50
   3 -12   7   11.00    6.80
  -4  12  -7   31.30    7.10
  -4  12  -7   29.10    6.70
   4 -12   7   25.40    6.60
   4 -12   7    7.40    7.90
   4 -12   7   14.60    7.70
  -5  12  -7   68.39    9.00
   5 -12   7   48.50    7.60
   5 -12   7   52.09    9.80
   5 -12   7   34.10    8.90
   5  11  -7   -2.10   10.90
   5  11  -7   13.80   11.10
   5  11  -7    2.10    5.90
  -5 -11   7    4.00    7.10
  -5 -11   7    3.10    7.20
   4  11  -7   16.20    9.80
   4  11  -7   12.20    6.20
   4  11  -7   -1.40    9.90
  -4 -11   7   10.70    7.00
  -4 -11   7    6.20    7.30
  -4 -11   7   -3.40    5.60
   3  11  -7   34.30    6.50
   3  11  -7   43.40    8.80
  -3 -11   7   38.30    6.00
  -3 -11   7   59.09    7.60
  -3 -11   7   56.89    8.10
  -3 -11   7   38.80    8.40
   2  11  -7   -3.90    7.20
   2  11  -7    6.50    5.60
   2  11  -7    6.80    7.60
   2  11  -7   -1.30    5.20
  -2 -11   7    5.00    5.10
  -2 -11   7    9.40    6.90
  -2 -11   7   -4.20    5.70
   1  11  -7    5.50    6.50
   1  11  -7   -0.60    5.00
   1  11  -7    5.00    5.30
  -1 -11   7   -0.60    5.10
  -1 -11   7    1.60    6.50
  -1 -11   7   -3.50    5.10
   0  11  -7   48.40    7.10
   0  11  -7   48.10    6.80
   0  11  -7   45.70    4.90
   0 -11   7   43.50    5.30
   0 -11   7   53.69    7.00
   0 -11   7   44.30    6.50
   0 -11   7   51.39    8.00
  -1  11  -7    6.80    5.20
  -1  11  -7   -6.90    3.00
  -1  11  -7   -3.80    5.30
   1 -11   7    8.00    5.50
   1 -11   7   -6.60    6.10
   1 -11   7  -12.60    4.90
  -2  11  -7   -7.70    4.80
  -2  11  -7   -4.00    3.20
  -2  11  -7   -1.90    5.30
   2 -11   7    4.80    5.40
   2 -11   7   -8.30    5.20
   2 -11   7   -0.50    6.10
  -3  11  -7    1.40    5.10
  -3  11  -7    5.50    5.60
  -3  11  -7    0.10    3.70
   3 -11   7    3.30    5.80
   3 -11   7   -0.80    6.80
   3 -11   7    3.20    6.10
  -4  11  -7   53.09    7.50
  -4  11  -7   45.30    7.20
   4 -11   7   46.10    8.40
   4 -11   7   37.40    7.10
   4 -11   7   41.50   10.40
  -5  11  -7    9.80    7.00
   5 -11   7   12.20    8.70
   5 -11   7   38.00    8.60
   5 -11   7   11.50    6.80
   5  10  -7   17.20    6.60
   5  10  -7   30.50   11.20
   5  10  -7   17.70   11.30
  -5 -10   7    3.90    7.00
  -5 -10   7   25.80    8.00
  -5 -10   7   20.90    7.50
   4  10  -7  -10.40    8.50
   4  10  -7   -4.70    9.50
   4  10  -7    7.20    6.00
  -4 -10   7   -1.20    6.50
  -4 -10   7    5.00    6.40
  -4 -10   7    0.40    5.80
   3  10  -7    4.30    7.30
   3  10  -7   -2.10    5.50
   3  10  -7    7.50    8.50
  -3 -10   7  -18.40    6.50
  -3 -10   7   -4.00    4.50
  -3 -10   7    6.10    6.10
  -3 -10   7    1.30    6.20
  -3 -10   7   -0.70    3.90
   2  10  -7    3.80    6.30
   2  10  -7  -11.50    6.70
   2  10  -7    9.10    5.20
  -2 -10   7    6.90    3.90
  -2 -10   7    6.70    6.20
  -2 -10   7   -1.00    4.60
  -2 -10   7    3.00    5.50
   1  10  -7  141.89   10.10
   1  10  -7  133.99   12.00
   1  10  -7  141.49   10.50
  -1 -10   7  126.29   10.90
  -1 -10   7  129.99   12.20
   0  10  -7   95.39    9.20
   0  10  -7   89.69    7.10
   0  10  -7   99.09   10.20
   0 -10   7   85.19    9.90
   0 -10   7   96.49    6.00
   0 -10   7   79.79    9.50
   0 -10   7   87.29   11.20
  -1  10  -7   -1.70    5.20
  -1  10  -7    3.70    4.60
   1 -10   7    0.50    5.30
   1 -10   7   -3.90    5.00
   1 -10   7   -7.80    5.10
  -2  10  -7   -2.20    4.60
  -2  10  -7    0.40    4.80
   2 -10   7   -4.40    5.40
   2 -10   7   -0.30    5.90
   2 -10   7    8.00    5.50
  -3  10  -7   36.90    6.20
  -3  10  -7   31.30    4.00
  -3  10  -7   27.20    6.00
   3 -10   7   33.90    7.30
   3 -10   7   27.80    7.50
   3 -10   7   34.60    5.30
   3 -10   7   26.90    6.40
  -4  10  -7  251.47   15.30
  -4  10  -7  267.67   18.60
   4 -10   7  241.08   14.80
   4 -10   7  246.28   17.00
   5 -10   7    1.70    6.20
   5 -10   7   -4.40    7.80
   5 -10   7   -5.30    6.20
   5 -10   7    1.90    7.10
   5 -10   7   -3.50    7.60
   6 -10   7   14.10    8.00
   6 -10   7  -15.20    7.30
   6 -10   7    0.20    7.70
   6 -10   7    1.80    8.40
   6 -10   7   10.10    7.30
   6   9  -7    3.80   10.90
  -6  -9   7   15.80    7.80
  -6  -9   7   -0.50    6.90
   5   9  -7   19.40   10.40
   5   9  -7   -7.70   10.60
   5   9  -7    3.60    6.20
  -5  -9   7    8.40    7.30
  -5  -9   7    3.60    6.50
  -5  -9   7    5.10    6.40
   4   9  -7   23.30    6.60
   4   9  -7   19.90    8.80
  -4  -9   7   31.20    6.80
  -4  -9   7   12.40    6.10
   3   9  -7   77.99    9.80
   3   9  -7   62.79   10.20
   3   9  -7  107.79   11.40
  -3  -9   7   88.09   10.80
  -3  -9   7   65.49    7.20
  -3  -9   7   79.99    6.70
  -3  -9   7   90.09    6.70
  -3  -9   7   79.29    8.40
   2   9  -7    9.80    7.50
   2   9  -7   23.20    5.80
   2   9  -7   21.50    6.30
  -2  -9   7   19.70    4.80
  -2  -9   7   12.70    4.10
  -2  -9   7   23.60    6.30
  -2  -9   7   14.80    5.80
   1   9  -7   -4.60    5.80
   1   9  -7    1.10    4.80
   1   9  -7    1.90    3.30
   1   9  -7   -2.00    4.70
  -1  -9   7   -5.30    4.10
  -1  -9   7   -6.00    5.10
  -1  -9   7   -1.10    5.10
  -1  -9   7    4.60    2.90
   0   9  -7    0.70    5.00
   0   9  -7    2.80    4.40
   0  -9   7   -2.70    5.20
   0  -9   7   -4.10    5.10
  -1   9  -7  195.28   11.90
  -1   9  -7  188.58   12.10
   1  -9   7  180.98   13.10
  -2   9  -7    0.90    4.60
  -2   9  -7    5.10    4.50
   2  -9   7    0.50    6.20
   2  -9   7   -3.80    5.40
  -3   9  -7   17.40    5.20
  -3   9  -7    7.30    4.90
   3  -9   7   16.70    5.90
   3  -9   7   16.80    6.20
   3  -9   7   14.00    6.60
   3  -9   7   13.70    6.00
  -4   9  -7   19.80    5.80
  -4   9  -7   23.90    6.00
   4  -9   7   18.00    6.30
   4  -9   7   22.10    7.00
   4  -9   7   11.50    7.00
   4  -9   7   12.50    4.70
  -5   9  -7    8.20    6.40
  -5   9  -7   -0.60    5.90
   5  -9   7   12.10    6.10
   5  -9   7    0.60    7.00
   5  -9   7   10.90    5.60
   5  -9   7    3.70    8.20
   5  -9   7   -2.90    6.80
   6  -9   7   -4.60    6.90
   6  -9   7   10.90    7.20
   6  -9   7    0.20    7.40
   6  -9   7   11.70    8.10
   6  -9   7   -2.90    7.10
   6  -9   7  -12.00    7.80
   6  -9   7   -6.70    6.30
   6   8  -7   -9.00   11.30
   6   8  -7   11.80    7.00
   6   8  -7   29.90   11.40
  -6  -8   7    0.30    7.50
  -6  -8   7    0.40    5.90
  -6  -8   7   -9.10    6.60
   5   8  -7   -8.00    6.50
   5   8  -7   -8.40   10.60
  -5  -8   7   -7.10    5.50
  -5  -8   7    6.30    7.00
   4   8  -7   36.40    8.30
   4   8  -7   45.20    7.20
   4   8  -7   42.30   10.00
  -4  -8   7   36.20    7.50
  -4  -8   7   32.00    6.30
  -4  -8   7   21.60    6.40
   3   8  -7   91.29    9.80
   3   8  -7   92.09   11.10
   3   8  -7   77.39   10.00
  -3  -8   7   72.19    8.50
  -3  -8   7   76.89    8.20
  -3  -8   7   67.49    6.00
  -3  -8   7   67.49    6.60
  -3  -8   7   97.79   10.40
   2   8  -7    3.10    5.40
   2   8  -7    0.20    6.90
   2   8  -7   -2.40    4.90
  -2  -8   7    2.00    3.40
  -2  -8   7    1.80    5.30
  -2  -8   7    3.30    3.70
  -2  -8   7   -7.50    4.90
  -2  -8   7    6.10    4.10
   1   8  -7   -2.00    5.70
   1   8  -7    1.40    3.50
   1   8  -7   -1.70    4.80
   1   8  -7    3.90    4.50
  -1  -8   7    3.30    5.30
  -1  -8   7    3.00    3.10
  -1  -8   7   -5.40    5.00
   0   8  -7   32.60    5.30
   0   8  -7   34.90    5.40
   0   8  -7   26.40    5.70
   0  -8   7   27.20    5.90
   0  -8   7   21.50    6.10
  -1   8  -7   28.60    5.40
  -1   8  -7   25.70    5.20
  -1   8  -7   20.70    4.90
   1  -8   7   20.70    5.70
   1  -8   7   30.10    6.00
  -2   8  -7  173.08   10.80
  -2   8  -7  179.48   11.10
  -2   8  -7  168.88   11.70
   2  -8   7  132.79   16.10
   2  -8   7  175.38   12.30
  -3   8  -7   30.00    5.20
  -3   8  -7   22.80    5.10
   3  -8   7   18.10    4.30
   3  -8   7   21.30    4.40
   3  -8   7   13.50    5.70
   3  -8   7   25.70    5.40
   3  -8   7   31.20    5.90
  -4   8  -7    2.00    4.80
  -4   8  -7   -3.90    4.70
   4  -8   7    3.50    6.40
   4  -8   7   10.30    6.00
   4  -8   7    7.60    4.60
   4  -8   7   -4.90    4.50
  -5   8  -7    4.40    5.80
   5  -8   7    0.50    8.00
   5  -8   7   -0.70    6.30
   5  -8   7   -4.00    5.50
   5  -8   7    6.40    5.60
   6  -8   7   31.30    8.00
   6  -8   7   21.70    7.60
   6  -8   7   18.90    8.60
   6  -8   7   29.50    8.10
   6  -8   7   33.40    9.10
   6  -8   7   34.30    7.70
   6  -8   7   31.10    8.10
   6   7  -7   -0.90    7.10
   6   7  -7  -12.90   11.00
   6   7  -7    5.30    9.80
  -6  -7   7   -3.90    7.10
  -6  -7   7   -4.50    5.20
  -6  -7   7   -2.90    7.80
   5   7  -7   11.80   10.20
   5   7  -7   18.80    8.90
   5   7  -7   17.30    7.30
  -5  -7   7   11.30    5.40
  -5  -7   7   13.90    7.20
  -5  -7   7   13.00    7.10
   4   7  -7   20.40    6.80
   4   7  -7    8.10    7.00
   4   7  -7    2.20    8.40
  -4  -7   7    6.80    5.20
  -4  -7   7    8.50    5.60
  -4  -7   7   13.30    6.50
   3   7  -7   47.20    6.90
   3   7  -7   45.60    6.80
   3   7  -7   35.70    8.20
  -3  -7   7   30.30    3.70
  -3  -7   7   46.30    4.60
  -3  -7   7   41.10    6.30
  -3  -7   7   36.90    6.60
  -3  -7   7   32.80    5.50
   2   7  -7   -0.40    3.30
   2   7  -7   -1.00    8.00
   2   7  -7   -0.60    6.80
   2   7  -7    0.80    5.00
  -2  -7   7    2.40    5.00
  -2  -7   7    0.90    3.30
  -2  -7   7    3.20    5.20
  -2  -7   7   -0.40    3.70
   1   7  -7   13.50    3.00
   1   7  -7   16.50    4.10
   1   7  -7   18.80    4.40
   1   7  -7   13.60    6.30
   1   7  -7    8.60    5.20
   1   7  -7   15.50    4.30
  -1  -7   7   24.30    5.60
  -1  -7   7   10.30    3.60
   0   7  -7   83.79    8.50
   0   7  -7   61.79    7.50
   0   7  -7   59.99    5.80
   0   7  -7   70.19    8.10
   0  -7   7   67.49    6.00
   0  -7   7   81.89    9.00
   0  -7   7   77.89    9.00
  -1   7  -7    5.00    5.00
  -1   7  -7    6.40    4.40
   1  -7   7    1.40    4.20
   1  -7   7    6.10    8.70
   1  -7   7    3.80    5.30
  -2   7  -7  189.78   11.30
  -2   7  -7  210.48   11.70
  -2   7  -7  185.08   12.10
   2  -7   7  203.58    9.70
   2  -7   7  205.58   12.40
   2  -7   7  200.78   13.40
   2  -7   7  205.98   10.80
  -3   7  -7   -2.40    4.10
  -3   7  -7    1.60    4.10
  -3   7  -7   -0.70    4.50
   3  -7   7   -7.90    2.80
   3  -7   7   -1.40    5.50
   3  -7   7   -5.60    3.90
   3  -7   7    6.30    5.20
   3  -7   7    2.80    3.50
  -4   7  -7   -1.90    5.20
  -4   7  -7    6.10    4.80
  -4   7  -7   -2.10    4.70
   4  -7   7   -2.00    4.30
   4  -7   7    2.50    4.70
   4  -7   7    1.10    6.20
   4  -7   7   -1.70    5.50
  -5   7  -7   -3.60    5.30
   5  -7   7   -1.20    7.40
   5  -7   7    2.70    6.50
   5  -7   7   -3.10    5.50
   5  -7   7   -4.10    5.70
   5  -7   7   -2.30    6.50
   6  -7   7    9.70    6.90
   6  -7   7   -0.50    7.20
   6  -7   7   -5.50    7.30
   6  -7   7    7.30    7.00
   6  -7   7   -6.80    7.10
   6  -7   7   -4.70    7.40
   6  -7   7    5.00    7.10
   6   6  -7   -2.40    9.30
   6   6  -7   -9.10    7.40
   6   6  -7   -5.80   11.30
  -6  -6   7    2.10    7.00
  -6  -6   7    0.80    7.00
   5   6  -7   27.80   12.00
   5   6  -7   22.20    8.90
   5   6  -7   21.90    7.50
  -5  -6   7   17.70    6.90
  -5  -6   7   32.20    5.50
   4   6  -7   -0.80    6.30
   4   6  -7    0.70    8.10
   4   6  -7   -0.60    6.50
  -4  -6   7   -1.60    4.50
  -4  -6   7    6.70    5.80
  -4  -6   7   -3.70    4.90
   3   6  -7   26.60    6.50
   3   6  -7   29.10    7.60
   3   6  -7   29.10    6.00
  -3  -6   7   32.20    3.50
  -3  -6   7   20.20    5.20
  -3  -6   7   39.40    5.60
  -3  -6   7   23.20    5.70
   2   6  -7    3.10    4.50
   2   6  -7    3.30    3.50
   2   6  -7    5.20    5.30
   2   6  -7    2.30    3.30
  -2  -6   7    6.10    4.70
  -2  -6   7   -1.70    4.40
  -2  -6   7    5.00    5.00
  -2  -6   7    2.10    3.90
   1   6  -7    4.00    3.50
   1   6  -7    3.50    5.50
   1   6  -7   16.50    4.80
   1   6  -7    5.60    2.50
   1   6  -7   -3.00    4.60
  -1  -6   7    5.00    3.40
  -1  -6   7    5.20    4.10
  -1  -6   7   13.60    3.40
  -1  -6   7    8.20    5.00
   0   6  -7  337.67   15.80
   0   6  -7  353.26   15.70
   0   6  -7  303.17   14.50
   0   6  -7  326.47   15.80
   0  -6   7  333.37   14.70
   0  -6   7  322.57   16.10
   0  -6   7  346.57   16.10
  -1   6  -7  193.08   10.80
  -1   6  -7  171.38   10.40
  -1   6  -7  177.88    8.70
  -1   6  -7  177.78   10.40
   1  -6   7  187.58   11.60
   1  -6   7  180.48    9.80
   1  -6   7  172.58   10.90
   1  -6   7  187.48   11.80
  -2   6  -7   15.10    4.70
  -2   6  -7   21.60    4.20
   2  -6   7   28.80    3.80
   2  -6   7   23.90    5.80
   2  -6   7   20.60    4.50
   2  -6   7   13.80    5.20
   2  -6   7   27.10    5.40
  -3   6  -7   -3.80    3.60
  -3   6  -7    3.40    4.10
  -3   6  -7   -7.20    4.30
   3  -6   7    1.10    4.10
   3  -6   7    5.20    5.30
   3  -6   7    2.60    3.40
   3  -6   7   -1.40    4.90
   3  -6   7   -4.90    3.00
  -4   6  -7    2.70    5.60
  -4   6  -7    2.70    5.10
  -4   6  -7    4.00    4.40
   4  -6   7    3.30    5.90
   4  -6   7    2.70    6.10
   4  -6   7   -4.80    5.20
   4  -6   7    9.00    4.60
   5  -6   7   17.20    6.30
   5  -6   7   22.50    7.10
   5  -6   7   19.40    7.20
   5  -6   7   19.30    6.50
   6  -6   7    8.30    7.20
   6  -6   7   -3.90    7.90
   6  -6   7    5.00    7.00
   6  -6   7   -2.00    6.60
   6  -6   7   16.90    7.60
   6  -6   7  -12.80    6.60
   7   5  -7  -11.20    7.80
   7   5  -7   -5.10   11.80
  -7  -5   7    0.40    8.50
   6   5  -7    6.00   11.10
   6   5  -7    7.50    9.40
   6   5  -7    7.90    7.80
  -6  -5   7   -5.50    4.40
  -6  -5   7  -13.50    6.40
  -6  -5   7   -6.40    6.80
   5   5  -7   -4.40    7.60
   5   5  -7   -3.20    9.20
   5   5  -7  -11.60    6.70
  -5  -5   7   -5.70    3.80
  -5  -5   7    9.00    6.20
  -5  -5   7    6.50    6.20
   4   5  -7   25.90    8.30
   4   5  -7   21.70    6.80
   4   5  -7   27.00    6.80
  -4  -5   7   17.70    4.40
  -4  -5   7   10.90    5.50
  -4  -5   7   18.60    6.10
   3   5  -7    3.40    6.00
   3   5  -7   -0.70    6.80
   3   5  -7    3.30    5.20
   3   5  -7    1.30    3.20
  -3  -5   7   -1.10    4.80
  -3  -5   7   -4.00    4.00
  -3  -5   7   -3.80    4.90
  -3  -5   7   -7.20    2.90
   2   5  -7   19.90    6.20
   2   5  -7   14.60    5.20
   2   5  -7   23.60    3.80
   2   5  -7   22.50    4.20
   2   5  -7   22.10    4.40
   2   5  -7   21.00    3.60
  -2  -5   7   17.80    4.50
  -2  -5   7   15.40    8.10
  -2  -5   7   21.40    3.70
  -2  -5   7   15.80    4.40
   1   5  -7    4.10    3.30
   1   5  -7    3.00    3.30
   1   5  -7    3.80    3.50
   1   5  -7   -0.50    4.80
   1   5  -7    3.50    4.30
   1   5  -7   -1.30    2.10
  -1  -5   7    5.40    4.40
  -1  -5   7    0.20    2.90
  -1  -5   7   -1.20    3.30
  -1  -5   7    0.70    3.50
   0   5  -7    1.90    2.90
   0   5  -7   -3.10    3.60
   0   5  -7   -0.70    3.20
   0   5  -7   -5.30    3.60
   0  -5   7   -1.90    3.40
   0  -5   7    1.70    4.20
   0  -5   7   -0.40    3.90
   0  -5   7   -6.00    3.10
  -1   5  -7   65.29    7.40
  -1   5  -7   73.29    7.20
  -1   5  -7   78.19    5.50
  -1   5  -7   71.29    6.70
   1  -5   7   74.09    8.40
   1  -5   7   76.29    7.00
   1  -5   7   64.79    7.90
  -2   5  -7   21.60    4.40
  -2   5  -7   34.50    6.20
  -2   5  -7   31.20    4.10
   2  -5   7   33.00    5.50
   2  -5   7   37.00    7.10
   2  -5   7   28.20    4.70
   2  -5   7   28.80    4.70
  -3   5  -7  105.59    7.70
  -3   5  -7  104.99    9.40
   3  -5   7  101.29    9.10
   3  -5   7  105.29    7.00
   3  -5   7  102.29    7.60
   3  -5   7   89.09    9.80
   3  -5   7  100.99    9.60
   3  -5   7  109.79    8.00
  -4   5  -7    0.70    4.90
  -4   5  -7    8.50    4.40
   4  -5   7   -3.40    5.20
   4  -5   7    5.00    4.70
   4  -5   7   -2.10    5.10
   4  -5   7    3.50    5.30
  -5   5  -7   -1.90    5.50
   5  -5   7   -0.20    6.40
   5  -5   7   -1.20    5.80
   5  -5   7   -1.70    5.40
   5  -5   7   -2.00    5.70
   5  -5   7   -4.50    5.90
   6  -5   7   43.00   11.90
   6  -5   7   34.70    8.10
   6  -5   7   33.50    7.70
   6  -5   7   25.00    7.80
   6  -5   7   32.10    7.10
   6  -5   7   23.70    8.20
   7  -5   7    4.30    6.80
   7  -5   7   -3.00    7.50
   7  -5   7   -4.30    6.60
   7  -5   7    5.10    8.00
   7  -5   7    9.30    7.70
   7  -5   7  -10.20    7.60
   7  -5   7   -1.60    7.50
   7   4  -7   -4.80    8.20
   7   4  -7   12.80   11.70
  -7  -4   7    6.50    8.10
   6   4  -7   51.89   10.70
   6   4  -7   51.29   11.80
   6   4  -7   36.20    8.90
  -6  -4   7   36.30    8.70
  -6  -4   7   41.40    8.20
   5   4  -7    2.40    7.50
   5   4  -7   -7.60    8.30
   5   4  -7    6.50    7.20
  -5  -4   7    1.50    6.20
  -5  -4   7    3.70    3.20
  -5  -4   7   -1.80    5.70
   4   4  -7   -4.60    5.80
   4   4  -7   -0.90    7.30
   4   4  -7    1.70    6.30
  -4  -4   7    1.20    3.30
  -4  -4   7   -3.80    5.00
  -4  -4   7   -3.30    4.70
   3   4  -7    7.70    6.80
   3   4  -7   12.10    5.10
   3   4  -7   10.50    3.30
  -3  -4   7    6.60    5.10
  -3  -4   7    4.70    3.80
  -3  -4   7   12.00    6.20
  -3  -4   7    4.80    3.30
   2   4  -7   14.80    3.80
   2   4  -7    7.90    5.00
   2   4  -7    2.20    5.50
   2   4  -7    8.30    3.50
  -2  -4   7    5.20    3.90
  -2  -4   7    4.90    3.70
  -2  -4   7    6.10    3.30
  -2  -4   7    3.00    4.50
   1   4  -7   34.30    4.20
   1   4  -7   36.10    4.30
   1   4  -7   26.30    4.20
   1   4  -7   31.20    5.10
   1   4  -7   41.20    4.00
   1   4  -7   32.70    5.10
  -1  -4   7   40.10    5.00
  -1  -4   7   20.60    4.60
  -1  -4   7   34.80    4.50
  -1  -4   7   31.40    3.80
  -1  -4   7   29.60    4.20
  -1  -4   7   33.40    4.40
   0   4  -7   84.09    6.40
   0   4  -7   87.49    7.50
   0   4  -7   75.49    7.20
   0   4  -7   83.69    7.10
   0  -4   7   80.49    7.40
   0  -4   7   86.49    7.20
   0  -4   7   84.79    8.70
   0  -4   7   55.99    6.80
   0  -4   7   76.09    6.20
   0  -4   7   74.89    7.80
  -1   4  -7   63.29    7.20
  -1   4  -7   56.79    6.00
  -1   4  -7   60.39    6.50
  -1   4  -7   60.69    5.60
   1  -4   7   59.59    7.20
   1  -4   7   59.99    6.30
   1  -4   7   59.49    6.70
   1  -4   7   57.59    7.00
  -2   4  -7   37.10    3.80
  -2   4  -7   33.70    4.50
  -2   4  -7   37.00    5.00
   2  -4   7   32.00    4.80
   2  -4   7   41.20    5.30
   2  -4   7   30.00    4.10
  -3   4  -7   -1.50    3.20
  -3   4  -7    4.20    3.60
  -3   4  -7    0.70    4.40
  -3   4  -7    1.00    4.50
   3  -4   7    3.70    4.50
   3  -4   7   -3.50    3.60
   3  -4   7    8.00    3.80
   3  -4   7    4.70    4.70
   3  -4   7   -4.60    4.90
  -4   4  -7  408.56   19.70
  -4   4  -7  377.06   19.90
  -4   4  -7  435.36   20.60
   4  -4   7  410.26   18.50
   4  -4   7  386.26   18.60
   4  -4   7  403.16   19.50
   4  -4   7  395.16   19.60
  -5   4  -7   -0.70    5.40
   5  -4   7    7.80    6.20
   5  -4   7    4.90    5.80
   5  -4   7    3.70    5.90
   5  -4   7    6.70    6.10
   6  -4   7   16.20    7.50
   6  -4   7    5.10    7.80
   6  -4   7   14.20    7.30
   6  -4   7   12.70    6.10
   6  -4   7    6.80    6.80
   7  -4   7    3.30    7.70
   7  -4   7    4.20    9.00
   7  -4   7    4.60    8.00
   7  -4   7    8.10    8.10
   7  -4   7    2.40    6.60
   7  -4   7   -7.30    8.30
   7   3  -7   47.10    9.70
   7   3  -7   43.50   11.30
  -7  -3   7   55.19   15.80
  -7  -3   7   49.80    9.20
   6   3  -7    3.50    8.40
   6   3  -7    4.70    9.80
   6   3  -7    5.70    8.90
  -6  -3   7    6.40    7.30
  -6  -3   7   -0.70    6.70
   5   3  -7   47.20    8.70
   5   3  -7   40.00    9.20
   5   3  -7   44.50    8.60
  -5  -3   7   24.70    7.10
  -5  -3   7   58.89    7.30
   4   3  -7   -1.30    6.30
   4   3  -7    0.20    5.90
   4   3  -7    0.00    6.80
  -4  -3   7   -0.50    4.80
  -4  -3   7    0.60    2.70
  -4  -3   7    5.50    5.00
   3   3  -7   50.49    8.20
   3   3  -7   41.30    5.40
  -3  -3   7   48.60    5.70
  -3  -3   7   38.10    9.00
  -3  -3   7   35.60    4.20
  -3  -3   7   37.60    6.30
   2   3  -7   -5.00    4.60
   2   3  -7    1.20    3.00
   2   3  -7    3.90    5.10
  -2  -3   7   -1.70    3.90
  -2  -3   7    2.50    3.30
  -2  -3   7   -2.40    2.40
  -2  -3   7    2.30    4.30
  -2  -3   7    0.10    3.20
   1   3  -7    7.30    4.10
   1   3  -7   20.40    2.70
   1   3  -7   17.00    3.40
   1   3  -7   16.10    3.80
   1   3  -7   13.60    4.10
  -1  -3   7   13.80    3.10
  -1  -3   7   17.30    4.00
  -1  -3   7   16.10    3.10
  -1  -3   7   17.50    3.70
  -1  -3   7    4.50    3.90
  -1  -3   7   15.90    3.30
   0   3  -7  108.59    7.40
   0   3  -7  103.59    8.50
   0   3  -7  105.29    7.40
   0   3  -7  114.19    7.90
   0  -3   7  102.19    6.70
   0  -3   7  112.29    8.60
   0  -3   7  121.89    8.00
   0  -3   7  121.19    7.60
   0  -3   7  106.99    7.20
   0  -3   7   99.19    6.80
  -1   3  -7   -1.70    3.10
  -1   3  -7    3.00    3.20
  -1   3  -7   -1.40    2.50
   1  -3   7   -3.50    2.80
   1  -3   7   -2.50    3.60
   1  -3   7   -1.90    3.70
  -2   3  -7    6.90    3.30
  -2   3  -7   11.10    4.10
  -2   3  -7   11.60    4.10
   2  -3   7   12.20    6.50
   2  -3   7    6.20    2.50
   2  -3   7   14.80    4.30
   2  -3   7   11.10    3.10
   2  -3   7   13.80    4.30
  -3   3  -7  806.92   34.00
  -3   3  -7  784.92   33.00
  -3   3  -7  813.42   34.20
   3  -3   7  807.62   33.90
   3  -3   7  830.72   32.90
   3  -3   7  812.02   33.50
   3  -3   7  764.52   32.40
   3  -3   7  811.92   33.80
  -4   3  -7   34.10    5.70
  -4   3  -7   30.30    4.50
  -4   3  -7   28.20    6.00
   4  -3   7   11.70    5.60
   4  -3   7   32.00    4.80
   4  -3   7   16.20    3.80
   4  -3   7   16.60    5.40
   4  -3   7   12.70    5.50
  -5   3  -7   27.40    6.20
  -5   3  -7   13.60    6.50
   5  -3   7   35.50    6.20
   5  -3   7   33.80    6.70
   5  -3   7   26.50    7.10
   5  -3   7   33.60    6.80
  -6   3  -7   -8.80    6.40
   6  -3   7  -15.00    7.40
   6  -3   7   -2.50    6.50
   6  -3   7  -10.60    5.20
   6  -3   7  -10.40    7.10
   6  -3   7    1.00    6.90
   7  -3   7    6.90    7.10
   7  -3   7    3.20    7.80
   7  -3   7   12.00    7.90
   7  -3   7    5.40    8.30
   7  -3   7    4.70    8.40
   7   2  -7   13.40   10.40
   7   2  -7    7.90   10.90
   7   2  -7    4.90    9.10
  -7  -2   7    2.10    7.00
  -7  -2   7   -4.30    7.80
   6   2  -7   14.90   10.20
   6   2  -7    4.00    8.70
   6   2  -7   20.20    9.10
  -6  -2   7    4.20    6.90
   5   2  -7   23.60    7.80
   5   2  -7   25.20    8.60
   5   2  -7   36.10    8.30
  -5  -2   7   14.60    6.00
  -5  -2   7   16.50    6.50
   4   2  -7    6.20    6.70
   4   2  -7   -6.30    6.10
  -4  -2   7    2.00    4.80
  -4  -2   7    0.40    5.00
   3   2  -7   23.70   10.20
   3   2  -7    7.20    3.40
  -3  -2   7    0.90    4.40
  -3  -2   7    3.30    2.70
  -3  -2   7    1.10    4.50
  -3  -2   7    5.40    5.60
  -3  -2   7    6.30    2.30
  -3  -2   7    0.20    3.40
   2   2  -7    5.70    4.80
   2   2  -7    3.00    3.40
   2   2  -7    6.30    3.30
   2   2  -7   13.30    4.80
  -2  -2   7    6.10    2.60
  -2  -2   7   -0.60    3.40
  -2  -2   7    5.80    4.20
  -2  -2   7    8.00    3.70
  -2  -2   7   10.30    2.40
  -2  -2   7    3.60    4.10
   1   2  -7  847.12   33.70
   1   2  -7  881.41   34.50
   1   2  -7  810.22   34.60
   1   2  -7  850.91   34.30
   1   2  -7  843.02   34.80
  -1  -2   7  834.62   34.30
  -1  -2   7  847.52   34.00
  -1  -2   7  829.52   34.10
  -1  -2   7  847.62   34.20
  -1  -2   7  900.41   34.80
  -1  -2   7  857.61   34.90
  -1  -2   7  827.82   33.70
   0   2  -7  123.39    8.00
   0   2  -7  129.69    8.30
   0   2  -7  133.59    8.40
   0   2  -7  128.39    9.00
   0  -2   7  128.99    8.60
   0  -2   7  130.29    7.40
   0  -2   7  138.69    7.10
   0  -2   7  130.79    8.20
   0  -2   7  133.09    8.40
   0  -2   7  125.39    7.80
  -1   2  -7  281.77   13.30
  -1   2  -7  271.67   13.20
  -1   2  -7  277.57   13.70
  -1   2  -7  285.77   13.60
   1  -2   7  297.87   13.40
   1  -2   7  288.87   13.70
   1  -2   7  302.37   14.00
  -2   2  -7   18.90    3.50
  -2   2  -7   20.80    4.20
  -2   2  -7   22.90    4.20
   2  -2   7   20.80    3.10
   2  -2   7   18.40    4.40
   2  -2   7   20.00    4.50
   2  -2   7   22.50    3.90
   2  -2   7   15.60    3.90
  -3   2  -7   26.00    3.70
   3  -2   7   25.40    5.30
   3  -2   7   23.90    3.70
   3  -2   7   17.90    3.10
   3  -2   7   19.20    5.40
   3  -2   7   31.90    5.30
  -4   2  -7  109.09    9.90
  -4   2  -7  108.29    8.20
  -4   2  -7  137.09   10.60
   4  -2   7  126.99   10.60
   4  -2   7  124.79    9.60
   4  -2   7  124.99    8.40
   4  -2   7  107.19   10.00
   4  -2   7   88.89    9.80
  -5   2  -7    1.60    5.10
  -5   2  -7    2.50    5.80
   5  -2   7   -7.40    5.10
   5  -2   7   13.20    6.30
   5  -2   7   -5.10    6.20
   5  -2   7   -2.60    5.90
  -6   2  -7   -2.10    6.80
  -6   2  -7   13.40    6.30
   6  -2   7   -3.90    6.70
   6  -2   7   -0.30    7.20
   6  -2   7    4.50    8.00
   6  -2   7   -1.60    7.20
   6  -2   7    3.20    7.80
  -7   2  -7   -0.50    8.10
   7  -2   7    7.50    7.40
   7  -2   7    8.20    8.60
   7  -2   7   -1.10    8.30
   7  -2   7    2.90    8.10
   7   1  -7   20.10   11.20
   7   1  -7   -4.30    8.70
   7   1  -7   16.30   10.20
  -7  -1   7    4.40    7.00
  -7  -1   7   -6.10    7.40
   6   1  -7  115.89   14.40
   6   1  -7   75.09   11.80
   6   1  -7  125.99   14.80
  -6  -1   7   84.99   10.20
  -6  -1   7   95.69   11.20
   5   1  -7   98.79   13.00
   5   1  -7   83.29    9.70
  -5  -1   7  101.39    9.80
  -5  -1   7   72.69    8.70
   4   1  -7   19.30    3.80
   4   1  -7   18.30    7.00
   4   1  -7   30.50    7.10
  -4  -1   7   17.20    3.70
  -4  -1   7   15.90    5.60
  -4  -1   7   24.10    5.40
  -4  -1   7   20.60    6.10
   3   1  -7  139.09   11.10
   3   1  -7  119.99    8.50
  -3  -1   7  136.39    9.90
  -3  -1   7  125.99    8.40
  -3  -1   7  121.29    9.90
  -3  -1   7  131.59    9.60
   2   1  -7  185.38   10.00
   2   1  -7  193.38   11.10
   2   1  -7  200.58   10.40
   2   1  -7  189.48   11.50
  -2  -1   7  201.48   11.20
  -2  -1   7  207.08   10.30
  -2  -1   7  187.38    8.90
  -2  -1   7  192.48   11.40
  -2  -1   7  236.58   14.40
   1   1  -7  531.35   26.10
   1   1  -7  622.64   25.30
   1   1  -7  618.74   25.00
   1   1  -7  616.04   25.60
   1   1  -7  613.04   24.60
   1   1  -7  576.14   25.00
  -1  -1   7  620.34   25.90
  -1  -1   7  631.64   25.40
  -1  -1   7  627.94   24.60
  -1  -1   7  586.74   24.70
  -1  -1   7  618.24   24.60
  -1  -1   7  583.44   25.20
  -1  -1   7  625.64   24.70
   0   1  -7  214.78   10.90
   0   1  -7  200.68    9.70
   0   1  -7  194.28   10.10
   0   1  -7  216.18    9.90
   0   1  -7  222.08   10.60
   0   1  -7  200.88   10.80
   0   1  -7  217.78   11.00
   0  -1   7  222.18    9.60
   0  -1   7  214.18    9.40
   0  -1   7  208.98   10.70
   0  -1   7  212.58   10.80
   0  -1   7  214.18   10.70
   0  -1   7  222.48   10.90
   0  -1   7  229.28   11.40
  -1   1  -7  107.59    7.50
  -1   1  -7  111.79    7.10
  -1   1  -7   93.99    5.80
  -1   1  -7   89.19    7.00
  -1   1  -7   98.39    7.50
   1  -1   7   95.89    8.00
   1  -1   7  103.99    7.60
   1  -1   7   90.79    7.00
  -2   1  -7   14.10    3.20
  -2   1  -7    9.10    3.60
  -2   1  -7   10.70    4.10
   2  -1   7   10.90    4.40
   2  -1   7    9.40    4.30
   2  -1   7    8.10    3.70
   2  -1   7   10.70    4.00
  -3   1  -7   14.10    5.80
  -3   1  -7   17.40    4.40
  -3   1  -7   13.70    3.20
   3  -1   7    5.30    4.60
   3  -1   7    5.10    3.70
   3  -1   7   13.80    5.20
   3  -1   7    9.00    5.20
  -4   1  -7    0.10    3.00
  -4   1  -7    6.90    4.60
  -4   1  -7    4.50    4.30
   4  -1   7    6.90    4.30
   4  -1   7   -1.00    2.80
   4  -1   7    1.10    3.50
   4  -1   7   -3.00    5.10
   4  -1   7    0.40    5.00
  -5   1  -7  160.68   11.70
  -5   1  -7  151.18   12.50
   5  -1   7  155.38   13.20
   5  -1   7  162.18   13.50
   5  -1   7  174.68   11.00
   5  -1   7  161.68   12.70
   5  -1   7  153.28    9.60
  -6   1  -7  129.89   13.40
  -6   1  -7  127.59   12.10
   6  -1   7  134.49   14.30
   6  -1   7  156.68   12.10
   6  -1   7  162.18    9.80
   6  -1   7  138.69   13.60
  -7   1  -7   56.59    9.70
   7  -1   7   52.39   10.50
   7   0  -7   16.80    9.90
   7   0  -7   30.60   11.00
   7   0  -7   28.20   11.30
  -7   0   7    1.40    8.00
  -7   0   7   14.00    6.80
   6   0  -7   21.30    9.70
  -6   0   7   10.60    7.40
  -6   0   7   19.10    6.50
   5   0  -7   -2.80    7.40
   5   0  -7    8.70    7.60
   5   0  -7   14.50    3.60
  -5   0   7    5.00    4.90
  -5   0   7    7.60    6.00
  -5   0   7   16.20    7.10
   4   0  -7    6.00    3.90
   4   0  -7   11.60    6.50
   4   0  -7   14.50    6.40
  -4   0   7    7.20    5.70
  -4   0   7   16.10    5.20
  -4   0   7    6.10    5.00
   3   0  -7    6.50    4.00
   3   0  -7    4.70    6.20
   3   0  -7   10.30    5.40
  -3   0   7    8.10    4.80
  -3   0   7    7.90    4.30
  -3   0   7   -0.80    3.70
  -3   0   7   10.70    4.90
   2   0  -7  117.69    7.90
   2   0  -7  104.49    8.90
   2   0  -7   88.69    7.80
   2   0  -7  119.79    7.80
   2   0  -7  108.79    8.50
   2   0  -7   96.39    9.30
  -2   0   7   94.69    8.70
  -2   0   7  100.49    5.40
  -2   0   7  123.09    8.50
  -2   0   7  113.69    7.90
  -2   0   7  119.29    8.00
   0   0  -7    2.60    2.90
   0   0  -7    1.20    2.40
   0   0  -7    2.90    3.30
   0   0  -7    0.40    3.30
   0   0  -7    0.90    2.30
   0   0  -7    4.60    3.60
   0   0   7    1.60    3.70
   0   0   7    1.30    2.60
   0   0   7    2.80    2.70
   0   0   7   -4.90    2.90
   0   0   7   -0.90    3.00
  -1   0  -7   19.50    4.10
  -1   0  -7   20.50    3.40
  -1   0  -7   14.70    3.60
  -1   0  -7   24.80    3.60
   1   0   7   18.20    3.70
   1   0   7   16.80    4.30
   1   0   7   13.40    3.30
  -2   0  -7  681.43   27.60
  -2   0  -7  691.83   28.70
  -2   0  -7  691.13   28.80
  -2   0  -7  645.54   30.40
   2   0   7  657.73   27.70
   2   0   7  691.13   28.50
   2   0   7  683.53   29.00
   2   0   7  674.43   28.30
  -3   0  -7   68.69    8.30
  -3   0  -7   60.29    6.80
  -3   0  -7   65.49    5.50
   3   0   7   78.39   10.00
   3   0   7   69.29    6.80
   3   0   7   72.69    7.30
   3   0   7   66.19    8.20
  -4   0  -7    8.50    4.70
  -4   0  -7   10.80    4.90
   4   0   7    1.90    2.60
   4   0   7    9.30    5.70
   4   0   7   12.90    4.50
   4   0   7   -4.10    5.80
   4   0   7   -1.40    4.10
  -5   0  -7   15.90    5.50
  -5   0  -7   15.70    6.00
   5   0   7   17.60    6.90
   5   0   7   23.90    5.90
   5   0   7   24.90    7.70
  -6   0  -7  109.59   11.10
  -6   0  -7  102.59   12.30
   6   0   7  125.39   11.80
   6   0   7   95.19   11.90
   6   0   7  110.99   13.90
  -7   0  -7   -0.30    7.50
   7   0   7   24.40    9.90
   7   0   7    7.10    9.60
   7  -1  -7   10.70    9.90
   7  -1  -7   -1.00   10.30
   7  -1  -7   -7.80    9.60
  -7   1   7   -5.40    6.00
  -7   1   7    0.70    7.40
   6  -1  -7    3.30   12.00
   6  -1  -7   -3.80    8.80
  -6   1   7   -2.00    5.50
  -6   1   7   -4.00    6.60
   5  -1  -7    8.40    4.40
   5  -1  -7   20.30    8.10
   5  -1  -7   19.40    7.90
  -5   1   7   17.00    6.20
  -5   1   7   18.90    5.20
  -5   1   7   15.80    6.90
   4  -1  -7   43.00    7.30
   4  -1  -7   32.40    7.20
   4  -1  -7   43.30    5.40
  -4   1   7   30.30    6.50
  -4   1   7   27.80    6.20
  -4   1   7   39.70    5.10
  -4   1   7   33.60    5.00
   3  -1  -7  393.56   19.30
   3  -1  -7  402.06   18.00
   3  -1  -7  382.16   18.70
  -3   1   7  417.06   17.70
  -3   1   7  395.26   18.30
  -3   1   7  361.56   18.90
  -3   1   7  366.66   17.60
   2  -1  -7   77.39    6.80
   2  -1  -7   76.99    7.60
   2  -1  -7   68.19    8.60
   2  -1  -7   85.09    7.50
   2  -1  -7   74.89    7.60
  -2   1   7   74.89    7.10
  -2   1   7   69.19    7.50
  -2   1   7   71.39    4.70
  -2   1   7   55.09    6.90
  -2   1   7   59.19    7.90
  -2   1   7   67.79    4.40
   1  -1  -7   56.09    4.70
   1  -1  -7   44.40    5.40
   1  -1  -7   51.89    4.60
   1  -1  -7   39.70    5.20
   1  -1  -7   35.70    4.70
   1  -1  -7   43.10    5.20
  -1   1   7   43.50    4.40
  -1   1   7   45.10    5.60
  -1   1   7   36.80    4.10
  -1   1   7   47.60    4.70
   0  -1  -7    9.60    3.70
   0  -1  -7    6.30    2.70
   0  -1  -7    5.70    3.00
   0  -1  -7    5.80    3.60
   0  -1  -7    9.60    3.50
   0   1   7    4.90    2.60
   0   1   7    8.90    3.50
   0   1   7    3.30    3.90
   0   1   7    8.90    3.20
   0   1   7    8.60    3.20
  -1  -1  -7   75.69    6.20
  -1  -1  -7   58.99    7.10
  -1  -1  -7   74.99    6.50
  -1  -1  -7   64.79    6.90
   1   1   7   71.89    7.90
   1   1   7   64.89    5.90
   1   1   7   73.09    7.00
   1   1   7   63.89    6.50
  -2  -1  -7   -2.10    2.60
  -2  -1  -7    0.10    3.70
  -2  -1  -7   -9.00    3.60
  -2  -1  -7   -1.80    3.20
   2   1   7   -2.40    3.80
   2   1   7    2.20    4.50
   2   1   7   -7.20    2.90
   2   1   7   -9.50    4.50
  -3  -1  -7  433.76   20.00
  -3  -1  -7  422.26   17.50
   3   1   7  417.86   20.30
   3   1   7  438.06   20.50
   3   1   7  408.76   17.80
  -4  -1  -7   13.20    5.30
  -4  -1  -7   12.30    4.70
   4   1   7   19.20    6.90
   4   1   7   17.80    6.10
  -5  -1  -7   -0.60    4.70
  -5  -1  -7   -4.30    4.90
   5   1   7    1.80    6.30
   5   1   7    8.80    5.30
   5   1   7    6.80    7.60
  -6  -1  -7    6.20    6.40
  -6  -1  -7   21.00    6.30
   6   1   7    6.50    7.80
   6   1   7   14.20    9.20
   6   1   7    5.20    7.70
   7  -2  -7    8.80   10.30
   7  -2  -7    7.80   10.40
  -7   2   7   12.90    7.80
  -7   2   7   20.60    6.90
   6  -2  -7    4.40    9.10
   6  -2  -7   24.30    9.30
   6  -2  -7    9.20    4.70
  -6   2   7    2.60    8.00
  -6   2   7    6.80    5.50
  -6   2   7    3.60    7.10
   5  -2  -7    8.00    7.40
   5  -2  -7   23.00    8.10
   5  -2  -7   13.70    5.30
  -5   2   7   15.70    4.80
  -5   2   7   17.80    6.60
  -5   2   7   29.30    7.40
   4  -2  -7  108.09    9.30
   4  -2  -7  107.39   10.90
   4  -2  -7   99.69   11.10
  -4   2   7   93.19   10.30
  -4   2   7   76.19    9.80
  -4   2   7   95.29    8.20
   3  -2  -7   30.90    6.80
   3  -2  -7   19.60    6.40
   3  -2  -7   20.60    6.00
   3  -2  -7   22.20    5.30
  -3   2   7   18.10    4.30
  -3   2   7    7.20    5.60
   2  -2  -7  396.06   18.20
   2  -2  -7  392.56   17.10
   2  -2  -7  383.26   18.50
   2  -2  -7  392.06   17.80
  -2   2   7  389.06   16.10
  -2   2   7  427.46   17.50
  -2   2   7  402.46   18.00
  -2   2   7  365.76   18.50
   1  -2  -7   -5.10    2.70
   1  -2  -7    2.70    3.00
   1  -2  -7   -0.10    2.50
   1  -2  -7   -3.10    4.00
   1  -2  -7    1.80    2.40
   1  -2  -7    0.00    3.70
   1  -2  -7    0.70    3.50
  -1   2   7   -2.50    2.30
  -1   2   7    0.20    3.30
  -1   2   7   -4.90    3.20
  -1   2   7    2.90    4.50
   0  -2  -7   40.20    4.90
   0  -2  -7   47.50    4.10
   0  -2  -7   51.69    3.80
   0  -2  -7   46.40    5.20
   0  -2  -7   48.10    5.40
   0  -2  -7   50.19    6.30
   0   2   7   46.00    5.00
   0   2   7   43.20    4.60
   0   2   7   43.20    5.50
   0   2   7   52.49    4.80
   0   2   7   44.00    4.50
   0   2   7   42.70    4.20
  -1  -2  -7   61.39    7.20
  -1  -2  -7   54.39    6.30
  -1  -2  -7   54.99    6.00
  -1  -2  -7   54.39    5.50
   1   2   7   52.79    5.90
   1   2   7   63.09    7.50
   1   2   7   47.70    5.30
   1   2   7   52.99    5.00
  -2  -2  -7    4.50    4.40
  -2  -2  -7    5.50    2.60
   2   2   7    6.50    4.20
   2   2   7    4.10    2.90
   2   2   7    5.10    5.10
  -3  -2  -7  209.18   16.80
  -3  -2  -7  199.28   12.90
   3   2   7  253.27   16.10
   3   2   7  212.38   13.40
  -4  -2  -7   29.40    5.90
  -4  -2  -7   36.00    5.50
   4   2   7   31.40    6.70
   4   2   7   39.10    7.90
  -5  -2  -7   29.30    7.60
  -5  -2  -7   28.10    5.60
   5   2   7    8.40   10.10
   5   2   7   22.90    8.60
   5   2   7   20.10    5.00
  -6  -2  -7   -9.80    5.40
  -6  -2  -7    1.90    6.00
   6   2   7   12.60    9.60
   6   2   7    0.30    7.40
   7  -3  -7   15.10    9.90
  -7   3   7   23.00    8.60
  -7   3   7   15.60    8.30
   6  -3  -7   -3.40    8.60
   6  -3  -7   -2.70    8.30
  -6   3   7    2.60    7.80
  -6   3   7    0.40    6.80
  -6   3   7   -6.70    4.90
   5  -3  -7    6.20    6.80
   5  -3  -7   15.40    7.80
   5  -3  -7   20.30    7.90
  -5   3   7   18.40    7.40
  -5   3   7   10.10    5.10
  -5   3   7    5.50    6.10
   4  -3  -7  224.78   13.30
   4  -3  -7  203.28   14.40
   4  -3  -7  209.38   14.40
  -4   3   7  216.88   13.70
  -4   3   7  194.88   13.70
  -4   3   7  230.68   11.20
   3  -3  -7 1372.56   54.79
   3  -3  -7 1407.06   57.79
   3  -3  -7 1319.07   56.29
   3  -3  -7 1445.46   55.99
  -3   3   7 1326.77   56.59
  -3   3   7 1451.75   54.89
  -3   3   7 1350.36   55.99
   2  -3  -7    7.60    5.20
   2  -3  -7   14.70    4.50
   2  -3  -7   14.20    2.60
   2  -3  -7   11.80    4.40
   2  -3  -7    8.30    5.00
  -2   3   7   15.00    4.60
  -2   3   7   12.70    2.60
  -2   3   7   12.20    5.10
  -2   3   7    8.00    3.80
   1  -3  -7  146.19   10.70
   1  -3  -7  137.09    9.40
   1  -3  -7  120.69    7.20
   1  -3  -7  111.59    9.40
   1  -3  -7  118.89    7.70
   1  -3  -7  139.49    7.40
  -1   3   7  125.99   10.20
  -1   3   7  126.79    7.30
  -1   3   7  131.09    8.40
  -1   3   7  131.29    9.20
   0  -3  -7   -5.70    2.10
   0  -3  -7   -3.40    3.80
   0  -3  -7   -0.60    2.90
   0  -3  -7   -1.20    3.80
   0   3   7    1.90    4.50
   0   3   7    1.90    3.90
   0   3   7   -2.50    2.60
   0   3   7   -2.20    2.20
   0   3   7    2.40    3.20
   0   3   7    0.60    2.60
  -1  -3  -7    4.20    3.40
  -1  -3  -7    1.40    4.00
  -1  -3  -7    5.40    3.60
   1   3   7    0.20    4.30
   1   3   7   -0.80    3.40
   1   3   7    1.20    2.70
   1   3   7    7.60    4.70
  -2  -3  -7  798.62   33.40
  -2  -3  -7  833.12   34.00
  -2  -3  -7  807.82   34.00
   2   3   7  814.72   34.40
   2   3   7  817.02   34.10
   2   3   7  758.42   32.00
  -3  -3  -7  619.24   28.00
  -3  -3  -7  641.54   27.50
   3   3   7  638.24   28.40
   3   3   7  632.54   28.30
  -4  -3  -7   -0.50    4.80
  -4  -3  -7    2.20    4.80
  -4  -3  -7    2.90    4.30
   4   3   7   -3.90    5.20
   4   3   7    8.90    7.00
  -5  -3  -7   -1.10    5.70
  -5  -3  -7   -4.90    4.80
  -5  -3  -7    3.70    5.80
   5   3   7    5.30    8.30
   5   3   7    7.20    6.70
   5   3   7    0.80    4.40
  -6  -3  -7   13.60    6.70
  -6  -3  -7   25.20    6.30
   6   3   7   11.80    9.70
   6   3   7   12.50    8.00
   7  -4  -7    6.30   10.10
  -7   4   7   13.30    9.90
  -7   4   7   18.30    7.20
   6  -4  -7   -2.70    6.00
   6  -4  -7   -1.90    8.50
   6  -4  -7    3.40    8.60
  -6   4   7    5.00    6.90
  -6   4   7   -2.90    4.50
  -6   4   7   -1.90    7.70
   5  -4  -7    7.20    6.10
   5  -4  -7   -3.10    7.40
   5  -4  -7    5.10    7.70
  -5   4   7    3.40    6.90
  -5   4   7    3.40    5.70
  -5   4   7    9.40    4.00
   4  -4  -7   79.79    8.70
   4  -4  -7   68.59    8.50
   4  -4  -7   60.29    7.00
   4  -4  -7   92.19   10.40
  -4   4   7   91.19    6.70
  -4   4   7   60.19    7.60
  -4   4   7   91.79   10.50
   3  -4  -7   -1.30    5.30
   3  -4  -7   12.40    5.70
   3  -4  -7    5.70    5.90
  -3   4   7    2.70    3.10
  -3   4   7    1.80    5.00
  -3   4   7   -3.00    4.80
   2  -4  -7  107.29    7.10
   2  -4  -7  121.99    9.70
   2  -4  -7  109.69    6.70
   2  -4  -7  127.19   10.60
  -2   4   7  128.49    7.10
  -2   4   7  110.29   10.50
  -2   4   7  128.19    7.90
   1  -4  -7   29.10    5.60
   1  -4  -7   28.10    3.70
   1  -4  -7   26.60    5.20
   1  -4  -7   27.60    3.80
  -1   4   7   34.10    5.20
  -1   4   7   28.80    6.10
  -1   4   7   52.29    7.10
  -1   4   7   28.90    3.10
  -1   4   7   30.50    4.20
   0  -4  -7  159.88    7.80
   0  -4  -7  135.59   10.40
   0  -4  -7  157.38    9.10
   0  -4  -7  137.99    9.30
   0   4   7  142.39    8.00
   0   4   7  134.49    7.60
   0   4   7  154.48   10.90
   0   4   7  147.59    7.70
   0   4   7  141.39   10.30
   0   4   7  144.29    8.70
  -1  -4  -7   10.80    4.90
  -1  -4  -7   14.40    3.80
  -1  -4  -7    9.90    3.90
   1   4   7    6.10    2.60
   1   4   7   15.50    5.10
   1   4   7    8.60    3.80
  -2  -4  -7   -1.40    4.30
  -2  -4  -7   -0.50    4.10
   2   4   7    3.20    5.00
  -3  -4  -7   69.29    8.90
  -3  -4  -7   80.19    8.60
   3   4   7   78.59    9.80
   3   4   7   91.89    8.90
  -4  -4  -7   35.70    6.30
  -4  -4  -7   38.10    6.40
  -4  -4  -7   42.80    6.00
   4   4   7   49.70    7.40
   4   4   7   49.10    8.60
  -5  -4  -7   46.40    7.70
  -5  -4  -7   37.90    7.30
  -5  -4  -7   39.40    6.10
   5   4   7   14.20    7.10
   5   4   7   43.00    5.20
  -6  -4  -7   -8.50    6.30
  -6  -4  -7    4.40    6.60
  -6  -4  -7    4.50    5.90
   6   4   7   10.90    7.60
   6   4   7    3.10    9.70
   7  -5  -7    6.80   10.10
  -7   5   7    2.10    8.40
   6  -5  -7    1.60    8.90
   6  -5  -7   14.60    7.30
   6  -5  -7   14.50    9.40
  -6   5   7    0.30    6.50
  -6   5   7   -0.50    7.60
   5  -5  -7   -8.00    9.30
   5  -5  -7    5.90    6.40
  -5   5   7    3.40    5.70
  -5   5   7    4.20    3.40
   4  -5  -7   10.70    6.30
   4  -5  -7   45.20    7.60
   4  -5  -7   19.20    7.30
  -4   5   7   25.10    6.10
  -4   5   7   28.50    6.80
  -4   5   7   26.90    3.40
   3  -5  -7   11.40    6.20
   3  -5  -7   20.10    6.20
   3  -5  -7   11.00    2.90
   3  -5  -7   17.80    6.00
  -3   5   7   11.30    5.50
  -3   5   7   13.00    2.70
  -3   5   7    9.10    5.20
   2  -5  -7   63.29    5.90
   2  -5  -7   66.59    7.30
   2  -5  -7   68.39    7.70
  -2   5   7   69.29    6.10
  -2   5   7   68.19    7.00
  -2   5   7   82.69    6.60
  -2   5   7   79.29    9.10
   1  -5  -7  211.88   12.30
   1  -5  -7  219.38   11.00
   1  -5  -7  198.38   13.00
   1  -5  -7  203.68   10.60
  -1   5   7  227.48   14.60
  -1   5   7  211.48    9.60
  -1   5   7  213.18   10.70
  -1   5   7  203.08   13.30
  -1   5   7  194.58   11.00
  -1   5   7  206.98   10.90
   0  -5  -7   78.29    6.30
   0  -5  -7   68.79    7.70
   0  -5  -7   67.69    9.00
   0  -5  -7   82.39    8.10
   0   5   7   75.19    7.10
   0   5   7   83.79   10.80
   0   5   7   74.69    6.10
   0   5   7   83.59    9.20
   0   5   7   68.99    5.30
  -1  -5  -7   34.10    5.60
  -1  -5  -7   34.30    5.70
  -1  -5  -7   37.30    3.90
  -1  -5  -7   32.90    4.40
   1   5   7   36.70    3.70
   1   5   7   35.10    4.40
   1   5   7   26.80    4.40
   1   5   7   23.30    5.90
  -2  -5  -7    5.80    4.60
  -2  -5  -7   -0.30    4.00
   2   5   7    3.50    5.20
   2   5   7   -9.00    5.50
  -3  -5  -7  104.49    9.30
  -3  -5  -7  101.59   10.00
  -3  -5  -7  106.89    9.40
   3   5   7   89.69   10.40
   3   5   7  102.79   12.10
  -4  -5  -7   15.90    5.90
  -4  -5  -7   16.30    5.60
  -4  -5  -7   20.30    5.20
   4   5   7   25.40    7.80
   4   5   7   20.40    6.60
  -5  -5  -7    3.60    6.20
  -5  -5  -7   -8.30    4.70
  -5  -5  -7   -2.30    5.80
   5   5   7    1.10    6.50
   5   5   7   13.30    9.10
   5   5   7   -1.10    4.00
  -6  -5  -7   11.90   11.00
  -6  -5  -7   12.90    6.80
   6   5   7    9.60   10.40
   6   5   7   11.40    8.80
   6  -6  -7   34.40    9.90
   6  -6  -7   11.50    9.80
   6  -6  -7   29.40    8.00
  -6   6   7   14.90    7.10
  -6   6   7   15.80    8.80
   5  -6  -7   10.60    8.50
   5  -6  -7    3.70    6.70
   5  -6  -7   -2.30    7.90
  -5   6   7   14.60    6.40
  -5   6   7    8.20    7.40
   4  -6  -7   53.69    7.60
   4  -6  -7   39.30    8.10
   4  -6  -7   48.30    8.00
  -4   6   7   42.40    7.40
  -4   6   7   41.30    6.90
   3  -6  -7   50.79    7.60
   3  -6  -7   54.99    7.30
  -3   6   7   56.89    6.80
  -3   6   7   58.49    7.20
   2  -6  -7   50.69    6.70
   2  -6  -7   46.60    7.00
   2  -6  -7   39.80    4.20
  -2   6   7   40.30    6.10
  -2   6   7   34.00    6.00
  -2   6   7   40.00    6.60
   1  -6  -7   56.19    7.20
   1  -6  -7   66.49    6.80
   1  -6  -7   50.59    6.40
  -1   6   7   57.99    7.10
  -1   6   7   65.49    4.50
  -1   6   7   61.99    6.90
  -1   6   7   52.69    6.30
  -1   6   7   61.39    7.00
   0  -6  -7   -2.80    4.10
   0  -6  -7    3.30    3.20
   0  -6  -7   -0.70    3.60
   0  -6  -7   -0.20    4.80
   0   6   7   -0.80    2.00
   0   6   7   -1.80    4.80
   0   6   7    1.30    3.20
   0   6   7   -0.30    3.30
   0   6   7   -6.60    4.70
  -1  -6  -7   77.49    6.50
  -1  -6  -7   65.49    8.30
  -1  -6  -7   71.09    6.80
  -1  -6  -7   71.89    7.30
   1   6   7   70.69    7.20
   1   6   7   58.69    7.20
   1   6   7   75.69    5.80
   1   6   7   64.29    7.40
  -2  -6  -7   89.69    9.30
  -2  -6  -7   85.29    6.00
  -2  -6  -7   70.39    9.10
   2   6   7   91.59   11.60
   2   6   7   88.79    5.80
   2   6   7   90.79   10.20
  -3  -6  -7    8.50    5.00
  -3  -6  -7    3.70    4.90
  -3  -6  -7   11.10    4.90
  -3  -6  -7   16.30    3.40
   3   6   7   11.40    6.00
   3   6   7   11.20    6.90
   3   6   7    6.80    2.90
  -4  -6  -7   52.99   10.10
  -4  -6  -7   47.50    7.50
  -4  -6  -7   55.59    6.50
   4   6   7   51.39    9.20
   4   6   7   42.00    4.60
  -5  -6  -7   36.10    7.70
  -5  -6  -7   16.20    6.80
  -5  -6  -7   43.10    6.50
   5   6   7   27.30    8.10
   5   6   7   25.80    9.40
  -6  -6  -7    4.80    6.80
   6   6   7   18.70    8.00
   6  -7  -7    5.90    9.10
   6  -7  -7    3.50    9.30
  -6   7   7   13.80    8.10
  -6   7   7    9.20    6.40
   5  -7  -7   12.90    8.30
   5  -7  -7   17.40    7.70
   5  -7  -7    9.80    8.40
  -5   7   7   -6.30    6.70
   4  -7  -7   39.60    8.30
   4  -7  -7   37.70    7.70
   4  -7  -7   30.20    8.10
  -4   7   7   16.20    6.00
  -4   7   7   19.40    6.80
   3  -7  -7   -4.10    5.90
   3  -7  -7    5.20    6.10
   3  -7  -7   -3.30    2.60
  -3   7   7    3.80    5.60
  -3   7   7   -1.20    2.30
  -3   7   7    1.40    4.70
   2  -7  -7   29.60    6.40
   2  -7  -7   27.80    6.20
   2  -7  -7   35.00    4.20
  -2   7   7   15.40    4.00
  -2   7   7   23.80    5.70
  -2   7   7   17.20    5.40
  -2   7   7   30.80    5.20
   1  -7  -7   20.90    8.60
   1  -7  -7   18.70    6.00
   1  -7  -7   13.50    4.30
  -1   7   7   14.80    2.20
  -1   7   7   15.30    3.20
  -1   7   7   16.80    5.50
  -1   7   7    6.10    5.20
  -1   7   7   14.80    4.10
   0  -7  -7    3.00    5.40
   0  -7  -7    6.20    4.30
   0  -7  -7   10.10    4.40
   0   7   7    7.80    2.30
   0   7   7    4.30    5.40
   0   7   7    8.00    5.20
   0   7   7    8.20    3.40
   0   7   7   11.80    3.70
  -1  -7  -7  289.07   13.80
  -1  -7  -7  283.77   13.90
  -1  -7  -7  281.97   14.50
  -1  -7  -7  310.37   16.40
  -1  -7  -7  296.27   15.60
   1   7   7  313.07   13.60
   1   7   7  286.07   16.40
   1   7   7  309.27   16.60
   1   7   7  310.97   14.30
  -2  -7  -7   56.59    6.90
  -2  -7  -7   58.89    7.10
   2   7   7   62.39    8.30
   2   7   7   53.29    7.40
   2   7   7   63.69    5.50
  -3  -7  -7   -2.40    4.60
  -3  -7  -7    3.40    5.00
  -3  -7  -7   -7.20    3.70
  -3  -7  -7   10.20    4.90
   3   7   7    5.90    7.20
   3   7   7    0.00    2.90
   3   7   7    1.10    6.10
  -4  -7  -7   14.00    5.50
  -4  -7  -7   16.70    5.90
  -4  -7  -7    9.70    6.00
   4   7   7   13.70    7.00
   4   7   7   19.20    8.60
   4   7   7   18.70    3.90
  -5  -7  -7   31.40    7.40
  -5  -7  -7   12.20    6.50
  -5  -7  -7    5.50    5.30
   5   7   7    7.50    9.10
   5   7   7   15.40    7.80
   6  -8  -7    8.60    9.60
   6  -8  -7    4.60    9.20
   6  -8  -7   -1.30    7.30
  -6   8   7   -7.40    8.00
  -6   8   7   -1.70    6.20
   5  -8  -7    1.50    8.20
   5  -8  -7   -3.50    8.30
  -5   8   7   -3.20    7.10
  -5   8   7   -0.60    5.60
   4  -8  -7   28.40    7.90
   4  -8  -7   33.90    8.70
  -4   8   7   28.40    6.50
   3  -8  -7   35.50    7.50
   3  -8  -7   39.00    7.50
   3  -8  -7   35.30    3.90
  -3   8   7   36.00    6.40
  -3   8   7   29.60    6.00
  -3   8   7   35.70    6.90
   2  -8  -7   87.09    7.40
   2  -8  -7   64.49    7.90
   2  -8  -7   60.49    8.10
  -2   8   7   60.69    7.60
  -2   8   7   76.89    9.10
  -2   8   7   78.49    8.60
   1  -8  -7  139.89   10.60
   1  -8  -7  140.49   12.00
  -1   8   7  140.39   11.60
  -1   8   7  135.19   11.20
   0  -8  -7  120.49   11.70
   0  -8  -7  144.79    9.60
   0  -8  -7  124.89   10.20
   0   8   7  130.89    7.20
   0   8   7  136.39    8.20
   0   8   7  132.49   11.20
   0   8   7  140.69    8.70
   0   8   7  112.79   11.40
  -1  -8  -7   22.80    6.10
  -1  -8  -7   27.40    4.20
  -1  -8  -7   23.00    5.50
  -1  -8  -7   15.40    3.00
   1   8   7   25.50    4.00
   1   8   7   24.50    6.10
   1   8   7   27.80    6.50
   1   8   7   20.40    4.30
  -2  -8  -7   66.99    7.90
  -2  -8  -7   72.69    9.50
   2   8   7   67.09    8.20
   2   8   7   72.09    9.00
   2   8   7   84.19    6.50
  -3  -8  -7   13.80    5.20
  -3  -8  -7   17.60    7.10
  -3  -8  -7   26.60    6.00
   3   8   7   26.70    3.90
   3   8   7   25.80    9.20
   3   8   7   21.90    7.20
  -4  -8  -7    3.50    5.60
  -4  -8  -7   -3.50    5.10
  -4  -8  -7   -1.90    5.90
   4   8   7   -1.50    6.80
   4   8   7    4.30    3.70
   4   8   7    0.40    8.90
  -5  -8  -7   13.30    5.80
  -5  -8  -7   -0.80    6.00
  -5  -8  -7   -0.50    6.10
   5   8   7  -10.50    9.10
   5   8   7   -5.00    6.90
   6  -9  -7    3.60    7.70
   6  -9  -7   16.50   10.20
  -6   9   7   16.90    9.50
  -6   9   7   24.50    7.00
   5  -9  -7   -4.00    8.40
   5  -9  -7   -9.90    8.40
   5  -9  -7    0.20    7.70
  -5   9   7   -1.60    5.40
  -5   9   7    2.10    7.60
   4  -9  -7   45.30   14.00
   4  -9  -7   59.39    9.70
  -4   9   7   44.90    8.10
  -4   9   7   35.20    6.80
   3  -9  -7   16.20    7.20
   3  -9  -7   12.10    6.90
   3  -9  -7   27.50    4.00
  -3   9   7   21.50    5.80
  -3   9   7   11.50    6.60
  -3   9   7   23.80    6.40
   2  -9  -7    5.20    6.20
   2  -9  -7   -1.30    5.60
   2  -9  -7   -0.70    3.90
  -2   9   7   -2.00    4.60
  -2   9   7    1.90    5.50
  -2   9   7   -3.60    4.70
   1  -9  -7   -4.10    5.60
   1  -9  -7   -2.30    4.90
   1  -9  -7   12.10    4.60
  -1   9   7    3.00    5.60
  -1   9   7    6.30    4.40
  -1   9   7    6.60    5.10
   0  -9  -7   10.50    4.70
   0  -9  -7    9.80    6.00
   0  -9  -7    9.70    4.90
   0   9   7    5.70    3.30
   0   9   7   11.80    5.90
   0   9   7    9.50    2.90
   0   9   7   10.30    5.50
  -1  -9  -7   14.60    3.90
  -1  -9  -7   14.00    5.30
  -1  -9  -7   10.50    3.40
  -1  -9  -7   11.00    5.70
   1   9   7   12.60    6.40
   1   9   7    2.50    3.50
   1   9   7   -1.40    5.30
  -2  -9  -7    2.00    5.10
  -2  -9  -7   11.20    5.50
   2   9   7    3.10    5.90
   2   9   7   -3.40    6.80
   2   9   7    6.90    3.50
  -3  -9  -7    2.10    5.40
  -3  -9  -7    5.90    6.00
   3   9   7    2.10    7.80
   3   9   7    3.80    3.70
   3   9   7   -3.80    7.90
  -4  -9  -7   13.60    5.90
  -4  -9  -7    9.10    6.50
  -4  -9  -7   13.30    6.20
   4   9   7   19.40    7.90
   4   9   7   17.00    9.60
  -5  -9  -7   20.90    7.10
  -5  -9  -7   -5.80    7.50
   5   9   7   -6.30   13.60
   5 -10  -7  -10.00    8.90
   5 -10  -7   -0.10    8.70
   5 -10  -7    0.80    8.30
  -5  10   7    4.50    5.60
  -5  10   7    2.00    7.90
   4 -10  -7   -3.10    7.60
   4 -10  -7  -11.10    7.20
  -4  10   7   -2.20    5.20
  -4  10   7   -6.60    6.60
   3 -10  -7   26.10    4.50
   3 -10  -7   19.60    7.70
  -3  10   7   24.40    6.90
  -3  10   7   20.40    7.30
  -3  10   7   26.80    5.90
   2 -10  -7    7.90    6.70
   2 -10  -7    8.60    6.00
   2 -10  -7   11.80    4.40
  -2  10   7   -0.80    5.80
  -2  10   7   -0.20    4.90
  -2  10   7    4.80    5.40
   1 -10  -7   73.59    8.80
   1 -10  -7   66.09    7.40
   1 -10  -7   66.69    8.60
  -1  10   7   59.09    7.90
  -1  10   7   60.19    7.20
  -1  10   7   72.29    8.60
   0 -10  -7    3.00    6.00
   0 -10  -7   -0.40    4.90
   0 -10  -7   -2.10    4.40
   0  10   7   -7.20    2.90
   0  10   7    5.00    5.40
   0  10   7    4.40    3.20
   0  10   7    4.40    4.00
   0  10   7   11.00    6.20
  -1 -10  -7   -2.20    5.10
  -1 -10  -7    0.50    3.80
  -1 -10  -7    3.70    5.90
   1  10   7    1.80    3.70
   1  10   7    3.80    5.90
   1  10   7    3.80    7.20
   1  10   7    9.00    5.10
  -2 -10  -7    2.00    5.60
  -2 -10  -7    3.40    5.90
   2  10   7    1.70    3.90
   2  10   7    9.70    7.40
   2  10   7   11.40    6.70
  -3 -10  -7   -3.20    5.60
  -3 -10  -7    1.40    6.00
   3  10   7   -1.60    6.60
   3  10   7    5.80    3.90
   3  10   7   -2.30    8.30
  -4 -10  -7   -2.50    5.50
  -4 -10  -7   -6.00    6.70
  -4 -10  -7   -8.00    5.70
   4  10   7    1.40    7.40
   4  10   7  -17.20    8.90
   5 -11  -7   25.00   11.00
   5 -11  -7    3.10    8.10
  -5  11   7   -3.70    5.50
   4 -11  -7   16.30    8.50
   4 -11  -7   -1.90    7.60
  -4  11   7   15.50    7.80
   3 -11  -7   41.30    8.80
   3 -11  -7   38.60    8.20
   3 -11  -7   25.40    5.00
  -3  11   7   28.60    7.60
  -3  11   7   25.30    7.30
  -3  11   7   30.10    6.10
   2 -11  -7   22.90    5.20
   2 -11  -7   19.60    7.20
   2 -11  -7   26.90    7.10
  -2  11   7   21.40    6.00
  -2  11   7   27.00    7.00
  -2  11   7   30.20    6.40
   1 -11  -7    4.30    6.50
   1 -11  -7    2.00    5.50
   1 -11  -7    0.90    4.90
  -1  11   7   -0.10    4.70
  -1  11   7    4.40    5.20
  -1  11   7    0.60    6.20
   0 -11  -7    1.00    5.30
   0 -11  -7    7.00   10.10
   0 -11  -7    6.70    4.90
   0  11   7    6.10    5.80
   0  11   7    5.80    6.50
   0  11   7    1.00    3.00
   0  11   7   -4.40    4.20
  -1 -11  -7    4.60   10.00
  -1 -11  -7    6.30    6.30
  -1 -11  -7    0.60    4.00
   1  11   7    6.90    6.90
   1  11   7    4.10    3.90
   1  11   7   10.20    6.20
   1  11   7    5.40    4.20
  -2 -11  -7    5.70    6.10
  -2 -11  -7    6.20    6.50
   2  11   7   15.80    7.80
   2  11   7    1.50    4.00
  -3 -11  -7   47.10    7.40
  -3 -11  -7   39.50    7.70
   3  11   7   28.20    8.00
   3  11   7   42.10    9.60
   3  11   7   43.10    5.50
  -4 -11  -7   38.50    7.30
  -4 -11  -7   32.80    7.70
   4  11   7   30.30    8.40
   4  11   7   28.30   13.90
   4 -12  -7   -6.10    7.70
   4 -12  -7   -5.70    7.70
  -4  12   7   -2.70    4.90
  -4  12   7    3.30    7.40
   3 -12  -7    3.40    7.30
   3 -12  -7    3.70    4.30
   3 -12  -7  -11.90    7.10
  -3  12   7  -10.20    6.60
  -3  12   7    4.10    6.30
  -3  12   7   -4.40    4.90
   2 -12  -7   10.90    5.10
   2 -12  -7   12.90    7.30
   2 -12  -7   13.80   10.60
  -2  12   7    9.20    6.70
  -2  12   7    8.30    5.40
   1 -12  -7   64.79    7.90
   1 -12  -7   83.49   10.10
   1 -12  -7   55.59    9.10
  -1  12   7   71.59    9.00
  -1  12   7   50.99    7.20
   0 -12  -7    2.80    7.00
   0 -12  -7   -0.60    4.90
   0 -12  -7    2.70    6.20
   0  12   7    3.20    6.60
   0  12   7    5.50    5.60
   0  12   7    2.60    4.70
  -1 -12  -7    6.30    5.90
  -1 -12  -7    3.60    4.10
  -1 -12  -7    8.00    6.80
   1  12   7    1.90    3.90
   1  12   7    8.50    6.10
   1  12   7  -10.70    6.50
   1  12   7   10.70    4.90
  -2 -12  -7   15.00    6.70
  -2 -12  -7   18.90    7.00
   2  12   7   -1.30    7.50
   2  12   7   11.60    5.40
   2  12   7   12.50    4.80
   2  12   7    8.10    6.90
  -3 -12  -7    2.30    5.80
   3  12   7   -4.60    6.60
  -4  13   7   12.00    8.00
   3 -13  -7    6.40    5.10
   3 -13  -7   13.60    7.90
   3 -13  -7   13.50    7.60
  -3  13   7   18.20    7.70
  -3  13   7    0.40    6.60
  -3  13   7   20.60    7.30
   2 -13  -7   -7.80    6.80
   2 -13  -7   -3.90    6.00
   2 -13  -7    5.80    5.10
  -2  13   7    2.30    5.80
  -2  13   7    6.90    6.90
  -2  13   7   -2.00    4.80
   1 -13  -7    6.40    6.30
   1 -13  -7   15.60    6.00
   1 -13  -7    9.90    7.50
  -1  13   7    8.20    5.50
  -1  13   7   24.00    7.50
   0 -13  -7    4.50    7.20
   0 -13  -7    3.80    6.10
   0 -13  -7    7.00    5.30
   0  13   7    7.90    5.60
   0  13   7   -0.30    5.00
   0  13   7    7.80    6.90
  -1 -13  -7    5.20    6.80
  -1 -13  -7    0.40    5.90
   1  13   7   -5.80    4.00
   1  13   7    0.70    4.80
   1  13   7    1.40    5.90
   1  13   7   -2.40    6.90
  -2 -13  -7   41.00    8.10
  -2 -13  -7   52.89    8.50
   2  13   7   43.00   13.90
   2  13   7   81.49    9.50
   2  13   7   49.20    8.50
   2  13   7   56.79    6.70
   2 -14  -7  -14.10    5.00
   2 -14  -7    8.40    6.60
  -2  14   7  -13.10    5.50
  -2  14   7   -4.30    6.20
   1 -14  -7    1.90    5.90
   1 -14  -7  -10.60    5.00
   1 -14  -7   12.20    7.60
  -1  14   7   -7.80    6.60
  -1  14   7    5.80    5.50
  -1  14   7    4.10    6.20
   0 -14  -7   15.20    7.80
   0 -14  -7   11.40    5.80
   0 -14  -7   15.90    6.90
   0  14   7   17.90    5.70
   0  14   7   12.70    7.60
   0  14   7   12.50    5.90
  -1 -14  -7    5.90    6.80
  -1 -14  -7    1.50    6.90
   1  14   7    5.50    6.10
   1  14   7    7.10    5.00
   0  17  -8    1.20    8.50
   0  17  -8    9.10    7.00
   0 -17   8   13.70    5.70
   0 -17   8    2.00    7.60
   0 -17   8    6.30    8.50
  -1  17  -8    2.70    9.20
   1 -17   8  -11.20    8.10
   1 -17   8   -2.60    9.90
   1 -17   8    3.60    6.30
   2  16  -8    9.00    9.50
   2  16  -8    4.10    5.80
  -2 -16   8   12.00    6.20
  -2 -16   8   -0.60   10.50
   1  16  -8   49.30    7.80
   1  16  -8   43.40    7.00
   1  16  -8   53.59    9.90
  -1 -16   8   29.90    6.80
  -1 -16   8   55.09    9.10
  -1 -16   8   45.50    9.50
   0  16  -8    6.90    7.40
   0  16  -8    4.70    7.40
   0  16  -8    1.00    6.10
   0 -16   8   -2.00    5.80
   0 -16   8    5.20    7.40
   0 -16   8  -15.30    7.60
  -1  16  -8   58.69    8.20
  -1  16  -8   61.19    9.30
   1 -16   8   49.99    9.30
   1 -16   8   27.30    6.40
   1 -16   8   40.30    9.90
  -2  16  -8    2.30    6.20
  -2  16  -8   10.20    6.80
   2 -16   8    1.20    8.30
   2 -16   8    2.80    8.30
   2 -16   8    5.50    5.10
   3  15  -8    5.40    6.40
   3  15  -8    8.50   10.40
   3  15  -8   14.20    8.90
  -3 -15   8   -7.10    8.00
  -3 -15   8   17.60    7.20
   2  15  -8   16.80    6.60
   2  15  -8   25.30    7.50
   2  15  -8   20.40    9.00
  -2 -15   8    6.60    6.70
  -2 -15   8   18.50    7.00
  -2 -15   8   -0.70    8.20
   1  15  -8   27.60    8.90
   1  15  -8   22.50    6.30
   1  15  -8   29.40    7.20
  -1 -15   8   40.00    9.80
  -1 -15   8   16.20    6.80
   0  15  -8    2.00    6.50
   0  15  -8    3.50    7.20
   0  15  -8   -1.60    6.90
   0 -15   8   10.60    6.20
   0 -15   8    2.10    8.20
   0 -15   8   11.70    7.70
  -1  15  -8    4.80    7.00
  -1  15  -8   16.50    6.50
  -1  15  -8    2.60    4.70
   1 -15   8   20.00    6.10
   1 -15   8   20.00    8.40
   1 -15   8   16.60    8.20
  -2  15  -8   21.50    6.80
  -2  15  -8   24.40    7.20
   2 -15   8   13.30    8.70
   2 -15   8    3.60    7.60
  -3  15  -8   13.50    6.80
  -3  15  -8    8.20    7.00
   3 -15   8    8.70    7.50
   3 -15   8   -0.30    5.50
   3 -15   8    8.50    8.60
   3  14  -8   11.10   10.30
   3  14  -8    3.90    9.10
   3  14  -8    2.90    6.40
  -3 -14   8    2.60    7.00
  -3 -14   8    0.50    8.00
   2  14  -8   22.80    7.00
   2  14  -8    1.60    7.10
   2  14  -8   18.60    8.90
  -2 -14   8   10.20    8.30
  -2 -14   8   22.50    6.70
  -2 -14   8   19.40    7.00
   1  14  -8   12.50    8.00
   1  14  -8    4.80    6.80
   1  14  -8   15.30    6.00
  -1 -14   8    4.20    6.80
  -1 -14   8   -0.30    7.90
   0  14  -8   16.10    4.70
   0  14  -8   14.30    7.30
   0  14  -8   16.90    6.60
   0 -14   8    5.80    7.30
   0 -14   8   18.80    6.40
   0 -14   8   13.90    8.30
  -1  14  -8   33.10    7.70
  -1  14  -8   30.00    7.20
   1 -14   8   22.60    7.80
   1 -14   8   25.30    6.50
   1 -14   8   42.20    9.30
  -2  14  -8   15.70    6.60
  -2  14  -8    7.10    6.40
   2 -14   8   13.80    7.80
   2 -14   8   14.10    8.50
   2 -14   8   26.70    6.40
  -3  14  -8   67.49    8.70
  -3  14  -8   91.09   11.40
   3 -14   8   66.29    7.60
   3 -14   8   79.49   11.10
   3 -14   8   71.09    9.90
  -4  14  -8  145.09   14.20
  -4  14  -8  164.48   14.40
   4 -14   8  160.78   12.20
   4 -14   8  170.48   17.70
   4 -14   8  163.68   17.10
   4  13  -8    1.00   11.30
   4  13  -8    0.70    6.20
   4  13  -8   12.10   10.30
  -4 -13   8   -0.70    7.00
  -4 -13   8    7.70    8.10
   3  13  -8   49.50   10.10
   3  13  -8   63.39   11.30
  -3 -13   8   51.49    8.50
  -3 -13   8   69.89   10.30
  -3 -13   8   37.30    8.30
   2  13  -8   16.00    7.10
   2  13  -8    2.70    8.30
   2  13  -8    0.50    6.50
  -2 -13   8   -8.90    7.70
  -2 -13   8   -0.80    5.80
  -2 -13   8   -0.40    6.70
   1  13  -8   16.30    8.30
   1  13  -8   11.30    6.00
   1  13  -8   12.90    6.70
  -1 -13   8   15.30    6.60
  -1 -13   8   12.40    8.80
  -1 -13   8   20.00    6.90
   0  13  -8    7.70    6.20
   0  13  -8    6.30    7.30
   0  13  -8    2.90    4.00
   0 -13   8   -0.40    6.30
   0 -13   8   -2.70    5.80
   0 -13   8   16.10    9.50
  -1  13  -8   -5.30    5.90
   1 -13   8   -7.50    7.20
   1 -13   8    9.60    6.00
   1 -13   8   10.60    7.00
  -2  13  -8    2.60    5.90
  -2  13  -8   18.70   12.50
   2 -13   8    7.80    5.90
   2 -13   8   13.50    7.20
   2 -13   8   13.90    8.30
  -3  13  -8   47.40    7.90
  -3  13  -8   37.40    7.40
   3 -13   8   53.39    9.60
   3 -13   8   51.69    8.90
   3 -13   8   65.69    7.40
  -4  13  -8    7.60    6.30
  -4  13  -8    7.60    6.70
   4 -13   8    6.10    6.10
   4 -13   8    0.00    8.30
   4 -13   8   -2.70    7.60
  -5  13  -8   10.60    7.40
   4  12  -8   19.00    7.30
   4  12  -8   16.90   11.30
  -4 -12   8   34.50    8.30
  -4 -12   8   34.40    8.50
   3  12  -8   11.40    6.70
   3  12  -8   15.60    9.70
   3  12  -8   21.70    9.00
  -3 -12   8   13.20    7.10
  -3 -12   8   24.00    5.60
  -3 -12   8   13.00    9.80
   2  12  -8    4.80    7.20
   2  12  -8   10.70    6.20
  -2 -12   8    8.90    5.80
  -2 -12   8    5.60    6.40
  -2 -12   8   -1.00    7.60
   1  12  -8   70.99    9.20
   1  12  -8   63.19    6.70
   1  12  -8   93.69   10.00
  -1 -12   8   67.69    7.90
  -1 -12   8   56.09    9.20
  -1 -12   8   64.69    7.80
   0  12  -8   -0.20    5.70
   0  12  -8    1.70    3.60
   0  12  -8   18.30    7.00
   0 -12   8   -0.30    6.70
   0 -12   8    2.00    5.70
   0 -12   8    2.60    5.90
  -1  12  -8   12.70    6.00
  -1  12  -8    5.20    5.90
   1 -12   8    5.10    6.00
   1 -12   8   -3.80    5.90
   1 -12   8  -12.80    6.50
  -2  12  -8   -1.10    5.70
   2 -12   8   -1.20    5.70
   2 -12   8   -2.70    6.20
   2 -12   8    0.00    8.00
  -3  12  -8   25.50    6.50
  -3  12  -8   19.00    6.30
   3 -12   8   14.20    7.90
   3 -12   8   23.60    6.40
   3 -12   8   11.30    6.90
  -4  12  -8    1.90    6.20
  -4  12  -8   16.50    6.80
   4 -12   8   11.20    8.80
   4 -12   8   16.90    7.40
   4 -12   8    2.40    6.40
  -5  12  -8    2.60    6.90
  -5  12  -8   -0.10    6.70
   5 -12   8   19.90    8.50
   5 -12   8   17.70    8.20
   5 -12   8   14.10    8.50
   5  11  -8   46.70   13.80
   5  11  -8   44.10   11.60
  -5 -11   8   55.69   11.30
  -5 -11   8   35.60    7.90
  -5 -11   8   42.60    8.30
   4  11  -8    5.10    6.40
   4  11  -8    4.60   10.20
   4  11  -8    9.80    9.50
  -4 -11   8    5.40    5.80
  -4 -11   8   -0.90    6.90
  -4 -11   8  -10.80    8.70
   3  11  -8   16.70    9.60
   3  11  -8   13.30    6.60
   3  11  -8   15.20    8.00
  -3 -11   8   20.30    7.80
  -3 -11   8    9.20    4.90
  -3 -11   8   10.20    7.10
  -3 -11   8   15.80    5.20
   2  11  -8   54.29    7.50
   2  11  -8   61.09    8.80
   2  11  -8   56.49    9.40
  -2 -11   8   99.99   12.20
  -2 -11   8   46.80    7.70
  -2 -11   8   50.99    6.40
  -2 -11   8   57.29    8.70
   1  11  -8  157.98   12.90
   1  11  -8  124.99    9.70
   1  11  -8  137.39   11.00
  -1 -11   8  130.39   13.10
  -1 -11   8  107.89   11.10
  -1 -11   8  123.49   10.80
   0  11  -8   11.90    5.70
   0  11  -8    6.40    6.00
   0 -11   8   13.20    6.10
   0 -11   8   10.50    6.90
   0 -11   8   16.20    5.80
  -1  11  -8    9.40    5.50
  -1  11  -8   14.90    5.90
   1 -11   8    7.80    6.50
   1 -11   8   14.30    5.90
   1 -11   8   14.30    6.30
  -2  11  -8    5.50    5.30
  -2  11  -8   -3.30    5.20
   2 -11   8    1.20    6.90
   2 -11   8    6.10    5.80
   2 -11   8    7.60    6.40
  -3  11  -8   -3.50    5.50
   3 -11   8    5.10    6.10
   3 -11   8   15.00    8.70
  -4  11  -8   -0.80    5.90
  -4  11  -8    3.50    6.20
   4 -11   8    2.70    7.00
   4 -11   8    8.70    6.80
   4 -11   8    4.40    8.00
  -5  11  -8   27.90    7.30
  -5  11  -8   28.10    7.60
   5 -11   8   20.40    9.20
   5 -11   8   41.60    8.60
   5 -11   8   22.90    7.90
   5 -11   8   23.20    8.40
   5  10  -8   -8.10   11.00
   5  10  -8   15.60   10.60
   5  10  -8   -1.90    6.60
  -5 -10   8    6.10    7.00
  -5 -10   8   -2.60    6.30
  -5 -10   8   20.60    7.70
   4  10  -8    6.50    6.80
   4  10  -8   12.00   10.40
   4  10  -8    1.60    9.00
  -4 -10   8   11.70    7.00
  -4 -10   8   14.00    6.30
  -4 -10   8    2.00    7.10
   3  10  -8  -11.10    6.90
   3  10  -8   -0.40    6.10
   3  10  -8  -11.60    8.50
  -3 -10   8    7.00    4.80
  -3 -10   8   -3.30    6.20
  -3 -10   8   -5.80    6.50
  -3 -10   8   -1.30    4.20
   2  10  -8   13.60    5.90
   2  10  -8   18.50    8.10
   2  10  -8   15.30    6.40
  -2 -10   8   13.50    6.90
  -2 -10   8   13.70    6.30
  -2 -10   8   16.00    5.30
  -2 -10   8   11.10    4.20
   1  10  -8   11.70    4.70
   1  10  -8   10.80    3.70
   1  10  -8   15.50    5.70
   1  10  -8   12.50    6.70
   1  10  -8   21.30    5.10
  -1 -10   8   21.70    5.60
  -1 -10   8   16.90    6.10
  -1 -10   8   12.10    3.20
  -1 -10   8   20.50    6.80
   0  10  -8   -2.60    4.90
   0  10  -8    1.30    5.50
   0 -10   8    8.80    6.30
   0 -10   8   -0.10    5.80
   0 -10   8    2.60    5.00
  -1  10  -8  143.19   11.00
  -1  10  -8  139.79   10.70
   1 -10   8  121.19   11.10
   1 -10   8  112.29   12.40
  -2  10  -8    0.20    4.80
  -2  10  -8    1.60    4.90
   2 -10   8    1.20    5.90
   2 -10   8   11.60    6.70
  -3  10  -8   -8.80    4.90
  -3  10  -8   11.50    5.60
   3 -10   8   -0.10    6.40
   3 -10   8    2.50    6.00
   3 -10   8   -1.10    6.10
  -4  10  -8   10.70    6.70
  -4  10  -8    9.60    6.00
   4 -10   8    7.60    6.80
   4 -10   8    6.60    4.50
   4 -10   8   -1.10    8.40
   4 -10   8    4.50    4.70
   4 -10   8    3.60    7.10
  -5  10  -8   10.50    6.50
   5 -10   8   19.20    7.80
   5 -10   8   -8.80    6.80
   5 -10   8   14.70    5.70
   5 -10   8    6.40    8.70
   5 -10   8    6.80    5.70
   6 -10   8   10.10    7.70
   6 -10   8   13.10    9.40
   6 -10   8    8.60    7.40
   6 -10   8    9.20    8.90
   6 -10   8    6.70    8.30
   6   9  -8   -9.20   12.20
   6   9  -8    1.40    6.80
   6   9  -8   16.20   11.10
  -6  -9   8   13.80    8.20
  -6  -9   8    2.20    7.20
   5   9  -8   -8.60    9.50
   5   9  -8    9.50    7.00
   5   9  -8  -11.60   10.70
  -5  -9   8    3.20    6.90
  -5  -9   8   -5.90    6.40
  -5  -9   8   -4.00    7.10
   4   9  -8    2.00    8.20
   4   9  -8   -5.90    6.30
   4   9  -8    6.90   10.20
  -4  -9   8   -2.30    6.20
  -4  -9   8    3.50    6.80
  -4  -9   8    4.40    5.80
   3   9  -8   75.49    8.20
   3   9  -8   62.19    8.20
   3   9  -8   53.19   10.10
  -3  -9   8   62.79    6.80
  -3  -9   8   61.59    7.10
  -3  -9   8   71.49    8.30
  -3  -9   8   61.99    8.30
   2   9  -8   16.70    7.90
   2   9  -8   13.70    6.00
   2   9  -8   13.60    6.10
  -2  -9   8   25.90    6.30
  -2  -9   8   18.70    4.40
  -2  -9   8   20.90    6.60
  -2  -9   8   17.50    4.90
   1   9  -8   15.20    6.60
   1   9  -8   14.50    4.50
   1   9  -8   18.90    5.70
   1   9  -8    8.40    3.20
   1   9  -8   13.50    4.50
  -1  -9   8    6.30    3.30
  -1  -9   8    3.80    5.90
  -1  -9   8    7.90    5.70
   0   9  -8  105.89    9.60
   0   9  -8  111.29   10.10
   0  -9   8  105.39   10.90
   0  -9   8  103.19   10.60
  -1   9  -8   36.30    6.10
  -1   9  -8   48.70    6.30
  -1   9  -8   45.40    6.20
   1  -9   8   40.60    6.90
   1  -9   8   41.30    6.60
  -2   9  -8   16.80    5.70
  -2   9  -8   26.50    5.40
  -2   9  -8   14.80    5.20
   2  -9   8   14.90    6.30
   2  -9   8   13.00    6.20
  -3   9  -8   92.99    9.60
  -3   9  -8  111.59   10.20
   3  -9   8   96.89    8.80
   3  -9   8   88.09    8.60
   3  -9   8  102.19    7.70
   3  -9   8  115.29   12.20
  -4   9  -8   11.40    5.60
  -4   9  -8   -2.30    5.10
   4  -9   8    5.90    6.40
   4  -9   8    6.70    7.20
   4  -9   8    9.60    5.00
   4  -9   8    9.80    4.50
  -5   9  -8    3.00    6.30
  -5   9  -8   -0.10    5.90
   5  -9   8   12.50    8.30
   5  -9   8   -2.70    7.20
   5  -9   8    4.20    5.40
   5  -9   8    1.70    5.80
   5  -9   8   -9.20    7.10
   6  -9   8    6.40    7.70
   6  -9   8    3.00    7.30
   6  -9   8    5.00    6.30
   6  -9   8   17.30    8.10
   6  -9   8   15.00    8.00
   6  -9   8   26.20    9.20
   6  -9   8    7.90    7.20
   6   8  -8   -0.40   10.20
   6   8  -8   19.10    8.00
  -6  -8   8    3.60    7.40
  -6  -8   8    8.90   10.10
   5   8  -8   73.19    9.40
   5   8  -8   50.29   12.10
  -5  -8   8   35.70    8.20
  -5  -8   8   51.69    8.90
  -5  -8   8   52.19    7.30
   4   8  -8   14.40    7.70
   4   8  -8   -1.90    6.60
   4   8  -8  -18.40   10.00
  -4  -8   8    3.40    8.50
  -4  -8   8    4.60    5.70
  -4  -8   8    0.20    5.60
   3   8  -8    4.20    8.40
   3   8  -8    7.50   11.60
   3   8  -8   -1.30    6.00
  -3  -8   8    2.30    4.60
  -3  -8   8    1.90    5.80
  -3  -8   8    5.20    3.80
  -3  -8   8    7.40    5.70
  -3  -8   8    2.80    3.90
   2   8  -8   25.50    5.60
   2   8  -8   12.30    5.70
   2   8  -8    7.60    7.20
  -2  -8   8   23.30    6.30
  -2  -8   8   12.50    4.30
  -2  -8   8    7.20    5.80
   1   8  -8   12.00    4.20
   1   8  -8   15.40    4.60
   1   8  -8    7.70    4.00
   1   8  -8    2.30    5.30
   1   8  -8    6.90    2.90
   1   8  -8    6.70    6.00
  -1  -8   8   11.30    5.70
  -1  -8   8    6.30    3.50
  -1  -8   8    9.60    5.80
   0   8  -8   20.20    3.40
   0   8  -8   33.40    5.70
   0   8  -8   32.80    6.00
   0  -8   8   27.30    5.90
   0  -8   8   27.20    3.60
   0  -8   8   18.60    6.00
  -1   8  -8   34.60    5.70
  -1   8  -8   39.90    6.00
  -1   8  -8   38.70    5.80
   1  -8   8   45.90    6.60
   1  -8   8   29.30    6.20
  -2   8  -8  213.78   13.10
  -2   8  -8  191.78   11.70
  -2   8  -8  209.68   12.20
   2  -8   8  200.28   13.40
   2  -8   8  198.48    9.60
   2  -8   8  197.88   13.60
  -3   8  -8    5.90    4.70
  -3   8  -8   10.40    5.50
  -3   8  -8    8.30    4.90
   3  -8   8   12.60    6.00
   3  -8   8    6.60    3.10
   3  -8   8    7.80    4.40
   3  -8   8   11.00    6.70
  -4   8  -8   -4.80    4.80
  -4   8  -8   -1.60    5.00
   4  -8   8   -0.20    6.40
   4  -8   8    1.00    4.90
   4  -8   8    5.70    4.30
   4  -8   8    4.10    6.60
   5  -8   8   -3.80    7.00
   5  -8   8   -4.60    6.90
   5  -8   8   -5.30    5.50
   5  -8   8    8.30    5.70
   5  -8   8  -13.30    6.60
   6  -8   8   39.40    9.90
   6  -8   8   30.90    8.70
   6  -8   8   27.60    7.50
   6  -8   8    0.70    7.00
   6  -8   8   26.10    7.70
   6  -8   8    0.80    7.80
   6   7  -8    4.80   11.30
   6   7  -8   18.90   10.70
   6   7  -8   -5.10    9.90
  -6  -7   8    6.30    7.30
  -6  -7   8   13.80    7.90
   5   7  -8    9.30   10.80
   5   7  -8   -1.70    8.80
   5   7  -8   -0.30    7.60
  -5  -7   8   12.90   12.00
  -5  -7   8   -4.00    5.10
  -5  -7   8    2.30    6.90
   4   7  -8   36.90    7.70
   4   7  -8   25.20    9.50
   4   7  -8   16.10    7.30
  -4  -7   8   26.70    7.00
  -4  -7   8   40.00    6.60
  -4  -7   8   23.50    6.40
   3   7  -8   32.50    6.60
   3   7  -8   33.80    7.00
   3   7  -8   20.60    8.30
  -3  -7   8   30.00    4.30
  -3  -7   8   22.60    3.90
  -3  -7   8   40.80    6.80
  -3  -7   8   31.10    5.60
  -3  -7   8   22.60    6.80
   2   7  -8    6.70    5.70
   2   7  -8    7.30    3.30
   2   7  -8    5.20    3.90
   2   7  -8    6.40    7.00
   2   7  -8    3.90    4.90
  -2  -7   8    4.40    5.40
  -2  -7   8    7.20    3.80
  -2  -7   8    9.10    4.30
  -2  -7   8    2.60    5.20
   1   7  -8  124.99    8.80
   1   7  -8   93.49    8.30
   1   7  -8   94.79   11.00
   1   7  -8   97.29    9.60
  -1  -7   8   97.19   10.40
  -1  -7   8  104.69    7.90
  -1  -7   8   98.19   10.10
   0   7  -8   86.79    9.20
   0   7  -8   84.99    8.60
   0   7  -8   69.99    6.80
   0   7  -8   75.09    8.70
   0  -7   8   73.59    6.80
   0  -7   8   93.29   11.60
   0  -7   8   89.19   10.00
  -1   7  -8   81.09    8.50
  -1   7  -8   78.29    5.30
  -1   7  -8   65.29    6.90
  -1   7  -8   51.09    6.30
   1  -7   8   77.49    9.20
   1  -7   8   66.19    8.20
   1  -7   8   64.49    7.00
  -2   7  -8   -6.40    4.50
  -2   7  -8   -0.20    4.20
  -2   7  -8    7.10    4.10
   2  -7   8    2.40    5.30
   2  -7   8    2.20    5.60
   2  -7   8   -2.40    4.00
  -3   7  -8   10.90    5.40
  -3   7  -8    7.10    4.30
  -3   7  -8   11.90    4.80
   3  -7   8    9.10    4.70
   3  -7   8    7.10    5.50
   3  -7   8   10.00    6.20
  -4   7  -8   -0.40    5.50
  -4   7  -8    4.40    4.70
  -4   7  -8    5.70    4.90
   4  -7   8   14.00    4.70
   4  -7   8    7.50    5.20
   4  -7   8    2.30    6.10
   4  -7   8   -3.50    6.40
  -5   7  -8   -0.90    5.30
   5  -7   8    3.40    6.00
   5  -7   8    7.80    5.70
   5  -7   8   -2.70    8.70
   5  -7   8   -0.60    6.80
   6  -7   8  -11.30    6.30
   6  -7   8    4.10    7.80
   6  -7   8    9.60    7.00
   6  -7   8   -3.90    7.90
   6  -7   8    4.60    7.50
   6  -7   8   -9.90    6.60
   6  -7   8    0.00    8.00
   6   6  -8   -4.10    9.60
   6   6  -8    8.70   11.60
  -6  -6   8    4.80    7.50
  -6  -6   8    5.20    7.50
   5   6  -8   17.20    8.30
   5   6  -8   26.00   10.80
   5   6  -8   14.50    8.30
  -5  -6   8   12.40    4.90
  -5  -6   8   23.70    7.60
   4   6  -8   17.80    7.00
   4   6  -8   19.40    9.10
   4   6  -8   16.00    7.20
  -4  -6   8   15.30    6.60
  -4  -6   8   12.70    5.70
  -4  -6   8   12.30    4.90
   3   6  -8   22.30    7.80
   3   6  -8   33.70    7.10
   3   6  -8   44.30    6.30
  -3  -6   8   42.50    4.20
  -3  -6   8   32.80    5.70
  -3  -6   8   31.10    6.50
  -3  -6   8   42.50    6.00
   2   6  -8   11.50    4.10
   2   6  -8    9.40    6.80
   2   6  -8   14.40    6.10
   2   6  -8   22.10    4.80
  -2  -6   8   11.50    5.10
  -2  -6   8   21.80    4.00
  -2  -6   8   14.40    4.70
  -2  -6   8   14.90    5.50
   1   6  -8   98.19   11.70
   1   6  -8  116.29   11.20
   1   6  -8   93.59    8.30
   1   6  -8   83.19    8.30
  -1  -6   8   86.59    7.90
  -1  -6   8   93.59   10.00
  -1  -6   8   85.09    9.30
   0   6  -8  142.79   10.50
   0   6  -8  158.18   10.30
   0   6  -8  137.19   10.50
   0  -6   8  161.08   11.40
   0  -6   8  141.29    9.10
   0  -6   8  152.28   10.80
  -1   6  -8  153.38    9.20
  -1   6  -8  164.68   10.20
   1  -6   8  178.48   10.30
   1  -6   8  157.08   13.50
   1  -6   8  190.38   13.40
   1  -6   8  158.58   10.80
  -2   6  -8   45.70    6.10
  -2   6  -8   54.89    6.70
  -2   6  -8   46.00    5.70
   2  -6   8   40.40    6.10
   2  -6   8   52.49    6.50
   2  -6   8   56.29    7.00
   2  -6   8   40.40    5.60
  -3   6  -8   62.79    7.30
  -3   6  -8   76.59    8.10
  -3   6  -8   66.09    7.10
   3  -6   8   61.19    6.50
   3  -6   8   74.89    8.10
   3  -6   8   57.49    7.20
  -4   6  -8    2.30    4.50
  -4   6  -8    6.60    5.60
   4  -6   8   13.30    6.10
   4  -6   8    1.30    6.00
   4  -6   8   10.10    4.70
   4  -6   8   12.40    5.30
  -5   6  -8    6.90    5.40
  -5   6  -8   12.50    6.60
   5  -6   8    1.70    6.90
   5  -6   8   14.50    6.50
   5  -6   8   14.00    5.90
   5  -6   8   11.60    6.00
   6  -6   8   28.90    8.50
   6  -6   8   55.39    9.80
   6  -6   8   63.59    8.50
   6  -6   8   39.80    8.50
   6  -6   8   36.60    8.20
   6  -6   8   62.09    8.90
   6   5  -8    9.70   11.50
   6   5  -8   16.60    9.70
  -6  -5   8   11.90    7.60
  -6  -5   8    3.20    7.30
   5   5  -8   -0.80    7.90
   5   5  -8    6.40    7.70
   5   5  -8    2.30   11.10
  -5  -5   8    2.20    6.40
  -5  -5   8   -3.30    3.70
   4   5  -8   28.20    8.80
   4   5  -8   27.40    7.40
   4   5  -8   25.60    6.90
  -4  -5   8   19.10    4.50
  -4  -5   8   25.50    6.10
  -4  -5   8   20.20    6.50
   3   5  -8   10.80    7.20
   3   5  -8    6.80    6.10
   3   5  -8   10.70    3.50
   3   5  -8   11.30    5.40
  -3  -5   8   10.50    4.80
  -3  -5   8   12.00    5.00
  -3  -5   8   10.10    5.60
  -3  -5   8   10.80    3.60
   2   5  -8  385.86   19.40
   2   5  -8  400.66   18.70
   2   5  -8  392.16   17.00
   2   5  -8  385.56   17.00
  -2  -5   8  354.26   16.80
  -2  -5   8  356.16   17.70
  -2  -5   8  382.66   17.90
  -2  -5   8  364.86   18.50
   1   5  -8  106.29   10.50
   1   5  -8  110.89    8.00
   1   5  -8   77.29    8.20
   1   5  -8   86.89    9.10
  -1  -5   8   79.29    7.90
  -1  -5   8   87.59    8.50
  -1  -5   8  101.19    9.90
   0   5  -8  113.79    8.80
   0   5  -8  124.29    9.20
   0   5  -8   98.69    8.00
   0   5  -8  119.09    9.10
   0  -5   8  118.39    8.80
   0  -5   8  131.49    8.80
   0  -5   8  116.99    8.80
   0  -5   8  126.39   10.10
  -1   5  -8   86.69    7.30
  -1   5  -8   90.29    6.60
  -1   5  -8   82.59    8.30
  -1   5  -8   77.69    8.20
   1  -5   8   73.59    9.10
   1  -5   8   83.89    8.00
   1  -5   8   92.99    9.70
  -2   5  -8   32.50    5.60
  -2   5  -8   32.80    5.60
  -2   5  -8   38.70    4.10
   2  -5   8   35.90    5.40
   2  -5   8   32.50    6.00
   2  -5   8   33.80    6.00
  -3   5  -8    7.10    4.80
  -3   5  -8   -3.70    3.30
  -3   5  -8   -4.50    3.70
   3  -5   8   -2.30    2.90
   3  -5   8   -6.90    3.50
   3  -5   8   -4.80    4.50
   3  -5   8   -5.50    4.90
   3  -5   8   -8.00    4.90
   3  -5   8   -3.10    3.60
  -4   5  -8    6.10    5.50
  -4   5  -8   -5.10    3.90
   4  -5   8    7.80    5.70
   4  -5   8    3.50    5.30
   4  -5   8   -7.60    4.40
   4  -5   8    0.90    5.90
  -5   5  -8   17.80    5.40
  -5   5  -8   22.00    6.80
   5  -5   8   27.80    7.60
   5  -5   8   12.20    6.00
   5  -5   8   25.20    6.00
   5  -5   8   14.60    6.60
   5  -5   8    6.40    6.70
   6  -5   8  127.69   14.40
   6  -5   8  134.29   13.50
   6  -5   8  159.48   12.20
   6  -5   8  109.99   14.10
   6  -5   8  145.29   12.10
   6  -5   8  127.09   13.70
  -7  -4   8    2.60    8.10
   6   4  -8    9.80    9.30
   6   4  -8   34.50   11.60
  -6  -4   8   11.90    7.70
  -6  -4   8    9.80    7.20
   5   4  -8   -5.90   14.40
   5   4  -8    3.70    7.90
   5   4  -8  -11.10    7.60
  -5  -4   8   -5.80    6.00
  -5  -4   8   -0.90    6.10
   4   4  -8    3.30    7.70
   4   4  -8    2.00    6.00
   4   4  -8   -2.00    6.60
  -4  -4   8    2.00    3.30
  -4  -4   8   -7.80    5.20
  -4  -4   8    6.30    5.30
   3   4  -8   90.49    9.50
   3   4  -8   98.59    7.00
   3   4  -8   99.29   10.80
   3   4  -8  106.39    9.40
  -3  -4   8   97.09    8.10
  -3  -4   8   96.99    7.10
  -3  -4   8   76.59    9.10
  -3  -4   8   93.29   10.00
   2   4  -8  108.89    9.30
   2   4  -8  119.59    8.20
   2   4  -8   96.29   11.20
   2   4  -8  117.29    8.30
  -2  -4   8  110.99    8.10
  -2  -4   8   97.79    8.60
  -2  -4   8  104.79    7.30
  -2  -4   8  104.69    9.20
   1   4  -8   15.10    5.30
   1   4  -8   20.40    5.30
   1   4  -8   22.60    3.10
   1   4  -8   26.50    4.30
   1   4  -8   20.20    2.90
  -1  -4   8   13.70    4.90
  -1  -4   8   17.90    3.70
  -1  -4   8   12.20    5.00
  -1  -4   8   19.70    4.10
  -1  -4   8   17.20    4.60
   0   4  -8   35.10    4.40
   0   4  -8   31.20    4.60
   0   4  -8   38.20    5.30
   0   4  -8   37.30    4.90
   0  -4   8   34.10    5.10
   0  -4   8   39.70    5.00
   0  -4   8   29.70    5.40
   0  -4   8   39.80    5.00
  -1   4  -8  110.39    7.20
  -1   4  -8  121.59    9.10
  -1   4  -8  117.29    8.70
  -1   4  -8  114.69    7.60
   1  -4   8  115.09    9.20
   1  -4   8  109.79    9.30
   1  -4   8  110.89    8.00
   1  -4   8  102.99    9.10
  -2   4  -8   25.40    3.50
  -2   4  -8   29.00    4.60
  -2   4  -8   29.10    5.20
   2  -4   8   30.60    6.20
   2  -4   8   32.40    4.30
   2  -4   8   31.30    5.50
  -3   4  -8    2.70    4.70
  -3   4  -8    5.80    3.90
  -3   4  -8    2.00    4.60
   3  -4   8    3.70    4.70
   3  -4   8   -1.00    3.20
   3  -4   8    4.40    5.10
   3  -4   8    2.60    3.90
   3  -4   8    6.00    4.20
  -4   4  -8    6.90    5.60
  -4   4  -8    5.60    5.20
  -4   4  -8   -2.00    4.00
   4  -4   8    2.60    4.90
   4  -4   8    5.50    4.50
   4  -4   8    2.60    5.20
   4  -4   8    4.30    5.50
  -5   4  -8   -9.30    5.40
   5  -4   8   -6.90    5.90
   5  -4   8   -3.10    6.10
   5  -4   8    1.50    5.90
   5  -4   8   -0.10    5.70
   6  -4   8   40.30    7.60
   6  -4   8   44.20    8.20
   6  -4   8   23.90    8.80
   6  -4   8   55.79    9.00
   6  -4   8   45.30    6.90
   7   3  -8    8.90   12.20
   7   3  -8   -0.10    8.80
   7   3  -8  -13.40   12.40
  -7  -3   8   -4.30    7.40
  -7  -3   8    9.70   10.30
   6   3  -8    1.40    9.20
   6   3  -8   -3.40   10.40
  -6  -3   8    3.00    6.70
  -6  -3   8   -2.80    6.90
   5   3  -8    1.50    8.00
   5   3  -8   -1.40    7.60
   5   3  -8    4.30    8.50
  -5  -3   8   -2.60    6.00
  -5  -3   8   -4.80    5.80
   4   3  -8    9.30    6.20
   4   3  -8    4.70    7.20
   4   3  -8    9.40    6.80
  -4  -3   8    6.60    4.00
  -4  -3   8   -2.70    5.30
  -4  -3   8    2.40    5.40
   3   3  -8   -0.90    6.40
   3   3  -8    3.60    3.60
   3   3  -8    5.60    6.20
  -3  -3   8    0.00    2.80
  -3  -3   8   -2.50    4.80
  -3  -3   8    6.30    3.60
  -3  -3   8    4.80    5.20
  -3  -3   8    0.10    3.80
   2   3  -8   66.29    7.40
   2   3  -8   90.09   10.60
   2   3  -8   85.49    7.30
   2   3  -8   85.29    6.60
  -2  -3   8   66.09    5.90
  -2  -3   8   66.49    8.50
  -2  -3   8   79.89    7.40
  -2  -3   8   63.59    6.90
  -2  -3   8   71.39    7.00
   1   3  -8  306.87   14.40
   1   3  -8  299.27   15.30
   1   3  -8  309.87   14.90
   1   3  -8  297.97   13.20
  -1  -3   8  319.57   15.40
  -1  -3   8  315.47   15.00
  -1  -3   8  292.57   13.70
  -1  -3   8  309.87   14.20
  -1  -3   8  305.67   14.00
   0   3  -8   -1.90    3.40
   0   3  -8   -0.90    3.70
   0   3  -8    1.20    4.10
   0   3  -8    4.10    3.40
   0  -3   8   -2.60    4.30
   0  -3   8   -0.10    3.60
   0  -3   8    6.20    3.30
   0  -3   8    1.40    4.20
  -1   3  -8   49.60    5.30
  -1   3  -8   52.99    7.00
   1  -3   8   39.60    5.40
   1  -3   8   42.20    5.30
   1  -3   8   49.40    5.60
  -2   3  -8  212.08   12.50
  -2   3  -8  198.08   10.90
  -2   3  -8  183.08   16.80
   2  -3   8  206.78   17.20
   2  -3   8  198.68   12.20
  -3   3  -8   -1.60    4.20
  -3   3  -8    1.60    3.50
  -3   3  -8    3.70    4.70
   3  -3   8   -1.30    4.40
   3  -3   8   -3.70    2.90
   3  -3   8    2.90    5.00
   3  -3   8    2.80    4.90
   3  -3   8    4.80    5.50
  -4   3  -8    8.30    4.10
  -4   3  -8   16.20    5.50
  -4   3  -8   20.30    5.90
   4  -3   8   12.60    4.50
   4  -3   8    9.10    4.80
   4  -3   8    7.20    5.70
   4  -3   8   22.00    5.70
   4  -3   8   19.80    6.00
  -5   3  -8   47.70    7.40
  -5   3  -8   47.50    8.10
   5  -3   8   52.29    6.70
   5  -3   8   42.00    7.70
   5  -3   8   48.10    7.40
   5  -3   8   44.90    8.10
  -6   3  -8   15.90    8.10
   6  -3   8    4.10    7.50
   6  -3   8    8.00    7.20
   6  -3   8   19.20    5.70
   6  -3   8   18.30    8.00
   6  -3   8   34.90    7.00
   7   2  -8   -1.90    9.50
   7   2  -8   13.60   11.20
  -7  -2   8    6.20    7.40
   6   2  -8   55.19   11.50
   6   2  -8   63.09   11.20
   6   2  -8   33.80   11.40
  -6  -2   8   62.49    8.40
  -6  -2   8   32.40    8.30
   5   2  -8   24.40    9.20
   5   2  -8   24.30    8.30
   5   2  -8   36.10    8.50
  -5  -2   8   21.00    6.80
  -5  -2   8   28.10    6.60
   4   2  -8   10.60    3.50
   4   2  -8    2.50    6.90
   4   2  -8    8.90    6.90
  -4  -2   8    3.20    5.30
  -4  -2   8    8.80    5.30
  -4  -2   8   -1.90    3.20
   3   2  -8  310.97   17.00
   3   2  -8  328.97   14.40
   3   2  -8  321.67   17.00
  -3  -2   8  277.57   16.10
  -3  -2   8  299.27   14.90
  -3  -2   8  301.37   13.10
  -3  -2   8  315.07   15.80
  -3  -2   8  316.47   15.70
   2   2  -8    5.50    5.20
   2   2  -8   -0.60    3.40
   2   2  -8    4.90    3.90
   2   2  -8   -5.20    5.20
  -2  -2   8    2.00    2.70
  -2  -2   8    2.70    3.00
  -2  -2   8    5.30    4.60
  -2  -2   8    2.40    3.90
  -2  -2   8    2.50    4.80
  -2  -2   8    4.40    3.90
   1   2  -8   43.90    5.90
   1   2  -8   59.39    7.00
   1   2  -8   58.79    7.50
   1   2  -8   59.59    5.80
  -1  -2   8   72.19    8.60
  -1  -2   8   60.39    7.90
  -1  -2   8   63.59    5.40
  -1  -2   8   51.09    5.80
  -1  -2   8   64.09    6.60
   0   2  -8  234.48   11.70
   0   2  -8  248.68   12.70
   0   2  -8  255.37   12.70
   0  -2   8  230.98   11.90
   0  -2   8  258.67   13.20
   0  -2   8  259.07   12.90
   0  -2   8  247.78   11.10
  -1   2  -8  998.80   41.30
  -1   2  -8 1001.50   41.70
  -1   2  -8 1044.00   41.70
   1  -2   8 1045.60   41.70
   1  -2   8 1018.90   41.80
  -2   2  -8   11.90    3.70
   2  -2   8    7.40    4.10
   2  -2   8   -2.90    4.70
   2  -2   8   20.00    8.50
  -3   2  -8  110.09    7.90
  -3   2  -8  120.39    9.80
  -3   2  -8  122.49    9.90
   3  -2   8  105.29    7.70
   3  -2   8  105.69    9.70
   3  -2   8  117.49    9.90
   3  -2   8  119.09   10.10
  -4   2  -8   -2.40    3.40
  -4   2  -8    3.90    5.20
  -4   2  -8   -1.30    4.50
   4  -2   8   -6.30    5.10
   4  -2   8    1.90    5.30
   4  -2   8    3.80    2.90
   4  -2   8   -2.40    3.90
   4  -2   8   -2.00    5.50
  -5   2  -8    2.70    6.30
  -5   2  -8   -1.10    5.40
   5  -2   8   -5.30    6.10
   5  -2   8    4.00    5.20
   5  -2   8   -7.40    6.30
   5  -2   8   -2.90    6.80
  -6   2  -8   55.19    8.00
  -6   2  -8   48.00    8.70
   6  -2   8   43.90    9.20
   6  -2   8   60.39    9.30
   6  -2   8   40.50   11.80
   6  -2   8   47.40    7.80
   6  -2   8   41.60    8.80
   7   1  -8    6.40    9.80
   7   1  -8   24.50   11.00
  -7  -1   8    3.90    6.90
   6   1  -8   -8.20    8.80
   6   1  -8   -1.90    9.20
   6   1  -8   -5.20    9.50
  -6  -1   8    6.10    6.80
   5   1  -8   16.60    8.60
   5   1  -8   16.10    8.40
  -5  -1   8    1.90    6.00
  -5  -1   8   -0.60    5.30
   4   1  -8  175.48   13.60
   4   1  -8  161.78   13.50
   4   1  -8  178.98    9.70
  -4  -1   8  143.29   12.20
  -4  -1   8  184.88   11.70
  -4  -1   8  174.38   12.40
   3   1  -8  285.67   13.40
   3   1  -8  284.07   16.90
   3   1  -8  237.18   15.40
  -3  -1   8  240.78   14.70
  -3  -1   8  276.37   13.20
  -3  -1   8  276.87   14.40
  -3  -1   8  280.57   15.10
   2   1  -8   67.79    8.40
   2   1  -8   49.20    6.60
   2   1  -8   64.39    6.90
   2   1  -8   62.69    7.50
  -2  -1   8   64.69    5.10
  -2  -1   8   51.39    6.40
  -2  -1   8   62.09    7.50
  -2  -1   8   54.99    5.60
  -2  -1   8   67.29    7.00
  -2  -1   8   74.29    8.70
   1   1  -8   15.40    4.90
   1   1  -8   18.00    3.50
   1   1  -8   12.60    4.00
   1   1  -8   17.80    4.20
  -1  -1   8   23.00    3.30
  -1  -1   8   17.10    4.90
  -1  -1   8   12.80    3.20
  -1  -1   8   13.30    4.60
  -1  -1   8   10.60    2.90
   0   1  -8   32.40    4.60
   0   1  -8   30.30    3.40
   0   1  -8   33.40    4.60
   0   1  -8   25.20    3.50
   0  -1   8   25.80    4.80
   0  -1   8   20.40    4.30
   0  -1   8   23.10    3.20
   0  -1   8   24.60    3.40
  -1   1  -8  329.17   14.90
  -1   1  -8  342.57   15.10
  -1   1  -8  332.97   15.30
  -1   1  -8  348.27   13.80
   1  -1   8  276.97   16.20
   1  -1   8  315.07   15.20
   1  -1   8  294.37   13.90
   1  -1   8  282.07   15.80
  -2   1  -8  118.49   14.80
  -2   1  -8  150.08    8.80
  -2   1  -8  160.38   13.50
   2  -1   8  139.79   12.10
   2  -1   8  129.29    9.50
   2  -1   8  141.39   10.90
   2  -1   8  149.88   10.00
  -3   1  -8   35.40    4.10
  -3   1  -8   41.40    5.70
  -3   1  -8   43.60    5.60
   3  -1   8   37.50    6.10
   3  -1   8   38.50    5.90
   3  -1   8   31.50    5.10
   3  -1   8   35.70    6.10
  -4   1  -8    2.50    3.10
  -4   1  -8    4.60    4.50
  -4   1  -8    0.90    4.80
   4  -1   8    3.30    5.60
   4  -1   8    3.00    5.30
   4  -1   8    5.80    7.00
  -5   1  -8    5.60    5.70
  -5   1  -8    9.60    6.20
   5  -1   8    9.00    7.00
   5  -1   8   -2.10    6.20
   5  -1   8    3.50    5.10
  -6   1  -8   -2.50    6.20
  -6   1  -8    8.20    7.50
   6  -1   8   18.30   12.80
   6  -1   8   16.30    8.00
   6  -1   8    4.40    7.50
   7   0  -8  -11.00   11.40
   7   0  -8    3.70   10.00
  -7   0   8   -2.60    6.50
   6   0  -8    6.50    9.30
   6   0  -8   12.20    9.70
  -6   0   8   -8.40    5.80
  -6   0   8   -2.30    6.60
   5   0  -8   20.70    8.40
   5   0  -8   -1.80    7.80
   5   0  -8    5.40    3.90
  -5   0   8   11.60    5.40
  -5   0   8   -0.80    6.10
  -5   0   8   -5.20    6.70
   4   0  -8    8.80    7.00
   4   0  -8    9.00    6.60
   4   0  -8   10.80    4.50
  -4   0   8   11.20    5.00
  -4   0   8   19.20    4.30
  -4   0   8    8.40    5.60
  -4   0   8   18.40    6.10
   3   0  -8   46.30    7.20
   3   0  -8   40.30   10.90
   3   0  -8   36.00    5.20
  -3   0   8   43.30    5.60
  -3   0   8   37.80    6.10
  -3   0   8   37.40    5.90
   2   0  -8   14.70    4.40
   2   0  -8   13.90    5.70
   2   0  -8    4.60    4.50
  -2   0   8    6.50    4.70
  -2   0   8    6.20    4.90
  -2   0   8    7.30    2.20
  -2   0   8   11.50    4.20
   1   0  -8   26.70    4.60
   1   0  -8   40.60    5.00
   1   0  -8   28.30    4.20
   1   0  -8   27.50    4.50
   1   0  -8   30.00    5.30
   1   0  -8   44.80    5.00
  -1   0   8   26.10    3.30
  -1   0   8   28.10    3.90
  -1   0   8   29.10    5.70
  -1   0   8   27.90    5.00
   0   0  -8   27.30    3.70
   0   0  -8   18.60    4.50
   0   0  -8   19.50    3.90
   0   0  -8   27.80    4.50
   0   0   8   19.90    3.30
   0   0   8   14.70    4.70
   0   0   8   20.60    3.50
   0   0   8   12.50    4.00
  -1   0  -8  330.27   15.00
  -1   0  -8  315.97   15.70
  -1   0  -8  317.17   14.60
  -1   0  -8  364.06   15.50
   1   0   8  317.57   15.40
   1   0   8  319.57   14.60
   1   0   8  296.17   14.80
   1   0   8  327.97   16.40
  -2   0  -8   16.60    4.70
  -2   0  -8   14.90    3.60
  -2   0  -8   15.30    3.80
   2   0   8   14.40    4.80
   2   0   8   19.60    5.00
   2   0   8   20.30    4.20
  -3   0  -8  377.66   16.20
  -3   0  -8  374.06   18.40
  -3   0  -8  371.26   18.10
   3   0   8  369.16   18.70
   3   0   8  388.06   18.30
   3   0   8  361.96   16.60
   3   0   8  367.56   18.50
  -4   0  -8   25.10    3.30
  -4   0  -8   24.90    5.70
  -4   0  -8   22.20    5.80
   4   0   8   36.60    7.00
   4   0   8   19.20    6.20
   4   0   8   31.60    4.90
   4   0   8   29.10    6.30
  -5   0  -8   87.79   10.20
   5   0   8   92.39   10.00
   5   0   8   93.49   11.50
  -6   0  -8    0.40    6.10
  -6   0  -8    0.80    6.40
   6   0   8   -4.40    8.30
   6   0   8   13.70    8.10
   6   0   8   10.80    7.60
   7  -1  -8   -6.70    9.70
  -7   1   8   -0.60    6.30
   6  -1  -8    8.30    9.40
   6  -1  -8   -6.60    9.20
  -6   1   8   14.70    6.10
  -6   1   8    9.10    7.20
   5  -1  -8    1.10    4.60
   5  -1  -8   -2.30    7.60
   5  -1  -8   10.20    8.00
  -5   1   8    2.20    4.90
  -5   1   8   -2.10    6.80
  -5   1   8   -5.20    5.90
   4  -1  -8   15.80    5.00
   4  -1  -8   14.50    7.00
   4  -1  -8   20.80    7.10
  -4   1   8   13.20    6.00
  -4   1   8   25.50    6.50
  -4   1   8    4.10    5.00
   3  -1  -8  124.19    9.40
   3  -1  -8   83.49   10.10
   3  -1  -8  122.89   11.00
  -3   1   8   95.79   10.40
  -3   1   8  105.19    9.00
  -3   1   8  113.09   14.50
   2  -1  -8  185.18   11.30
   2  -1  -8  189.18   11.50
  -2   1   8  208.78   11.40
  -2   1   8  181.38   10.90
  -2   1   8  180.78    8.70
   1  -1  -8   67.89    5.50
   1  -1  -8   68.69    8.20
   1  -1  -8   67.99    6.60
   1  -1  -8   56.89    7.30
   1  -1  -8   77.49    7.80
   1  -1  -8   75.79    5.80
  -1   1   8   68.29    8.90
  -1   1   8   66.09    6.90
  -1   1   8   62.79    5.50
  -1   1   8   65.69    8.00
   0  -1  -8   29.60    4.80
   0  -1  -8   36.80    5.00
   0  -1  -8   32.00    4.10
   0   1   8   32.30    4.40
   0   1   8   33.40    4.20
   0   1   8   33.70    3.80
   0   1   8   26.10    5.00
  -1  -1  -8    5.40    3.90
  -1  -1  -8    1.30    4.30
  -1  -1  -8    5.00    4.20
  -1  -1  -8    8.20    3.90
   1   1   8    5.40    4.90
   1   1   8    5.00    3.40
   1   1   8    2.70    4.00
   1   1   8    8.20    4.00
  -2  -1  -8  437.56   20.40
  -2  -1  -8  435.46   21.40
  -2  -1  -8  448.86   18.80
   2   1   8  449.36   20.40
   2   1   8  451.15   21.10
   2   1   8  436.16   20.10
   2   1   8  409.76   21.90
  -3  -1  -8  209.88   12.50
  -3  -1  -8  199.78   12.90
  -3  -1  -8  207.68    9.80
   3   1   8  198.08   10.20
   3   1   8  211.08   13.30
   3   1   8  207.78   13.40
   3   1   8  224.98   12.60
  -4  -1  -8   61.29    7.50
  -4  -1  -8   51.39    6.50
   4   1   8   77.19    7.80
   4   1   8   72.79    8.60
   4   1   8   77.59   10.20
  -5  -1  -8   12.80    6.10
  -5  -1  -8   -2.10    5.10
   5   1   8   -3.60    6.30
   5   1   8    4.50    6.50
   5   1   8    1.50    8.00
  -6  -1  -8   17.40    6.30
  -6  -1  -8   10.20    6.60
   6   1   8   13.00    7.70
   6   1   8   18.40    9.40
   6   1   8    6.30    7.30
   7  -2  -8    5.80   10.40
  -7   2   8   15.50    6.50
   6  -2  -8    2.90    4.90
   6  -2  -8   -2.80    8.80
   6  -2  -8    4.60    9.50
  -6   2   8    1.70    5.50
  -6   2   8   -1.40    8.10
  -6   2   8    3.30    6.90
   5  -2  -8   17.00    8.50
   5  -2  -8   14.80    8.30
   5  -2  -8   12.60    5.40
  -5   2   8   26.00    7.00
  -5   2   8   22.90    7.60
  -5   2   8   18.20    5.10
   4  -2  -8   -0.90    5.20
   4  -2  -8    9.80    7.00
   4  -2  -8    9.60    6.50
  -4   2   8    5.00    5.90
  -4   2   8   18.90    4.60
  -4   2   8   12.70    5.90
   3  -2  -8  192.58   12.10
   3  -2  -8  159.58   13.00
   3  -2  -8  195.38   12.10
  -3   2   8  186.18   10.60
  -3   2   8  158.78   12.50
  -3   2   8  180.48   12.10
   2  -2  -8   83.69    8.60
   2  -2  -8   96.79    9.30
   2  -2  -8   70.19    7.00
   2  -2  -8   76.69    9.10
  -2   2   8   78.99    9.30
  -2   2   8   73.49    8.50
  -2   2   8   98.39    5.50
  -2   2   8   92.59    8.90
   1  -2  -8   31.40    3.50
   1  -2  -8   28.60    3.70
   1  -2  -8   35.40    4.00
   1  -2  -8   28.60    5.60
   1  -2  -8   23.90    5.00
   1  -2  -8   32.20    4.20
  -1   2   8   25.60    4.60
  -1   2   8   29.00    3.70
  -1   2   8   22.80    4.70
  -1   2   8   33.70    6.10
   0  -2  -8   67.99    8.30
   0  -2  -8   70.29    8.10
   0  -2  -8   73.29    8.10
   0  -2  -8   75.29    6.70
   0   2   8   79.19    7.70
   0   2   8   70.99    8.90
   0   2   8   74.29    7.60
  -1  -2  -8   39.50    5.10
  -1  -2  -8   45.80    5.00
  -1  -2  -8   47.20    6.30
   1   2   8   42.20    9.30
   1   2   8   43.20    5.10
   1   2   8   42.80    5.30
   1   2   8   41.20    4.30
  -2  -2  -8 1078.59   44.60
  -2  -2  -8 1084.49   44.50
  -2  -2  -8 1100.79   42.90
   2   2   8 1020.30   42.90
   2   2   8 1092.39   44.30
   2   2   8 1092.29   44.10
   2   2   8 1081.89   45.00
  -3  -2  -8   -2.30    4.20
  -3  -2  -8   -2.10    4.30
   3   2   8    7.10    4.90
   3   2   8    3.90    4.90
   3   2   8    0.30    5.70
  -4  -2  -8    3.40    5.10
  -4  -2  -8    1.20    4.50
   4   2   8    3.50    5.50
   4   2   8    2.70    5.70
   4   2   8  -10.50    6.40
  -5  -2  -8   36.80    6.50
  -5  -2  -8   24.50    6.70
   5   2   8   27.60    7.80
   5   2   8   47.40    9.20
  -6  -2  -8    7.20    6.60
  -6  -2  -8   -2.10    5.90
   6   2   8    5.70    7.40
   6   2   8   -7.80    8.90
   6   2   8   18.90    7.90
   7  -3  -8  -10.80   10.10
   7  -3  -8  -15.10   13.00
  -7   3   8    1.50    9.70
   6  -3  -8   10.50    5.80
   6  -3  -8   -4.50    8.90
   6  -3  -8   21.10    9.70
  -6   3   8    8.90    8.00
  -6   3   8    2.80    5.10
  -6   3   8   -5.00    6.60
   5  -3  -8   20.30   10.80
   5  -3  -8    8.30    6.00
   5  -3  -8   10.60    8.00
  -5   3   8   17.30    4.70
  -5   3   8    6.10    7.70
  -5   3   8   10.90    7.10
   4  -3  -8   21.40    7.10
   4  -3  -8   28.10    6.20
   4  -3  -8   13.40    7.20
  -4   3   8   19.20    4.40
  -4   3   8   19.70    6.40
  -4   3   8   23.90    6.50
   3  -3  -8   -2.40    5.80
   3  -3  -8    1.20    5.60
  -3   3   8   -2.00    5.00
  -3   3   8    6.70    5.10
  -3   3   8    0.60    3.80
   2  -3  -8   77.89    6.70
   2  -3  -8   87.09   10.10
   2  -3  -8   70.59    8.30
   2  -3  -8   76.19    5.70
   2  -3  -8   69.19    8.10
  -2   3   8   86.09    8.80
  -2   3   8   75.89    8.00
  -2   3   8   83.69    5.90
  -2   3   8   71.99    9.40
   1  -3  -8  157.68   11.30
   1  -3  -8  153.18    9.00
   1  -3  -8  151.28   10.90
   1  -3  -8  157.38    8.80
  -1   3   8  162.48   10.10
  -1   3   8  157.08   10.40
  -1   3   8  155.68    8.60
   0  -3  -8  185.48   11.10
   0  -3  -8  181.08   10.80
   0  -3  -8  193.18    8.80
   0  -3  -8  185.38   10.40
   0   3   8  194.48   11.40
   0   3   8  186.68   10.80
   0   3   8  163.68   17.00
  -1  -3  -8   42.20    5.70
  -1  -3  -8   42.80    4.90
  -1  -3  -8   35.20    5.20
   1   3   8   34.80    5.10
   1   3   8   33.20    3.80
   1   3   8   33.30    5.50
   1   3   8   31.70    6.10
  -2  -3  -8   22.10    5.00
  -2  -3  -8   20.40    5.00
  -2  -3  -8   25.80    3.80
   2   3   8   19.10    3.20
   2   3   8   16.30    5.90
   2   3   8   22.80    5.00
   2   3   8   14.70    5.60
  -3  -3  -8   -5.20    4.30
  -3  -3  -8    0.50    4.30
   3   3   8    4.30    5.40
   3   3   8    5.50    4.90
   3   3   8    6.80    6.10
  -4  -3  -8    1.60    4.80
  -4  -3  -8    2.40    5.00
   4   3   8    0.50    5.80
   4   3   8    3.80    6.90
  -5  -3  -8    8.10    6.30
  -5  -3  -8   14.20    5.80
   5   3   8    9.40    6.80
  -6  -3  -8   70.09    8.10
  -6  -3  -8   59.99    8.80
   6   3   8   66.99   11.20
   6   3   8   50.69    9.60
   6  -4  -8   -4.60    9.10
   6  -4  -8  -16.80    6.20
   6  -4  -8    8.10    9.10
  -6   4   8   13.80    4.90
  -6   4   8    7.30    7.30
  -6   4   8    6.10    8.30
   5  -4  -8   13.10    6.30
   5  -4  -8    3.40    8.60
  -5   4   8    9.30    4.60
   4  -4  -8  122.09   12.80
   4  -4  -8  148.79   13.00
   4  -4  -8  134.29   12.10
  -4   4   8  120.59   11.80
  -4   4   8  146.99    8.50
  -4   4   8  131.59   12.30
   3  -4  -8   -3.00    5.40
   3  -4  -8   -2.90    5.80
   3  -4  -8   -1.80    5.40
   3  -4  -8    5.70    3.30
  -3   4   8   -0.80    5.00
  -3   4   8    0.50    5.30
  -3   4   8    1.50    3.40
   2  -4  -8    3.50    4.70
   2  -4  -8    4.90    5.30
   2  -4  -8    1.50    3.10
   2  -4  -8   -1.50    5.40
   2  -4  -8    8.40    2.90
  -2   4   8   -1.80    4.60
  -2   4   8    4.20    3.70
  -2   4   8    9.30    5.30
  -2   4   8    0.30    2.90
   1  -4  -8    4.30    3.40
   1  -4  -8    7.50    3.10
   1  -4  -8    6.00    4.10
   1  -4  -8   11.20    5.40
   1  -4  -8    1.40    5.10
  -1   4   8    8.30    5.90
  -1   4   8    7.70    4.10
  -1   4   8    7.50    2.70
  -1   4   8   12.50    5.00
  -1   4   8    3.50    3.20
   0  -4  -8  161.98   10.60
   0  -4  -8  159.18    8.30
   0  -4  -8  160.48    9.90
   0  -4  -8  150.68   11.40
   0   4   8  169.88   10.00
   0   4   8  159.18   11.40
   0   4   8  159.18   11.90
  -1  -4  -8    5.70    4.10
  -1  -4  -8    2.20    3.90
  -1  -4  -8    1.80    4.40
   1   4   8    5.40    5.00
   1   4   8    5.80    2.70
   1   4   8    4.20    4.00
   1   4   8    3.30    5.30
  -2  -4  -8   48.30    6.20
  -2  -4  -8   33.60    5.60
  -2  -4  -8   37.70    4.90
   2   4   8   32.30    6.30
   2   4   8   37.50    6.80
   2   4   8   44.10    5.60
   2   4   8   41.30    4.30
  -3  -4  -8   -1.10    4.30
  -3  -4  -8   -2.80    4.60
   3   4   8   -4.80    5.80
   3   4   8   -4.90    5.20
  -4  -4  -8   37.00    6.90
  -4  -4  -8   31.50    6.00
   4   4   8   30.60    8.00
   4   4   8   33.60    7.70
  -5  -4  -8   51.19    8.10
  -5  -4  -8   66.89    7.40
   5   4   8   43.20    8.70
   5   4   8   58.49   10.30
  -6  -4  -8    6.10    6.20
  -6  -4  -8   -0.90    6.60
   6   4   8    1.60    9.20
   6  -5  -8   -0.30    9.00
   6  -5  -8   -0.60    8.80
   6  -5  -8   -6.10    6.70
  -6   5   8   -6.50    5.00
  -6   5   8   15.50    8.20
  -6   5   8    4.70    7.00
   5  -5  -8   15.40    7.10
   5  -5  -8    7.30    8.70
   5  -5  -8   21.80    8.70
  -5   5   8   19.70    7.60
  -5   5   8   10.20    3.70
  -5   5   8    7.70    7.50
   4  -5  -8  136.59    8.20
   4  -5  -8  158.28   13.10
   4  -5  -8  145.49   12.50
   4  -5  -8  158.78   13.60
  -4   5   8  130.49    7.90
  -4   5   8  133.19   11.90
  -4   5   8  129.29   12.70
   3  -5  -8   -0.70    5.60
   3  -5  -8    3.60    5.60
   3  -5  -8    2.20    6.10
  -3   5   8   -2.10    5.00
  -3   5   8   -1.80    5.40
  -3   5   8    2.40    2.90
   2  -5  -8   44.90    5.40
   2  -5  -8   48.60    6.40
   2  -5  -8   41.20    6.70
   2  -5  -8   32.60    6.50
  -2   5   8   39.00    4.40
  -2   5   8   39.00    6.30
  -2   5   8   47.90    4.70
  -2   5   8   44.20    6.30
   1  -5  -8    1.30    3.40
   1  -5  -8    3.70    3.70
   1  -5  -8    4.90    5.50
   1  -5  -8    4.90    5.20
  -1   5   8   -3.30    2.20
  -1   5   8   -2.60    3.60
  -1   5   8    1.20    4.90
  -1   5   8   -1.80    5.40
   0  -5  -8   77.79    7.80
   0  -5  -8   92.39    8.00
   0  -5  -8   75.39    8.40
   0  -5  -8   83.29    6.30
   0   5   8   74.99    9.90
   0   5   8   75.69    9.90
   0   5   8   76.79    7.50
  -1  -5  -8  167.78    9.80
  -1  -5  -8  175.78   11.20
  -1  -5  -8  172.38   11.70
   1   5   8  163.18   12.00
   1   5   8  167.68    8.60
   1   5   8  162.38   12.40
   1   5   8  171.58   10.30
  -2  -5  -8   33.90    5.80
  -2  -5  -8   33.90    5.70
   2   5   8   30.60    6.30
   2   5   8   30.10    5.40
   2   5   8   29.00    6.70
  -3  -5  -8    7.00    5.10
  -3  -5  -8   -1.60    4.70
   3   5   8    8.80    6.80
   3   5   8    7.10    5.80
  -4  -5  -8   -0.60    5.10
  -4  -5  -8    2.10    5.10
   4   5   8    2.00    6.20
   4   5   8   -8.80    7.40
  -5  -5  -8   17.70    6.70
  -5  -5  -8   29.50    6.30
   5   5   8   16.40    7.40
   5   5   8   40.80    9.60
   6  -6  -8   13.50    9.40
   6  -6  -8   -7.40    7.30
   6  -6  -8    5.90    9.50
  -6   6   8   11.20    8.50
  -6   6   8   16.70    7.10
   5  -6  -8   39.40    9.30
   5  -6  -8   24.50    7.90
   5  -6  -8   18.00    8.90
  -5   6   8   11.30    6.90
  -5   6   8   26.40    8.20
   4  -6  -8    6.20    7.10
   4  -6  -8   -4.50    6.80
   4  -6  -8    0.00    6.60
  -4   6   8   -1.30    6.20
  -4   6   8    1.80    5.40
   3  -6  -8   19.90    6.70
   3  -6  -8   21.60    6.70
   3  -6  -8   16.00    6.60
  -3   6   8   10.00    6.10
  -3   6   8   19.80    6.00
   2  -6  -8   16.00    3.40
   2  -6  -8    5.80    5.70
   2  -6  -8    6.40    5.70
  -2   6   8    3.00    5.30
  -2   6   8    7.40    2.20
  -2   6   8    8.80    3.10
  -2   6   8   15.30    3.50
  -2   6   8    5.40    5.20
   1  -6  -8   18.40    4.10
   1  -6  -8    9.80    5.20
   1  -6  -8   22.40    6.00
  -1   6   8    7.30    5.20
  -1   6   8    9.60    5.60
  -1   6   8   13.80    2.90
  -1   6   8   18.10    4.10
  -1   6   8   13.80    3.80
   0  -6  -8   20.70    3.70
   0  -6  -8   14.60    4.50
   0  -6  -8   17.60    5.70
   0  -6  -8   15.00    4.80
   0   6   8   17.70    5.50
   0   6   8    4.90    5.20
   0   6   8   13.70    3.90
   0   6   8    9.40    3.40
  -1  -6  -8   27.30    4.50
  -1  -6  -8   27.70    5.20
  -1  -6  -8   27.50    5.70
  -1  -6  -8   19.70    3.50
   1   6   8   23.00    6.00
   1   6   8   27.40    5.40
   1   6   8   23.40    3.10
   1   6   8   18.20    6.00
  -2  -6  -8   -1.40    4.40
  -2  -6  -8    0.30    4.90
   2   6   8    3.80    5.60
   2   6   8    1.50    6.10
   2   6   8    1.10    4.40
  -3  -6  -8   -3.30    4.80
  -3  -6  -8    5.70    5.00
   3   6   8    3.80    5.90
   3   6   8    3.70    6.90
  -4  -6  -8   10.00    5.90
  -4  -6  -8   -3.30    5.00
   4   6   8    8.60   12.60
   4   6   8    5.10    6.80
  -5  -6  -8    0.40    6.00
  -5  -6  -8    5.00    5.60
   5   6   8   -5.20    6.60
   5   6   8    4.60    9.10
   6  -7  -8   13.00    9.60
   6  -7  -8   -3.20    7.80
   6  -7  -8    7.20    9.50
  -6   7   8   -0.20    6.60
  -6   7   8   31.40    8.90
   5  -7  -8   -4.00    7.90
   5  -7  -8   -4.80    8.30
   5  -7  -8    3.60    8.30
  -5   7   8   -0.30    5.80
  -5   7   8    2.00    7.40
   4  -7  -8   12.80    7.50
   4  -7  -8    0.80    7.00
  -4   7   8   -5.90    5.20
   3  -7  -8    8.50    6.60
   3  -7  -8   11.60    2.90
   3  -7  -8   13.70    6.60
   3  -7  -8    7.20    6.60
  -3   7   8   20.90    6.50
  -3   7   8    8.70    2.60
  -3   7   8   11.60    5.60
   2  -7  -8   40.80    7.00
   2  -7  -8   48.60    7.50
   2  -7  -8   38.80    4.70
  -2   7   8   42.30    6.60
  -2   7   8   49.30    7.10
   1  -7  -8  152.48   10.10
   1  -7  -8  157.48   12.50
   1  -7  -8  149.59   11.20
  -1   7   8  153.68   11.80
  -1   7   8  142.69   12.00
  -1   7   8  142.09    8.70
  -1   7   8  178.68    9.90
   0  -7  -8    9.10    5.60
   0  -7  -8    9.20    4.80
   0  -7  -8   11.40    4.70
   0   7   8    8.90    3.50
   0   7   8   16.80    3.90
   0   7   8   14.40    5.90
   0   7   8    9.50    5.60
  -1  -7  -8   10.10    4.00
  -1  -7  -8   -3.70    5.10
  -1  -7  -8    4.40    2.80
  -1  -7  -8    1.20    4.50
   1   7   8    3.60    5.60
   1   7   8    1.50    4.70
   1   7   8    2.20    5.40
   1   7   8    4.20    2.90
  -2  -7  -8   -4.70    4.80
  -2  -7  -8    1.90    4.80
   2   7   8   10.40    6.20
   2   7   8    0.30    4.40
   2   7   8   -3.20    6.10
  -3  -7  -8   21.60    5.80
   3   7   8   25.80    8.10
   3   7   8   15.20    7.40
  -4  -7  -8   65.79    7.70
  -4  -7  -8   52.09    8.40
   4   7   8   50.09    8.90
   4   7   8   52.69   10.00
  -5  -7  -8   -0.20    5.80
  -5  -7  -8    3.60    6.10
   5   7   8    3.50    9.10
   5   7   8   -6.70    6.90
   6  -8  -8    4.70   10.40
   6  -8  -8   23.30    8.40
  -6   8   8    8.70    6.90
  -6   8   8   -6.00    9.10
   5  -8  -8   -0.50    8.50
   5  -8  -8    8.20    8.60
   5  -8  -8    7.00    7.70
  -5   8   8   -0.10    7.50
  -5   8   8   -4.00    5.90
   4  -8  -8    3.20    7.80
   4  -8  -8   19.60   10.60
  -4   8   8   11.80    6.20
  -4   8   8   11.10    6.90
   3  -8  -8   38.60    7.90
   3  -8  -8   33.10    3.80
   3  -8  -8   49.00    8.00
  -3   8   8   28.90    7.30
  -3   8   8   21.80    6.10
   2  -8  -8   -9.60    5.80
   2  -8  -8   -3.80    5.60
   2  -8  -8    1.90    3.70
  -2   8   8    1.40    5.30
  -2   8   8    8.30    4.90
  -2   8   8   -2.70    5.70
   1  -8  -8   -5.90    3.80
   1  -8  -8   -3.10    4.90
   1  -8  -8   -9.20    5.30
  -1   8   8    0.50    5.30
  -1   8   8   -2.90    2.00
  -1   8   8   -1.30    5.40
  -1   8   8   -5.40    3.90
  -1   8   8   -0.10    3.10
   0  -8  -8    3.50    4.50
   0  -8  -8   -4.80    5.00
   0  -8  -8    1.20    5.60
   0   8   8    6.00    5.60
   0   8   8    0.20    5.40
   0   8   8    4.20    3.50
   0   8   8   -4.80    3.50
  -1  -8  -8   28.60    4.50
  -1  -8  -8   25.30    5.70
  -1  -8  -8   16.80    4.80
  -1  -8  -8   21.40    6.30
   1   8   8   27.30    6.40
   1   8   8   31.50    4.80
   1   8   8   20.80    6.50
   1   8   8   31.90    3.90
  -2  -8  -8   10.60    5.50
  -2  -8  -8    8.50    5.60
   2   8   8   10.00    3.10
   2   8   8    8.80    4.90
   2   8   8   12.50    6.90
   2   8   8    5.40    6.10
  -3  -8  -8    3.10    5.80
  -3  -8  -8   18.10    6.40
   3   8   8   12.80    3.10
   3   8   8   10.60    6.90
   3   8   8   10.60    8.40
  -4  -8  -8   -0.10    6.10
  -4  -8  -8   17.20    6.70
   4   8   8    4.90    7.60
   4   8   8   25.10    9.60
  -5  -8  -8   16.00    6.90
  -5  -8  -8    8.40    5.80
   5  -9  -8   -0.30    7.60
   5  -9  -8   11.60    8.90
   5  -9  -8  -10.00    8.40
  -5   9   8    5.00    6.10
  -5   9   8  -17.50    7.80
   4  -9  -8   11.90    8.40
   4  -9  -8    5.90    8.30
   4  -9  -8   13.00    7.80
  -4   9   8   -4.30    6.80
   3  -9  -8   29.90   12.00
   3  -9  -8   26.40    4.20
  -3   9   8   31.70    7.50
  -3   9   8   30.50    6.30
   2  -9  -8   21.60    7.30
   2  -9  -8   19.30    6.70
   2  -9  -8   13.70    6.80
  -2   9   8   11.00    5.70
  -2   9   8   17.00    5.40
  -2   9   8   11.70    6.60
   1  -9  -8   32.30    5.50
   1  -9  -8   37.90    7.50
   1  -9  -8   39.80    6.40
  -1   9   8   32.90    5.30
  -1   9   8   37.40    7.10
  -1   9   8   30.00    6.50
   0  -9  -8   35.10    7.20
   0  -9  -8   47.30    6.50
   0  -9  -8   42.20    5.90
   0   9   8   50.39    7.30
   0   9   8   53.79    6.60
   0   9   8   41.10    7.10
  -1  -9  -8    7.50    5.10
  -1  -9  -8   -3.10    5.70
  -1  -9  -8   -1.30    3.90
   1   9   8   -1.80    3.20
   1   9   8    2.00    4.00
   1   9   8   -0.10    6.20
   1   9   8  -12.80    5.50
  -2  -9  -8   -1.10    5.50
  -2  -9  -8    1.90    5.50
   2   9   8    1.30    4.70
   2   9   8    1.40    6.40
   2   9   8    4.40    9.60
   2   9   8    1.40    3.30
  -3  -9  -8   -0.50    5.90
   3   9   8    1.00    6.70
   3   9   8   -6.40    8.00
   3   9   8    0.60    3.10
  -4  -9  -8   18.20    6.70
  -4  -9  -8   37.70    6.90
   4   9   8   18.20    9.80
   4   9   8   11.30    7.90
   5 -10  -8   -5.40    8.90
   5 -10  -8    9.40    8.80
  -5  10   8    5.20    5.90
   4 -10  -8    6.80    8.50
   4 -10  -8    9.40    7.90
   4 -10  -8   30.60    9.10
  -4  10   8   18.90    7.70
  -4  10   8    8.00    5.90
   3 -10  -8    7.50    7.30
   3 -10  -8    5.10    3.80
   3 -10  -8    4.10    7.30
  -3  10   8   -3.60    5.10
  -3  10   8   17.40    7.10
   2 -10  -8   58.59    8.10
   2 -10  -8   53.59    6.00
   2 -10  -8   59.09    8.80
  -2  10   8   49.80    8.00
  -2  10   8   44.30    7.10
  -2  10   8   49.20    6.80
   1 -10  -8  105.89   10.40
   1 -10  -8  103.79    9.80
   1 -10  -8   78.49   14.30
  -1  10   8  101.59    9.20
  -1  10   8   81.89   10.60
   0 -10  -8    4.70    5.20
   0 -10  -8    6.00    4.90
   0  10   8    8.50    4.40
   0  10   8    5.50    3.60
   0  10   8    1.30    5.80
  -1 -10  -8   -4.90    4.10
  -1 -10  -8    7.30    7.50
   1  10   8   -0.80    3.70
   1  10   8    8.40    4.10
   1  10   8    5.10    6.90
   1  10   8   -0.30    6.10
  -2 -10  -8   -2.30    5.80
  -2 -10  -8    8.20    6.10
   2  10   8   -0.40    7.20
   2  10   8    1.60    4.90
   2  10   8    2.10    6.50
  -3 -10  -8    1.30    6.00
  -3 -10  -8   -4.40    5.60
   3  10   8    4.30    6.80
   3  10   8    2.40    8.00
   3  10   8   -6.10    5.30
  -4 -10  -8    2.00    6.00
  -4 -10  -8    5.80    9.30
   4  10   8   -3.60    7.20
   4 -11  -8    9.60    8.00
   4 -11  -8   14.50    9.10
  -4  11   8   11.30    7.50
  -4  11   8   -2.30    5.40
   3 -11  -8    4.00    7.30
   3 -11  -8   13.10    4.30
   3 -11  -8   -1.70    7.20
  -3  11   8    5.20    6.90
  -3  11   8   -0.80    6.30
  -3  11   8    3.00    7.40
   2 -11  -8    4.50    4.70
   2 -11  -8   -4.80    6.80
  -2  11   8    6.40    5.70
  -2  11   8    0.70    5.50
  -2  11   8   13.90    7.10
   1 -11  -8   16.90    5.70
   1 -11  -8   16.80    7.30
   1 -11  -8    3.90    5.70
  -1  11   8    8.70    7.00
  -1  11   8    8.30    5.10
  -1  11   8    6.70    5.90
   0 -11  -8  -10.60    6.20
   0 -11  -8   11.00    5.20
   0 -11  -8    2.80    5.60
   0  11   8   -4.40    3.20
   0  11   8    0.90    4.60
   0  11   8    4.20    6.00
   0  11   8    0.80    6.50
  -1 -11  -8   -0.40    6.50
  -1 -11  -8    0.70    4.30
  -1 -11  -8    9.60    5.90
   1  11   8    0.10    4.00
   1  11   8    1.40    7.00
   1  11   8    0.40    4.10
  -2 -11  -8    3.50    5.80
  -2 -11  -8    6.50    6.40
   2  11   8   -5.60    6.40
   2  11   8    3.50    4.90
   2  11   8   -4.80    7.20
   2  11   8    4.90    4.10
  -3 -11  -8    7.40    6.10
  -3 -11  -8   -2.40    5.60
   3  11   8    2.90    5.70
   3  11   8    2.80    8.00
   3  11   8    2.80    6.90
  -4  12   8    0.10    5.60
   3 -12  -8    5.30    7.70
   3 -12  -8   14.50    8.00
   3 -12  -8    5.00    4.80
  -3  12   8    7.70    7.50
  -3  12   8    0.50    6.60
  -3  12   8    0.50    5.20
   2 -12  -8   11.40    7.50
   2 -12  -8   21.50    7.10
   2 -12  -8   19.00    5.50
  -2  12   8   11.50    6.30
  -2  12   8   18.50    7.30
  -2  12   8   14.90    7.10
   1 -12  -8    5.50    6.00
   1 -12  -8    8.90    6.50
   1 -12  -8   12.40    7.30
  -1  12   8    0.20    6.80
  -1  12   8    8.20    6.00
  -1  12   8   11.60    5.40
   0 -12  -8   13.10    6.10
   0 -12  -8   14.20    5.60
   0 -12  -8   11.70    7.10
   0  12   8   10.20    7.20
   0  12   8   15.60    5.30
  -1 -12  -8    0.00    5.70
  -1 -12  -8   11.10    7.00
   1  12   8    5.10    7.20
   1  12   8    0.20    6.20
   1  12   8    2.80    4.50
   1  12   8   -8.30    3.90
  -2 -12  -8   46.10    7.80
  -2 -12  -8   41.80    7.90
   2  12   8   45.90    8.40
   2  12   8   38.20    6.90
   2  12   8   46.10    6.30
   2  12   8   29.90    8.80
   3 -13  -8   -0.70    7.50
  -3  13   8    5.80    5.60
  -3  13   8   -8.50    6.20
   2 -13  -8   60.59    8.70
   2 -13  -8   62.59    9.80
  -2  13   8   67.19    9.30
  -2  13   8   54.59    7.40
  -2  13   8   54.69    8.20
   1 -13  -8    1.50    9.10
   1 -13  -8   -1.00    5.40
   1 -13  -8   11.30    7.20
  -1  13   8   10.10    6.00
  -1  13   8    4.40    5.40
  -1  13   8   -7.50    6.50
   0 -13  -8   13.50    5.70
   0 -13  -8    5.70    7.00
   0 -13  -8    6.70    6.00
   0  13   8   12.60    7.10
   0  13   8    7.40    5.90
  -1 -13  -8   -5.00    6.40
  -1 -13  -8   -1.80    5.80
   1  13   8   -1.40    7.60
   1  13   8    7.20    5.10
   1  13   8    7.30    6.40
   1 -14  -8    3.00    7.90
   1 -14  -8    5.60    5.60
   1 -14  -8    5.70    6.20
  -1  14   8    7.90    5.40
  -1  14   8    7.20    5.60
  -1  14   8    2.40    7.40
   0 -14  -8    5.10    5.90
   0  14   8   -6.20    5.30
   0  14   8   -1.00    7.00
   0  14   8   12.20    5.50
   1  16  -9   89.89   10.80
  -1 -16   9   58.59    9.50
  -1 -16   9   51.49    8.00
  -1 -16   9   60.99   19.70
   0  16  -9   24.00    7.40
   0  16  -9    2.80    7.50
   0 -16   9   25.60    8.40
   0 -16   9   15.00    6.30
   0 -16   9    7.70    8.80
  -1  16  -9    4.70    6.50
  -1  16  -9    2.40    7.20
   1 -16   9  -13.50    5.60
   1 -16   9   10.80    8.10
   1 -16   9    3.80    9.50
  -2  16  -9   -3.70    6.30
   2 -16   9   -1.10    6.80
   2  15  -9   20.40    9.40
   2  15  -9   20.40    7.40
   2  15  -9   14.80    7.60
  -2 -15   9   24.00    7.60
  -2 -15   9   29.20    7.60
  -2 -15   9   36.00    9.90
   1  15  -9   30.80    8.00
   1  15  -9   32.20    8.90
   1  15  -9   20.40    7.30
  -1 -15   9   30.40    9.60
  -1 -15   9   28.80    7.40
  -1 -15   9   22.00    8.20
   0  15  -9    4.90    6.70
   0  15  -9   14.90    7.90
   0 -15   9   11.30    8.00
   0 -15   9   19.80    6.60
   0 -15   9   11.00    8.50
  -1  15  -9   18.10    7.70
  -1  15  -9    3.70    6.50
   1 -15   9   11.80    8.50
   1 -15   9   21.50    8.20
   1 -15   9   25.40   10.80
  -2  15  -9   11.50    7.00
  -2  15  -9    7.50    6.50
   2 -15   9   14.90    8.50
   2 -15   9    9.20    8.00
   2 -15   9    9.50    6.40
  -3  15  -9    1.60    7.10
   3 -15   9   15.80   10.80
   3 -15   9   -8.10    9.20
   3  14  -9   11.20    8.60
   3  14  -9   -6.20    6.40
   3  14  -9    3.10    9.70
  -3 -14   9   -8.30    7.90
  -3 -14   9    1.00    7.20
   2  14  -9    0.80    6.90
   2  14  -9    4.40    8.60
   2  14  -9    5.40    7.00
  -2 -14   9   35.30    9.00
  -2 -14   9   11.20    7.30
  -2 -14   9    9.50    6.60
   1  14  -9   67.79   10.40
   1  14  -9   39.70    7.60
   1  14  -9   73.59    8.90
  -1 -14   9   64.39   10.30
  -1 -14   9   54.49    9.00
  -1 -14   9   56.09    8.30
   0  14  -9    0.30    7.30
   0  14  -9   -3.80    6.50
   0 -14   9   -2.40    7.00
   0 -14   9   -3.50    8.20
   0 -14   9    5.30    8.20
  -1  14  -9   56.99    8.30
  -1  14  -9   52.59    8.50
   1 -14   9   32.30    7.30
   1 -14   9   53.09    9.80
   1 -14   9   48.50    9.10
  -2  14  -9    0.30    6.20
  -2  14  -9    5.90    6.30
   2 -14   9    1.10    8.30
   2 -14   9   16.00    8.10
   2 -14   9   -2.90    6.30
  -3  14  -9    1.20    6.20
  -3  14  -9   -1.90    6.90
   3 -14   9   -3.10    6.10
   3 -14   9    3.40    8.50
   3 -14   9   -6.30    7.50
  -4  14  -9   36.50    7.90
   4 -14   9   21.50    9.70
   4 -14   9   31.00    9.30
   4  13  -9   17.70   10.50
   4  13  -9   14.20    7.20
  -4 -13   9   -2.10    7.80
   3  13  -9    6.10    8.80
   3  13  -9   -3.70    6.30
   3  13  -9    7.10    9.80
  -3 -13   9    4.40    7.90
  -3 -13   9    1.50    6.90
   2  13  -9   -2.50    8.30
   2  13  -9   15.80    7.20
   2  13  -9    5.40    6.90
  -2 -13   9  -17.10    5.90
  -2 -13   9    7.20    6.90
  -2 -13   9   -7.60    8.10
   1  13  -9    1.70    5.00
   1  13  -9    3.90    7.70
   1  13  -9   -0.60    7.90
  -1 -13   9   -6.50    6.10
  -1 -13   9    8.10    8.30
  -1 -13   9   11.90   10.50
   0  13  -9   -6.10    6.10
   0 -13   9    3.00    6.50
   0 -13   9    3.60    6.30
   0 -13   9   -4.40    7.40
  -1  13  -9   13.70    6.30
   1 -13   9    9.90    6.70
   1 -13   9   11.60    8.20
   1 -13   9   -7.90   10.50
  -2  13  -9    5.40    6.10
   2 -13   9   -3.80    6.60
   2 -13   9    0.80    7.60
   2 -13   9   -2.00    6.30
  -3  13  -9   -2.40    6.00
  -3  13  -9    9.30    6.80
   3 -13   9   13.80    8.90
   3 -13   9    7.70    6.60
   3 -13   9    2.60    7.20
  -4  13  -9   -0.80    6.30
  -4  13  -9    3.50    6.30
   4 -13   9    9.70    8.50
   4 -13   9  -11.40    7.20
   4 -13   9  -15.70    8.50
   4  12  -9   -0.40   10.70
   4  12  -9    8.30    6.70
  -4 -12   9   -2.60    7.60
  -4 -12   9    0.50    5.80
   3  12  -9    6.10    9.80
   3  12  -9   22.00    8.70
  -3 -12   9   10.70    7.50
  -3 -12   9   -2.80    4.90
  -3 -12   9   10.10    8.10
  -3 -12   9    9.60    5.30
   2  12  -9   27.50    9.20
   2  12  -9   19.70    7.00
  -2 -12   9   32.70   14.80
  -2 -12   9   24.90    6.40
  -2 -12   9   15.90    8.30
   1  12  -9   10.60    6.50
   1  12  -9    6.10    7.30
   1  12  -9   14.70    4.90
  -1 -12   9    7.60    7.70
  -1 -12   9    8.70    6.80
  -1 -12   9    9.40    6.20
   0  12  -9   -3.50    5.80
   0  12  -9    8.50    6.80
   0 -12   9   -9.00    6.90
   0 -12   9   -6.60    6.00
   0 -12   9    8.70    6.20
  -1  12  -9    7.70    7.40
  -1  12  -9    6.90    6.10
   1 -12   9    8.50   12.30
   1 -12   9   11.40    6.50
   1 -12   9   15.80    6.70
  -2  12  -9   28.80    6.70
  -2  12  -9   30.20    6.70
   2 -12   9   41.90    8.80
   2 -12   9   32.40    7.30
   2 -12   9   30.70    8.30
  -3  12  -9    2.00    6.30
  -3  12  -9   -4.90    5.80
   3 -12   9  -10.90    7.50
   3 -12   9    3.50    6.70
   3 -12   9   20.80    7.70
  -4  12  -9   12.80    6.80
  -4  12  -9    7.10    6.30
   4 -12   9   -0.80    8.30
   4 -12   9    5.50    6.70
   4 -12   9    8.00    7.60
  -5  12  -9    7.40    6.80
  -5  12  -9    5.70    9.60
   5 -12   9   -7.30    6.60
   5 -12   9   11.90    9.40
   5  11  -9    4.80    6.90
   5  11  -9    2.50   10.40
  -5 -11   9   20.80    8.00
  -5 -11   9   15.40    6.90
  -5 -11   9   -3.70   10.60
   4  11  -9    4.20    9.20
   4  11  -9  -10.60   10.20
  -4 -11   9    2.50    7.50
  -4 -11   9    4.30    6.00
   3  11  -9    8.70    7.90
   3  11  -9    8.20    7.00
   3  11  -9   -7.30    9.30
  -3 -11   9    5.20    5.10
  -3 -11   9   16.90    8.00
  -3 -11   9    3.40    5.00
  -3 -11   9    6.40    7.10
   2  11  -9   18.70    6.70
   2  11  -9    3.00    8.30
   2  11  -9   15.20    6.90
  -2 -11   9    5.70    5.70
  -2 -11   9    2.20    6.60
  -2 -11   9   12.40    4.20
  -2 -11   9    3.10    7.30
   1  11  -9   18.90    6.60
   1  11  -9   22.80    7.50
  -1 -11   9   19.70    6.80
  -1 -11   9    6.40    6.90
  -1 -11   9   13.30    6.00
   0  11  -9   19.00    6.70
   0  11  -9   13.00    6.10
   0 -11   9   15.80    6.60
   0 -11   9    4.10    7.00
   0 -11   9   13.10    6.20
  -1  11  -9   -2.40    5.50
  -1  11  -9   -4.70    5.60
   1 -11   9   -2.60    6.10
   1 -11   9   -5.70    5.70
   1 -11   9   -2.80    6.30
  -2  11  -9   -2.70    5.20
  -2  11  -9   -1.60    5.30
   2 -11   9    2.40    7.20
   2 -11   9    2.90    6.20
   2 -11   9   10.00    6.50
  -3  11  -9    3.80    5.80
  -3  11  -9    0.00    5.80
   3 -11   9    0.70    6.60
   3 -11   9    2.90    6.70
   3 -11   9    2.70    7.40
  -4  11  -9    7.90    6.20
  -4  11  -9   11.90    6.30
   4 -11   9    8.30    7.30
   4 -11   9   13.80    8.10
   4 -11   9   -0.70    8.10
  -5  11  -9  -10.50    6.20
  -5  11  -9    0.90    6.40
   5 -11   9    3.40    7.60
   5 -11   9    1.20    8.10
   5 -11   9   11.40    7.50
   5  10  -9    4.40   10.10
   5  10  -9    6.50   11.70
   5  10  -9   -3.40    6.90
  -5 -10   9   -0.50    7.40
  -5 -10   9    0.70    7.00
  -5 -10   9    9.20    6.50
   4  10  -9    8.50    9.00
   4  10  -9   11.60   10.80
   4  10  -9   17.60    7.70
  -4 -10   9   17.70    6.50
  -4 -10   9   11.90    7.90
  -4 -10   9   14.60    7.30
   3  10  -9   37.80    7.80
   3  10  -9   34.00    8.00
  -3 -10   9   26.00    5.90
  -3 -10   9   29.50   10.30
  -3 -10   9   28.70    5.40
  -3 -10   9   26.90    7.90
   2  10  -9   13.60    8.20
   2  10  -9   14.90    6.40
   2  10  -9   20.00    6.70
  -2 -10   9    8.80    7.20
  -2 -10   9   24.10    6.80
  -2 -10   9   28.70    9.30
  -2 -10   9   19.10    4.50
   1  10  -9   14.80    6.20
   1  10  -9   22.10    7.20
  -1 -10   9   21.50    5.80
  -1 -10   9   18.40    6.60
  -1 -10   9   16.00    3.50
  -1 -10   9   21.40    7.20
   0  10  -9   41.30    6.90
   0  10  -9   35.70    6.60
   0 -10   9   52.19    7.50
   0 -10   9   38.30    7.30
  -1  10  -9   28.10    6.10
  -1  10  -9   18.30    5.90
   1 -10   9   14.80    6.40
   1 -10   9   20.60    7.10
  -2  10  -9    5.50    5.40
  -2  10  -9    3.20    5.00
   2 -10   9    6.40    6.20
   2 -10   9    6.80    6.80
  -3  10  -9   23.00    6.20
  -3  10  -9   21.80    5.80
   3 -10   9   31.70    7.40
   3 -10   9   13.70    7.60
  -4  10  -9   30.30    6.80
  -4  10  -9   21.10    6.40
   4 -10   9   20.30    7.80
   4 -10   9   40.80    9.10
   4 -10   9   18.10    5.10
   4 -10   9   33.80    8.30
  -5  10  -9    1.50    6.40
   5 -10   9    6.50    8.60
   5 -10   9  -10.40    7.00
   5 -10   9    8.50    7.90
   5   9  -9    5.70    9.90
   5   9  -9    5.70   11.80
   5   9  -9   -1.00    8.50
  -5  -9   9    3.90    6.80
  -5  -9   9   -1.60    6.40
  -5  -9   9    5.10    7.30
   4   9  -9   -5.20   10.30
   4   9  -9  -12.10    8.00
   4   9  -9    6.40    7.50
  -4  -9   9    7.30    6.00
  -4  -9   9   12.70    6.80
  -4  -9   9   15.90    7.50
   3   9  -9   -3.60    6.60
   3   9  -9   -5.00    6.40
   3   9  -9    7.10    9.00
  -3  -9   9   -4.30    6.20
  -3  -9   9    4.50    6.40
  -3  -9   9    1.00    5.50
  -3  -9   9   -3.20    4.70
  -3  -9   9    7.10    4.40
   2   9  -9    4.30    5.70
   2   9  -9   10.60    6.10
   2   9  -9   -1.60    7.70
  -2  -9   9   -4.50    4.40
  -2  -9   9   10.30    4.30
  -2  -9   9   -5.40    6.10
  -2  -9   9   13.50    6.30
   1   9  -9   -2.60    6.20
   1   9  -9    0.40    3.80
   1   9  -9    3.10    5.60
  -1  -9   9   -6.30    5.80
  -1  -9   9   -6.40    3.20
  -1  -9   9    7.90    6.30
   0   9  -9   22.00    3.00
   0   9  -9   27.20    5.90
   0   9  -9   27.80    6.10
   0   9  -9   15.00    5.20
   0  -9   9   23.20    3.50
   0  -9   9   20.20    6.50
   0  -9   9   22.10    6.50
  -1   9  -9    9.90    5.20
  -1   9  -9   11.20    5.40
  -1   9  -9    9.30    5.20
   1  -9   9   13.60    6.50
   1  -9   9   13.90    6.10
  -2   9  -9    0.10    4.70
  -2   9  -9   -0.70    5.40
  -2   9  -9    7.30    4.90
   2  -9   9    7.90    6.30
   2  -9   9    3.80    6.20
  -3   9  -9   54.79    7.70
  -3   9  -9   44.90    6.20
  -3   9  -9   55.59    7.00
   3  -9   9   48.30    5.80
   3  -9   9   52.29    8.50
   3  -9   9   52.89    7.80
   3  -9   9   35.10    5.20
  -4   9  -9   -3.30    5.20
   4  -9   9   -2.10    7.10
   4  -9   9    5.50    4.00
   4  -9   9    2.90    5.40
   4  -9   9    4.50    7.20
  -5   9  -9    8.90    6.10
   5  -9   9   -5.50    7.50
   5  -9   9    9.10    7.80
   5  -9   9   -7.40    5.70
   5  -9   9    2.50    8.20
   6  -9   9   48.40   10.80
   6  -9   9   48.00    8.30
   6  -9   9   64.59   11.20
   6  -9   9   40.20    9.20
   6   8  -9   13.70   10.40
   6   8  -9  -11.10    7.50
   6   8  -9   -5.00   13.30
  -6  -8   9   -3.60    7.20
  -6  -8   9    5.70    8.80
   5   8  -9   15.90   11.40
  -5  -8   9    7.10    7.50
  -5  -8   9    4.60    5.90
  -5  -8   9    5.00    7.00
   4   8  -9   50.49    8.80
   4   8  -9   41.50    8.70
   4   8  -9   30.20   12.00
  -4  -8   9   35.50    7.00
  -4  -8   9   35.10    8.00
  -4  -8   9   48.60    7.40
   3   8  -9   88.19   11.30
   3   8  -9   94.69   11.50
  -3  -8   9   76.09    8.70
  -3  -8   9  137.39   11.70
  -3  -8   9  112.19   11.50
  -3  -8   9   82.49    9.30
  -3  -8   9  118.29    8.00
   2   8  -9   14.80    4.00
   2   8  -9    8.80    7.50
   2   8  -9   24.10    5.50
   2   8  -9    7.80    6.30
  -2  -8   9   17.60    6.20
  -2  -8   9    4.90    4.20
  -2  -8   9   12.70    6.20
   1   8  -9   40.40    5.40
   1   8  -9   62.09    7.80
   1   8  -9   66.39    7.40
  -1  -8   9   53.19    6.70
  -1  -8   9   67.79    7.50
  -1  -8   9   61.39    7.40
   0   8  -9   32.70    5.60
   0   8  -9   29.30    4.80
   0   8  -9   23.50    5.80
   0   8  -9   32.00    6.50
   0  -8   9   40.60    6.80
   0  -8   9   25.10    6.20
   0  -8   9   39.20    4.60
  -1   8  -9  111.29    9.40
  -1   8  -9  101.29    9.80
  -1   8  -9  101.89    9.50
   1  -8   9  101.69   10.90
   1  -8   9  109.39   11.00
   1  -8   9   88.89    7.50
  -2   8  -9    0.80    5.00
  -2   8  -9    4.00    4.90
  -2   8  -9    0.80    4.30
   2  -8   9    1.70    4.00
   2  -8   9   -3.30    6.00
   2  -8   9   -2.20    3.90
   2  -8   9   -3.20    5.30
  -3   8  -9   63.39    7.80
  -3   8  -9   40.10    6.30
  -3   8  -9   50.59    7.50
   3  -8   9   51.39    6.00
   3  -8   9   52.89    7.90
   3  -8   9   44.30    7.40
  -4   8  -9   -4.00    5.20
  -4   8  -9    2.30    5.20
   4  -8   9   10.10   11.20
   4  -8   9    2.00    5.40
   4  -8   9   -2.00    3.80
   4  -8   9    9.20    6.90
  -5   8  -9   -5.40    5.40
   5  -8   9    5.70    6.40
   5  -8   9  -10.50    7.40
   5  -8   9    6.40    7.70
   6  -8   9    7.30   11.70
   6  -8   9    1.90    6.70
   6  -8   9    1.50    7.90
   6  -8   9    7.60    8.10
   6  -8   9   -8.00    7.80
   6   7  -9   11.30   13.40
   6   7  -9    0.50    9.90
   6   7  -9    7.00    8.40
  -6  -7   9   21.60    8.40
  -6  -7   9   22.70    8.50
   5   7  -9    8.10    9.10
   5   7  -9   -4.40    8.00
   5   7  -9   -4.30   10.60
  -5  -7   9    6.80    7.30
  -5  -7   9   -3.60    5.20
  -5  -7   9  -11.90    6.20
   4   7  -9    9.90    9.60
   4   7  -9   23.20    7.70
   4   7  -9   15.60    7.60
  -4  -7   9    8.00    8.10
  -4  -7   9   20.10    8.00
  -4  -7   9   14.20    6.30
   3   7  -9   -2.70    8.00
   3   7  -9   14.60    6.20
   3   7  -9    1.70    6.60
  -3  -7   9   -4.60    4.60
  -3  -7   9    0.60    6.00
  -3  -7   9   -0.80    6.10
  -3  -7   9   -7.10    4.50
   2   7  -9  146.29    9.60
   2   7  -9  160.58    8.60
   2   7  -9  150.08    9.90
   2   7  -9  156.88   11.90
   2   7  -9  147.49   13.70
  -2  -7   9  154.88   14.40
  -2  -7   9  137.49   11.80
  -2  -7   9  129.19    9.90
   1   7  -9   53.69    6.00
   1   7  -9   51.29    6.70
   1   7  -9   51.19    8.30
  -1  -7   9   56.59    7.00
  -1  -7   9   56.39    7.20
  -1  -7   9   45.50    6.50
   0   7  -9  312.47   15.60
   0   7  -9  318.07   15.90
   0   7  -9  258.77   13.80
   0   7  -9  296.07   15.50
   0  -7   9  309.97   14.40
   0  -7   9  305.07   16.40
   0  -7   9  319.97   16.60
  -1   7  -9  357.86   18.00
  -1   7  -9  335.17   15.70
  -1   7  -9  373.76   17.70
  -1   7  -9  368.46   17.10
   1  -7   9  379.16   18.60
   1  -7   9  376.16   18.60
   1  -7   9  348.57   16.60
  -2   7  -9   -0.70    3.80
  -2   7  -9    0.90    4.90
  -2   7  -9   -3.50    4.30
   2  -7   9    5.20    4.50
   2  -7   9    7.40    5.80
   2  -7   9    7.80    5.90
   2  -7   9    7.30    3.30
  -3   7  -9    3.40    4.20
  -3   7  -9    0.60    5.30
  -3   7  -9    1.30    4.50
   3  -7   9    5.30    5.10
   3  -7   9   -0.40    5.80
   3  -7   9    1.30    6.00
  -4   7  -9   55.39    9.00
  -4   7  -9   43.10    6.60
  -4   7  -9   40.50    7.70
   4  -7   9   51.29    8.60
   4  -7   9   69.89    7.20
   4  -7   9   59.79    8.40
   4  -7   9   59.39    7.10
  -5   7  -9    6.80    5.60
   5  -7   9    8.90    6.60
   5  -7   9    7.90    6.70
   5  -7   9    9.80    6.10
   5  -7   9   14.90    8.30
   5  -7   9    3.50    7.50
   6  -7   9    8.20    8.30
   6  -7   9    7.30    7.30
   6  -7   9    7.70    7.70
   6  -7   9    7.40    7.80
   6  -7   9    6.00    7.10
   6  -7   9    6.80    7.20
   6   6  -9    7.30   10.00
   6   6  -9  -15.60    7.90
   6   6  -9    2.00   12.00
  -6  -6   9   -2.30    7.40
  -6  -6   9   -4.50    7.70
   5   6  -9   16.00    9.10
   5   6  -9   16.80   11.20
   5   6  -9   14.80    8.90
  -5  -6   9    6.90    4.60
  -5  -6   9    1.50    7.40
  -5  -6   9    7.20    6.90
   4   6  -9   97.29   11.70
   4   6  -9   96.89   12.30
   4   6  -9   93.79   11.50
  -4  -6   9  103.69    9.20
  -4  -6   9  113.39   11.90
  -4  -6   9   81.79   10.40
   3   6  -9   96.79   11.60
   3   6  -9  120.69    7.70
   3   6  -9  120.89   10.20
   3   6  -9  125.19   13.40
  -3  -6   9  109.39   10.90
  -3  -6   9  113.29   10.20
  -3  -6   9   89.29    9.80
  -3  -6   9  117.89   11.20
   2   6  -9    0.10    6.60
   2   6  -9    3.80    4.00
   2   6  -9    5.40    4.20
   2   6  -9    0.30    4.30
   2   6  -9   -8.90    5.60
  -2  -6   9    2.50    4.60
  -2  -6   9   -1.10    5.60
  -2  -6   9   -3.00    4.90
   1   6  -9   -8.40    5.20
   1   6  -9   -3.80    5.90
   1   6  -9   -4.80    4.10
  -1  -6   9   -0.80    4.70
  -1  -6   9    1.70    5.60
  -1  -6   9   -2.50    4.20
   0   6  -9    4.70    4.70
   0   6  -9    8.10    5.10
   0   6  -9    4.80    3.70
   0  -6   9    1.10    4.20
   0  -6   9  -10.90    8.00
   0  -6   9    6.70    5.70
  -1   6  -9   33.00    5.80
  -1   6  -9   49.80    5.40
  -1   6  -9   52.69    5.80
  -1   6  -9   42.20    6.20
   1  -6   9   51.59    5.80
   1  -6   9   41.20    6.90
   1  -6   9   48.30    6.80
  -2   6  -9    6.40    4.90
  -2   6  -9    2.60    3.70
  -2   6  -9    3.10    4.30
   2  -6   9    4.60    5.30
   2  -6   9   -0.40    4.70
   2  -6   9   -6.50    4.50
   2  -6   9    1.50    5.60
  -3   6  -9  218.18   12.90
  -3   6  -9  227.08   13.90
  -3   6  -9  226.78   11.60
   3  -6   9  224.38   13.30
   3  -6   9  203.38   14.10
   3  -6   9  220.88   14.80
  -4   6  -9   -3.40    5.60
  -4   6  -9    4.00    4.70
   4  -6   9   -4.30    5.40
   4  -6   9   -1.70    6.60
   4  -6   9    5.10    6.20
   4  -6   9   -1.80    4.60
  -5   6  -9  135.29   12.70
  -5   6  -9  113.09   10.60
   5  -6   9   97.89   12.00
   5  -6   9   91.39   10.80
   5  -6   9  131.79   13.50
   5  -6   9  120.09   10.30
   5  -6   9  121.69   10.90
   6  -6   9  118.19   15.50
   6  -6   9  153.98   12.80
   6  -6   9  178.18   15.40
   6  -6   9  161.28   14.90
   6  -6   9  173.88   12.90
   6  -6   9  196.58   13.80
   6   5  -9   29.80   12.60
   6   5  -9   12.50   10.00
   6   5  -9   23.70    9.40
  -6  -5   9   11.90    7.70
  -6  -5   9   15.90    8.20
   5   5  -9   -0.30    9.80
   5   5  -9    3.70    8.40
   5   5  -9   15.50    8.70
  -5  -5   9    3.70    6.90
  -5  -5   9    3.40    3.50
  -5  -5   9   -3.50    6.50
   4   5  -9   30.10    7.30
   4   5  -9   21.30    7.60
   4   5  -9   38.80    9.60
  -4  -5   9   27.30    6.50
  -4  -5   9   29.60    4.70
  -4  -5   9   35.00    7.30
   3   5  -9    3.00    5.30
   3   5  -9    3.00    3.80
   3   5  -9    5.50    7.20
   3   5  -9    3.60    6.60
  -3  -5   9    1.30    5.70
  -3  -5   9   -0.20    4.30
  -3  -5   9    2.60    5.10
  -3  -5   9   -4.40    4.30
   2   5  -9   79.29    8.40
   2   5  -9   86.39   10.10
   2   5  -9   85.49    7.70
   2   5  -9   78.09    7.80
   2   5  -9   68.29    9.50
  -2  -5   9   72.99    8.40
  -2  -5   9   64.49    7.70
  -2  -5   9   86.49    8.80
   1   5  -9   96.99    9.00
   1   5  -9   97.39   11.00
   1   5  -9   93.29    9.90
  -1  -5   9   88.19   10.40
  -1  -5   9   80.89    9.30
  -1  -5   9   99.99    8.80
   0   5  -9    8.70    4.60
   0   5  -9    8.50    4.90
   0   5  -9   11.40    5.20
   0  -5   9   11.30    4.40
   0  -5   9   10.60    5.60
   0  -5   9    9.30    5.30
   0  -5   9    8.60    4.90
  -1   5  -9   88.59    9.00
  -1   5  -9   78.49    7.30
  -1   5  -9  102.79    8.80
   1  -5   9   90.59    9.50
   1  -5   9   79.79    9.80
   1  -5   9   73.69    9.00
   1  -5   9   81.69   10.10
  -2   5  -9   32.10    3.90
  -2   5  -9   23.90    5.50
  -2   5  -9   33.10    5.20
   2  -5   9   30.20    5.70
   2  -5   9   37.30    6.50
   2  -5   9   23.40    5.70
  -3   5  -9   12.60    3.80
  -3   5  -9   14.70    4.70
  -3   5  -9   12.70    5.70
   3  -5   9   26.50    6.20
   3  -5   9    9.60    7.90
   3  -5   9    9.80    4.10
   3  -5   9   18.20    6.00
  -4   5  -9   17.20    4.80
  -4   5  -9    9.20    5.90
   4  -5   9    8.90    6.50
   4  -5   9   19.70    6.80
   4  -5   9   17.40    5.30
   4  -5   9   15.40    5.90
  -5   5  -9   10.70    5.30
   5  -5   9   20.70    7.40
   5  -5   9   10.30    7.10
   5  -5   9   -9.80    7.00
   5  -5   9   17.20    6.50
   6  -5   9   -7.80    6.90
   6  -5   9   11.70    7.20
   6  -5   9   -5.60    7.20
   6  -5   9   -4.10    6.10
   6  -5   9    2.60    8.40
   6  -5   9   -7.10    7.20
   6   4  -9   -9.60   10.90
   6   4  -9   17.00    9.60
   6   4  -9    2.70    9.00
  -6  -4   9   -4.40    7.10
  -6  -4   9   -5.10    7.00
   5   4  -9   10.60    8.80
   5   4  -9   11.40    9.90
   5   4  -9   17.80    8.50
  -5  -4   9   18.80   12.00
   4   4  -9    4.00    8.20
   4   4  -9    1.80    6.40
   4   4  -9   -2.10    7.20
  -4  -4   9   -2.90    3.30
  -4  -4   9   -6.10    5.30
  -4  -4   9   -8.00    5.70
  -4  -4   9    4.90    3.40
   3   4  -9   35.70    7.40
   3   4  -9   30.20    7.70
   3   4  -9   44.30    4.90
   3   4  -9   30.90    6.00
  -3  -4   9   42.10    4.40
  -3  -4   9   40.20    5.00
  -3  -4   9   48.20    6.70
  -3  -4   9   36.10    4.90
  -3  -4   9   28.80    6.20
   2   4  -9   18.70    6.60
   2   4  -9   28.20    4.30
   2   4  -9   28.50    4.60
   2   4  -9   16.20    6.30
   2   4  -9   24.30    4.70
  -2  -4   9   20.80    6.10
  -2  -4   9   13.90    4.40
  -2  -4   9   24.20    3.80
  -2  -4   9   18.10    7.00
   1   4  -9   76.99    8.20
   1   4  -9  104.69    9.80
   1   4  -9   89.69   10.10
  -1  -4   9   76.99    8.30
  -1  -4   9   97.79   10.40
  -1  -4   9   81.29    9.00
   0   4  -9  152.78   10.00
   0   4  -9  165.18   11.90
   0   4  -9  151.68   10.30
   0  -4   9  147.09   11.70
   0  -4   9  134.59   10.60
   0  -4   9  162.38   10.90
  -1   4  -9  290.97   13.20
  -1   4  -9  286.37   14.90
  -1   4  -9  310.87   15.60
   1  -4   9  299.67   15.70
   1  -4   9  283.17   15.20
   1  -4   9  286.17   13.60
  -2   4  -9   13.40    3.00
  -2   4  -9   13.50    4.90
   2  -4   9   11.50    3.60
   2  -4   9    8.70    5.20
   2  -4   9   12.90    5.50
  -3   4  -9    3.60    4.90
  -3   4  -9   -0.20    3.80
   3  -4   9    2.30    5.10
   3  -4   9    8.20    3.20
   3  -4   9    3.90    3.40
   3  -4   9   -2.90    5.20
   3  -4   9    2.30    4.30
  -4   4  -9    0.40    5.60
  -4   4  -9   12.60    5.80
  -4   4  -9    0.00    4.00
   4  -4   9   -7.00    5.60
   4  -4   9   -2.20    5.10
   4  -4   9   -2.70    3.90
   4  -4   9    0.70    5.30
   4  -4   9   10.60    3.70
  -5   4  -9   71.09    8.50
  -5   4  -9   52.49    6.30
   5  -4   9   52.09    8.40
   5  -4   9   58.99    6.60
   5  -4   9   85.69   10.60
   5  -4   9   52.39    8.50
  -6   4  -9   12.30    7.10
   6  -4   9    9.70    7.50
   6  -4   9    0.80    7.50
   6  -4   9    6.20    7.90
   6  -4   9    7.40    6.30
   6   3  -9  -13.50   10.30
   6   3  -9   -3.40    9.10
   6   3  -9   -7.60    9.10
  -6  -3   9    2.40    7.10
  -6  -3   9    1.40    7.00
   5   3  -9   12.00    8.30
   5   3  -9    7.70    8.50
  -5  -3   9    7.50    6.70
   4   3  -9   45.40    6.00
   4   3  -9   57.49    9.10
   4   3  -9   48.80    8.50
   4   3  -9   49.90    7.50
  -4  -3   9   30.00    6.80
  -4  -3   9   39.40    7.00
  -4  -3   9   51.79    6.30
   3   3  -9   -6.40    6.20
   3   3  -9    1.20    6.70
   3   3  -9    5.70    4.10
  -3  -3   9    3.80    5.20
  -3  -3   9   -1.10    3.60
  -3  -3   9    7.20    4.30
  -3  -3   9    1.60    2.80
  -3  -3   9    1.60    5.40
   2   3  -9   14.90    4.00
   2   3  -9   16.10    4.60
   2   3  -9    6.40    6.10
   2   3  -9   16.40    6.40
  -2  -3   9   12.00    4.00
  -2  -3   9    3.10    5.80
  -2  -3   9   11.00    3.50
   1   3  -9   58.19    6.10
   1   3  -9   43.30    6.00
   1   3  -9   40.80    5.40
  -1  -3   9   49.80    7.80
  -1  -3   9   63.59    7.60
  -1  -3   9   31.80    5.10
  -1  -3   9   38.20    4.90
  -1  -3   9   36.70    5.80
   0   3  -9  180.88   11.30
   0   3  -9  190.38   11.70
   0   3  -9  187.98   10.70
   0  -3   9  193.08   12.40
   0  -3   9  189.78   12.00
   0  -3   9  189.68    9.70
   0  -3   9  189.78   11.30
  -1   3  -9    7.40    4.60
  -1   3  -9   13.90    4.70
  -1   3  -9    2.60    4.80
   1  -3   9   -0.20    5.10
   1  -3   9    1.90    5.20
  -2   3  -9  578.94   26.00
  -2   3  -9  591.94   25.20
  -2   3  -9  589.54   26.10
   2  -3   9  585.64   26.20
   2  -3   9  585.04   25.90
  -3   3  -9  180.08   12.20
  -3   3  -9  163.58   11.60
  -3   3  -9  171.08   10.10
   3  -3   9  157.18   11.90
   3  -3   9  153.48   11.90
   3  -3   9  169.58   10.80
  -4   3  -9    7.50    4.10
  -4   3  -9   14.10    5.80
  -4   3  -9    4.60    5.70
   4  -3   9   17.20    5.70
   4  -3   9   11.90    6.00
   4  -3   9    8.20    6.10
  -5   3  -9   30.90    7.50
  -5   3  -9   31.30    7.10
   5  -3   9   24.80    7.40
   5  -3   9   30.80    7.80
   5  -3   9   34.50    5.80
   5  -3   9   36.10    7.30
  -6   3  -9  138.99   15.00
  -6   3  -9  148.09   13.50
   6  -3   9  159.78   11.30
   6  -3   9  138.89   15.20
   6  -3   9  151.98   16.00
   6  -3   9  161.88   14.30
   6   2  -9    8.40   10.00
   6   2  -9   12.70    9.90
   6   2  -9   10.90   10.40
  -6  -2   9   -1.00    6.80
  -6  -2   9    1.80    7.20
   5   2  -9   73.79    9.80
   5   2  -9   45.80    9.90
  -5  -2   9   54.29    7.70
   4   2  -9   20.40    4.30
   4   2  -9   19.00    7.90
   4   2  -9   11.30    7.80
  -4  -2   9    3.50    6.10
  -4  -2   9   17.90    6.10
  -4  -2   9   13.90    6.10
   3   2  -9    6.10    6.50
   3   2  -9   16.40    4.60
   3   2  -9   18.90    6.70
  -3  -2   9    7.50    5.30
  -3  -2   9   23.00    5.60
  -3  -2   9   15.50    4.90
  -3  -2   9   19.10    5.80
  -3  -2   9   21.60    2.80
  -3  -2   9   16.30    5.60
   2   2  -9  100.39    7.90
   2   2  -9  114.29    8.90
   2   2  -9   98.49   10.80
   2   2  -9   98.99   10.50
  -2  -2   9   97.29    9.70
  -2  -2   9   87.49    7.40
  -2  -2   9  100.29    8.30
  -2  -2   9   97.09    6.70
   1   2  -9   -0.50    4.60
   1   2  -9   -1.10    3.50
   1   2  -9    3.90    5.50
   1   2  -9    2.20    4.20
  -1  -2   9    1.00    4.90
  -1  -2   9    0.40    4.90
  -1  -2   9    0.30    3.50
  -1  -2   9    3.70    3.90
  -1  -2   9    5.30    3.10
  -1  -2   9    8.30    3.30
   0   2  -9   18.10    5.20
   0   2  -9   23.30    5.00
   0   2  -9   17.60    4.00
   0  -2   9   23.20    3.30
   0  -2   9   16.10    5.40
   0  -2   9   13.80    5.10
  -1   2  -9  620.74   33.60
  -1   2  -9  735.63   30.20
  -1   2  -9  726.73   29.90
   1  -2   9  739.73   30.60
  -2   2  -9  427.96   20.20
  -2   2  -9  409.46   19.10
  -2   2  -9  450.85   20.50
   2  -2   9  424.86   20.20
   2  -2   9  433.86   18.90
  -3   2  -9   11.10    5.20
  -3   2  -9    6.80    3.80
  -3   2  -9   21.10    5.30
   3  -2   9   -3.70    5.00
   3  -2   9   23.30    3.90
   3  -2   9    9.90    5.40
   3  -2   9   10.80    5.00
  -4   2  -9   10.70    5.20
  -4   2  -9    2.20    3.50
  -4   2  -9    4.10    5.50
   4  -2   9   -0.30    5.50
   4  -2   9    0.30    5.60
   4  -2   9   -2.70    6.20
  -5   2  -9   36.30    7.70
  -5   2  -9   28.60    6.80
   5  -2   9   30.60    7.50
   5  -2   9   30.30    7.80
  -6   2  -9   36.60    8.50
  -6   2  -9   52.59    8.00
   6  -2   9   32.10    9.00
   6  -2   9   49.00    9.40
   6   1  -9   49.20   10.80
   6   1  -9   64.69   12.00
   6   1  -9   42.00   10.70
  -6  -1   9   34.40    8.80
  -6  -1   9   42.90    8.00
   5   1  -9   -1.20    8.90
   5   1  -9   -0.10    8.30
  -5  -1   9   -9.60    5.40
   4   1  -9  227.38   15.30
   4   1  -9  214.28   15.20
   4   1  -9  232.38   11.60
  -4  -1   9  162.78   13.80
  -4  -1   9  186.78   12.70
  -4  -1   9  215.88   13.20
  -4  -1   9  220.28   13.90
   3   1  -9  137.79    9.60
   3   1  -9  127.09   11.90
   3   1  -9  125.89   11.60
  -3  -1   9  113.39   10.30
  -3  -1   9  120.49   11.90
  -3  -1   9  127.89   10.90
   2   1  -9  227.58   13.40
   2   1  -9  249.28   12.80
   2   1  -9  224.78   14.30
  -2  -1   9  253.67   13.60
  -2  -1   9  223.28   10.60
  -2  -1   9  241.28   12.10
  -2  -1   9  196.48   11.00
  -2  -1   9  206.98   13.60
   1   1  -9  196.28   10.80
   1   1  -9  205.48   11.60
   1   1  -9  208.78   12.60
   1   1  -9  208.18   12.10
  -1  -1   9  181.68   12.80
  -1  -1   9  201.18   10.70
  -1  -1   9  206.68   10.30
  -1  -1   9  207.18   10.40
  -1  -1   9  208.98   12.40
   0   1  -9  346.67   17.40
   0   1  -9  374.16   16.70
   0   1  -9  354.86   17.50
   0   1  -9  356.56   16.10
   0   1  -9  361.16   16.70
   0  -1   9  368.06   17.40
   0  -1   9  372.76   15.60
   0  -1   9  379.36   18.10
   1  -1   9   40.50    6.20
  -2   1  -9  923.41   39.10
  -2   1  -9  937.61   38.10
  -2   1  -9  910.51   39.00
   2  -1   9  959.10   39.00
   2  -1   9  951.00   38.20
   2  -1   9  935.91   39.50
  -3   1  -9   28.90    5.60
  -3   1  -9   28.10    4.10
  -3   1  -9   36.10    5.80
   3  -1   9   29.60    6.30
   3  -1   9   39.10    6.00
   3  -1   9   32.70    5.70
  -4   1  -9    3.10    3.30
  -4   1  -9    0.30    5.00
  -4   1  -9    4.80    5.20
   4  -1   9    8.00    5.90
   4  -1   9    6.50    5.80
   4  -1   9    5.20    5.90
  -5   1  -9   89.39   11.80
  -5   1  -9  110.49   11.50
   5  -1   9  109.59   13.10
   5  -1   9  128.99   12.80
   5  -1   9  104.69   12.40
  -6   1  -9   19.60    7.10
  -6   1  -9   12.40    8.10
   6  -1   9   16.70    8.60
   6  -1   9   10.70    7.90
   6  -1   9   23.60    8.40
   6   0  -9   11.90   10.40
   6   0  -9   13.10   10.30
  -6   0   9   12.80    7.40
   5   0  -9   15.70    9.20
   5   0  -9    9.20    8.70
   5   0  -9   10.50    4.60
  -5   0   9    5.90    7.50
  -5   0   9    6.50    5.50
  -5   0   9  -15.50   10.80
   4   0  -9   11.40    5.00
   4   0  -9   20.30    7.30
   4   0  -9   12.20    7.80
  -4   0   9    2.30    5.90
  -4   0   9    0.00    5.90
  -4   0   9   -0.90    5.10
   3   0  -9  581.94   24.50
   3   0  -9  542.75   26.00
   3   0  -9  545.85   25.30
  -3   0   9  544.55   25.80
  -3   0   9  670.63   30.40
  -3   0   9  497.75   25.70
   2   0  -9    9.20    4.70
   2   0  -9   20.10    5.30
   2   0  -9   15.70    6.10
  -2   0   9   11.10    3.30
  -2   0   9   10.20    5.40
  -2   0   9    8.30    2.60
  -2   0   9   17.10    4.70
  -2   0   9   13.40    5.30
   1   0  -9   38.10    4.40
   1   0  -9   52.29    5.90
   1   0  -9   37.50    6.30
   1   0  -9   29.40    4.80
   1   0  -9   43.90    5.00
   1   0  -9   30.40    4.20
  -1   0   9   54.39    6.90
  -1   0   9   35.80    7.90
  -1   0   9   43.70    5.40
  -1   0   9   37.90    5.80
   0   0  -9   -0.10    4.00
   0   0  -9    3.40    4.80
   0   0  -9   10.90    4.70
   0   0  -9    5.50    3.60
   0   0   9    0.60    4.40
   0   0   9    1.50    5.00
   0   0   9    9.70    3.80
  -1   0  -9  109.59    9.20
  -1   0  -9  101.69    8.90
  -1   0  -9  101.59    9.40
  -1   0  -9   96.19    8.60
   1   0   9  114.69    8.40
  -2   0  -9    4.60    3.40
  -2   0  -9    9.30    4.80
  -2   0  -9    6.60    4.20
   2   0   9    1.90    5.30
   2   0   9   19.40    5.10
   2   0   9   14.30    4.80
  -3   0  -9    3.80    3.00
  -3   0  -9   -0.90    4.40
  -3   0  -9    2.80    4.60
   3   0   9    2.90    5.40
   3   0   9    5.90    3.90
   3   0   9    7.40    5.20
   3   0   9    7.60    5.40
  -4   0  -9   94.79   10.60
  -4   0  -9  103.99    7.00
  -4   0  -9  114.89   10.60
   4   0   9  119.79   11.90
   4   0   9  106.79   11.30
   4   0   9  104.29   11.00
   4   0   9  112.99    7.60
  -5   0  -9  216.48   14.70
  -5   0  -9  198.88   15.00
   5   0   9  246.88   16.40
   5   0   9  238.88   15.80
   5   0   9  232.48   16.60
  -6   0  -9    3.80    6.60
  -6   0  -9    6.00    6.60
   6   0   9    3.00    7.40
   6   0   9   -7.10    7.90
   6   0   9    7.50    7.60
   6  -1  -9   -0.50    9.50
   6  -1  -9    5.70    9.90
  -6   1   9    5.30    7.20
  -6   1   9   -4.50    5.80
   5  -1  -9    4.30    9.60
   5  -1  -9   -1.30    4.90
  -5   1   9   -3.30    5.00
  -5   1   9    2.80    7.00
  -5   1   9    5.90    7.10
   4  -1  -9  224.18   15.00
   4  -1  -9  201.98   15.20
   4  -1  -9  229.58   12.70
  -4   1   9  154.88   14.10
  -4   1   9  198.58   13.70
  -4   1   9  226.88   12.70
   3  -1  -9   20.50    5.40
   3  -1  -9   22.60    6.10
   3  -1  -9   20.10    6.80
  -3   1   9    7.40    4.80
  -3   1   9   11.90    5.70
  -3   1   9   18.80    5.50
   2  -1  -9    6.80    5.00
   2  -1  -9    3.50    5.90
   2  -1  -9    9.00    5.00
  -2   1   9    1.60    2.90
  -2   1   9    5.10    4.90
  -2   1   9    4.80    5.40
  -2   1   9   -2.60    4.30
  -2   1   9    1.40    2.50
   1  -1  -9   25.10    4.40
   1  -1  -9   16.80    5.30
   1  -1  -9    7.00    5.40
   1  -1  -9   18.50    3.50
   1  -1  -9   20.40    3.90
  -1   1   9   13.90    5.90
  -1   1   9   21.40    4.40
  -1   1   9   17.30    3.40
  -1   1   9   21.80    5.20
   0  -1  -9   -3.80    4.80
   0  -1  -9   -3.70    3.50
   0  -1  -9   -7.40    4.20
   0   1   9    4.40    4.40
   0   1   9    0.40    3.90
  -1  -1  -9   55.09    5.80
  -1  -1  -9   40.30    6.60
  -1  -1  -9   53.09    5.60
  -1  -1  -9   54.69    6.40
   1   1   9   49.00    5.50
   1   1   9   48.10    6.70
  -2  -1  -9   98.59    7.20
  -2  -1  -9  109.19    9.30
  -2  -1  -9   88.09    9.20
   2   1   9   80.19   10.30
   2   1   9  100.49    9.90
   2   1   9   79.59    7.00
   2   1   9  101.19    9.20
  -3  -1  -9    9.30    2.80
  -3  -1  -9   14.00    5.00
  -3  -1  -9    6.80    4.90
   3   1   9   17.20   10.30
   3   1   9   14.30    5.80
   3   1   9    5.10    5.20
   3   1   9    0.40    4.00
  -4  -1  -9   50.59    6.80
  -4  -1  -9   47.70    7.10
   4   1   9   56.79    7.60
   4   1   9   42.60    7.70
   4   1   9   52.09    7.70
  -5  -1  -9   19.90    6.20
  -5  -1  -9   13.70    6.30
   5   1   9   46.20    9.10
   5   1   9   47.60    8.30
   5   1   9   21.00    7.90
  -6  -1  -9   -0.10    6.40
  -6  -1  -9    5.60    6.60
   6   1   9    5.10    7.40
   6   1   9  -14.30    7.70
   6   1   9   -4.80    7.20
   6  -2  -9    1.20    9.30
   6  -2  -9    6.00    9.70
  -6   2   9    6.30    5.70
  -6   2   9   -4.40    7.90
  -6   2   9   -5.40    6.80
   5  -2  -9   41.50    6.70
   5  -2  -9   27.00   10.50
  -5   2   9   30.20    5.70
  -5   2   9   13.20    7.00
   4  -2  -9   68.29    8.70
   4  -2  -9   44.10    8.60
   4  -2  -9   54.49    7.10
  -4   2   9   54.39    6.40
  -4   2   9   62.89    8.10
  -4   2   9   50.59    8.00
   3  -2  -9   30.50    6.60
   3  -2  -9   15.70    6.90
   3  -2  -9   30.80    6.40
  -3   2   9   32.10    6.30
  -3   2   9   32.10    5.20
  -3   2   9   24.20    6.20
   2  -2  -9    1.50    5.30
   2  -2  -9    0.60    4.60
   2  -2  -9    7.50    5.90
  -2   2   9   -1.70    4.40
  -2   2   9    3.00    5.20
  -2   2   9    3.20    4.80
  -2   2   9    2.40    2.50
   1  -2  -9   10.60    5.90
   1  -2  -9    3.30    4.90
   1  -2  -9    6.60    3.40
   1  -2  -9   15.40    4.20
  -1   2   9    9.60    4.90
  -1   2   9   10.30    3.20
  -1   2   9    2.10    5.70
  -1   2   9   15.00    4.60
   0  -2  -9   27.10    4.40
   0  -2  -9   26.70    5.50
   0  -2  -9   31.70    5.60
   0   2   9   29.90    5.00
   0   2   9   23.40    6.00
   0   2   9   24.60    4.80
  -1  -2  -9    5.60    4.40
  -1  -2  -9   -0.50    4.50
  -1  -2  -9    4.80    4.30
   1   2   9   -5.80    4.30
   1   2   9    1.90    5.30
  -2  -2  -9   79.49    8.90
  -2  -2  -9   86.49    9.20
  -2  -2  -9   89.39    7.40
   2   2   9   91.79    9.00
   2   2   9   90.49   10.30
   2   2   9   83.89    6.30
   2   2   9   75.79   10.20
  -3  -2  -9   63.39    4.90
  -3  -2  -9   71.69    7.70
  -3  -2  -9   72.29    9.40
   3   2   9   64.79    5.40
   3   2   9   77.69    7.50
   3   2   9   63.19    7.60
   3   2   9   80.99   10.30
  -4  -2  -9    8.70    5.40
  -4  -2  -9   10.20    5.70
   4   2   9    9.80    6.70
   4   2   9   22.30    6.60
   4   2   9   12.00    6.30
  -5  -2  -9   20.50    6.60
  -5  -2  -9   23.50    6.40
   5   2   9   19.00    7.70
   5   2   9   38.80    9.30
   5   2   9   29.60    8.10
  -6  -2  -9    9.40    6.80
  -6  -2  -9    4.60    6.20
   6   2   9   13.20    9.00
   6   2   9    3.80    8.70
   6  -3  -9   -2.60    5.90
   6  -3  -9    3.70    9.60
   6  -3  -9    2.70    9.80
  -6   3   9    5.00    7.20
  -6   3   9    6.60    5.50
  -6   3   9   15.70    8.70
   5  -3  -9    2.00    6.20
   5  -3  -9   -2.80    8.70
  -5   3   9    1.70    4.60
  -5   3   9   -0.90    6.80
  -5   3   9    6.40   13.10
   4  -3  -9   37.30    7.00
   4  -3  -9   40.30    8.20
   4  -3  -9   49.30    8.70
  -4   3   9   41.20    7.50
  -4   3   9   43.70    5.40
  -4   3   9   31.00    7.10
   3  -3  -9   20.30    6.20
   3  -3  -9    3.60    6.50
   3  -3  -9   14.10    6.10
  -3   3   9   17.40    5.60
  -3   3   9    7.00    5.60
  -3   3   9   10.20    4.40
   2  -3  -9    4.00    2.90
   2  -3  -9   -7.10    5.00
   2  -3  -9   -1.50    5.50
   2  -3  -9    3.20    4.80
  -2   3   9    0.80    4.30
  -2   3   9    1.50    2.80
  -2   3   9    6.10    4.90
  -2   3   9    5.90    5.30
   1  -3  -9    4.60    4.80
   1  -3  -9    9.10    3.70
   1  -3  -9    2.20    4.00
   1  -3  -9    8.60    3.00
  -1   3   9    8.30    4.60
  -1   3   9    1.70    4.50
  -1   3   9    0.80    3.10
  -1   3   9    5.80    5.70
   0  -3  -9   -3.20    3.50
   0  -3  -9   -0.80    4.40
   0  -3  -9    2.40    4.70
   0   3   9    0.10    5.20
   0   3   9   -5.10    4.20
   0   3   9   -6.30    3.80
  -1  -3  -9  173.08   12.00
  -1  -3  -9  187.38   11.50
  -1  -3  -9  193.48   10.80
   1   3   9  197.88   12.10
   1   3   9  188.18   11.90
   1   3   9  155.98   12.60
  -2  -3  -9   53.09    4.80
  -2  -3  -9   35.60    6.00
  -2  -3  -9   38.70    6.00
   2   3   9   40.10    6.80
   2   3   9   44.20    7.40
   2   3   9   41.90    6.00
  -3  -3  -9    1.50    4.80
  -3  -3  -9    2.10    4.80
   3   3   9    4.10    5.80
   3   3   9    3.50    6.20
   3   3   9    0.40    5.10
  -4  -3  -9   -2.90    4.80
   4   3   9   -4.00    6.70
  -5  -3  -9   21.70    6.60
  -5  -3  -9   25.10    7.00
   5   3   9   27.90    8.50
   5   3   9   27.80    8.00
   5   3   9   14.00    7.50
  -6  -3  -9   42.10    7.60
   6   3   9   33.00    9.60
   6   3   9   27.20   11.20
   6   3   9   39.00   11.30
   6  -4  -9    2.20    9.40
   6  -4  -9    3.80    6.50
   6  -4  -9    4.60    9.20
  -6   4   9   -2.30    4.80
  -6   4   9    3.70    8.10
  -6   4   9    9.70    7.30
   5  -4  -9  218.98   14.60
   5  -4  -9  219.68   16.70
   5  -4  -9  187.08   16.60
  -5   4   9  191.78   15.70
  -5   4   9  227.28   13.20
  -5   4   9  199.88   15.60
   4  -4  -9  194.68   14.00
   4  -4  -9  213.68   14.80
   4  -4  -9  206.88   14.70
  -4   4   9  161.08   13.80
  -4   4   9  193.98   14.40
  -4   4   9  199.48   10.80
   3  -4  -9   21.80    6.40
   3  -4  -9   16.20    6.70
   3  -4  -9   24.60    6.30
  -3   4   9   -0.80    5.60
  -3   4   9   12.80    4.00
  -3   4   9   12.50    6.00
   2  -4  -9   10.50    5.10
   2  -4  -9    8.70    6.00
   2  -4  -9    2.40    3.00
   2  -4  -9    8.90    5.70
  -2   4   9    5.20    3.10
  -2   4   9   13.10    4.30
  -2   4   9    5.00    5.30
  -2   4   9    5.30    5.20
   1  -4  -9    7.50    4.10
   1  -4  -9    5.20    5.30
   1  -4  -9    7.90    5.40
   1  -4  -9    8.00    3.20
   1  -4  -9    5.30    3.50
  -1   4   9   10.00    5.00
  -1   4   9    3.60    5.70
  -1   4   9   10.90    4.40
   0  -4  -9    1.80    4.60
   0  -4  -9   -1.80    2.80
   0  -4  -9    4.30    3.80
   0  -4  -9   -3.00    2.50
   0  -4  -9    2.50    4.90
   0   4   9   -1.50    4.10
   0   4   9   -4.90    5.20
  -1  -4  -9  143.89   11.20
  -1  -4  -9  160.18    9.70
  -1  -4  -9  150.58   10.60
   1   4   9  149.69   11.20
   1   4   9  153.88   10.20
   1   4   9  146.69   11.90
  -2  -4  -9    6.00    4.60
  -2  -4  -9    6.20    5.10
  -2  -4  -9   -3.20    3.10
   2   4   9    5.40    5.90
   2   4   9    4.70    4.50
   2   4   9   -2.90    5.40
   2   4   9   -2.10    2.50
  -3  -4  -9   16.90    5.80
  -3  -4  -9   28.80    6.00
   3   4   9   15.80    6.60
   3   4   9   15.10    6.70
   3   4   9   34.00    6.20
  -4  -4  -9   14.60    5.90
  -4  -4  -9   13.60    5.90
   4   4   9   19.30    8.00
   4   4   9   16.50    7.10
   4   4   9   18.90    6.80
  -5  -4  -9   57.79    7.80
  -5  -4  -9   54.79    8.50
   5   4   9   56.29    9.20
   5   4   9   65.49   10.30
   5   4   9   74.09    9.20
   6  -5  -9   -1.40    9.40
   6  -5  -9   -1.40    9.10
   6  -5  -9    4.60    7.50
  -6   5   9   -2.90    7.10
  -6   5   9   -5.50    7.80
   5  -5  -9   -2.50    8.40
   5  -5  -9    9.60    7.30
   5  -5  -9    5.80    8.40
  -5   5   9    9.50    7.80
  -5   5   9   -2.00    6.50
  -5   5   9    3.80    3.70
   4  -5  -9   49.10    8.60
   4  -5  -9   21.80    8.30
   4  -5  -9   28.90    7.60
  -4   5   9   17.20    6.70
  -4   5   9   20.90    7.30
  -4   5   9   27.90    3.90
   3  -5  -9   -6.80    5.80
   3  -5  -9   -1.20    5.80
   3  -5  -9   -1.70    6.40
  -3   5   9   -0.30    5.50
  -3   5   9    0.40    5.80
  -3   5   9   -4.00    3.10
   2  -5  -9   -6.20    5.30
   2  -5  -9   -4.00    5.40
   2  -5  -9    2.20    5.40
   2  -5  -9   -2.10    3.00
  -2   5   9    4.10    3.80
  -2   5   9    0.00    5.30
  -2   5   9   -1.20    4.40
  -2   5   9   -1.00    5.20
   1  -5  -9   37.60    6.90
   1  -5  -9   63.19    6.90
   1  -5  -9   54.19    7.10
   1  -5  -9   51.89    6.80
  -1   5   9   58.39    6.70
  -1   5   9   52.49    7.30
  -1   5   9   47.70    5.30
   0  -5  -9   12.10    3.20
   0  -5  -9   13.60    5.50
   0  -5  -9   10.20    4.40
   0  -5  -9   11.50    4.90
   0   5   9   10.70    5.30
   0   5   9    6.50    4.20
   0   5   9   13.50    5.80
  -1  -5  -9  166.58   11.20
  -1  -5  -9  156.98   11.80
  -1  -5  -9  172.98   10.10
   1   5   9  160.78   12.50
   1   5   9  164.18   10.50
   1   5   9  169.28   12.10
  -2  -5  -9   83.09    9.60
  -2  -5  -9   82.19    9.80
   2   5   9   92.99   11.50
   2   5   9   98.49    9.10
   2   5   9   73.89    8.60
  -3  -5  -9    3.90    5.00
  -3  -5  -9   13.10    5.30
   3   5   9   -2.40    5.20
   3   5   9    0.30    6.70
   3   5   9    0.00    6.10
  -4  -5  -9    0.30    5.50
  -4  -5  -9    7.40    5.70
   4   5   9    8.70    6.50
   4   5   9   14.40    7.50
  -5  -5  -9    6.40    6.10
   5   5   9    7.30    8.60
   5   5   9    7.60    7.30
   5   5   9    5.60    7.00
   6  -6  -9   31.40    8.20
   6  -6  -9   25.20   12.80
   6  -6  -9   21.40    9.70
  -6   6   9   26.30   11.00
  -6   6   9    6.00    7.30
   5  -6  -9   27.80    9.60
   5  -6  -9   67.59   10.60
   5  -6  -9   33.80    8.50
  -5   6   9   56.99    8.70
  -5   6   9   57.89    9.50
   4  -6  -9  -13.20    7.00
   4  -6  -9   11.90    7.30
   4  -6  -9   -8.30    7.50
  -4   6   9   -2.80    5.60
   3  -6  -9    5.80    6.40
   3  -6  -9    7.20    6.80
   3  -6  -9   11.80    6.60
  -3   6   9    4.40    5.90
  -3   6   9    5.60    6.00
   2  -6  -9    4.60    3.30
   2  -6  -9   -5.90    5.40
   2  -6  -9    5.30    5.90
   2  -6  -9    6.50    6.10
  -2   6   9    7.50    5.50
  -2   6   9    2.90    4.10
  -2   6   9   -3.80    5.30
  -2   6   9    3.60    3.40
   1  -6  -9    2.10    5.50
   1  -6  -9   -3.00    3.70
   1  -6  -9    4.70    5.50
  -1   6   9    4.70    5.50
  -1   6   9   -2.30    5.40
  -1   6   9    2.10    3.90
   0  -6  -9    1.60    4.70
   0  -6  -9    2.00    4.20
   0  -6  -9   -3.90    3.50
   0  -6  -9    7.00    5.40
   0   6   9   -2.70    5.40
   0   6   9    2.70    4.00
   0   6   9    8.50    5.30
  -1  -6  -9   17.90    5.60
  -1  -6  -9   13.00    4.40
  -1  -6  -9   11.50    4.90
   1   6   9   13.30    6.00
   1   6   9   16.60    6.20
   1   6   9   12.10    4.40
  -2  -6  -9    6.70    5.10
  -2  -6  -9    5.70    5.20
   2   6   9    8.30    4.70
   2   6   9    8.50    6.10
   2   6   9   13.20    6.40
  -3  -6  -9   -2.20    7.30
  -3  -6  -9   -3.40    5.20
   3   6   9    1.40    5.50
   3   6   9    3.00    7.40
  -4  -6  -9   36.10    6.70
  -4  -6  -9   12.50    6.20
   4   6   9   37.60    7.80
   4   6   9   28.10    9.10
   4   6   9   46.60    8.80
  -5  -6  -9   34.00    7.60
  -5  -6  -9   31.90    7.00
   5   6   9   28.70    9.30
   5   6   9   14.50    8.20
   5   6   9   32.00    8.10
   6  -7  -9    7.00    7.80
   6  -7  -9   -2.50    9.20
  -6   7   9   -2.70    6.80
  -6   7   9    8.40   10.00
   5  -7  -9    0.10    8.70
   5  -7  -9    3.80    8.70
   5  -7  -9   -3.60    7.60
  -5   7   9    5.50    6.50
  -5   7   9    5.90    7.80
   4  -7  -9   -2.50    7.70
   4  -7  -9    7.90    7.60
   4  -7  -9   20.70    8.70
  -4   7   9   17.40    7.40
   3  -7  -9   -0.30    6.40
   3  -7  -9    3.30    6.90
   3  -7  -9   -3.80    6.40
  -3   7   9   -2.10    6.10
  -3   7   9   -4.40    5.50
   2  -7  -9    8.10    6.40
   2  -7  -9   13.60    3.80
   2  -7  -9    8.50    6.20
  -2   7   9    7.50    5.80
  -2   7   9    8.60    2.20
  -2   7   9   -0.20    5.70
   1  -7  -9   45.00    5.80
   1  -7  -9   47.80    7.40
   1  -7  -9   42.00    6.60
  -1   7   9   42.40    5.00
  -1   7   9   56.29    4.70
  -1   7   9   48.40    6.90
  -1   7   9   36.80    7.10
   0  -7  -9   22.20    6.20
   0  -7  -9   12.30    4.80
   0   7   9   11.00    5.80
   0   7   9   14.00    4.30
   0   7   9   25.10    3.90
   0   7   9   18.60    6.30
  -1  -7  -9   -3.90    4.50
  -1  -7  -9    7.80    5.50
  -1  -7  -9    2.10    4.10
   1   7   9   11.20    4.40
   1   7   9    1.40    2.70
   1   7   9    0.30    5.70
   1   7   9    3.40    6.00
  -2  -7  -9   19.20    6.10
  -2  -7  -9    9.40    5.60
   2   7   9   23.60    7.00
   2   7   9   20.00    7.30
   2   7   9   24.40    5.40
  -3  -7  -9    2.80    5.50
  -3  -7  -9   -5.80    5.20
   3   7   9   -2.50    5.50
   3   7   9    2.00    6.70
  -4  -7  -9   44.60    7.70
  -4  -7  -9   22.00    7.20
   4   7   9   25.90    8.50
   4   7   9   31.10    7.60
   4   7   9   22.00    9.40
  -5  -7  -9    0.70    5.80
  -5  -7  -9   -1.40    6.20
   5   7   9    4.80    9.00
   5   7   9    7.60   11.70
   5  -8  -9    1.50    8.00
   5  -8  -9   16.90    9.10
   5  -8  -9    2.40    8.80
  -5   8   9   11.10    8.20
  -5   8   9    3.30    6.40
   4  -8  -9   -7.90    7.90
   4  -8  -9    0.80    7.60
   4  -8  -9   -5.20    8.00
  -4   8   9   -3.60    5.60
  -4   8   9   -1.40    6.90
   3  -8  -9   16.20    3.30
   3  -8  -9    6.90    7.20
  -3   8   9    4.60    6.10
  -3   8   9   19.80   12.70
   2  -8  -9   35.00    7.40
   2  -8  -9   41.60    7.90
   2  -8  -9   28.30    4.70
  -2   8   9   20.70    6.80
  -2   8   9   17.50    6.40
   1  -8  -9   45.40    5.80
   1  -8  -9   53.09    7.80
   1  -8  -9   40.10    6.60
  -1   8   9   36.00    7.00
  -1   8   9   43.80    4.50
  -1   8   9   39.60    5.30
  -1   8   9   35.30    7.10
  -1   8   9   29.30    3.70
   0  -8  -9   44.70    6.30
   0  -8  -9   38.90    6.00
   0  -8  -9   41.30    7.50
   0   8   9   43.70    5.00
   0   8   9   46.40    7.40
   0   8   9   46.80    7.40
   0   8   9   44.80    4.90
  -1  -8  -9    2.70    4.30
  -1  -8  -9    5.60    5.80
  -1  -8  -9    4.30    5.20
   1   8   9    4.20    6.30
   1   8   9    8.80    3.20
   1   8   9    2.80    4.10
   1   8   9    8.60    6.40
  -2  -8  -9    1.90    8.20
  -2  -8  -9    5.00    5.70
   2   8   9    1.60    4.90
  -3  -8  -9   -3.60    6.50
  -3  -8  -9   10.60    6.00
   3   8   9    3.90    8.30
   3   8   9    0.20    6.90
  -4  -8  -9   15.90    6.60
  -4  -8  -9   15.60    6.60
   4   8   9   21.60    9.50
   4   8   9   17.70    8.20
   4   8   9   19.90    7.20
   5  -9  -9  -10.50   10.90
   5  -9  -9   -3.50    7.90
   5  -9  -9   -9.40    8.80
  -5   9   9   -2.40    9.20
  -5   9   9    7.80    6.30
   4  -9  -9    1.60    8.00
   4  -9  -9   -4.80    7.70
   4  -9  -9    8.30    8.20
  -4   9   9    6.40    7.50
  -4   9   9   -0.30    5.70
   3  -9  -9    9.10    3.50
   3  -9  -9   -4.40    7.20
   3  -9  -9    4.20    7.30
  -3   9   9   18.20    7.40
  -3   9   9    3.20    7.00
   2  -9  -9   17.00    7.00
   2  -9  -9    5.60    4.20
   2  -9  -9    5.30    7.10
  -2   9   9   -2.10    5.70
  -2   9   9   -5.40    6.90
   1  -9  -9  118.99   10.10
   1  -9  -9  125.89   11.00
  -1   9   9  124.29    9.60
  -1   9   9  108.29   13.90
  -1   9   9   96.79   11.50
   0  -9  -9   51.79    6.90
   0  -9  -9   44.80    6.20
   0   9   9   36.60    7.40
   0   9   9   47.80    5.10
   0   9   9   44.70    7.80
  -1  -9  -9    8.90    5.70
  -1  -9  -9    0.60    4.30
   1   9   9   -4.80    6.10
   1   9   9   -2.60    4.10
   1   9   9   -2.70    3.30
  -2  -9  -9   58.89    8.20
  -2  -9  -9   55.19    8.30
   2   9   9   82.99    6.30
   2   9   9   65.09    7.10
   2   9   9   61.29    9.00
   2   9   9   69.39    9.40
  -3  -9  -9    7.10    6.50
  -3  -9  -9   22.30    6.70
   3   9   9   11.50    6.10
   3   9   9   14.60    7.50
   3   9   9    2.70    8.20
  -4  -9  -9   12.50    6.50
   4   9   9    9.20    8.20
   4   9   9    0.80    9.50
   4   9   9   13.00    6.90
   4 -10  -9    9.70    8.30
   4 -10  -9   19.40    9.10
   4 -10  -9   -2.30    8.60
  -4  10   9    1.60    7.20
  -4  10   9   -0.20    5.70
   3 -10  -9    0.40    3.90
   3 -10  -9    0.60    7.20
   3 -10  -9   -0.30    7.40
  -3  10   9    5.90    5.90
  -3  10   9    0.80    6.80
   2 -10  -9   23.70    9.50
   2 -10  -9   38.30    5.50
   2 -10  -9   28.00    8.00
  -2  10   9   26.40    6.50
  -2  10   9   32.80    7.80
  -2  10   9   21.10    6.70
   1 -10  -9   45.30    6.60
   1 -10  -9   39.40    7.10
   1 -10  -9   36.00    8.00
  -1  10   9   44.80    8.10
  -1  10   9   44.20    6.00
  -1  10   9   39.60    7.60
   0 -10  -9    5.40    5.50
   0 -10  -9    0.50    6.80
   0 -10  -9    2.40    5.10
   0  10   9    0.40    3.70
   0  10   9    0.90    4.10
   0  10   9   -1.90    6.10
   0  10   9   -2.80    6.30
  -1 -10  -9   35.10    7.00
  -1 -10  -9   26.60    5.00
  -1 -10  -9   30.50    7.40
   1  10   9   20.30    5.00
   1  10   9   29.30    7.80
   1  10   9   23.80    7.50
  -2 -10  -9    5.50    6.20
  -2 -10  -9   -8.30    5.50
   2  10   9    5.10    7.10
   2  10   9    2.50    5.10
   2  10   9   -1.30    7.30
  -3 -10  -9   -5.10    5.90
  -3 -10  -9    1.20    6.30
   3  10   9    2.90    7.20
   3  10   9    4.20    8.10
   3  10   9    2.30    5.80
   4 -11  -9  -10.70    8.10
   4 -11  -9   -4.50    7.80
   4 -11  -9    8.50    8.80
  -4  11   9    4.00    5.90
   3 -11  -9   -5.60    7.00
   3 -11  -9    9.60    7.80
  -3  11   9   -4.20    7.10
  -3  11   9    3.80    5.60
   2 -11  -9    4.80    4.80
   2 -11  -9   -1.90    6.70
   2 -11  -9   -2.30    7.10
  -2  11   9   -3.10    6.80
  -2  11   9    0.80    5.90
   1 -11  -9    8.90    5.40
   1 -11  -9    7.90    6.10
   1 -11  -9   -4.00    6.80
  -1  11   9   -0.90    6.70
  -1  11   9    4.00    5.20
   0 -11  -9   10.90    5.60
   0 -11  -9   15.20    6.40
   0 -11  -9   19.40    7.60
   0  11   9   22.40    4.20
   0  11   9   25.70    5.20
   0  11   9   24.10    7.20
   0  11   9   24.40    7.30
  -1 -11  -9   -4.60    5.80
  -1 -11  -9    4.80    6.20
  -1 -11  -9    7.90    7.00
   1  11   9    5.00    7.30
   1  11   9    5.10    6.70
   1  11   9    3.60    4.70
   1  11   9   15.10    4.50
  -2 -11  -9    5.00    6.20
  -2 -11  -9    3.90    6.00
   2  11   9   -1.20    7.30
   2  11   9    2.90    5.00
   2  11   9    1.60    6.90
  -3 -11  -9    7.70    6.40
  -3 -11  -9  -13.30    5.80
   3  11   9    9.70    6.00
   3  11   9   -3.70    6.90
   3 -12  -9    8.50    7.70
   3 -12  -9    5.00   10.10
  -3  12   9    7.40    6.10
   2 -12  -9   28.40    6.00
   2 -12  -9   28.30    7.90
   2 -12  -9   16.90    7.30
  -2  12   9   18.00    6.50
  -2  12   9   19.70    8.30
  -2  12   9   14.10    6.50
   1 -12  -9   -2.80    5.10
   1 -12  -9   -0.20    7.00
  -1  12   9   -4.10    5.80
  -1  12   9   -3.40    5.50
  -1  12   9    1.10    6.90
   0 -12  -9   17.90    7.70
   0 -12  -9    7.80    5.60
   0 -12  -9   30.60    6.80
   0  12   9   10.20    7.30
   0  12   9    8.40    6.20
   0  12   9   22.80    5.50
  -1 -12  -9   38.40    8.30
  -1 -12  -9   43.10    7.70
   1  12   9   32.80    6.40
   1  12   9   36.00    8.40
   1  12   9   41.40    6.20
   1  12   9   38.80    7.90
  -2 -12  -9    8.40    6.60
   2  12   9   13.30    5.90
   2  12   9   15.90    7.30
   2 -13  -9   43.10    8.20
   2 -13  -9   46.00    9.10
   2 -13  -9   49.40    7.00
  -2  13   9   58.59   11.20
  -2  13   9   49.40    7.90
  -2  13   9   37.50    7.00
   1 -13  -9    5.70    6.20
   1 -13  -9    7.60    5.60
  -1  13   9   -6.00    5.60
  -1  13   9   -1.30    5.60
   0 -13  -9   31.30    7.10
   0 -13  -9   28.50    8.10
   0  13   9   26.00    6.80
   1  16 -10   30.10   14.20
   1  16 -10   19.90    8.10
  -1 -16  10   20.60    7.20
   0  16 -10   -3.00    8.00
   0  16 -10    6.70    8.90
   0 -16  10    9.50    6.40
   0 -16  10    9.40    8.40
  -1  16 -10   19.10    7.90
   1 -16  10   13.60    9.10
   1 -16  10   33.50    8.90
   1 -16  10   15.60    6.60
   2  15 -10   25.50    8.10
  -2 -15  10    2.20    9.00
  -2 -15  10   21.90    7.70
  -2 -15  10   21.40    9.00
   1  15 -10   -1.00    7.30
   1  15 -10   -0.70    8.20
  -1 -15  10   -1.70    6.60
  -1 -15  10    4.40    7.60
  -1 -15  10    5.50    8.70
   0  15 -10    5.90    7.60
   0  15 -10   11.10    6.70
   0 -15  10    9.70    6.60
   0 -15  10   12.00    9.30
   0 -15  10   16.90    7.80
  -1  15 -10   -1.40    6.60
  -1  15 -10   12.90    7.50
   1 -15  10    2.70    7.60
   1 -15  10   15.40    8.90
   1 -15  10   -4.60    6.30
  -2  15 -10    4.30    6.40
  -2  15 -10    4.20    6.50
   2 -15  10    4.50    8.00
   2 -15  10   13.10    6.50
   2 -15  10    3.40    8.60
  -3  15 -10    7.00    6.60
  -3  15 -10   11.20    7.40
   3 -15  10    0.90    6.60
   3  14 -10   16.80    7.60
   3  14 -10   26.00   11.40
  -3 -14  10   21.80    9.60
  -3 -14  10   22.90    9.20
   2  14 -10    9.30    7.20
   2  14 -10   10.80    9.10
  -2 -14  10   -1.70    6.70
  -2 -14  10    4.40    8.90
  -2 -14  10   -0.10    7.30
   1  14 -10    1.60    7.20
   1  14 -10   10.20    8.50
  -1 -14  10   -0.80   12.30
  -1 -14  10    8.10    7.10
  -1 -14  10   10.40    8.70
   0  14 -10   12.40    7.30
   0  14 -10    6.00    7.10
   0 -14  10   14.20    7.60
   0 -14  10  -11.30    6.60
   0 -14  10   10.20    8.30
  -1  14 -10    2.30    6.80
  -1  14 -10   13.70    7.00
   1 -14  10    2.10    8.30
   1 -14  10    7.40    7.30
   1 -14  10    0.70    8.30
  -2  14 -10   -0.80    6.10
  -2  14 -10   -2.40    6.20
   2 -14  10    0.40    8.40
   2 -14  10    8.00    7.40
   2 -14  10  -10.80    8.30
  -3  14 -10   28.60    7.40
  -3  14 -10   31.10    7.70
   3 -14  10   24.80    9.20
   3 -14  10   22.50    7.30
   3 -14  10   35.40    8.90
   3  13 -10   24.90    8.90
   3  13 -10   10.10    7.70
   3  13 -10   27.50   10.40
  -3 -13  10   13.40    7.70
  -3 -13  10   30.20    9.10
   2  13 -10   34.90    9.90
   2  13 -10   48.00    8.40
  -2 -13  10   41.70    8.50
  -2 -13  10   47.10    7.90
  -2 -13  10   44.00    9.70
   1  13 -10    7.50    7.90
   1  13 -10   -5.60    6.50
  -1 -13  10    7.60    7.20
  -1 -13  10    6.80    7.00
  -1 -13  10    1.90    8.40
   0  13 -10   15.10    7.70
   0  13 -10   12.10    7.10
   0 -13  10    5.50    8.80
   0 -13  10    5.00    8.20
  -1  13 -10    1.60    6.60
   1 -13  10    2.80    6.90
   1 -13  10    3.30    8.10
   1 -13  10  -10.20    6.90
  -2  13 -10   24.90    7.30
  -2  13 -10   28.10    7.20
   2 -13  10   28.10    8.00
   2 -13  10   35.20    9.10
   2 -13  10   38.20    8.50
  -3  13 -10   19.00    7.20
  -3  13 -10   20.90    7.10
   3 -13  10   27.90    9.40
   3 -13  10    6.60   11.40
   3 -13  10   24.70    8.00
  -4  13 -10    9.80    6.60
  -4  13 -10   13.50    9.20
   4 -13  10   18.40    9.60
   4 -13  10   -1.00    6.80
   4  12 -10   14.80   11.20
   4  12 -10    0.70    7.40
  -4 -12  10   12.60    7.60
  -4 -12  10    4.70    7.90
  -4 -12  10   19.20    8.40
   3  12 -10  -10.50    9.30
   3  12 -10   -7.20    7.90
  -3 -12  10    9.20    7.70
  -3 -12  10   -4.30    4.80
  -3 -12  10   -6.30    8.10
   2  12 -10    6.30    6.40
   2  12 -10    2.10    7.00
   2  12 -10    6.00    9.00
  -2 -12  10  -13.00    5.80
  -2 -12  10   13.80    8.40
  -2 -12  10   -5.50    6.70
  -2 -12  10    7.10    4.20
  -1 -12  10   -0.80    6.40
   0  12 -10    9.60    8.10
   0  12 -10   24.60    7.50
   0 -12  10   21.10    7.30
   0 -12  10   13.50    7.50
   0 -12  10   22.40   10.30
  -1  12 -10   -6.40    5.80
  -1  12 -10    1.60    6.00
   1 -12  10   -2.30    7.40
   1 -12  10    5.50    6.80
  -2  12 -10   10.60    6.40
  -2  12 -10    7.50    6.00
   2 -12  10    3.30    7.60
   2 -12  10    6.10    7.40
   2 -12  10    2.80    7.10
  -3  12 -10    0.80    7.30
  -3  12 -10   12.70    6.50
   3 -12  10   10.40    7.90
   3 -12  10   -2.80    7.60
   3 -12  10    9.90    8.90
  -4  12 -10   31.40    7.40
  -4  12 -10   30.70    7.30
   4 -12  10   37.90    7.90
   4 -12  10   39.00    9.20
   4 -12  10   34.50    9.80
   4  11 -10   30.60    8.50
   4  11 -10   41.50   10.10
   4  11 -10   28.40   12.10
  -4 -11  10   13.30    6.90
  -4 -11  10   32.50    8.70
  -4 -11  10   31.80    8.90
   3  11 -10   13.30    8.60
   3  11 -10   -4.40   10.00
   3  11 -10   22.30    8.10
  -3 -11  10    9.90    8.00
  -3 -11  10    8.80    5.70
  -3 -11  10    1.70    5.00
  -3 -11  10   -1.40    7.30
   2  11 -10   -7.10    6.60
   2  11 -10    4.00    6.30
  -2 -11  10    6.70    8.30
  -2 -11  10   -0.40    4.20
  -2 -11  10    9.40    5.80
  -2 -11  10    0.10    7.50
   1  11 -10   -4.20    6.90
   1  11 -10   -1.50    6.20
  -1 -11  10    1.90    5.80
  -1 -11  10   -2.20    7.20
  -1 -11  10   10.00    6.90
   0  11 -10    1.60    5.90
   0  11 -10    5.80    6.40
   0 -11  10    3.40    7.30
   0 -11  10    1.60    6.90
   0 -11  10    3.70    5.90
  -1  11 -10   -2.40    5.90
  -1  11 -10    5.80    5.70
   1 -11  10   12.90    7.10
   1 -11  10   -4.60    6.50
  -2  11 -10   12.00    6.90
  -2  11 -10   10.40    5.70
   2 -11  10   10.90    8.00
   2 -11  10   13.10    7.10
  -3  11 -10   15.00    6.60
  -3  11 -10   12.30    6.10
   3 -11  10   15.90    7.40
   3 -11  10    9.10    8.20
   3 -11  10   22.30    7.60
  -4  11 -10   -7.30    6.20
  -4  11 -10    0.70    6.10
   4 -11  10    0.40    8.30
   4 -11  10   -4.20    7.30
   4 -11  10    7.30    7.60
  -5  11 -10    2.90    6.60
  -5  11 -10    6.30    7.00
   5 -11  10    5.00    9.40
   5 -11  10   -2.90    7.40
   5  10 -10   -2.30    7.50
   5  10 -10   -7.10   10.00
  -5 -10  10   -9.10    8.30
  -5 -10  10    5.50    6.80
   4  10 -10   46.10   11.90
   4  10 -10   42.10    8.60
   4  10 -10   27.90    9.70
  -4 -10  10   40.50    8.40
  -4 -10  10   31.00    8.70
  -4 -10  10   21.80    7.10
   3  10 -10    0.30    7.40
   3  10 -10    8.30    7.40
   3  10 -10   13.20    9.90
  -3 -10  10    2.40    5.00
  -3 -10  10    5.00    5.00
  -3 -10  10    5.90    7.50
  -3 -10  10    8.50    7.00
   2  10 -10   15.70    8.60
   2  10 -10   18.90    7.40
   2  10 -10   15.70    5.80
  -2 -10  10   16.30    7.60
  -2 -10  10   13.70    7.10
  -2 -10  10   12.40    4.90
  -2 -10  10    7.50    5.60
   1  10 -10    1.60    4.30
   1  10 -10   -3.60    6.50
   1  10 -10    3.50    6.10
  -1 -10  10    3.70    3.40
  -1 -10  10   -5.90    6.40
  -1 -10  10   -3.30    6.80
   0  10 -10    7.70    5.90
   0  10 -10    3.90    6.10
   0 -10  10   13.30    6.90
   0 -10  10   13.50    7.00
  -1  10 -10  103.79   11.20
  -1  10 -10  126.59   11.00
  -1  10 -10  108.69   10.80
   1 -10  10  113.29   13.10
   1 -10  10  103.69   12.10
  -2  10 -10   -2.90    5.40
  -2  10 -10    4.40    5.00
  -2  10 -10    5.90    6.10
   2 -10  10    4.60    6.60
   2 -10  10    2.40    6.80
  -3  10 -10   40.30    8.00
  -3  10 -10   45.80    6.70
   3 -10  10   52.69    8.70
   3 -10  10   47.20    8.90
  -4  10 -10    6.50    5.80
  -4  10 -10    5.70    6.00
   4 -10  10    6.80    8.40
   4 -10  10    9.20    5.20
  -5  10 -10  -12.40    5.60
   5 -10  10   -5.20    7.70
   5 -10  10    8.50    9.10
   5 -10  10    5.30    7.60
   5   9 -10    0.00    9.80
   5   9 -10  -10.80   11.30
   5   9 -10    5.30    7.90
  -5  -9  10   -5.10    6.50
  -5  -9  10   -3.00    6.50
  -5  -9  10    4.40    7.90
   4   9 -10   44.10   12.60
   4   9 -10   61.39    9.90
  -4  -9  10   56.19    9.40
  -4  -9  10   74.09    8.80
  -4  -9  10   44.10    7.80
   3   9 -10    8.50    8.60
   3   9 -10   11.90    9.70
   3   9 -10    4.40    7.30
  -3  -9  10   15.10    4.80
  -3  -9  10   -3.00    4.90
  -3  -9  10   19.20   12.40
  -3  -9  10    6.10    7.20
   2   9 -10   14.90    6.70
   2   9 -10   15.70    5.60
   2   9 -10   22.60    8.60
   2   9 -10   10.00    4.60
  -2  -9  10   24.70    7.30
  -2  -9  10    5.10    8.80
  -2  -9  10   13.80    6.80
   1   9 -10   21.90    5.80
   1   9 -10   15.50    7.00
   1   9 -10   23.20    6.60
  -1  -9  10   10.30    4.10
  -1  -9  10   18.60    7.10
  -1  -9  10   28.90    7.30
   0   9 -10   43.70    6.90
   0   9 -10   46.20    6.90
   0   9 -10   37.10    6.40
   0  -9  10   21.30    6.80
   0  -9  10   30.90    4.30
   0  -9  10   34.40    7.30
  -1   9 -10   15.80    5.80
  -1   9 -10   11.50    5.90
  -1   9 -10   16.80    5.60
   1  -9  10   12.20    6.80
   1  -9  10   19.40    6.70
   1  -9  10   15.00    3.80
  -2   9 -10   17.40    6.00
  -2   9 -10   24.20    5.30
  -2   9 -10   27.20    6.60
   2  -9  10   22.20    6.10
   2  -9  10   24.50    7.30
   2  -9  10   14.20    4.20
   2  -9  10   11.70    7.00
  -3   9 -10    7.20    5.10
  -3   9 -10   11.00    5.70
   3  -9  10    0.40    4.60
   3  -9  10    7.10    7.00
   3  -9  10  -10.20   11.30
  -4   9 -10   49.60    6.80
  -4   9 -10   59.99    7.90
   4  -9  10   50.19   13.60
   4  -9  10   31.90    7.40
   4  -9  10   52.09    9.30
  -5   9 -10    4.90    6.20
   5  -9  10    8.30    7.80
   5  -9  10    9.70    7.90
   5  -9  10    1.70    6.40
   5  -9  10   -3.00    7.60
   5   8 -10   15.60    9.20
   5   8 -10   32.50   12.00
   5   8 -10   39.40   12.50
  -5  -8  10   21.00    8.20
  -5  -8  10   19.30    6.40
  -5  -8  10   22.30    7.60
   4   8 -10    2.10   10.40
   4   8 -10    9.00    7.90
   4   8 -10   15.00    8.70
  -4  -8  10   -0.30    6.30
  -4  -8  10   14.30    7.60
  -4  -8  10    7.10    6.10
   3   8 -10   10.60    7.40
   3   8 -10   -1.20    9.00
   3   8 -10    3.80    9.30
  -3  -8  10   -0.80    4.80
  -3  -8  10   -0.10    6.50
  -3  -8  10    3.80    6.50
   2   8 -10   21.00    5.40
   2   8 -10   25.10    8.30
   2   8 -10    9.00    7.00
   2   8 -10   23.20    5.40
   2   8 -10   25.80    4.60
  -2  -8  10   18.60    6.70
  -2  -8  10   20.20    6.60
  -2  -8  10   16.10    5.10
   1   8 -10   16.80    6.80
   1   8 -10   18.00    6.20
   1   8 -10   16.20    5.20
  -1  -8  10   23.70    6.90
  -1  -8  10    9.20    6.10
  -1  -8  10   16.40    4.60
   0   8 -10   36.30    6.60
   0   8 -10   46.70    6.50
   0   8 -10   49.99    5.80
   0   8 -10   44.90    6.50
   0  -8  10   42.90    7.20
   0  -8  10   36.10    5.00
   0  -8  10   37.00    7.10
  -1   8 -10   49.99    6.90
  -1   8 -10   43.70    6.50
  -1   8 -10   39.50    5.00
   1  -8  10   36.50    7.20
   1  -8  10   37.40    5.10
   1  -8  10   44.90    7.50
  -2   8 -10  167.78   12.60
  -2   8 -10  202.18   12.50
  -2   8 -10  177.18   13.10
   2  -8  10  179.08   13.70
   2  -8  10  180.38   11.10
   2  -8  10  175.18   13.80
  -3   8 -10    4.50    5.20
  -3   8 -10   13.60    6.10
  -3   8 -10    6.90    4.80
   3  -8  10   -0.50    4.90
   3  -8  10   -5.30    6.60
   3  -8  10   -0.30    6.70
  -4   8 -10    1.90    4.90
  -4   8 -10    2.60    5.50
  -4   8 -10    2.60    6.40
   4  -8  10    6.70    7.70
   4  -8  10    7.70    5.90
   4  -8  10   -0.40    7.20
  -5   8 -10    0.10    5.80
   5  -8  10    1.90    7.00
   5  -8  10   12.60    8.50
   5  -8  10    0.20    8.00
   6   7 -10    8.80    8.90
   6   7 -10    6.80   14.30
   6   7 -10    6.40    9.60
  -6  -7  10   11.10    8.20
   5   7 -10   12.20   11.20
   5   7 -10    3.40    8.90
  -5  -7  10   -9.00    9.70
  -5  -7  10   -9.50    7.30
  -5  -7  10    8.90    6.80
   4   7 -10   36.00    9.00
   4   7 -10   41.60    8.00
  -4  -7  10   33.20    8.30
  -4  -7  10   35.70    7.40
  -4  -7  10   36.10    6.80
   3   7 -10   18.80    6.30
   3   7 -10   12.70    8.70
   3   7 -10   21.60    7.60
  -3  -7  10   15.20    6.20
  -3  -7  10   14.70    6.80
  -3  -7  10   20.00    5.80
   2   7 -10    1.50    4.60
   2   7 -10   11.70    4.80
   2   7 -10   -9.60    7.10
   2   7 -10   13.20    6.60
  -2  -7  10    4.40    6.20
  -2  -7  10    6.40    5.90
  -2  -7  10    9.30    5.00
   1   7 -10   80.79    9.80
   1   7 -10   66.89    8.40
   1   7 -10   88.69    9.00
  -1  -7  10   87.19   10.20
  -1  -7  10   68.29    8.10
  -1  -7  10   71.59    8.20
   0   7 -10  218.68   12.90
   0   7 -10  206.48   12.90
   0   7 -10  208.78   13.30
   0  -7  10  223.48   13.80
   0  -7  10  197.28   14.00
   0  -7  10  196.78   11.70
  -1   7 -10  181.98   11.00
  -1   7 -10  155.68   12.10
  -1   7 -10  188.18   12.00
   1  -7  10  179.68   12.80
   1  -7  10  175.38   13.20
   1  -7  10  170.18   10.90
  -2   7 -10   28.00    5.70
  -2   7 -10   24.30    4.60
  -2   7 -10   19.70    6.00
   2  -7  10   28.80    5.40
   2  -7  10   33.20    7.10
   2  -7  10   21.30    6.60
  -3   7 -10   -2.70    4.00
  -3   7 -10   11.50    6.10
  -3   7 -10    4.20    5.00
   3  -7  10   -6.70    8.00
   3  -7  10   -1.80    6.10
   3  -7  10    6.10    6.70
  -4   7 -10   -0.20    5.10
  -4   7 -10   13.90    8.50
   4  -7  10    6.20    7.30
   4  -7  10    0.60    7.70
   4  -7  10    4.30    6.00
  -5   7 -10   44.70    8.70
   5  -7  10   49.20    9.90
   5  -7  10   45.20    9.20
   5  -7  10   40.60    8.20
   5  -7  10   66.29    7.50
   6  -7  10   19.80    9.70
   6  -7  10   37.40    9.30
   6  -7  10   12.40    8.00
   6   6 -10    7.30   10.00
   6   6 -10   17.00    9.40
   6   6 -10   10.90   18.70
  -6  -6  10    9.00    8.20
  -6  -6  10   11.40    8.50
   5   6 -10   -6.00    8.70
   5   6 -10    3.40    8.80
   5   6 -10    8.70   11.40
  -5  -6  10   -5.00    4.30
  -5  -6  10   -0.30    6.90
  -5  -6  10   13.20    7.70
   4   6 -10    7.30    7.90
   4   6 -10    8.50    6.90
   4   6 -10    3.30    9.30
  -4  -6  10   -5.00    5.70
  -4  -6  10    5.50    9.10
  -4  -6  10    4.20    5.10
   3   6 -10   39.80    9.00
   3   6 -10   49.00    5.40
   3   6 -10   40.80    8.20
   3   6 -10   62.79    6.80
  -3  -6  10   27.60    6.30
  -3  -6  10   50.39    6.60
  -3  -6  10   20.00    7.00
   2   6 -10   53.29    6.00
   2   6 -10   50.79    7.80
   2   6 -10   56.59    8.50
   2   6 -10   55.49    7.10
  -2  -6  10   57.19    7.70
  -2  -6  10   41.10    6.30
  -2  -6  10   38.70    6.60
   1   6 -10   13.30    6.10
   1   6 -10    4.50    6.40
  -1  -6  10   13.20    6.10
  -1  -6  10    1.90    4.60
  -1  -6  10    8.80    6.00
   0   6 -10  186.78   12.10
   0   6 -10  181.98   11.40
   0   6 -10  180.58   11.90
   0  -6  10  175.38   12.30
   0  -6  10  162.78   12.70
   0  -6  10  172.18   11.20
  -1   6 -10   80.69    7.70
  -1   6 -10   77.09    7.70
  -1   6 -10   73.39    9.20
   1  -6  10   69.09    9.00
   1  -6  10   71.69    8.00
   1  -6  10   76.99    7.90
  -2   6 -10    2.90    3.50
  -2   6 -10    0.10    5.10
  -2   6 -10    0.40    4.40
   2  -6  10   -4.30    5.60
   2  -6  10    4.00    5.10
   2  -6  10   11.50    5.00
   2  -6  10    6.40    5.90
  -3   6 -10    3.70    5.60
  -3   6 -10   -3.00    3.60
  -3   6 -10   -0.30    4.40
   3  -6  10   -7.00    6.10
   3  -6  10   -3.00    5.30
   3  -6  10    5.90    6.50
  -4   6 -10   23.40    7.40
  -4   6 -10   18.20    5.50
   4  -6  10   18.00    6.60
   4  -6  10   30.70    7.50
  -5   6 -10   80.89    9.70
  -5   6 -10   81.39   10.30
   5  -6  10   65.39    9.30
   5  -6  10   81.39   10.70
   5  -6  10  109.99   12.90
   5  -6  10   80.59   10.60
   6  -6  10  115.89   14.00
   6  -6  10  121.99   15.30
   6  -6  10  117.89   14.70
   6   5 -10    3.30    9.90
   6   5 -10   12.30    9.30
   6   5 -10   -7.70   11.50
  -6  -5  10    1.90    7.20
  -6  -5  10   -3.40    7.70
   5   5 -10    0.90    8.50
   5   5 -10  -11.80   10.30
   5   5 -10   -5.40    9.40
  -5  -5  10   -5.60    6.20
  -5  -5  10    2.10    7.60
   4   5 -10    0.20    7.60
   4   5 -10    6.20    6.70
   4   5 -10   -7.40    8.70
  -4  -5  10   -2.30    6.70
  -4  -5  10    8.80    6.10
  -4  -5  10   -7.20    3.90
   3   5 -10   35.30    6.20
   3   5 -10   52.39    8.30
   3   5 -10   38.10    8.70
   3   5 -10   55.79    7.00
  -3  -5  10   44.40    7.40
  -3  -5  10   24.20    6.40
  -3  -5  10   46.40    6.00
   2   5 -10   -3.10    6.10
   2   5 -10    5.00    4.50
   2   5 -10    4.60    6.70
   2   5 -10    3.30    4.50
   2   5 -10   -0.10    4.10
  -2  -5  10    8.20    5.10
  -2  -5  10    1.70    4.90
  -2  -5  10   10.70    6.10
   1   5 -10   14.00    5.90
   1   5 -10   19.90    6.30
   1   5 -10    8.50    6.20
  -1  -5  10   15.60    5.30
  -1  -5  10   14.10    5.30
  -1  -5  10   10.70    5.90
   0   5 -10  155.08   11.50
   0   5 -10  167.98   10.70
   0   5 -10  152.58   11.50
   0  -5  10  166.58   12.30
   0  -5  10  136.89   11.00
   0  -5  10  154.38   11.50
  -1   5 -10   42.70    4.70
  -1   5 -10   49.10    6.30
  -1   5 -10   44.40    6.30
   1  -5  10   53.39    5.90
   1  -5  10   37.20    6.10
   1  -5  10   33.80    6.60
   1  -5  10   50.39    7.20
  -2   5 -10   23.50    5.10
  -2   5 -10   19.50    3.50
  -2   5 -10   19.10    5.40
   2  -5  10   16.70    6.10
   2  -5  10   24.60    6.20
   2  -5  10   20.70    5.70
   2  -5  10   21.50    5.50
  -3   5 -10    4.80    4.40
  -3   5 -10   18.50    6.00
   3  -5  10    6.20    6.30
   3  -5  10    4.40    6.00
   3  -5  10    6.00    6.00
  -4   5 -10   60.89    6.90
  -4   5 -10   69.39    8.80
   4  -5  10   76.09   10.00
   4  -5  10  100.69    8.90
   4  -5  10   63.29    8.20
   4  -5  10   89.49    7.70
   4  -5  10   74.79    8.80
  -5   5 -10   42.50    7.90
  -5   5 -10   41.90    6.50
   5  -5  10   54.39    7.50
   5  -5  10   24.30    8.50
   5  -5  10   47.60    6.10
   5  -5  10   29.40    8.60
   5  -5  10   42.50    8.70
  -6   5 -10   54.49    9.30
   6  -5  10   56.89   10.00
   6  -5  10   49.80    9.60
   6  -5  10   79.99   10.70
   6  -5  10   69.79    9.20
   6   4 -10    7.80    9.90
   6   4 -10   17.30    9.80
   6   4 -10    4.40   11.40
  -6  -4  10    9.70    8.00
  -6  -4  10   -1.20    7.30
   5   4 -10   14.70    8.80
   5   4 -10    9.50   10.70
   5   4 -10    6.50   10.40
  -5  -4  10   -2.70    6.90
  -5  -4  10   -1.60    6.60
   4   4 -10  203.18   10.10
   4   4 -10  217.08   16.90
   4   4 -10  204.78   14.00
   4   4 -10  190.88   15.30
  -4  -4  10  196.48    9.80
  -4  -4  10  195.88   14.10
  -4  -4  10  141.89   13.40
   3   4 -10   87.59    8.10
   3   4 -10   69.89    9.00
   3   4 -10   71.79    9.20
   3   4 -10   85.79    9.20
  -3  -4  10   91.99    8.20
  -3  -4  10   91.39   10.60
  -3  -4  10   58.59    7.70
  -3  -4  10   65.29    6.60
   2   4 -10   22.80    4.60
   2   4 -10   20.50    5.00
   2   4 -10   10.70    6.40
   2   4 -10   16.70    4.20
  -2  -4  10   13.20    5.60
  -2  -4  10   10.80    4.50
  -2  -4  10   13.00    6.30
   1   4 -10   21.20    6.10
   1   4 -10   19.40    5.10
   1   4 -10   21.50    6.30
  -1  -4  10   15.80    5.50
  -1  -4  10   22.20    4.90
  -1  -4  10   29.60    6.40
   0   4 -10  626.14   27.70
   0   4 -10  626.24   27.40
   0   4 -10  631.84   26.60
   0  -4  10  601.84   27.50
   0  -4  10  666.43   28.10
   0  -4  10  628.44   28.60
   0  -4  10  627.74   26.20
  -1   4 -10  487.75   22.30
  -1   4 -10  494.55   22.90
  -1   4 -10  470.35   20.50
   1  -4  10  496.55   20.60
   1  -4  10  509.15   23.00
   1  -4  10  498.65   22.80
   1  -4  10  492.75   22.60
  -2   4 -10   14.30    4.60
  -2   4 -10   18.40    5.80
   2  -4  10   12.20    5.90
   2  -4  10   16.30    6.60
  -3   4 -10   94.79   10.20
  -3   4 -10   98.79    8.50
   3  -4  10   88.89   10.60
   3  -4  10   80.19   10.60
  -4   4 -10   15.30    6.30
  -4   4 -10    1.60    4.30
   4  -4  10    9.70    6.50
   4  -4  10   15.70    5.60
   4  -4  10   12.20    6.80
  -5   4 -10    4.30    6.80
  -5   4 -10    4.50    4.90
   5  -4  10   16.20    7.70
   5  -4  10    0.20    6.50
  -6   4 -10   59.79    8.90
   6  -4  10   69.79    9.70
   6  -4  10   36.20    9.40
   6  -4  10   49.10    9.00
   6  -4  10   85.39    8.30
   6   3 -10   -6.00   10.80
   6   3 -10  -10.30    9.00
   6   3 -10    5.20    9.90
  -6  -3  10   -4.20    7.00
  -6  -3  10   -6.90    6.80
   5   3 -10   60.69   10.10
   5   3 -10   59.99   11.50
  -5  -3  10   32.70    8.00
   4   3 -10  116.19    7.90
   4   3 -10  101.29   12.90
   4   3 -10   80.79   10.50
   4   3 -10  107.69   11.40
  -4  -3  10   60.79    8.80
  -4  -3  10  103.29   11.40
   3   3 -10    2.90    7.20
   3   3 -10    7.80    6.90
   3   3 -10    8.40    4.70
  -3  -3  10   -3.80    2.90
  -3  -3  10   -0.70    3.90
  -3  -3  10    1.70    5.40
  -3  -3  10    2.80    5.70
   2   3 -10  -10.20    5.70
   2   3 -10   -2.90    4.40
   2   3 -10   10.30    3.90
   2   3 -10   -0.80    6.20
  -2  -3  10    6.90    5.30
  -2  -3  10    4.70    3.30
  -2  -3  10    1.80    5.80
  -2  -3  10    3.40    4.10
   1   3 -10   12.50    5.40
   1   3 -10   -3.60    3.50
   1   3 -10   -1.90    5.50
   1   3 -10    0.40    4.70
  -1  -3  10   -1.40    4.40
  -1  -3  10   -1.60    5.60
   0   3 -10  537.25   24.40
   0   3 -10  496.75   22.90
   0   3 -10  566.24   24.40
   0  -3  10  520.75   24.70
   0  -3  10  555.84   24.70
   0  -3  10  576.54   24.20
   0  -3  10  537.75   22.50
  -1   3 -10    7.70    5.70
   1  -3  10   -6.10    5.30
   1  -3  10   11.80    5.30
  -2   3 -10   47.40    6.30
  -2   3 -10   40.00    6.00
  -2   3 -10   43.00    6.30
   2  -3  10   34.00    6.40
   2  -3  10   38.30    6.40
  -3   3 -10    8.20    4.20
  -3   3 -10    5.40    5.30
  -3   3 -10   10.50    5.60
   3  -3  10    8.10    5.80
   3  -3  10    9.90    4.60
   3  -3  10    0.90    5.60
  -4   3 -10    7.80    4.20
  -4   3 -10   12.30    6.20
  -4   3 -10   13.00    6.00
   4  -3  10    0.00    5.60
   4  -3  10    6.70    6.40
   4  -3  10   16.00    6.60
  -5   3 -10    3.30    6.80
  -5   3 -10   -5.20    6.30
  -5   3 -10    1.70    4.40
   5  -3  10   13.00    7.30
   5  -3  10   -4.50    6.60
   5  -3  10    4.70    6.80
  -6   3 -10   23.80    7.40
   6  -3  10    2.20    7.80
   6  -3  10   15.50    8.30
   6   2 -10   -3.90    9.60
   6   2 -10   21.60   10.00
   6   2 -10    1.20   10.50
  -6  -2  10   -6.90    7.10
  -6  -2  10    4.80    6.80
   5   2 -10   31.20   10.80
   5   2 -10   31.30    9.90
   5   2 -10   31.70    9.30
  -5  -2  10   28.70    7.30
  -5  -2  10   20.90    7.70
   4   2 -10   55.79    9.30
   4   2 -10   64.69    9.70
   4   2 -10   62.59    7.60
  -4  -2  10   35.20    7.60
  -4  -2  10   60.19    7.70
   3   2 -10   54.19    5.90
   3   2 -10   42.30    7.70
   3   2 -10   49.70    8.00
  -3  -2  10   42.30    4.60
  -3  -2  10   38.00    6.70
  -3  -2  10   51.99    6.90
  -3  -2  10   48.30    4.80
   2   2 -10   79.19    8.70
   2   2 -10   86.59   10.70
   2   2 -10  106.09    9.20
  -2  -2  10   89.49   10.50
  -2  -2  10  115.69    8.40
  -2  -2  10  101.89    7.20
  -2  -2  10   91.79    7.90
  -2  -2  10   93.19   10.10
   1   2 -10   83.09   10.10
   1   2 -10   84.09    9.40
   1   2 -10  103.69    8.00
   1   2 -10   93.09   11.20
  -1  -2  10   97.89    8.60
  -1  -2  10   88.99   10.00
  -1  -2  10   85.29    7.60
  -1  -2  10   92.39   10.20
  -1  -2  10   94.99    7.00
   0   2 -10  104.99   12.20
   0  -2  10  108.49   11.20
  -1   2 -10   45.30    6.10
  -1   2 -10   44.30    6.00
  -1   2 -10   31.70    5.20
   1  -2  10   27.80    6.60
   1  -2  10   31.70    5.90
  -2   2 -10    8.40    5.10
  -2   2 -10    7.10    4.10
  -2   2 -10    8.10    4.80
   2  -2  10    2.10    5.20
   2  -2  10    4.60    5.50
   2  -2  10    6.00    3.60
  -3   2 -10   21.40    6.10
  -3   2 -10   30.90    6.10
  -3   2 -10   24.90    4.60
   3  -2  10   20.20    6.20
   3  -2  10   25.90    5.30
   3  -2  10   24.80    4.30
   3  -2  10   21.70    6.50
  -4   2 -10    5.00    5.90
  -4   2 -10    7.30    5.60
   4  -2  10   -4.10    6.00
   4  -2  10    1.60    6.10
  -5   2 -10   17.10   10.20
  -5   2 -10    4.90    6.70
   5  -2  10   26.80    7.60
   5  -2  10   22.60    8.10
   5  -2  10   12.40    7.50
  -6   2 -10    2.20    7.20
  -6   2 -10   -4.00    6.40
   6  -2  10   -1.60    8.30
   6  -2  10   -4.40    7.40
   6  -2  10    3.50    7.90
   6   1 -10   28.40   10.80
   6   1 -10    9.00   10.70
   6   1 -10   18.50    9.90
  -6  -1  10    1.80    7.10
  -6  -1  10   13.90    7.00
   5   1 -10   -6.60    8.80
   5   1 -10   -1.60    9.30
   5   1 -10    2.70    4.30
  -5  -1  10   -5.00    6.30
  -5  -1  10    4.60    6.30
   4   1 -10   36.00    8.90
   4   1 -10   25.40    5.50
   4   1 -10   26.40    8.10
  -4  -1  10   20.70    6.30
  -4  -1  10   22.30    7.10
  -4  -1  10   10.50    6.80
   3   1 -10   15.40    7.30
   3   1 -10    9.20    6.60
   3   1 -10   10.40    5.30
  -3  -1  10   10.10    5.60
  -3  -1  10   14.10    6.10
  -3  -1  10   11.40    5.70
   2   1 -10    5.60    5.50
   2   1 -10   13.50    5.20
   2   1 -10    5.10    6.20
  -2  -1  10    1.30    5.40
  -2  -1  10    5.90    3.20
  -2  -1  10    5.20    3.30
  -2  -1  10    8.30    5.60
  -2  -1  10   10.30    4.60
   1   1 -10  158.28   13.60
   1   1 -10  149.69   10.40
   1   1 -10  145.49   11.90
  -1  -1  10  153.98   12.40
  -1  -1  10  157.28    9.80
  -1  -1  10  143.59   12.00
  -1  -1  10  173.08    9.20
   0   1 -10  161.98    9.90
   0   1 -10  163.58   11.10
   0   1 -10  136.09    9.10
   0   1 -10  126.29   14.30
   0  -1  10  158.68   11.30
   0  -1  10  117.99   11.80
   0  -1  10  160.38    8.60
  -1   1 -10    2.70    4.30
  -1   1 -10    5.10    4.70
  -1   1 -10    4.20    3.20
  -1   1 -10    3.30    4.80
   1  -1  10   -1.10    5.50
   1  -1  10    0.90    5.00
   1  -1  10   -1.10    3.40
  -2   1 -10    9.80    4.00
  -2   1 -10   14.70    4.90
  -2   1 -10   14.50    5.20
   2  -1  10    5.40    4.10
   2  -1  10   13.20    5.50
   2  -1  10    8.50    5.60
  -3   1 -10    0.10    4.90
  -3   1 -10    5.70    5.00
  -3   1 -10    1.80    3.50
   3  -1  10    7.20    5.20
   3  -1  10    9.10    6.10
   3  -1  10    4.60    5.40
  -4   1 -10  184.08   13.30
  -4   1 -10  179.68   10.00
  -4   1 -10  148.39   13.10
   4  -1  10  180.78   13.20
   4  -1  10  162.88   13.80
   4  -1  10  191.98   12.90
  -5   1 -10    2.60    6.50
   5  -1  10   15.70    7.70
   5  -1  10   13.00    7.50
   5  -1  10    0.80    7.00
  -6   1 -10    9.90    6.80
  -6   1 -10   -7.10    6.80
   6  -1  10   -2.90    8.00
   6  -1  10   -0.30    7.70
   6  -1  10   -0.20    7.40
   6   0 -10   16.00   10.40
   6   0 -10   10.80   10.10
  -6   0  10   -1.00    6.90
  -6   0  10    7.80    6.40
   5   0 -10    5.30    8.90
   5   0 -10    7.90    9.20
   5   0 -10   -4.60    4.70
  -5   0  10    4.10    8.80
  -5   0  10    3.30    6.60
  -5   0  10   -2.50    5.70
   4   0 -10   62.89    6.90
   4   0 -10   42.10    9.10
   4   0 -10   68.09    9.20
  -4   0  10   60.29    7.20
  -4   0  10   63.29    8.00
  -4   0  10   52.49    8.30
   3   0 -10   34.40    8.60
   3   0 -10   32.30    7.70
   3   0 -10   38.00    7.10
  -3   0  10   41.00    6.30
  -3   0  10   28.10    6.00
  -3   0  10   32.10    7.00
   2   0 -10   -7.10    4.90
   2   0 -10    3.60    7.20
   2   0 -10   -4.30    5.90
  -2   0  10    4.00    3.30
  -2   0  10   -4.50    4.40
  -2   0  10    8.40    5.60
  -2   0  10    1.10    2.60
  -2   0  10    2.10    5.70
   1   0 -10    8.70    6.00
   1   0 -10    8.40    4.50
   1   0 -10   11.80    5.80
   1   0 -10   14.00    4.60
   1   0 -10   18.10    5.30
  -1   0  10    6.60    3.80
  -1   0  10   10.80    4.40
  -1   0  10   18.40    6.00
   0   0 -10   74.59    7.80
   0   0 -10   57.29    6.50
   0   0 -10   57.09    6.90
   0   0 -10   57.19    6.80
   0   0  10   47.20    6.30
   0   0  10   55.79    7.10
  -1   0 -10  196.98   11.90
  -1   0 -10  216.88   12.10
  -1   0 -10  196.88   12.60
  -1   0 -10  199.38   11.30
   1   0  10  213.48   11.20
   1   0  10  202.38   12.60
   1   0  10  196.38   13.60
  -2   0 -10  123.79   10.60
  -2   0 -10  123.99   10.00
  -2   0 -10  132.59    8.70
   2   0  10  109.59   10.40
   2   0  10  127.59    9.80
   2   0  10  122.29   11.40
  -3   0 -10    8.10    4.80
  -3   0 -10   -3.10    4.70
  -3   0 -10    0.90    3.10
   3   0  10    1.30    5.30
   3   0  10   13.00    5.50
   3   0  10    1.80    5.90
  -4   0 -10    5.40    3.20
  -4   0 -10    8.00    5.70
   4   0  10   10.90    6.70
   4   0  10    1.50    6.20
  -5   0 -10   -2.60    5.50
   5   0  10    6.80    7.10
   5   0  10   12.40    7.50
   5   0  10   -1.20    7.30
  -6   0 -10    9.20    7.10
  -6   0 -10   -0.30    6.50
   6   0  10    8.20    7.70
   6   0  10    8.00    8.30
   6  -1 -10   11.30   10.10
   6  -1 -10   14.00   10.50
  -6   1  10   19.60    8.10
   5  -1 -10    5.10    8.00
   5  -1 -10    5.00    9.30
   5  -1 -10    5.50    8.70
  -5   1  10    0.10    5.40
  -5   1  10   -5.00    6.30
   4  -1 -10   33.30    6.10
   4  -1 -10   26.40    8.30
   4  -1 -10   36.90    8.10
  -4   1  10   18.10    7.10
  -4   1  10   32.80    7.50
  -4   1  10   27.70    6.00
   3  -1 -10   12.60    7.00
   3  -1 -10    4.10    5.40
   3  -1 -10   15.00    6.30
  -3   1  10    9.00    5.10
  -3   1  10    9.80    5.40
  -3   1  10   17.80    6.10
   2  -1 -10    8.40    5.20
   2  -1 -10    5.00    6.00
   2  -1 -10    9.10    5.10
  -2   1  10   -0.50    3.30
  -2   1  10   11.50    4.90
  -2   1  10    5.70    5.80
  -2   1  10    6.90    5.70
  -2   1  10    5.10    2.70
   1  -1 -10   28.30    4.50
   1  -1 -10   17.10    5.50
   1  -1 -10   29.50    4.60
   1  -1 -10   13.60    6.10
  -1   1  10   18.50    6.20
  -1   1  10   29.70    5.90
  -1   1  10   20.70    4.80
   0  -1 -10   46.60    6.50
   0  -1 -10   48.60    5.40
   0  -1 -10   44.60    6.50
   0   1  10   46.40    7.70
   0   1  10   63.89    7.80
   0   1  10   43.70    6.80
  -1  -1 -10  145.39   10.30
  -1  -1 -10  150.98   10.10
  -1  -1 -10  135.49   10.90
   1   1  10  121.09   11.60
   1   1  10  140.39   10.60
   1   1  10  152.28    9.90
  -2  -1 -10    1.20    3.40
  -2  -1 -10    1.30    4.40
  -2  -1 -10    4.20    4.90
   2   1  10    1.80    5.40
   2   1  10    3.50    4.90
   2   1  10    0.90    4.90
  -3  -1 -10   60.99    5.60
  -3  -1 -10   62.49    7.20
  -3  -1 -10   69.49    7.60
   3   1  10   56.99    7.20
   3   1  10   57.29    8.00
   3   1  10   62.09    7.30
   3   1  10   50.89    6.80
  -4  -1 -10  152.98   13.00
  -4  -1 -10  137.49   11.80
   4   1  10  155.58   17.40
   4   1  10  134.39   12.80
  -5  -1 -10    3.10    9.50
  -5  -1 -10   13.70    6.60
   5   1  10    5.70    7.20
   5   1  10   11.50    7.40
   5   1  10   -1.50    6.70
  -6  -1 -10   -4.60    6.60
   6   1  10    0.50    8.00
   6   1  10  -11.90    8.10
   6  -2 -10   14.90   10.70
   6  -2 -10   19.40   10.20
  -6   2  10   13.70    8.70
  -6   2  10    1.40    7.40
  -6   2  10   14.00    6.10
   5  -2 -10    2.90    5.90
   5  -2 -10   -3.40    9.10
   5  -2 -10    3.60    8.70
  -5   2  10    0.20    6.80
  -5   2  10   -3.40    7.50
  -5   2  10    5.40    5.00
   4  -2 -10   17.60    7.70
   4  -2 -10    9.80    6.10
   4  -2 -10   13.90    8.10
  -4   2  10    7.80    5.10
  -4   2  10   13.50    7.00
  -4   2  10    3.10    6.20
   3  -2 -10   -5.10    6.60
   3  -2 -10   10.70    5.70
   3  -2 -10   10.30    6.30
  -3   2  10    3.80    5.70
  -3   2  10    5.50    5.70
   2  -2 -10    1.00    5.00
   2  -2 -10   10.40    5.30
   2  -2 -10    0.90    6.10
  -2   2  10    7.00    5.00
  -2   2  10    5.10    5.60
  -2   2  10    0.40    2.60
  -2   2  10   -3.20    5.10
   1  -2 -10   15.90    4.30
   1  -2 -10   15.50    5.40
   1  -2 -10   17.50    3.90
   1  -2 -10    7.60    3.50
   1  -2 -10   11.10    5.70
  -1   2  10   17.70    4.80
  -1   2  10   12.90    5.30
  -1   2  10   14.20    6.20
   0  -2 -10  106.09    8.40
   0  -2 -10   81.39    9.50
   0  -2 -10   84.39    9.70
   0   2  10   96.09    8.90
   0   2  10   79.69   10.30
  -1  -2 -10   44.10    6.40
  -1  -2 -10   45.80    6.00
  -1  -2 -10   53.09    5.80
   1   2  10   46.10    5.70
   1   2  10   46.70    6.90
   1   2  10   49.10    6.10
  -2  -2 -10   -0.50    3.90
  -2  -2 -10    5.70    4.80
  -2  -2 -10    7.60    5.30
   2   2  10    1.80    5.50
   2   2  10    3.40    5.40
   2   2  10    8.40    5.00
  -3  -2 -10    7.80    5.30
  -3  -2 -10   10.60    5.60
  -3  -2 -10    1.70    2.40
   3   2  10    7.60    6.30
   3   2  10    4.90    5.60
   3   2  10    9.40    6.10
  -4  -2 -10    2.40    5.40
  -4  -2 -10    4.40    5.70
   4   2  10    5.20    6.80
   4   2  10   12.60    7.10
   4   2  10    6.70    6.40
  -5  -2 -10   -3.90    5.50
  -5  -2 -10   -2.30    6.20
   5   2  10    4.20    7.30
   5   2  10    9.20   13.10
   5   2  10   -5.30    6.70
   6  -3 -10   27.40   10.80
   6  -3 -10   12.20   10.10
  -6   3  10   27.90    9.20
  -6   3  10    8.70    5.70
  -6   3  10    6.40    7.60
   5  -3 -10   -0.40    8.80
   5  -3 -10    9.90    9.00
   5  -3 -10   -7.60    6.20
  -5   3  10   -6.50    7.50
  -5   3  10   -9.60    4.60
  -5   3  10   -4.30    6.70
   4  -3 -10   28.80    6.80
   4  -3 -10   45.30    9.10
   4  -3 -10   50.69    8.60
  -4   3  10   34.90    7.50
  -4   3  10   28.60    6.10
  -4   3  10   59.69    8.30
   3  -3 -10    6.00    5.80
   3  -3 -10    0.70    5.60
   3  -3 -10    0.90    6.70
  -3   3  10    7.30    6.00
  -3   3  10   -1.20    5.60
  -3   3  10    7.60    4.60
   2  -3 -10    6.60    5.00
   2  -3 -10    5.40    6.10
   2  -3 -10   18.80    5.50
   2  -3 -10   11.90    3.40
  -2   3  10    6.30    5.80
  -2   3  10   11.20    5.50
  -2   3  10   15.30    3.40
  -2   3  10    3.60    4.80
   1  -3 -10    0.90    2.90
   1  -3 -10    1.10    3.90
   1  -3 -10   -0.50    4.90
   1  -3 -10   -2.60    3.50
   1  -3 -10    2.90    5.40
  -1   3  10    4.10    4.90
  -1   3  10   -5.10    5.50
   0  -3 -10   10.20    5.70
   0  -3 -10   14.00    5.30
   0   3  10   11.00    5.00
   0   3  10    0.20    5.40
  -1  -3 -10  257.37   13.80
  -1  -3 -10  222.58   14.30
  -1  -3 -10  254.97   13.20
   1   3  10  244.48   13.70
   1   3  10  240.18   15.00
  -2  -3 -10   42.30    6.20
  -2  -3 -10   26.70    6.10
  -2  -3 -10   35.40    4.70
   2   3  10   36.70    6.30
   2   3  10   19.40    6.60
   2   3  10   38.20    6.10
  -3  -3 -10    5.00    5.10
  -3  -3 -10    6.10    5.30
   3   3  10    7.30    6.20
   3   3  10   -6.20    6.00
   3   3  10   -4.20    5.30
  -4  -3 -10   -4.70    5.20
  -4  -3 -10    6.60    5.70
   4   3  10   12.70    6.70
   4   3  10   -2.90    6.60
   4   3  10    9.50    7.40
  -5  -3 -10   10.10    6.00
  -5  -3 -10   11.60    6.20
   5   3  10    7.60    7.40
   5   3  10    1.20    6.90
   5   3  10    7.70    8.20
   6  -4 -10   15.20    7.10
   6  -4 -10   -3.80    9.40
   6  -4 -10   -6.10    9.50
  -6   4  10    0.10    7.10
  -6   4  10  -12.60    7.70
   5  -4 -10    2.50    7.10
   5  -4 -10   -8.80    8.40
   5  -4 -10   12.30    9.30
  -5   4  10   -0.70    7.70
  -5   4  10   -3.40    6.40
  -5   4  10   -8.00    4.30
   4  -4 -10    7.50    6.80
   4  -4 -10   12.30    7.50
  -4   4  10    9.00    4.20
  -4   4  10    8.10    7.20
   3  -4 -10   -6.60    5.80
   3  -4 -10   -0.20    5.90
   3  -4 -10   -6.10    6.80
  -3   4  10    1.20    5.80
  -3   4  10   -4.90    4.00
  -3   4  10   -9.30    5.60
   2  -4 -10    0.10    6.10
   2  -4 -10   -3.80    3.00
   2  -4 -10   -0.90    5.50
   2  -4 -10    6.90    5.40
  -2   4  10    7.10    4.50
  -2   4  10    6.10    5.40
  -2   4  10    5.40    5.90
  -2   4  10    9.50    4.60
   1  -4 -10   75.19    9.70
   1  -4 -10   75.59    7.50
   1  -4 -10   63.19    7.70
   1  -4 -10   73.69    7.50
   1  -4 -10   59.29    6.10
  -1   4  10   69.79    6.70
  -1   4  10   69.49    8.10
  -1   4  10   69.49    7.10
   0  -4 -10   28.50    5.90
   0  -4 -10   25.40    4.90
   0   4  10   20.50    6.50
   0   4  10   30.20    5.80
  -1  -4 -10   59.19    7.30
  -1  -4 -10   54.89    6.50
  -1  -4 -10   70.99    8.00
   1   4  10   66.79    7.10
   1   4  10   67.89    6.60
   1   4  10   58.39    7.60
  -2  -4 -10   24.50    6.00
  -2  -4 -10   15.60    5.50
  -2  -4 -10   30.80    4.50
   2   4  10   20.60    6.80
   2   4  10   21.00    5.50
   2   4  10   24.30    3.20
   2   4  10   22.50    6.20
  -3  -4 -10    9.00    5.80
  -3  -4 -10    7.70    5.50
   3   4  10   13.50    7.00
   3   4  10   10.60    8.30
   3   4  10    2.00    5.50
  -4  -4 -10    5.20    6.20
  -4  -4 -10   13.50    6.10
   4   4  10    8.00    8.10
   4   4  10    7.80    6.70
   4   4  10    9.40    7.30
  -5  -4 -10    2.60    6.10
  -5  -4 -10    6.20    6.20
   5   4  10    7.70    7.20
   5   4  10    3.10    7.60
   5   4  10    2.70    8.10
   6  -5 -10   21.90   10.00
  -6   5  10   12.40    9.50
   5  -5 -10   62.89   10.20
   5  -5 -10   63.59   10.70
   5  -5 -10   57.39    8.70
  -5   5  10   37.40    5.50
  -5   5  10   56.29    9.60
  -5   5  10   41.50    8.40
   4  -5 -10    2.20    7.90
   4  -5 -10   -5.60    6.90
   4  -5 -10   -2.30    7.30
  -4   5  10    0.90    3.50
  -4   5  10   10.90    6.90
   3  -5 -10   -1.20    6.90
   3  -5 -10    8.60    6.60
   3  -5 -10   -1.80    6.20
  -3   5  10   -5.20    3.50
  -3   5  10   -1.40    6.00
  -3   5  10   -1.00    5.90
   2  -5 -10   65.39    8.50
   2  -5 -10   91.69   11.00
   2  -5 -10   75.69    6.50
   2  -5 -10   55.99    8.00
  -2   5  10   60.09    7.60
  -2   5  10   90.19    8.10
  -2   5  10   78.39    7.00
  -2   5  10   53.79    7.90
   1  -5 -10   10.10    5.70
   1  -5 -10   11.20    4.40
   1  -5 -10    1.00    5.60
   1  -5 -10    7.60    4.10
  -1   5  10    4.80    5.30
  -1   5  10   10.10    4.80
  -1   5  10    5.40    6.20
   0  -5 -10   14.60    4.60
   0  -5 -10   19.70    5.90
   0  -5 -10   14.20    5.60
   0   5  10   11.10    6.10
   0   5  10   18.00    5.40
  -1  -5 -10   63.19    7.60
  -1  -5 -10   59.89    6.80
  -1  -5 -10   61.89    6.10
   1   5  10   52.49    7.80
   1   5  10   55.69    7.20
   1   5  10   59.49    6.40
  -2  -5 -10   41.80    4.30
  -2  -5 -10   42.60    6.90
  -2  -5 -10   36.70    6.60
   2   5  10   36.80    7.40
   2   5  10   42.50    6.10
   2   5  10   45.60    7.40
  -3  -5 -10   13.50    5.90
  -3  -5 -10    6.00    5.90
   3   5  10    9.80    6.00
   3   5  10   14.10    7.50
   3   5  10    6.00    6.90
  -4  -5 -10    7.00    6.40
  -4  -5 -10    4.50    5.60
   4   5  10    7.60    6.60
   4   5  10   -2.30    7.10
   4   5  10    0.60    7.80
  -5  -5 -10   52.29   11.40
  -5  -5 -10   62.59    8.00
   5   5  10   53.89   10.50
   5   5  10   54.79    9.30
   5  -6 -10  -11.00    8.80
   5  -6 -10   -0.50    8.30
   5  -6 -10    2.40    7.70
  -5   6  10   -1.60    8.10
  -5   6  10   -2.70    6.60
   4  -6 -10    0.00    7.70
   4  -6 -10   -1.20    8.00
   4  -6 -10    3.00    7.40
  -4   6  10    3.30    6.50
  -4   6  10    1.70    7.10
   3  -6 -10    8.50    6.80
   3  -6 -10   -3.20    6.90
   3  -6 -10   -5.80    6.40
  -3   6  10    6.60    3.10
  -3   6  10    3.10    6.30
  -3   6  10    6.10    6.50
   2  -6 -10    1.00    6.10
   2  -6 -10   -0.80    3.50
   2  -6 -10    1.70    6.40
   2  -6 -10   -3.10    5.30
  -2   6  10    2.60    6.00
  -2   6  10    1.00    3.90
  -2   6  10   -6.00    5.70
   1  -6 -10    0.40    5.40
   1  -6 -10   -0.30    4.30
   1  -6 -10    1.30    4.60
   1  -6 -10    0.80    5.60
  -1   6  10    0.70    5.40
  -1   6  10   -0.50    4.40
  -1   6  10    7.80    6.00
   0  -6 -10   56.69    6.60
   0  -6 -10   54.89    5.90
   0  -6 -10   42.60    7.00
   0  -6 -10   44.80    6.00
   0   6  10   42.30    7.50
   0   6  10   52.69    7.70
   0   6  10   56.29    6.90
  -1  -6 -10   17.80    5.50
  -1  -6 -10   22.80    6.10
  -1  -6 -10   19.30    5.00
   1   6  10   21.50    5.20
   1   6  10   21.60    6.40
   1   6  10   25.20    7.00
  -2  -6 -10    6.50    5.40
  -2  -6 -10    4.50    5.60
   2   6  10    7.70    5.10
   2   6  10    3.10    6.50
   2   6  10    4.30    6.60
  -3  -6 -10   30.70    7.00
   3   6  10   35.40    8.30
   3   6  10   38.60   12.00
  -4  -6 -10   73.09    8.60
  -4  -6 -10   65.19    8.90
   4   6  10  107.79   11.90
   4   6  10   88.39   11.10
   4   6  10   61.89   10.10
   5  -7 -10    7.30    9.00
   5  -7 -10   12.60    7.90
   5  -7 -10    3.60    8.70
  -5   7  10    4.30    7.60
  -5   7  10    5.20    6.70
   4  -7 -10   -8.30    8.40
   4  -7 -10   -9.10    7.20
   4  -7 -10    3.40    8.00
  -4   7  10   -7.60    6.80
  -4   7  10    3.20    6.50
   3  -7 -10    4.70    7.20
  -3   7  10   14.00    7.80
   2  -7 -10   16.40    6.90
   2  -7 -10   19.80    4.20
   2  -7 -10   24.00    6.60
   2  -7 -10   19.30    7.00
  -2   7  10   31.40    7.10
  -2   7  10   16.30    3.70
  -2   7  10   23.30    7.00
   1  -7 -10   -0.60    5.70
   1  -7 -10   20.00    4.90
   1  -7 -10    4.10    6.30
  -1   7  10    6.50    6.40
  -1   7  10   11.70    6.10
  -1   7  10   14.90    4.60
   0  -7 -10   59.59    6.80
   0  -7 -10   61.79    6.90
   0  -7 -10   46.10    7.60
   0   7  10   47.30    7.90
   0   7  10   51.69    7.20
   0   7  10   59.49    6.90
  -1  -7 -10   45.10    5.60
  -1  -7 -10   43.40    6.70
  -1  -7 -10   27.70    6.90
   1   7  10   47.40    6.00
   1   7  10   44.00    8.00
   1   7  10   43.50    7.40
  -2  -7 -10   22.20    7.00
   2   7  10   30.20    7.90
   2   7  10   17.40    7.20
   2   7  10   23.10    5.70
  -3  -7 -10    3.50    6.10
  -3  -7 -10    5.40    5.80
   3   7  10    3.50    5.90
   3   7  10   -4.90    6.80
   3   7  10   -3.40    7.70
  -4  -7 -10   41.80    7.40
  -4  -7 -10   29.10    7.50
   4   7  10   21.40    8.50
   4   7  10   50.49    8.10
   4   7  10   34.90    9.90
   5  -8 -10    1.10    7.90
   5  -8 -10    7.10    9.40
  -5   8  10   11.70    6.90
  -5   8  10    2.80    9.80
   4  -8 -10  -12.30    7.50
   4  -8 -10   -1.80    8.20
   4  -8 -10   -2.90    8.30
  -4   8  10   -3.20    6.00
  -4   8  10    5.00    7.30
   3  -8 -10   54.99    9.20
   3  -8 -10   79.99    9.60
   3  -8 -10   50.19    8.90
  -3   8  10   56.89    8.40
  -3   8  10   68.89    9.10
   2  -8 -10   25.70    7.40
   2  -8 -10   38.10   10.00
   2  -8 -10   30.90    7.30
   2  -8 -10   34.20    7.80
  -2   8  10   21.00    7.10
   1  -8 -10  104.19   11.00
   1  -8 -10   85.39    9.00
  -1   8  10   91.79   11.70
  -1   8  10   67.09    8.70
  -1   8  10   85.59    8.00
   0  -8 -10   10.30    5.40
   0  -8 -10    1.50    5.40
   0   8  10    7.50    6.60
   0   8  10   -4.70    6.00
   0   8  10   -0.70    6.00
  -1  -8 -10   87.79   10.80
  -1  -8 -10  104.29    9.20
  -1  -8 -10   86.39   11.40
   1   8  10   95.39    9.60
   1   8  10   71.99   12.40
  -2  -8 -10   25.80    7.00
  -2  -8 -10   20.00    6.70
   2   8  10   39.50    8.20
   2   8  10   24.30    5.90
   2   8  10   31.80    7.90
  -3  -8 -10   29.20    6.90
  -3  -8 -10   25.00    7.00
   3   8  10   29.70    8.90
   3   8  10   24.70    6.70
   3   8  10   27.70    8.40
  -4  -8 -10    8.70    6.00
   4   8  10    5.50    6.80
   4   8  10    5.70   11.50
   4   8  10   12.80    9.10
   4  -9 -10   12.50    8.80
   4  -9 -10   -0.60    8.10
   4  -9 -10   25.80    8.90
  -4   9  10    3.90    7.60
  -4   9  10  -10.50    5.50
   3  -9 -10   -2.60    9.10
   3  -9 -10    8.10    7.80
   3  -9 -10    5.70    7.90
  -3   9  10    0.80    6.00
  -3   9  10   -1.80    7.10
   2  -9 -10   20.60    7.60
   2  -9 -10   23.80    5.00
  -2   9  10    6.90    7.20
  -2   9  10   21.90    8.10
   1  -9 -10   22.20    7.00
   1  -9 -10   36.00    7.70
   1  -9 -10   35.20    5.90
  -1   9  10   38.60    7.70
   0  -9 -10   32.10    6.20
   0  -9 -10   26.20    7.50
   0  -9 -10   34.50    6.60
   0   9  10   45.70    7.60
   0   9  10   29.50    7.30
  -1  -9 -10    0.20    6.40
  -1  -9 -10   14.60    4.90
  -1  -9 -10   13.20    6.40
   1   9  10   17.70    7.20
   1   9  10    7.10    6.70
   1   9  10   10.80    5.00
  -2  -9 -10   10.10    6.00
  -2  -9 -10    5.30    6.40
   2   9  10   -0.30    7.30
   2   9  10   14.00    7.60
   2   9  10    7.70    5.50
  -3  -9 -10  106.49   12.70
  -3  -9 -10  115.29   12.30
   3   9  10  135.69   12.30
   3   9  10  122.39   14.60
   3   9  10  139.69   15.20
   4 -10 -10    9.00    9.20
   4 -10 -10   12.00    8.40
   4 -10 -10    5.50    8.80
  -4  10  10    6.00    6.00
   3 -10 -10    3.30    7.90
   3 -10 -10   -2.80    7.40
   3 -10 -10   -8.50    8.00
  -3  10  10   -1.60    7.40
  -3  10  10   -0.50    5.90
   2 -10 -10   44.10    6.00
   2 -10 -10   52.89    8.60
   2 -10 -10   51.09    8.70
  -2  10  10   45.60    7.90
  -2  10  10   61.09    9.00
   1 -10 -10   91.49   11.30
   1 -10 -10   68.39    9.30
   1 -10 -10   71.39    7.70
  -1  10  10   54.49    8.80
  -1  10  10   62.59    8.50
   0 -10 -10    4.30    5.40
   0 -10 -10    4.00    7.90
   0 -10 -10   -0.60    6.50
   0  10  10   -0.40    4.20
   0  10  10    1.50    6.90
   0  10  10    2.60    6.50
  -1 -10 -10   -8.70    5.70
  -1 -10 -10    2.50    6.40
  -1 -10 -10   -6.10    5.00
   1  10  10    0.70    4.70
   1  10  10    0.00    7.00
   1  10  10   -4.10    6.80
  -2 -10 -10    0.60    6.20
  -2 -10 -10    1.80    6.00
   2  10  10    4.70    7.50
   2  10  10  -13.50    6.60
  -3 -10 -10   41.80    7.40
  -3 -10 -10   17.80    7.70
   3  10  10   13.20    8.80
   3  10  10   16.40    6.40
   3 -11 -10   15.50    8.30
   3 -11 -10   16.30    8.40
   3 -11 -10   23.10    9.00
  -3  11  10   12.10    8.10
  -3  11  10   11.10    6.20
   2 -11 -10   10.90    7.90
   2 -11 -10   15.40    5.20
   2 -11 -10    3.10    7.00
  -2  11  10    3.30    6.20
  -2  11  10   -1.50    7.20
   1 -11 -10   13.10    7.60
  -1  11  10   14.50    7.10
  -1  11  10    9.20    6.50
  -1  11  10    2.40    5.40
   0 -11 -10   32.60    8.40
   0 -11 -10   19.40    5.90
   0 -11 -10   14.50    6.50
   0  11  10   11.90    7.50
   0  11  10   13.70    6.80
   0  11  10   22.40    5.10
  -1 -11 -10  -10.20    5.60
  -1 -11 -10    0.10    6.40
   1  11  10    1.80    7.20
   1  11  10    0.50    6.60
   1  11  10   -9.10    4.60
  -2 -11 -10    6.10    6.50
  -2 -11 -10    2.70    6.50
   2  11  10    1.50    5.30
   2  11  10   10.00    7.20
   2 -12 -10    4.40    6.90
   2 -12 -10   -1.70    6.80
  -2  12  10    7.10    6.20
   1 -12 -10   -9.60    6.00
   1 -12 -10    3.80    9.80
   1 -12 -10    3.50    5.70
  -1  12  10    9.00    6.10
  -1  12  10   -4.00    6.70
   0 -12 -10   -0.90    5.80
   0 -12 -10  -10.60    5.70
   0 -12 -10   -4.50    7.70
   0  12  10    2.30    8.00
   0  12  10   -4.80    5.90
  -1 -12 -10   -1.00    6.20
   1  12  10    5.10    6.90
   1  15 -11   11.10    8.40
   1  15 -11   13.80    7.60
  -1 -15  11   -0.60    8.80
  -1 -15  11   -1.40    8.00
  -1 -15  11   17.30    7.70
   0  15 -11   -6.00    6.90
   0  15 -11  -10.70    7.10
   0 -15  11    1.60    6.70
   0 -15  11    0.40    8.70
   0 -15  11   -8.30    7.20
  -1  15 -11   25.00    8.30
  -1  15 -11  -12.70    6.60
   1 -15  11   -3.70    7.80
   1 -15  11   -1.50    9.40
   1 -15  11  -15.70    6.00
  -2  15 -11    4.20    6.40
  -2  15 -11   -1.60    7.20
   2 -15  11   12.70    7.10
   2 -15  11    3.30    8.50
   2  14 -11   -5.90    8.90
   2  14 -11   -3.30    7.30
  -2 -14  11   20.50    9.40
  -2 -14  11   30.70    7.90
  -2 -14  11   11.10    7.70
   1  14 -11    1.50    8.30
   1  14 -11    2.70    7.70
  -1 -14  11   24.40    7.50
  -1 -14  11   11.40    9.30
  -1 -14  11    7.50    7.50
   0  14 -11    5.30    7.30
   0  14 -11    5.40    7.40
   0 -14  11   17.20    9.10
   0 -14  11   14.50    7.60
   0 -14  11    7.30    7.40
  -1  14 -11    2.70    6.70
  -1  14 -11    0.00    6.80
   1 -14  11   -1.50    7.20
   1 -14  11   19.10    7.60
   1 -14  11    1.00    8.40
  -2  14 -11    0.70    6.50
  -2  14 -11   25.90    7.10
   2 -14  11   14.00    9.30
   2 -14  11   -0.80    7.70
   2 -14  11    2.50    6.90
  -3  14 -11   27.30    7.90
   3 -14  11   51.29    8.40
   3 -14  11   49.40   12.60
   3 -14  11   50.19   16.40
   3  13 -11    5.70   10.20
   3  13 -11    9.80    7.70
  -3 -13  11   11.10    7.80
  -3 -13  11  -13.10    8.10
   2  13 -11   25.70    8.00
   2  13 -11   21.70    9.50
  -2 -13  11   28.70    7.40
  -2 -13  11   21.30    9.20
  -2 -13  11   27.90    8.40
   1  13 -11   -3.00    6.80
   1  13 -11    9.10    8.00
  -1 -13  11   -2.90    8.40
  -1 -13  11   11.60    7.70
  -1 -13  11    6.10    7.10
   0  13 -11    9.70    7.30
   0  13 -11   -5.20    7.20
   0 -13  11    0.40    7.00
   0 -13  11   -5.10    7.30
   0 -13  11    6.10    8.40
  -1  13 -11   34.30    7.50
  -1  13 -11   18.50    7.70
   1 -13  11   13.50    8.00
   1 -13  11   35.80    8.90
   1 -13  11    9.30    9.00
  -2  13 -11   -2.90    6.30
  -2  13 -11    1.70    6.20
   2 -13  11    1.90    7.20
   2 -13  11   13.80    7.80
   2 -13  11   -6.50    7.90
  -3  13 -11   -7.10    6.10
  -3  13 -11   -5.40    6.40
   3 -13  11   -8.50    8.20
   3 -13  11    7.00    8.00
   3 -13  11   -5.90    6.80
   4  12 -11   28.70   11.00
   4  12 -11   13.00    8.10
  -4 -12  11   16.30    6.90
  -4 -12  11   39.40    9.60
  -4 -12  11   18.50    8.60
   3  12 -11    3.30    8.00
   3  12 -11   14.70   10.20
   3  12 -11   10.10    8.20
  -3 -12  11   14.60    7.50
  -3 -12  11    7.50    5.60
  -3 -12  11   12.30    8.70
  -3 -12  11   14.50    8.30
   2  12 -11   -3.90    8.70
   2  12 -11   -3.90    7.30
  -2 -12  11    2.40    6.30
  -2 -12  11    6.50    7.50
  -2 -12  11    4.10    4.60
  -2 -12  11   -2.30    8.20
   1  12 -11   14.40    7.90
   1  12 -11   12.30    7.30
  -1 -12  11    7.60    7.50
  -1 -12  11    9.40    7.00
  -1 -12  11    6.30    8.30
   0  12 -11    0.30    6.50
   0  12 -11    9.40    7.40
   0 -12  11    2.90    6.70
   0 -12  11    8.90    8.10
   0 -12  11    8.70    9.40
  -1  12 -11    5.80    6.40
  -1  12 -11    3.30    6.40
   1 -12  11    6.70    8.00
   1 -12  11  -10.60    6.70
  -2  12 -11   49.99    8.20
  -2  12 -11   53.79    7.50
   2 -12  11   53.19   11.10
   2 -12  11   58.29    9.00
   2 -12  11   46.70    9.60
  -3  12 -11   36.10    7.70
   3 -12  11   39.10   10.20
   3 -12  11   47.80    9.10
   3 -12  11   33.30    8.40
  -4  12 -11   20.40    7.00
  -4  12 -11   12.10    7.10
   4 -12  11    9.60    9.10
   4 -12  11    2.00    7.30
   4  11 -11   40.50   10.00
   4  11 -11   32.60   12.30
   4  11 -11   32.40    9.10
  -4 -11  11   27.10    8.60
  -4 -11  11   20.70    7.30
  -4 -11  11   43.70    9.10
   3  11 -11   12.80    8.40
   3  11 -11   11.00    7.80
   3  11 -11   -3.40    9.80
  -3 -11  11    6.50    7.50
  -3 -11  11  -22.90   11.00
  -3 -11  11    9.90    5.50
   2  11 -11   -0.70    7.20
   2  11 -11   14.20    8.90
  -2 -11  11    6.90    6.10
  -2 -11  11   13.70    8.60
  -2 -11  11    3.20    6.20
  -2 -11  11   -4.80    7.10
   1  11 -11   -5.40    7.00
   1  11 -11   -2.10    7.40
  -1 -11  11    0.70    3.30
  -1 -11  11    0.50    8.00
  -1 -11  11    5.20    6.20
   0  11 -11   -2.80    7.40
   0  11 -11   -0.60    6.70
   0 -11  11    5.10    9.50
   0 -11  11   -3.20    7.10
  -1  11 -11  156.38   12.80
  -1  11 -11  149.19   12.50
   1 -11  11  143.79   14.30
   1 -11  11  155.18   15.00
  -2  11 -11    0.80    5.50
  -2  11 -11    4.80    6.50
   2 -11  11   13.70    8.10
   2 -11  11    4.50    8.10
  -3  11 -11    0.00    6.10
  -3  11 -11    7.90    6.00
   3 -11  11   -9.20    7.10
   3 -11  11   -3.30    8.10
  -4  11 -11   -8.00    6.00
  -4  11 -11    2.00    6.20
   4 -11  11    8.70    7.50
   4 -11  11   -7.90    8.00
   4 -11  11   -5.10    7.70
   4  10 -11    2.00    8.80
   4  10 -11    6.80   11.40
   4  10 -11   -1.10    8.00
  -4 -10  11   -0.10    7.80
  -4 -10  11   -1.10    7.50
   3  10 -11    1.30    7.60
   3  10 -11   -5.70    9.20
   3  10 -11   -0.30    9.80
  -3 -10  11   -4.30    5.70
  -3 -10  11    5.50    8.10
  -3 -10  11    3.30    5.10
  -3 -10  11   10.50    7.70
   2  10 -11    0.90    8.50
  -2 -10  11    2.70    5.70
  -2 -10  11   10.30    7.70
  -2 -10  11    4.50    4.40
  -2 -10  11    7.00    7.60
   1  10 -11    3.70    6.80
   1  10 -11   -3.50    6.40
  -1 -10  11    0.50    3.80
  -1 -10  11    0.00    7.00
  -1 -10  11    7.20    7.50
   0  10 -11   56.99    7.70
   0  10 -11   21.80    5.10
   0  10 -11   42.30    7.40
   0 -10  11   65.89    8.40
   0 -10  11   39.40    8.00
   0 -10  11   35.50    4.40
  -1  10 -11   -9.50    5.30
  -1  10 -11   -9.60    5.50
  -1  10 -11   -1.80    5.70
   1 -10  11   -7.60    6.70
   1 -10  11   -7.10    6.80
  -2  10 -11   36.80    8.20
  -2  10 -11   25.80    5.70
   2 -10  11   20.90    7.70
   2 -10  11   25.90    8.00
  -3  10 -11   10.90    7.00
  -3  10 -11   16.30    5.90
  -3  10 -11   20.50    6.70
   3 -10  11    1.30    7.70
  -4  10 -11    3.00    5.70
  -4  10 -11   12.40    6.50
   4 -10  11   -6.00    7.90
   4 -10  11   -5.90    8.10
  -5  10 -11    5.50    6.30
   5 -10  11   -5.70    7.80
   5   9 -11   -1.60    8.40
   5   9 -11    2.70    9.50
   5   9 -11   -2.10   13.90
  -5  -9  11    6.70    6.90
  -5  -9  11   -6.50    8.40
   4   9 -11    7.30    9.00
   4   9 -11    6.90   11.20
   4   9 -11   19.50    8.70
  -4  -9  11    8.00    7.90
  -4  -9  11   12.00    7.20
  -3  -9  11   58.29    9.00
  -3  -9  11   45.00    8.30
  -3  -9  11   35.70    6.80
  -3  -9  11   60.79    6.60
   2   9 -11   13.40    8.70
   2   9 -11    8.50    7.00
  -2  -9  11   16.90    5.10
  -2  -9  11    7.90    7.30
  -2  -9  11    3.30    7.30
   1   9 -11    3.20    6.70
   1   9 -11    6.50    5.40
   1   9 -11    1.60    6.30
  -1  -9  11   14.60    7.10
  -1  -9  11    7.20    4.30
  -1  -9  11    3.70    7.00
   0   9 -11   45.30    7.20
   0   9 -11   41.80    6.80
   0   9 -11   55.29    7.60
   0  -9  11   39.70    8.00
   0  -9  11   39.40    8.00
   0  -9  11   37.70    5.00
  -1   9 -11    8.90    5.90
  -1   9 -11   15.70    5.60
  -1   9 -11   13.60    6.00
   1  -9  11    8.00    6.90
   1  -9  11   10.20    4.00
   1  -9  11    4.90    6.80
  -2   9 -11   39.00    7.00
  -2   9 -11   44.90    7.40
  -2   9 -11   45.70    5.80
   2  -9  11   25.40    7.90
   2  -9  11   34.90    7.90
   2  -9  11   30.70    5.10
  -3   9 -11   40.50    7.70
  -3   9 -11   31.40    5.70
   3  -9  11   45.20    9.30
   3  -9  11   29.30    5.90
   3  -9  11   20.30    8.10
  -4   9 -11    6.50    6.90
  -4   9 -11    1.00    5.90
  -4   9 -11   -0.70    5.30
   4  -9  11    5.40    8.00
   4  -9  11   -1.10    7.70
   4  -9  11   -4.70    5.70
  -5   9 -11   74.29    8.80
   5  -9  11   97.99   12.20
   5  -9  11   81.09   10.50
   5  -9  11   80.29   11.50
   5   8 -11   -0.10   11.20
   5   8 -11   -9.10    9.00
   5   8 -11   16.10    9.10
  -5  -8  11   -4.70    9.00
  -5  -8  11   -7.70    6.70
  -5  -8  11   -0.80    8.00
   4   8 -11   -8.40   10.30
   4   8 -11   -7.60    8.20
   4   8 -11    9.20    8.10
  -4  -8  11   -3.50    6.50
  -4  -8  11    0.20    7.70
  -4  -8  11   -2.30    6.20
   3   8 -11  -16.90    9.00
   3   8 -11   12.90    8.00
   3   8 -11   14.10    7.00
  -3  -8  11    0.40    7.50
  -3  -8  11    0.90    5.20
  -3  -8  11   12.70    6.80
   2   8 -11   16.10    8.30
   2   8 -11   21.30    7.40
   2   8 -11   14.80    5.20
  -2  -8  11   12.10    5.30
  -2  -8  11   14.20    7.10
  -2  -8  11   13.00    6.60
   1   8 -11   58.89    8.00
   1   8 -11   55.09    8.10
   1   8 -11   68.49    7.30
  -1  -8  11   52.39    8.30
  -1  -8  11   68.19    7.80
  -1  -8  11   67.69    8.20
   0   8 -11  145.89   11.30
   0   8 -11  133.79   11.40
   0   8 -11  128.49   11.20
   0  -8  11  141.89   12.70
   0  -8  11   99.69    9.20
   0  -8  11  131.89   12.60
  -1   8 -11   11.10   10.10
  -1   8 -11    3.00    5.50
  -1   8 -11    3.20    5.40
   1  -8  11    2.00    4.50
   1  -8  11    0.90    6.00
   1  -8  11    1.10    6.50
  -2   8 -11   -0.50    5.20
  -2   8 -11   -6.50    5.60
  -2   8 -11   -0.80    5.10
   2  -8  11   -2.20    4.80
   2  -8  11    4.20    6.30
   2  -8  11   -5.80    6.70
  -3   8 -11   -9.50    5.10
  -3   8 -11   10.30    6.90
   3  -8  11    1.80    7.10
   3  -8  11    3.90    7.90
   3  -8  11    7.50    6.00
  -4   8 -11  132.69   10.30
  -4   8 -11  161.98   12.20
  -4   8 -11  119.59   13.30
   4  -8  11  146.69   14.20
   4  -8  11  129.49   14.70
   4  -8  11  140.69   12.30
  -5   8 -11  250.67   17.20
  -5   8 -11  230.58   15.70
   5  -8  11  265.47   17.80
   5  -8  11  228.38   18.40
   5  -8  11  245.78   16.90
   5  -8  11  239.38   18.10
   5   7 -11   62.39   13.40
   5   7 -11   37.70   10.30
  -5  -7  11   41.20    8.70
  -5  -7  11   59.29    9.40
   4   7 -11   12.00    7.70
   4   7 -11  -11.70    9.80
   4   7 -11    7.20    8.80
  -4  -7  11    7.30    6.50
  -4  -7  11   -2.80    7.50
  -4  -7  11   -5.20    5.80
   3   7 -11   -1.70    4.20
   3   7 -11    0.10    6.10
   3   7 -11   16.10    7.70
   3   7 -11    5.00    8.80
  -3  -7  11    8.20    6.30
  -3  -7  11   -3.30    5.30
  -3  -7  11   -6.00    6.60
   2   7 -11   77.29    8.80
   2   7 -11   87.19    9.50
   2   7 -11   88.79   10.10
  -2  -7  11   53.69    7.40
  -2  -7  11   83.49    9.00
  -2  -7  11  103.59   11.10
   1   7 -11  270.27   16.10
   1   7 -11  278.57   15.30
   1   7 -11  279.57   16.60
  -1  -7  11  244.58   19.70
  -1  -7  11  267.07   16.70
  -1  -7  11  297.07   16.30
   0   7 -11  202.38   13.50
   0   7 -11  203.88   14.20
   0   7 -11  220.88   13.70
   0  -7  11  200.88   12.10
   0  -7  11  208.78   14.20
   0  -7  11  209.58   14.60
  -1   7 -11    6.90    5.70
  -1   7 -11    3.70    4.40
  -1   7 -11    9.30    5.60
   1  -7  11   -3.60    4.80
   1  -7  11   21.60    6.40
   1  -7  11    7.80    6.50
  -2   7 -11   24.30    6.40
  -2   7 -11   17.90    5.70
  -2   7 -11   15.10    4.20
   2  -7  11    2.20    6.40
   2  -7  11   19.00    7.20
   2  -7  11    7.50    5.40
  -3   7 -11   15.40    4.30
  -3   7 -11    8.00    5.50
  -3   7 -11    4.80    6.50
   3  -7  11   13.80    6.00
   3  -7  11   10.30    7.40
   3  -7  11   17.60    7.20
  -4   7 -11   57.89    8.50
  -4   7 -11   53.39    7.30
   4  -7  11   44.40    9.70
   4  -7  11   34.70    8.80
   4  -7  11   49.99    7.80
  -5   7 -11   53.09    7.70
  -5   7 -11   56.89    9.30
   5  -7  11   57.59   10.00
   5  -7  11   53.09   10.20
   5  -7  11   52.19   10.20
   6   6 -11   18.60   13.80
   5   6 -11    6.60   11.40
   5   6 -11   13.10   10.10
  -5  -6  11   12.10    8.20
  -5  -6  11    1.10    7.10
   4   6 -11   43.60    8.30
  -4  -6  11   47.90    8.70
  -4  -6  11   24.90    7.10
  -4  -6  11   42.30    6.10
   3   6 -11   58.29    9.10
   3   6 -11   76.29    8.30
   3   6 -11   63.09   10.10
   3   6 -11   86.89    9.40
  -3  -6  11   65.99    7.90
  -3  -6  11   72.59    8.80
  -3  -6  11   62.09    8.20
   2   6 -11    5.00    4.30
   2   6 -11    7.20    7.50
   2   6 -11   -4.10    6.60
   2   6 -11   -2.50    5.20
  -2  -6  11    4.00    6.70
  -2  -6  11    6.20    5.90
  -2  -6  11    1.00    5.10
   1   6 -11  410.46   22.90
   1   6 -11  414.66   20.70
   1   6 -11  451.75   20.00
  -1  -6  11  366.96   19.80
  -1  -6  11  431.96   20.40
  -1  -6  11  415.06   21.10
   0   6 -11    1.00    5.50
   0   6 -11    6.70    5.20
   0   6 -11    6.10    5.00
   0  -6  11    9.90    6.30
   0  -6  11    8.10    5.20
   0  -6  11    3.10    5.40
  -1   6 -11   -2.70    4.00
  -1   6 -11   -3.20    5.00
  -1   6 -11   -2.50    5.10
   1  -6  11    2.60    5.70
   1  -6  11   -2.20    5.00
   1  -6  11    0.00    6.30
  -2   6 -11   27.10    6.40
  -2   6 -11   21.80    3.90
  -2   6 -11   25.20    5.60
   2  -6  11   15.10    4.80
   2  -6  11   29.10    7.50
   2  -6  11   25.00    6.90
   2  -6  11   17.50    5.90
  -3   6 -11   15.40    6.50
  -3   6 -11   11.50    3.70
  -3   6 -11   25.00    5.70
   3  -6  11   16.90    7.20
   3  -6  11   16.40    7.10
   3  -6  11    5.20    6.20
  -4   6 -11   14.20    5.50
  -4   6 -11   12.30    7.00
   4  -6  11    4.10    6.90
   4  -6  11   -1.60    7.30
   4  -6  11   -2.20    7.00
  -5   6 -11   -4.90    6.60
   5  -6  11   -0.60    7.90
   5  -6  11   -4.80    7.80
   5  -6  11   -0.10    8.70
   6   5 -11   -2.90    9.60
   6   5 -11    0.50    9.90
  -6  -5  11   16.80    8.00
  -6  -5  11  -10.00    8.70
   5   5 -11  327.97   21.60
   5   5 -11  331.87   23.60
   5   5 -11  306.47   20.80
  -5  -5  11  300.37   19.30
   4   5 -11   37.60   10.40
   4   5 -11   35.40   12.20
   4   5 -11   61.09    8.30
   4   5 -11   37.50    5.00
  -4  -5  11   26.00    7.60
  -4  -5  11   32.20    5.00
   3   5 -11    8.90    4.70
   3   5 -11    6.30    7.90
   3   5 -11   -4.60    7.30
   3   5 -11    3.80    5.50
  -3  -5  11   -0.30    5.20
  -3  -5  11   -4.20    6.30
  -3  -5  11    7.90    6.10
   2   5 -11    3.40    6.70
   2   5 -11    5.10    6.80
   2   5 -11   -4.80    6.70
   2   5 -11   -1.50    4.10
  -2  -5  11   -1.90    6.30
  -2  -5  11    1.40    5.10
  -2  -5  11    2.90    5.50
   1   5 -11  168.18   12.40
   1   5 -11  166.58   12.80
   1   5 -11  165.68   11.80
  -1  -5  11  185.58   13.10
  -1  -5  11  150.88   11.80
  -1  -5  11  143.09   11.60
   0   5 -11  125.89    9.50
   0   5 -11  116.69   10.90
   0   5 -11   95.69   10.70
   0  -5  11  123.89   10.90
   0  -5  11  130.09   11.50
  -1   5 -11  168.78    9.60
  -1   5 -11  164.38   11.90
  -1   5 -11  174.88   12.90
   1  -5  11  170.58   13.20
   1  -5  11  182.38   13.10
   1  -5  11  185.38   11.40
  -2   5 -11   54.59    6.70
  -2   5 -11   60.19    7.30
   2  -5  11   52.49    7.60
   2  -5  11   62.89    8.10
   2  -5  11   74.79    6.50
   2  -5  11   62.79    7.50
  -3   5 -11    6.00    5.70
  -3   5 -11   -3.40    4.20
   3  -5  11    1.80    6.60
   3  -5  11    1.40    6.20
   3  -5  11   -2.80    6.00
  -4   5 -11   66.89    9.10
  -4   5 -11   83.49    9.50
   4  -5  11   64.39    8.90
   4  -5  11   78.29    9.40
   4  -5  11   87.99   10.30
  -5   5 -11  335.07   20.50
  -5   5 -11  347.77   18.50
   5  -5  11  373.36   21.70
   5  -5  11  355.26   21.80
   5  -5  11  415.26   21.80
   6   4 -11    9.00   10.40
   6   4 -11   13.10    9.80
   6   4 -11   31.40   14.00
  -6  -4  11   40.70    8.50
  -6  -4  11   17.40    8.00
   5   4 -11    7.70    9.40
   5   4 -11    3.80    9.40
   5   4 -11   24.20   11.30
  -5  -4  11    6.30    7.70
  -5  -4  11    6.60    7.40
   4   4 -11  -13.00    8.60
   4   4 -11    0.50    8.80
   4   4 -11    6.00    4.30
   4   4 -11    7.80    7.00
  -4  -4  11   10.90    7.10
  -4  -4  11    3.20    6.50
   3   4 -11  -10.70    4.70
   3   4 -11    0.80    5.60
   3   4 -11   -5.40    7.00
   3   4 -11   -9.40    7.50
  -3  -4  11   -9.40    6.00
  -3  -4  11    4.70    5.50
  -3  -4  11    3.60    4.70
  -3  -4  11    2.40    5.90
   2   4 -11    2.90    5.60
   2   4 -11    1.60    3.80
   2   4 -11   -2.50    4.20
   2   4 -11    2.10    6.30
   2   4 -11    6.00    6.60
  -2  -4  11    3.80    4.80
  -2  -4  11    0.00    5.40
  -2  -4  11   -0.60    6.30
   1   4 -11   -2.80    4.80
   1   4 -11    5.70    5.90
   1   4 -11    4.10    5.90
  -1  -4  11   -5.60    4.40
  -1  -4  11   -2.70    5.10
  -1  -4  11   -6.10    5.80
   0   4 -11   -3.60    4.80
   0   4 -11   -2.50    4.20
   0   4 -11    0.30    5.50
   0  -4  11   -6.70    3.40
   0  -4  11   -6.20    5.30
   0  -4  11   -6.00    5.80
   0  -4  11   -9.70    5.10
  -1   4 -11   40.20    6.30
  -1   4 -11   37.20    3.90
  -1   4 -11   52.69    6.90
   1  -4  11   37.60    6.50
   1  -4  11   41.10    6.90
   1  -4  11   52.19    7.00
  -2   4 -11   -1.50    4.30
  -2   4 -11   -4.30    5.30
   2  -4  11    0.30    5.60
   2  -4  11    4.30    5.80
  -3   4 -11    5.80    5.70
  -3   4 -11   10.40    4.60
   3  -4  11   12.70    6.40
   3  -4  11   10.30    6.40
  -4   4 -11    8.30    4.70
   4  -4  11    6.50    7.00
   4  -4  11    0.50    6.80
   4  -4  11   -4.00    5.30
  -5   4 -11   53.59    8.60
  -5   4 -11   62.49    6.70
   5  -4  11   43.90    7.90
   5  -4  11   51.29    9.50
   5  -4  11   33.90    9.10
   6   3 -11   -1.30    9.50
   6   3 -11    4.30   11.40
   6   3 -11    4.40   10.70
  -6  -3  11    5.80    7.70
  -6  -3  11   -3.50    7.20
   5   3 -11   35.40   10.30
   5   3 -11   37.80   10.30
   5   3 -11   36.20   11.40
  -5  -3  11   34.00    8.20
  -5  -3  11   35.70    8.50
   4   3 -11   13.00    9.10
   4   3 -11    6.40    8.60
   4   3 -11   19.60    7.60
   4   3 -11   13.90    4.80
  -4  -3  11   12.30    6.70
  -4  -3  11    4.10    6.70
   3   3 -11   10.80    5.20
   3   3 -11    6.50    7.40
   3   3 -11   10.60    7.60
  -3  -3  11   10.30    5.40
  -3  -3  11    1.60    5.70
  -3  -3  11    5.10    4.60
  -3  -3  11   10.30    6.50
   2   3 -11  145.49   12.50
   2   3 -11  153.48   10.80
   2   3 -11  163.28   11.10
  -2  -3  11  149.99   10.10
  -2  -3  11  133.59   11.80
  -2  -3  11  135.69   12.60
   1   3 -11   -0.20    5.10
   1   3 -11   -7.30    5.60
   1   3 -11   -3.30    5.20
  -1  -3  11    3.20    6.10
  -1  -3  11   -3.90    5.30
  -1  -3  11   -1.20    4.60
   0   3 -11    0.20    5.30
   0   3 -11   -3.80    3.80
   0   3 -11   -5.00    4.80
   0  -3  11   -4.00    5.50
   0  -3  11    0.90    5.00
   0  -3  11   -1.00    5.70
  -1   3 -11  113.49    9.80
  -1   3 -11   91.19   10.20
   1  -3  11   86.49   10.70
   1  -3  11  102.09   10.60
  -2   3 -11    4.50    5.30
  -2   3 -11   14.30    5.60
  -2   3 -11   11.00    4.60
   2  -3  11    2.80    5.70
   2  -3  11    3.60    5.70
  -3   3 -11   15.10    5.90
  -3   3 -11   19.00    6.30
  -3   3 -11   21.30    4.80
   3  -3  11   17.70    6.70
   3  -3  11   14.40    6.40
  -4   3 -11    2.90    6.20
  -4   3 -11    5.30    4.50
   4  -3  11    7.70    6.90
   4  -3  11   -6.10    6.50
   4  -3  11    0.00    5.60
  -5   3 -11    3.80    4.70
  -5   3 -11   -3.50    6.90
  -5   3 -11    2.00    6.60
   5  -3  11    1.40    6.60
   5  -3  11    7.50    8.00
   5  -3  11    0.90    7.60
  -6   3 -11   31.60    7.90
   6  -3  11   29.80   10.40
   6   2 -11    8.20   10.30
   6   2 -11    5.80   10.10
   6   2 -11   -5.20   10.90
  -6  -2  11  -16.50    6.30
  -6  -2  11   -6.10    7.00
   5   2 -11    2.40    9.60
   5   2 -11    0.20    9.20
   5   2 -11    2.20   10.30
   5   2 -11    4.20    4.90
  -5  -2  11   -0.20    8.10
  -5  -2  11   -8.00    6.80
   4   2 -11  154.68   14.80
   4   2 -11  111.89   14.30
   4   2 -11  165.68   10.40
  -4  -2  11  121.69   12.90
  -4  -2  11  122.99   12.40
   3   2 -11    0.40    7.20
   3   2 -11    0.50    7.00
  -3  -2  11   -4.80    5.80
  -3  -2  11   -3.10    5.50
  -3  -2  11    5.80    2.70
  -3  -2  11    2.50    4.00
  -3  -2  11   -5.50    5.80
   2   2 -11   37.90    7.40
   2   2 -11   37.30    6.10
   2   2 -11   31.70    7.00
  -2  -2  11   31.60    6.60
  -2  -2  11   32.50    6.80
  -2  -2  11   40.60    5.40
  -2  -2  11   29.30    4.30
  -2  -2  11   30.10    4.90
   1   2 -11   35.60    5.20
   1   2 -11   42.80    6.30
   1   2 -11   30.30    6.80
   1   2 -11   37.30    5.90
  -1  -2  11   48.10    4.70
  -1  -2  11   38.60    6.70
  -1  -2  11   45.90    6.80
  -1  -2  11   43.10    5.80
   0   2 -11   -0.40    5.20
   0   2 -11   -5.50    3.40
   0   2 -11    2.90    5.50
   0  -2  11   -6.40    5.50
   0  -2  11   -2.00    5.40
  -1   2 -11  101.19    9.70
  -1   2 -11   93.89   10.20
  -1   2 -11  120.59    9.90
   1  -2  11  106.39   10.30
   1  -2  11   99.79   10.80
  -2   2 -11   53.89    7.10
  -2   2 -11   66.19    7.30
  -2   2 -11   39.80    5.50
   2  -2  11   39.80    6.90
   2  -2  11   40.80    7.20
  -3   2 -11    1.00    3.80
  -3   2 -11    0.00    5.30
  -3   2 -11    1.00    5.50
   3  -2  11    6.50    4.60
   3  -2  11    1.70    6.00
   3  -2  11    6.70    4.60
   3  -2  11    3.70    6.20
  -4   2 -11  160.18   10.20
  -4   2 -11  148.19   14.00
  -4   2 -11  143.99   13.20
   4  -2  11  170.88   13.70
   4  -2  11  163.28   14.10
  -5   2 -11    3.50    6.70
  -5   2 -11    4.50    6.60
   5  -2  11    7.20    7.40
   5  -2  11    8.00    6.70
   5  -2  11    9.10    7.80
   6   1 -11   -2.30    9.60
   6   1 -11    7.20   10.90
   6   1 -11   14.00   10.90
  -6  -1  11    1.30    6.60
  -6  -1  11   -5.60    7.00
   5   1 -11   17.20   10.30
   5   1 -11   10.30   10.30
   5   1 -11   18.00    5.30
  -5  -1  11   16.80    7.00
  -5  -1  11    3.50    7.40
   4   1 -11   95.09   11.70
   4   1 -11  103.79   13.70
  -4  -1  11  103.89   11.70
  -4  -1  11   64.19    9.50
  -4  -1  11   91.39   11.00
   3   1 -11   66.79    7.30
   3   1 -11   58.49    9.10
   3   1 -11   65.29    8.40
  -3  -1  11   61.09    8.30
  -3  -1  11   77.29    9.40
  -3  -1  11   55.69    7.50
   2   1 -11    6.80    6.50
   2   1 -11   11.30    5.40
   2   1 -11    5.20    5.80
  -2  -1  11   -1.10    4.50
  -2  -1  11    6.40    5.90
  -2  -1  11   13.30    3.10
  -2  -1  11   -0.70    3.70
  -2  -1  11   14.60    6.20
   1   1 -11  138.49   12.20
   1   1 -11  161.28   11.70
   1   1 -11  143.19   10.20
   1   1 -11  159.98    9.10
   1   1 -11  149.49   10.50
  -1  -1  11  170.58   10.40
  -1  -1  11  166.08    9.50
  -1  -1  11  154.08   12.40
  -1  -1  11  154.68   12.10
   0   1 -11   19.20    5.70
   0   1 -11   33.80    4.40
   0   1 -11   37.30    8.30
   0   1 -11   39.70    6.30
   0  -1  11   23.30    6.10
   0  -1  11   36.40    4.30
   0  -1  11   20.90    6.30
  -1   1 -11    8.60    3.40
  -1   1 -11   11.60    5.00
  -1   1 -11   10.60    5.30
  -1   1 -11    7.60    5.20
   1  -1  11    9.70    5.30
   1  -1  11    4.10    5.70
   1  -1  11    4.70    3.70
  -2   1 -11   23.00    5.80
  -2   1 -11   30.60    8.70
  -2   1 -11   20.50    5.60
   2  -1  11   19.50    4.30
   2  -1  11   17.30    6.50
   2  -1  11   19.90    6.00
  -3   1 -11   63.29    9.90
  -3   1 -11   40.40    6.80
  -3   1 -11   41.70    7.00
   3  -1  11   58.69    8.10
   3  -1  11   53.89    6.30
   3  -1  11   47.50    7.50
  -4   1 -11   40.30    8.20
  -4   1 -11   39.70    7.50
  -4   1 -11   29.90    5.30
   4  -1  11   40.10    7.80
   4  -1  11   46.00    7.40
  -5   1 -11    9.00    6.90
  -5   1 -11   13.30    6.50
   5  -1  11   -0.80    7.30
   5  -1  11   13.00    7.20
   5  -1  11   11.40    8.10
   6   0 -11    1.70   10.50
   6   0 -11   -1.70   10.70
  -6   0  11    2.50    7.70
  -6   0  11    2.70    6.50
   5   0 -11    0.70    9.10
   5   0 -11   14.70    9.70
  -5   0  11   12.90    6.40
  -5   0  11    6.00    7.10
  -5   0  11    6.20    8.30
   4   0 -11    7.80   11.10
   4   0 -11   12.00    8.10
   4   0 -11   12.40    5.90
  -4   0  11    5.50    6.00
  -4   0  11    8.40    6.90
  -4   0  11    4.90    8.00
   3   0 -11    6.90    6.60
   3   0 -11   17.90    5.90
   3   0 -11   20.40    7.50
  -3   0  11    8.70    5.90
  -3   0  11    3.60    6.00
  -3   0  11   13.30    5.90
   2   0 -11  151.28   11.10
   2   0 -11  120.89   12.30
   2   0 -11  123.79   11.20
  -2   0  11  129.29    8.50
  -2   0  11  137.99    8.60
  -2   0  11  140.39   11.60
  -2   0  11  147.39   10.20
  -2   0  11  119.49   11.80
   1   0 -11   84.69   10.50
   1   0 -11   81.39    9.80
   1   0 -11   88.99    6.20
   1   0 -11   71.99    8.60
  -1   0  11   63.29    8.00
  -1   0  11   85.39   10.40
  -1   0  11   92.69    8.10
   0   0 -11    6.90    6.00
   0   0 -11   -3.30    4.70
   0   0 -11    5.90    5.40
   0   0 -11   -1.60    4.00
   0   0  11   -0.80    5.00
   0   0  11   -3.60    3.80
   0   0  11    4.60    5.80
  -1   0 -11  226.78   13.20
  -1   0 -11  207.78   15.00
  -1   0 -11  214.48   13.70
  -1   0 -11  230.08   11.90
   1   0  11  249.68   12.00
   1   0  11  221.78   13.70
   1   0  11  223.58   14.70
  -2   0 -11   92.59    8.20
  -2   0 -11   95.49   10.60
  -2   0 -11  100.09    9.90
   2   0  11   98.69    8.70
   2   0  11   94.09   10.40
   2   0  11   98.39   11.70
  -3   0 -11   85.89   10.10
  -3   0 -11   76.09    6.90
  -3   0 -11   78.89   10.20
   3   0  11   56.09    8.50
   3   0  11   88.89   10.30
   3   0  11   66.09    8.10
  -4   0 -11   44.80    9.70
  -4   0 -11   29.90    4.10
  -4   0 -11   41.90    7.70
   4   0  11   33.10    8.40
   4   0  11   36.20    7.40
   4   0  11   42.80    7.90
  -5   0 -11   26.60    6.70
  -5   0 -11   36.40    7.30
   5   0  11   30.30    8.10
   5   0  11   30.90    8.00
   5   0  11   19.90    8.40
   6  -1 -11    5.60   10.40
   6  -1 -11   -3.40   10.40
  -6   1  11   -3.10    7.60
  -6   1  11   -7.00    6.00
   5  -1 -11    4.90    5.90
   5  -1 -11   15.30    9.90
   5  -1 -11   17.20    9.20
  -5   1  11    1.20    7.30
  -5   1  11   -0.30    5.80
  -5   1  11    1.20    7.90
   4  -1 -11    7.30    7.90
   4  -1 -11   13.80    6.40
  -4   1  11   12.20    5.80
  -4   1  11    9.70    7.20
   3  -1 -11   -3.10    6.10
   3  -1 -11   -4.20    5.70
   3  -1 -11   -9.70    6.60
  -3   1  11   -5.00    5.10
  -3   1  11    3.10    6.00
  -3   1  11   -1.60    5.40
   2  -1 -11   10.00    6.80
   2  -1 -11    2.40    5.40
   2  -1 -11    9.20    5.50
  -2   1  11   12.50    6.10
  -2   1  11   12.40    6.20
  -2   1  11   17.70    4.10
  -2   1  11    6.50    5.70
   1  -1 -11   44.60    5.30
   1  -1 -11   40.80    7.10
   1  -1 -11   27.60    6.50
   1  -1 -11   44.10    5.10
  -1   1  11   33.20    7.10
  -1   1  11   46.90    5.80
  -1   1  11   51.69    6.70
   0  -1 -11    3.80    4.30
   0  -1 -11   -1.80    5.20
   0  -1 -11    1.20    5.10
   0   1  11    8.80    6.00
   0   1  11    0.00    4.20
   0   1  11    1.70    5.00
  -1  -1 -11    0.00    5.20
  -1  -1 -11    0.50    4.30
   1   1  11   -1.60    4.30
   1   1  11   -8.10    5.00
   1   1  11   -2.20    5.70
  -2  -1 -11   24.70    6.00
  -2  -1 -11   29.40    6.00
  -2  -1 -11   25.40    4.40
   2   1  11   20.70    6.80
   2   1  11   33.00    5.40
   2   1  11   12.50    5.90
  -3  -1 -11   64.49    6.20
  -3  -1 -11   76.59    8.30
  -3  -1 -11   79.69    9.90
   3   1  11   76.19    8.10
   3   1  11   54.09    8.50
   3   1  11   58.79    7.30
  -4  -1 -11   -7.40    5.10
   4   1  11   -3.70    6.30
   4   1  11   -3.80    6.90
   4   1  11    4.70    6.70
  -5  -1 -11   -1.40    6.10
  -5  -1 -11   10.30    6.30
   5   1  11   17.30    7.50
   5   1  11   13.00    8.10
   6  -2 -11  -16.10    9.50
   6  -2 -11   11.80   11.10
  -6   2  11   -1.60    8.30
  -6   2  11   -5.10    8.50
   5  -2 -11    9.40    9.90
   5  -2 -11    9.40    9.20
   5  -2 -11    4.60    6.70
  -5   2  11    2.30    7.60
  -5   2  11    2.70    6.90
  -5   2  11    7.50    5.50
   4  -2 -11   -8.40    8.50
   4  -2 -11  -11.30    7.30
  -4   2  11    2.70    7.00
  -4   2  11    2.80    7.00
  -4   2  11   -0.70    5.10
   3  -2 -11    1.80    6.10
   3  -2 -11    2.00    6.30
   3  -2 -11   -4.70    7.20
  -3   2  11   -2.70    5.80
  -3   2  11    7.80    5.30
  -3   2  11   10.20    6.40
   2  -2 -11    8.60    6.70
   2  -2 -11  -10.60    5.10
   2  -2 -11   -6.70    5.10
  -2   2  11   -3.50    3.70
  -2   2  11    1.90    5.30
  -2   2  11    2.20    5.90
  -2   2  11    3.10    5.40
   1  -2 -11   -2.30    5.20
   1  -2 -11   -0.80    3.80
   1  -2 -11   -4.60    5.70
   1  -2 -11    1.40    4.10
   1  -2 -11    7.00    3.00
  -1   2  11   -2.70    5.70
  -1   2  11    8.80    7.80
  -1   2  11    1.60    5.40
   0  -2 -11   20.80    6.00
   0  -2 -11   37.30    5.20
   0  -2 -11   28.70    6.20
   0   2  11   24.30    5.40
   0   2  11   36.00    6.90
   0   2  11   33.30    5.80
  -1  -2 -11   64.39    7.50
  -1  -2 -11   64.69    6.90
  -1  -2 -11   75.29    7.30
   1   2  11   84.19    9.70
   1   2  11   69.79    8.40
   1   2  11   70.29    9.00
  -2  -2 -11    7.40    5.60
  -2  -2 -11    6.60    4.80
  -2  -2 -11   12.20    3.90
   2   2  11   -2.40    6.00
   2   2  11    6.00    5.10
   2   2  11    9.40    5.70
  -3  -2 -11    8.90    5.80
  -3  -2 -11    2.90    2.80
  -3  -2 -11    1.50    5.20
   3   2  11   11.60    7.20
   3   2  11    3.10    6.00
   3   2  11    1.70    5.90
  -4  -2 -11   -2.30    5.10
  -4  -2 -11   -0.20    6.30
   4   2  11   -6.20    6.30
   4   2  11    9.90    7.00
   4   2  11   -7.90    6.80
  -5  -2 -11    7.00    6.20
  -5  -2 -11    0.20    5.80
   5   2  11    2.30    7.40
   5   2  11   -5.00    7.20
   5   2  11   14.10    7.70
   6  -3 -11  -12.30    9.20
  -6   3  11    8.50    9.00
  -6   3  11    5.50    6.10
   5  -3 -11   18.50   10.00
   5  -3 -11   44.00    8.20
   5  -3 -11   53.99   10.20
  -5   3  11   28.20    8.20
  -5   3  11   29.00    9.10
  -5   3  11   22.60    5.80
   4  -3 -11   15.50    8.10
   4  -3 -11   -0.30    8.30
   4  -3 -11   12.40    6.90
  -4   3  11    2.80    5.00
  -4   3  11  -11.60    6.90
  -4   3  11    9.30    6.90
   3  -3 -11   12.10    6.30
   3  -3 -11    0.20    6.50
   3  -3 -11    8.20    7.60
  -3   3  11    7.50    5.10
  -3   3  11   -4.50    5.90
  -3   3  11   15.50    6.70
   2  -3 -11   12.30    5.70
   2  -3 -11    4.40    6.60
   2  -3 -11    1.20    5.50
  -2   3  11    6.50    3.60
  -2   3  11   -8.20    5.30
  -2   3  11   -1.90    5.90
  -2   3  11    1.30    6.00
   1  -3 -11  103.89    6.90
   1  -3 -11   98.49    8.20
   1  -3 -11   86.19    8.90
   1  -3 -11   99.59   10.80
   1  -3 -11   99.39    8.30
  -1   3  11  115.79   10.00
  -1   3  11   87.99   11.70
  -1   3  11  121.09   10.40
   0  -3 -11    8.80    5.50
   0  -3 -11   15.80    4.50
   0  -3 -11   10.80    5.70
   0   3  11    4.40    5.10
   0   3  11    2.70    4.80
   0   3  11   10.70    6.40
  -1  -3 -11   62.49    6.80
  -1  -3 -11   55.99    6.50
  -1  -3 -11   52.99    7.30
   1   3  11   55.39    6.60
   1   3  11   46.80    7.70
   1   3  11   58.29    6.70
  -2  -3 -11    8.80    5.30
  -2  -3 -11   13.30    6.00
  -2  -3 -11   22.10    4.60
   2   3  11   15.20    5.90
   2   3  11   17.80    5.80
   2   3  11   15.60    6.80
  -3  -3 -11   -1.90    5.50
  -3  -3 -11   -2.30    5.60
   3   3  11    3.60    6.70
   3   3  11   11.80    6.60
   3   3  11    2.70    6.70
  -4  -3 -11    2.70    5.50
  -4  -3 -11   14.10    6.10
   4   3  11   -0.20    6.80
   4   3  11   15.00    7.30
   4   3  11   -8.90    7.10
  -5  -3 -11   32.70    7.00
  -5  -3 -11   15.60    6.70
   5   3  11   25.90    9.00
   5   3  11   34.80    8.60
   5   3  11   20.00    8.30
   6  -4 -11    6.20   10.30
  -6   4  11   10.30    8.70
   5  -4 -11   44.40    8.40
   5  -4 -11   34.10    9.90
   5  -4 -11   35.90   10.30
  -5   4  11   33.80    5.50
  -5   4  11   24.10    8.90
  -5   4  11   20.40    8.40
   4  -4 -11    5.60    8.30
   4  -4 -11    7.00    7.00
   4  -4 -11   -3.20    7.50
  -4   4  11    1.00    4.40
  -4   4  11    5.00    6.70
   3  -4 -11   12.00    6.80
   3  -4 -11    8.40    7.60
   3  -4 -11   22.90    6.90
  -3   4  11    2.20    6.50
  -3   4  11    3.90    6.30
  -3   4  11    2.00    6.70
   2  -4 -11   10.20    6.90
   2  -4 -11    9.90    6.30
   2  -4 -11   12.40    3.70
  -2   4  11   16.20    6.30
  -2   4  11   11.00    6.20
  -2   4  11   11.30    3.80
  -2   4  11   11.30    6.60
   1  -4 -11   45.80    7.20
   1  -4 -11   43.10    7.00
   1  -4 -11   32.40    4.70
   1  -4 -11   41.30    5.50
   1  -4 -11   43.50    5.30
  -1   4  11   40.20    7.60
  -1   4  11   43.80    6.50
  -1   4  11   56.19    6.80
   0  -4 -11   29.40    5.50
   0  -4 -11   47.00    6.60
   0  -4 -11   39.00    6.80
   0   4  11   36.40    6.20
   0   4  11   27.40    7.10
   0   4  11   41.50    5.80
  -1  -4 -11   29.00    6.40
  -1  -4 -11   31.80    5.70
  -1  -4 -11   29.50    5.70
   1   4  11   20.80    6.90
   1   4  11   15.30    5.40
   1   4  11   32.70    6.20
  -2  -4 -11   20.20    5.70
  -2  -4 -11   20.80    6.40
  -2  -4 -11   12.20    4.30
   2   4  11    2.20    6.40
   2   4  11   18.00    5.80
   2   4  11   17.90    6.10
  -3  -4 -11    5.20    5.40
   3   4  11    1.40    6.70
   3   4  11    4.80    7.00
  -4  -4 -11   39.00    7.30
  -4  -4 -11   30.10    7.00
   4   4  11   33.60    9.70
   4   4  11   32.20    8.40
   4   4  11   27.30    7.70
  -5  -4 -11    4.00    6.60
  -5  -4 -11    9.10    6.20
   5   4  11   11.40    8.30
   5   4  11    9.90   12.00
   5  -5 -11   59.09   10.10
   5  -5 -11   30.00    8.10
   5  -5 -11   19.60   10.00
  -5   5  11   12.70    7.80
  -5   5  11   10.10    8.70
   4  -5 -11  -11.10    7.40
   4  -5 -11  -10.50    7.90
   4  -5 -11    3.80    8.50
  -4   5  11    3.20    6.80
  -4   5  11    0.90    3.80
  -4   5  11    1.10    7.30
   3  -5 -11   24.40    7.80
   3  -5 -11   41.00    7.80
  -3   5  11   26.40    4.90
  -3   5  11   48.70    8.20
   2  -5 -11   19.20    6.80
   2  -5 -11    8.80    5.70
   2  -5 -11   15.10    4.10
   2  -5 -11    8.90    7.10
  -2   5  11   11.60    6.40
  -2   5  11   13.20    6.70
  -2   5  11   16.70    5.00
   1  -5 -11    2.40    6.00
   1  -5 -11    8.50    6.20
   1  -5 -11   17.40    4.70
   1  -5 -11   10.10    4.60
  -1   5  11    4.00    6.40
  -1   5  11   13.00    9.00
  -1   5  11    6.10    5.70
   0  -5 -11   32.70    5.60
   0  -5 -11   27.50    6.10
   0  -5 -11   21.10    6.40
   0   5  11   20.90    7.00
   0   5  11   23.70    5.40
   0   5  11   23.90    6.10
  -1  -5 -11    0.10    4.90
  -1  -5 -11   -1.50    5.40
  -1  -5 -11    2.60    4.80
   1   5  11   -0.40    5.00
   1   5  11    0.40    6.10
   1   5  11   -7.70    5.40
  -2  -5 -11   32.60    4.80
  -2  -5 -11   21.10    6.10
  -2  -5 -11   36.10    7.00
   2   5  11   30.60    6.80
   2   5  11   13.70    5.90
  -3  -5 -11   75.99    8.50
  -3  -5 -11   39.50    7.40
   3   5  11   62.19    7.90
   3   5  11   49.50    8.80
   3   5  11   56.59    9.00
  -4  -5 -11    0.00    6.20
  -4  -5 -11    6.10    6.20
   4   5  11    0.90    6.80
   4   5  11    9.60    8.40
   4   5  11    3.30    7.70
   5  -6 -11    4.60    8.00
   5  -6 -11   17.40    9.60
   5  -6 -11    8.10    9.10
  -5   6  11   15.80    7.70
  -5   6  11    8.40    8.40
   4  -6 -11   20.50    9.80
   4  -6 -11   12.60    8.00
   4  -6 -11   23.50    9.30
  -4   6  11    5.50    7.70
  -4   6  11    6.70    6.90
   3  -6 -11   -0.10    7.60
   3  -6 -11    1.00    7.00
  -3   6  11    5.20    3.70
  -3   6  11   -1.20    6.60
   2  -6 -11   28.50    7.70
   2  -6 -11   29.80    7.70
   2  -6 -11   32.40    4.60
   2  -6 -11   47.50    6.90
  -2   6  11   23.70    5.00
  -2   6  11   31.40    7.30
  -2   6  11   25.30    7.30
   1  -6 -11   10.20    6.40
   1  -6 -11   10.30    6.30
   1  -6 -11    5.40    4.60
   1  -6 -11    4.10    4.40
  -1   6  11   -5.30    6.70
  -1   6  11    8.30    6.60
  -1   6  11    1.30    5.90
   0  -6 -11   52.39    6.40
   0  -6 -11   36.70    6.60
   0  -6 -11   47.90    7.40
   0   6  11   29.70    7.60
   0   6  11   47.80    5.90
  -1  -6 -11    2.80    5.20
  -1  -6 -11    9.10    5.50
   1   6  11   -2.60    5.90
   1   6  11   -5.50    6.80
   1   6  11   10.70    5.20
  -2  -6 -11   11.90    6.40
  -2  -6 -11   14.90    6.00
   2   6  11   14.70    5.90
   2   6  11   20.60    7.30
   2   6  11   11.10    6.60
  -3  -6 -11   -4.20    5.30
  -3  -6 -11   11.50    6.60
   3   6  11   13.00    6.60
   3   6  11    2.20    7.30
   3   6  11    0.60    7.50
  -4  -6 -11    7.30    6.40
  -4  -6 -11    3.30    6.20
   4   6  11    5.00    8.30
   4   6  11   -4.40    7.30
   4   6  11   -5.80    6.20
   5  -7 -11   -0.10    8.30
   5  -7 -11    2.90    8.80
  -5   7  11    2.90    7.00
   4  -7 -11    9.80    8.80
   4  -7 -11    7.50    8.60
   4  -7 -11   21.50    8.50
  -4   7  11   36.50    8.30
  -4   7  11    5.30    7.00
   3  -7 -11    6.80    7.30
   3  -7 -11    5.70    7.40
   3  -7 -11   10.20    8.20
  -3   7  11    9.10    7.00
  -3   7  11    1.70    6.70
   2  -7 -11   22.70    5.20
   2  -7 -11   18.70    7.60
   2  -7 -11   20.10    7.70
   2  -7 -11   24.40    6.80
  -2   7  11   24.30   11.30
  -2   7  11   22.00    4.40
   1  -7 -11   70.99    8.40
   1  -7 -11   63.79    8.40
   1  -7 -11   55.99    8.50
   1  -7 -11   53.79    7.90
  -1   7  11   52.09    6.20
  -1   7  11   37.10    8.80
  -1   7  11   44.30    7.80
   0  -7 -11   12.20    5.60
   0  -7 -11   18.00    6.70
   0  -7 -11    5.30    5.20
   0   7  11    5.60    4.70
   0   7  11    4.60    6.60
  -1  -7 -11   -0.60    5.90
  -1  -7 -11    2.90    6.40
  -1  -7 -11    1.50    5.30
   1   7  11    6.10    6.50
   1   7  11   -1.00    6.40
   1   7  11    4.90    5.10
  -2  -7 -11   -1.90    5.90
  -2  -7 -11    4.50    5.70
   2   7  11   -2.70    5.40
   2   7  11   -2.20    7.00
   2   7  11   -3.70    6.80
  -3  -7 -11   17.80    6.50
  -3  -7 -11   13.70    6.70
   3   7  11   23.70    6.70
   3   7  11   24.60    8.40
   3   7  11   11.80    8.00
  -4  -7 -11   -0.70    5.90
  -4  -7 -11   -1.10    5.80
   4   7  11   13.60    8.40
   4   7  11   11.00    7.00
   4  -8 -11   -1.00    7.70
   4  -8 -11  -10.80    8.40
   4  -8 -11    3.00    8.80
  -4   8  11   -3.20    7.30
  -4   8  11   -3.00    6.70
   3  -8 -11   13.70    7.80
   3  -8 -11   30.50    8.40
   3  -8 -11   -1.10    8.00
  -3   8  11   10.20    7.60
  -3   8  11   10.20    7.10
   2  -8 -11  162.78   15.10
   2  -8 -11  201.08   13.50
   2  -8 -11  173.68   10.70
  -2   8  11  144.89   14.30
  -2   8  11  170.88   14.50
   1  -8 -11   70.99    8.50
   1  -8 -11   73.09    9.10
   1  -8 -11   78.29    9.00
   1  -8 -11   68.79    7.70
  -1   8  11   49.80    8.60
  -1   8  11   67.19    8.30
   0  -8 -11    5.60    5.70
   0  -8 -11    7.00    6.40
   0  -8 -11    5.20    5.40
   0  -8 -11   11.70    4.40
   0   8  11    2.90    4.70
   0   8  11    4.40    6.90
   0   8  11   -1.70    8.20
  -1  -8 -11    5.90    6.00
  -1  -8 -11   11.80    6.90
   1   8  11    6.90    7.00
   1   8  11   15.10    7.40
   1   8  11   24.20    5.70
  -2  -8 -11    2.80    6.50
  -2  -8 -11   -1.40    5.70
   2   8  11    0.60    7.20
   2   8  11   -3.10    7.10
  -3  -8 -11   -0.60    6.40
  -3  -8 -11    4.00    5.90
   3   8  11    1.90    6.00
   3   8  11   -9.90    7.40
   3   8  11    1.70    7.50
   4  -9 -11   -5.40    8.40
   4  -9 -11   13.90    8.60
   4  -9 -11    4.80    9.10
  -4   9  11    4.70    8.40
  -4   9  11   -2.70    6.70
   3  -9 -11   -8.50    7.20
   3  -9 -11   11.00    8.50
   3  -9 -11   10.80    9.10
  -3   9  11   -4.00    7.20
  -3   9  11    0.10    6.20
   2  -9 -11   84.99    8.60
   2  -9 -11   67.99    9.70
   2  -9 -11   81.09    9.60
   2  -9 -11   74.29   10.00
  -2   9  11   69.89    9.60
   1  -9 -11   -1.70    6.10
   1  -9 -11    5.10    5.20
   1  -9 -11    2.20    6.50
   1  -9 -11   -7.00    6.60
  -1   9  11   -2.00    4.00
  -1   9  11   -5.60    6.70
  -1   9  11    6.30    6.80
   0  -9 -11    8.50    6.70
   0  -9 -11    6.60    5.80
   0   9  11    1.90    4.70
   0   9  11    1.10    6.80
   0   9  11  -10.20    6.30
  -1  -9 -11   45.90    7.50
  -1  -9 -11   16.30    7.20
   1   9  11   35.30    8.10
   1   9  11   27.00    8.20
   1   9  11   28.90    6.10
  -2  -9 -11    5.60    6.30
  -2  -9 -11   -1.80    6.50
   2   9  11   16.70    7.80
   2   9  11   13.00    6.10
   2   9  11   11.50    7.80
  -3  -9 -11   48.00   10.90
  -3  -9 -11   36.60    7.80
   3   9  11   46.60    7.60
   3   9  11   62.39   10.40
   3 -10 -11    9.40    8.30
   3 -10 -11    3.80    8.10
   3 -10 -11    4.10    8.50
  -3  10  11    7.70    6.40
  -3  10  11   12.30    7.90
   2 -10 -11   50.09    8.90
   2 -10 -11   50.59    9.00
   2 -10 -11   45.70    6.00
   2 -10 -11   37.90    8.50
  -2  10  11   34.30    8.60
  -2  10  11   36.70    7.60
   1 -10 -11    0.70    5.30
   1 -10 -11   -1.10    7.20
  -1  10  11    1.50    6.80
  -1  10  11   -9.30    6.30
   0 -10 -11    7.70    6.90
   0 -10 -11   -4.80    5.50
   0 -10 -11   -2.40    5.30
   0  10  11    2.90    7.20
   0  10  11   -6.30    4.50
   0  10  11    2.60    6.90
  -1 -10 -11   30.00    7.00
  -1 -10 -11   36.80    7.90
   1  10  11   19.40    5.90
   1  10  11   31.50    7.90
   1  10  11   19.10    7.60
  -2 -10 -11    9.70    6.70
  -2 -10 -11   -3.90    6.50
   2  10  11    7.90    6.10
   2  10  11   18.70    7.70
   2  10  11   22.40    8.10
   2 -11 -11   -6.00    8.20
   2 -11 -11    3.50    7.20
   2 -11 -11   -4.70    6.90
  -2  11  11  -10.50    5.90
  -2  11  11   -1.40    8.20
   1 -11 -11   -1.80    7.40
   1 -11 -11   11.10    6.80
   1 -11 -11   -0.10    5.30
  -1  11  11   -0.90    6.60
  -1  11  11    5.40    6.60
   0 -11 -11   -7.50    5.50
   0 -11 -11   -8.70    6.70
   0 -11 -11   -1.40    5.40
   0  11  11   -0.40    6.90
   0  11  11   -2.90    6.30
  -1 -11 -11   26.80    7.30
   1  11  11   29.50    8.00
   0  15 -12   25.70    8.20
   0 -15  12   12.90   14.50
   0 -15  12   27.50    8.80
   0 -15  12   24.90    8.20
  -1  15 -12    7.40    7.00
  -1  15 -12   10.30    7.70
   1 -15  12   -3.40    9.50
   1 -15  12    6.40    8.80
   1 -15  12    2.60    6.90
   2  14 -12   37.00    9.50
  -2 -14  12   44.70   10.50
  -2 -14  12   17.20   10.00
   1  14 -12  -16.60    7.00
   1  14 -12    4.00    8.10
  -1 -14  12    7.50    7.70
  -1 -14  12   -0.60    7.30
  -1 -14  12    7.80    9.30
   0  14 -12   46.40    8.70
   0  14 -12   27.80    8.40
   0 -14  12   36.20    8.80
   0 -14  12   44.70   10.10
   0 -14  12   28.10    8.60
  -1  14 -12   -1.80    6.70
  -1  14 -12    6.20    7.10
   1 -14  12    5.50    7.70
   1 -14  12  -10.80    8.10
   1 -14  12    1.80    7.80
  -2  14 -12   -5.00    6.30
   2 -14  12    5.90    9.30
   2 -14  12   -4.20    6.90
   3  13 -12    4.40    7.50
  -3 -13  12    9.70    9.30
  -3 -13  12    8.20    8.40
   2  13 -12    3.20    7.80
   2  13 -12    3.10    8.90
  -2 -13  12   13.30    7.00
  -2 -13  12    5.40    8.30
  -2 -13  12   10.30    9.10
   1  13 -12   -4.80    8.00
   1  13 -12    3.70    7.60
  -1 -13  12    8.30    8.10
  -1 -13  12    5.90    8.70
  -1 -13  12    4.70    7.60
   0  13 -12    5.10    7.50
   0  13 -12   -3.00    7.30
   0 -13  12   -5.40    7.60
   0 -13  12    3.20    8.80
   0 -13  12    0.00    7.50
  -1  13 -12   35.10    7.80
  -1  13 -12   45.20    8.50
   1 -13  12   28.90    8.70
   1 -13  12   40.60    9.70
   1 -13  12   44.30    9.30
  -2  13 -12   27.50    7.00
  -2  13 -12   24.90    7.70
   2 -13  12   41.10    8.60
   2 -13  12   23.60    9.40
   2 -13  12   30.30    9.00
  -3  13 -12   20.60    7.30
   3 -13  12   23.00    8.10
   3  12 -12    8.60   10.40
   3  12 -12   12.00    8.00
  -3 -12  12   -1.00    5.70
  -3 -12  12   17.00    8.90
  -3 -12  12   22.90    8.60
   2  12 -12   -6.70    8.60
   2  12 -12   14.30    8.20
  -2 -12  12    4.00    8.60
  -2 -12  12   -0.70    6.60
  -2 -12  12    7.70    7.70
  -2 -12  12   -0.30    5.80
   1  12 -12   -2.00    7.30
   1  12 -12    0.90    7.70
  -1 -12  12    8.00    8.60
  -1 -12  12   11.30    8.00
  -1 -12  12   14.20    7.30
   0  12 -12   48.60    8.70
   0 -12  12   53.19   10.00
   0 -12  12   44.50    9.40
   0 -12  12   59.39    8.90
  -1  12 -12   37.30    8.20
  -1  12 -12   34.70    8.10
   1 -12  12   35.10    9.00
   1 -12  12   47.80   10.00
  -2  12 -12  -13.20    5.80
  -2  12 -12   -0.90    6.50
   2 -12  12    1.90    8.50
   2 -12  12    7.00    7.80
  -3  12 -12   -3.50    6.50
   3 -12  12  -12.70    7.20
   3 -12  12   -8.40    8.50
   3 -12  12    0.90    7.70
   4  11 -12    5.10    8.60
  -4 -11  12   -5.40    9.10
  -4 -11  12   -6.50    6.20
  -4 -11  12    1.10    8.00
   3  11 -12   -7.70    8.00
   3  11 -12   17.90   10.50
  -3 -11  12   -1.50    8.60
  -3 -11  12   -2.40    5.40
  -3 -11  12   -7.20    5.90
  -3 -11  12    0.00    7.90
   2  11 -12   -1.60    7.20
   2  11 -12    1.10    8.60
  -2 -11  12    1.60    8.60
  -2 -11  12   -5.20    4.30
  -2 -11  12   16.30    6.70
  -2 -11  12    1.10    7.70
   1  11 -12   21.80    8.10
  -1 -11  12   19.60    9.20
  -1 -11  12   20.20    8.20
  -1 -11  12   24.10    4.60
   0  11 -12   -0.60    6.70
   0  11 -12   15.80    7.30
   0 -11  12   13.20    8.00
   0 -11  12   20.10    8.40
  -1  11 -12   10.90    7.00
  -1  11 -12   -3.00    5.90
  -1  11 -12    8.30    6.90
   1 -11  12   19.40    8.30
   1 -11  12   10.30    8.50
  -2  11 -12   26.40    7.50
  -2  11 -12   22.10    6.30
   2 -11  12   34.90    9.30
   2 -11  12   28.70    8.60
  -3  11 -12  187.38   14.20
  -3  11 -12  175.28   13.10
   3 -11  12  161.18   15.20
   3 -11  12  162.08   16.50
  -4  11 -12   -4.40    6.30
  -4  11 -12   -3.40    6.30
   4 -11  12   18.20   14.50
   4 -11  12    2.50    8.10
   4  10 -12   -8.80    8.60
   4  10 -12   -3.50   11.10
   4  10 -12   -2.30    8.60
  -4 -10  12    9.10    7.90
  -4 -10  12    6.20    6.30
  -4 -10  12    2.20    7.90
   3  10 -12    4.40   10.00
   3  10 -12    1.10    8.30
   3  10 -12   -9.80    9.80
  -3 -10  12   -0.80    5.50
  -3 -10  12   -5.00    8.00
  -3 -10  12   -8.20    7.40
  -3 -10  12    5.10    5.80
   2  10 -12   40.80    8.90
  -2 -10  12   50.19    9.50
  -2 -10  12   33.30    8.80
   1  10 -12   63.59    8.80
   1  10 -12   65.49    7.80
   1  10 -12   41.50    8.50
  -1 -10  12   52.59    9.40
  -1 -10  12   70.79    9.90
   0  10 -12   67.69    8.40
   0  10 -12   59.39    8.60
   0  10 -12   62.69    8.40
   0 -10  12   57.39    6.80
   0 -10  12   70.89    9.50
  -1  10 -12    2.30    5.50
  -1  10 -12   -0.10    6.00
   1 -10  12    2.10    3.80
   1 -10  12   14.80    8.30
  -2  10 -12   18.90    5.70
  -2  10 -12   23.80    7.20
  -2  10 -12   34.50    7.50
   2 -10  12   35.10    9.00
   2 -10  12   32.00    8.50
   2 -10  12   15.30    4.40
  -3  10 -12    3.20    5.40
  -3  10 -12   13.00    6.60
  -3  10 -12   17.30    7.30
   3 -10  12    0.70    8.00
   3 -10  12   15.30    8.20
   3 -10  12   17.40    5.30
  -4  10 -12  106.19   11.70
  -4  10 -12  159.78   13.20
   4 -10  12  117.59   15.70
   4 -10  12  142.59   14.60
   4   9 -12   18.20   11.70
   4   9 -12   16.10    8.40
   4   9 -12   16.50    9.20
  -4  -9  12   20.60    8.60
  -4  -9  12    4.10    7.20
  -4  -9  12    9.60    6.40
   3   9 -12   10.70    7.40
   3   9 -12   -9.50    7.80
   3   9 -12    4.90   10.00
  -3  -9  12   -4.80    7.40
  -3  -9  12   13.40    7.70
  -3  -9  12    6.70    5.60
   2   9 -12    7.20    5.60
   2   9 -12   12.50    9.00
   2   9 -12   -0.80    7.30
  -2  -9  12   -6.10    7.30
  -2  -9  12   14.90    7.80
  -2  -9  12    7.70    5.20
   1   9 -12  199.78   19.10
   1   9 -12  218.18   15.40
   1   9 -12  204.78   13.70
  -1  -9  12  201.38   19.10
  -1  -9  12  198.08   15.50
   0   9 -12   61.69    8.40
   0   9 -12   64.49    7.90
   0   9 -12   51.49    7.70
   0  -9  12   58.09    9.00
   0  -9  12   49.90    6.10
   0  -9  12   58.79    8.90
  -1   9 -12    4.50    5.20
  -1   9 -12   -1.50    5.90
  -1   9 -12   -0.40    7.40
   1  -9  12    2.00    4.30
   1  -9  12   -4.70    6.80
   1  -9  12   -8.30    7.00
  -2   9 -12   11.90    7.00
  -2   9 -12   30.00    5.40
  -2   9 -12   18.60    6.70
   2  -9  12   31.50    8.20
   2  -9  12    8.40    5.00
  -3   9 -12   31.50    5.70
  -3   9 -12   42.20    7.40
  -3   9 -12   27.30    7.70
   3  -9  12   15.00    6.20
   3  -9  12   42.90    9.10
   3  -9  12   23.50    8.80
  -4   9 -12   -7.40    5.20
  -4   9 -12    5.00    6.00
  -4   9 -12   -1.40    6.70
   4  -9  12   -3.20    6.00
   4  -9  12   -8.00    7.80
   4  -9  12    6.90    8.40
   5   8 -12    6.00    9.40
   5   8 -12    8.90    9.70
   5   8 -12   14.50   14.20
  -5  -8  12    1.10    6.70
   4   8 -12    1.90    9.20
   4   8 -12    7.40   11.30
   4   8 -12   11.20    8.40
  -4  -8  12    9.30    6.60
  -4  -8  12    4.50    8.20
  -4  -8  12    7.60    6.70
   3   8 -12   43.90    7.50
   3   8 -12   26.90    9.10
  -3  -8  12   34.30    7.90
  -3  -8  12   18.50    6.50
  -3  -8  12   30.70    8.40
   2   8 -12   13.00    5.50
   2   8 -12   15.00    8.80
   2   8 -12   23.40   10.20
  -2  -8  12   21.10    7.60
  -2  -8  12    8.70    5.40
   1   8 -12   20.00    6.00
   1   8 -12   11.40    6.90
   1   8 -12   10.80    6.90
  -1  -8  12    2.60    7.40
  -1  -8  12    9.10    5.00
  -1  -8  12    0.70    6.60
   0   8 -12   12.50    6.60
   0   8 -12   12.60    6.00
   0   8 -12   15.70    6.50
   0  -8  12   14.20    5.50
   0  -8  12   13.00    7.40
   0  -8  12   14.00    7.30
  -1   8 -12   15.80    5.70
  -1   8 -12   22.20    6.60
  -1   8 -12   20.90    6.70
   1  -8  12   15.50    7.50
   1  -8  12   12.10    5.20
   1  -8  12   10.00    6.90
  -2   8 -12    1.40    5.50
  -2   8 -12    8.60    6.00
   2  -8  12    1.00    7.60
   2  -8  12    7.90    7.50
  -3   8 -12   21.70    6.70
  -3   8 -12   13.40    8.60
  -3   8 -12   14.60    6.90
   3  -8  12    9.00    7.70
   3  -8  12    8.30    6.00
   3  -8  12   20.30    8.30
  -4   8 -12   90.79   10.20
  -4   8 -12   72.79    8.70
   4  -8  12   80.39   10.80
   4  -8  12   90.89   11.40
   4  -8  12   89.59   11.30
  -5   8 -12    3.60   10.00
  -5   8 -12  -12.70    5.90
   5  -8  12    8.40    7.60
   5  -8  12    8.90    8.90
   5   7 -12   16.60    9.70
   5   7 -12    1.40    9.50
   5   7 -12   12.20   11.50
  -5  -7  12   14.20    8.30
  -5  -7  12    4.40    7.20
   4   7 -12   -4.60    7.50
   4   7 -12    1.30    9.10
   4   7 -12   16.10   10.80
  -4  -7  12   -1.80    6.30
  -4  -7  12   15.00    7.90
  -4  -7  12    0.70    5.80
   3   7 -12    1.30    6.10
   3   7 -12    5.70    5.50
   3   7 -12   -0.70    9.10
   3   7 -12   -0.60    9.20
  -3  -7  12   -6.20    6.30
  -3  -7  12   -0.90    7.30
  -3  -7  12    2.30    6.00
   2   7 -12    5.70    7.30
   2   7 -12    2.00    5.20
   2   7 -12    3.60    8.10
  -2  -7  12   -5.20    6.80
  -2  -7  12   -1.60    6.40
  -2  -7  12   -2.50    5.10
   1   7 -12    2.80    5.70
   1   7 -12    2.50    6.70
   1   7 -12   -4.80    6.40
  -1  -7  12    7.50    5.40
  -1  -7  12    3.10    6.90
  -1  -7  12   -4.70    6.10
   0   7 -12  170.78   12.90
   0   7 -12  161.98   12.70
   0   7 -12  197.18   19.40
   0  -7  12  151.28   11.10
   0  -7  12  159.38   14.00
   0  -7  12  153.98   13.60
  -1   7 -12  121.89    9.10
  -1   7 -12  125.59   11.20
  -1   7 -12   93.49   11.50
   1  -7  12  115.79   12.10
   1  -7  12   93.19    9.90
   1  -7  12   92.79   10.10
  -2   7 -12    8.10    3.90
  -2   7 -12   16.20    5.90
  -2   7 -12    2.30    6.10
   2  -7  12   11.20    6.70
   2  -7  12   -6.40    7.00
   2  -7  12    4.60    5.70
  -3   7 -12    5.80    3.90
  -3   7 -12    4.20    5.60
  -3   7 -12    1.20    6.50
   3  -7  12    1.60    6.10
   3  -7  12    4.70    7.60
   3  -7  12   12.90    8.20
  -4   7 -12   88.89   10.90
  -4   7 -12   83.59   10.00
   4  -7  12   93.59   10.80
   4  -7  12   63.59    9.10
   4  -7  12   79.49   11.00
  -5   7 -12   17.10    8.10
  -5   7 -12   18.10    6.50
   5  -7  12    2.80    7.50
   5  -7  12    6.10    8.60
   5  -7  12   27.80    9.40
   5   6 -12    5.50   11.50
   5   6 -12    4.80    9.90
   5   6 -12    1.90   11.40
  -5  -6  12   -2.00    8.00
  -5  -6  12   -1.80    7.00
   4   6 -12    7.10   10.20
   4   6 -12   -0.50    4.40
   4   6 -12    6.10    9.10
   4   6 -12    5.40    7.60
  -4  -6  12   -7.10    6.40
  -4  -6  12    7.20    7.70
   3   6 -12    2.40    8.70
   3   6 -12    1.20    5.60
   3   6 -12    7.60    6.00
  -3  -6  12    8.50    6.40
  -3  -6  12    3.20    6.70
   2   6 -12   17.40    7.80
   2   6 -12    9.20    5.50
   2   6 -12   14.40    8.00
  -2  -6  12    6.70    5.60
  -2  -6  12   14.90    6.40
  -2  -6  12   11.90    7.30
   1   6 -12   36.20    7.80
   1   6 -12   37.00    7.50
   1   6 -12   33.10    6.60
  -1  -6  12   35.70    6.90
  -1  -6  12   50.19    8.30
  -1  -6  12   23.60    6.20
   0   6 -12  310.47   15.60
   0   6 -12  294.77   16.90
   0   6 -12  295.97   16.70
   0  -6  12  288.07   16.20
   0  -6  12  314.67   17.30
   0  -6  12  297.47   17.50
  -1   6 -12    1.60    5.50
  -1   6 -12   -2.10    3.90
  -1   6 -12   -0.80    5.40
   1  -6  12   -0.60    6.50
   1  -6  12   -1.50    5.40
   1  -6  12    1.00    5.90
  -2   6 -12   99.19   10.00
  -2   6 -12   94.29    6.80
  -2   6 -12   87.99   10.90
   2  -6  12   82.79    9.30
   2  -6  12   78.69    8.40
   2  -6  12   88.39    9.80
  -3   6 -12    6.10    6.40
  -3   6 -12   -4.00    4.80
   3  -6  12    6.70    7.10
   3  -6  12   -6.00    6.20
  -4   6 -12   10.00    7.20
  -4   6 -12   -0.80    5.20
   4  -6  12   13.90    8.40
   4  -6  12   -4.50    7.60
   4  -6  12   -3.20    7.00
  -5   6 -12   96.59   11.00
  -5   6 -12   73.49   10.00
   5  -6  12   75.39   11.00
   5  -6  12   86.59   11.30
   5   5 -12   -5.80    9.60
   5   5 -12   17.10   11.80
  -5  -5  12    7.20    7.50
  -5  -5  12    6.60    8.10
   4   5 -12   15.60    4.90
   4   5 -12    9.10    9.20
   4   5 -12    8.90    7.30
   4   5 -12   11.90   11.80
  -4  -5  12    3.90    4.20
  -4  -5  12    3.70    6.70
  -4  -5  12   -2.60    7.20
   3   5 -12   88.79   10.10
   3   5 -12   68.89    9.80
   3   5 -12   61.69    9.90
   3   5 -12   60.99    7.00
  -3  -5  12   66.69    7.30
  -3  -5  12   53.79    8.70
  -3  -5  12   50.69    8.60
   2   5 -12   42.10    5.00
   2   5 -12   32.80    8.00
   2   5 -12   43.80    8.20
   2   5 -12   31.70    6.50
  -2  -5  12   24.90    7.70
  -2  -5  12   32.20    7.00
  -2  -5  12   32.40    7.20
   1   5 -12    6.50    7.10
   1   5 -12   -2.40    5.80
   1   5 -12    8.30    6.60
  -1  -5  12    6.30    5.80
  -1  -5  12   18.60    7.10
  -1  -5  12    7.20    5.70
   0   5 -12   35.70    7.10
   0   5 -12   48.80    5.70
   0   5 -12   37.50    7.30
   0  -5  12   39.50    7.00
   0  -5  12   43.80    6.90
   0  -5  12   40.70    7.50
  -1   5 -12    6.00    5.40
  -1   5 -12    6.50    3.40
  -1   5 -12    5.00    5.80
   1  -5  12    6.60    5.80
   1  -5  12   -3.60    6.30
   1  -5  12   -0.90    6.20
  -2   5 -12    3.20    5.60
  -2   5 -12    3.70    5.00
   2  -5  12    3.50    6.00
   2  -5  12    2.50    6.50
   2  -5  12   -3.40    6.40
  -3   5 -12  136.29   10.80
   3  -5  12  136.29   12.70
  -4   5 -12   -4.90    4.90
  -4   5 -12  -10.10    6.30
   4  -5  12    5.90    7.10
   4  -5  12    5.10    7.60
   4  -5  12   15.60    8.20
  -5   5 -12   23.60    8.60
  -5   5 -12   44.60    8.80
   5  -5  12   14.50    8.70
   5  -5  12   30.30    8.70
   5  -5  12   23.00    9.60
   5   4 -12    4.10    9.80
   5   4 -12    6.60   11.20
  -5  -4  12    6.90    7.30
  -5  -4  12    0.60    7.50
   4   4 -12    3.40    4.80
   4   4 -12   -5.80    8.70
   4   4 -12   11.60    7.40
  -4  -4  12    2.20    7.30
  -4  -4  12   16.90    7.30
   3   4 -12    1.70    7.70
   3   4 -12    0.60    5.40
   3   4 -12    9.60    8.30
  -3  -4  12    6.70    6.20
  -3  -4  12    1.90    6.90
  -3  -4  12    1.20    5.50
   2   4 -12   -9.20    6.60
   2   4 -12    6.20    4.30
   2   4 -12   -0.20    6.80
   2   4 -12    2.30    4.60
   2   4 -12    5.20    5.50
  -2  -4  12    3.70    5.30
  -2  -4  12   -0.10    6.70
  -2  -4  12    4.90    6.00
   1   4 -12   47.70    7.70
   1   4 -12   46.70    6.90
   1   4 -12   47.40    7.10
  -1  -4  12   45.30    7.10
  -1  -4  12   30.50    6.40
  -1  -4  12   39.60    7.70
   0   4 -12    6.60    4.30
   0   4 -12    0.50    5.40
   0   4 -12   -4.90    5.90
   0  -4  12    4.60    6.50
   0  -4  12   -0.70    3.70
   0  -4  12   -0.10    5.80
   0  -4  12    1.60    5.50
  -1   4 -12    8.10    5.30
  -1   4 -12   -1.70    5.40
   1  -4  12    0.60    5.80
   1  -4  12    6.70    6.40
   1  -4  12    6.20    6.00
  -2   4 -12    6.10    5.70
  -2   4 -12    6.60    5.00
   2  -4  12    1.80    5.90
   2  -4  12   11.40    6.30
   2  -4  12   12.20    6.50
  -3   4 -12   28.80    5.60
  -3   4 -12   22.10   11.00
   3  -4  12   17.70    7.30
  -4   4 -12    4.20    7.00
  -4   4 -12    2.70    4.90
   4  -4  12    5.90    9.90
   4  -4  12    1.60    7.40
  -5   4 -12   51.59    8.80
  -5   4 -12   33.40    6.10
   5  -4  12   22.80    8.90
   5  -4  12   32.60    9.20
   6   3 -12   -7.50    9.50
  -6  -3  12  -14.40    6.90
  -6  -3  12   14.60    8.90
   5   3 -12    9.00   10.30
   5   3 -12    6.20   10.80
  -5  -3  12   -2.70    7.10
  -5  -3  12    0.10    7.60
   4   3 -12    7.60    9.50
   4   3 -12   -0.10    7.20
   4   3 -12   16.40    9.30
  -4  -3  12   -1.40    8.10
  -4  -3  12   -8.10    6.60
   3   3 -12   16.80    5.80
   3   3 -12    2.30    7.80
   3   3 -12   18.50    8.00
  -3  -3  12   11.50    7.10
  -3  -3  12   11.90    5.00
  -3  -3  12    8.00    6.40
   2   3 -12   54.19    8.50
   2   3 -12   44.10    7.80
   2   3 -12   62.89    7.50
  -2  -3  12   59.19    7.90
  -2  -3  12   64.19    8.20
  -2  -3  12   72.09    8.40
   1   3 -12  268.87   15.40
   1   3 -12  289.67   16.20
   1   3 -12  264.37   15.00
  -1  -3  12  228.58   15.50
  -1  -3  12  307.97   20.60
  -1  -3  12  256.47   16.30
   0   3 -12   13.20    5.90
   0   3 -12    3.30    6.00
   0   3 -12    0.50    3.80
   0  -3  12    5.10    6.40
   0  -3  12    6.60    6.00
   0  -3  12    6.10    5.50
  -1   3 -12   19.60    5.90
  -1   3 -12   21.90    6.00
   1  -3  12   13.50    6.10
   1  -3  12   17.80    6.40
  -2   3 -12    6.80    5.80
  -2   3 -12   13.20    4.80
   2  -3  12   11.50    6.40
   2  -3  12    5.70    6.40
  -3   3 -12   43.50    5.80
  -3   3 -12   42.10    8.00
   3  -3  12   33.90    7.90
  -4   3 -12   18.90    6.60
  -4   3 -12   14.70    7.40
  -4   3 -12    7.10    4.80
   4  -3  12   11.60   10.70
   4  -3  12   14.30    6.30
   4  -3  12   12.90    7.60
  -5   3 -12    8.70    5.00
  -5   3 -12   15.50    7.50
  -5   3 -12   16.60    7.30
   5  -3  12   11.40    8.50
   5  -3  12   10.90    8.70
   6   2 -12   10.50   10.20
  -6  -2  12   -9.10    9.40
  -6  -2  12   14.10    7.40
   5   2 -12    2.80   10.80
   5   2 -12    6.30    9.90
   5   2 -12   -3.40   10.20
  -5  -2  12    1.30    7.30
  -5  -2  12    7.20    7.50
   4   2 -12    4.50    8.90
   4   2 -12    6.90    8.90
   4   2 -12    4.10    5.60
  -4  -2  12   13.90    7.10
  -4  -2  12   11.80    7.50
   3   2 -12   16.00    8.10
   3   2 -12   17.80    6.10
   3   2 -12   17.60    8.10
  -3  -2  12    4.60    3.30
  -3  -2  12   38.10    6.70
  -3  -2  12    9.20    6.80
  -3  -2  12   14.30    4.60
  -3  -2  12   13.40    6.80
   2   2 -12   37.30    6.80
   2   2 -12   42.40    8.00
   2   2 -12   33.80    8.70
  -2  -2  12   50.59    7.70
  -2  -2  12   27.90    7.30
  -2  -2  12   41.10    5.50
  -2  -2  12   50.49    5.90
   1   2 -12   12.50    5.40
   1   2 -12   14.30    6.90
   1   2 -12    9.40    5.80
  -1  -2  12   16.30    4.10
  -1  -2  12    3.10    6.20
  -1  -2  12    8.90    5.60
  -1  -2  12   12.50    6.50
   0   2 -12   24.80    6.30
   0   2 -12   18.20    6.40
   0  -2  12    2.50    6.20
   0  -2  12   20.50    5.80
   0  -2  12   10.80    6.50
  -1   2 -12  109.89   11.20
  -1   2 -12  115.69   10.50
  -1   2 -12  129.29   10.80
   1  -2  12   89.09   11.60
   1  -2  12  119.89   11.50
  -2   2 -12    2.40    5.30
  -2   2 -12    9.80    5.70
  -2   2 -12    1.70    4.40
   2  -2  12    0.70    6.10
   2  -2  12   -2.30    6.10
  -3   2 -12    1.30    4.10
  -3   2 -12   -0.10    5.90
   3  -2  12   -0.10    4.20
   3  -2  12    9.20    7.00
  -4   2 -12   -3.20    6.00
  -4   2 -12    2.20    4.30
  -4   2 -12   -2.10    6.10
   4  -2  12   -1.80    7.10
   4  -2  12   -2.20    7.30
  -5   2 -12    2.30    6.80
  -5   2 -12   18.00    7.00
  -5   2 -12   14.40    7.30
   5  -2  12    9.70    8.60
   5  -2  12   15.70    6.80
   5  -2  12   20.50    8.40
   6   1 -12   16.30    9.90
  -6  -1  12    4.50    6.70
  -6  -1  12    6.40    8.60
   5   1 -12   -2.30    9.40
   5   1 -12    9.60    9.80
  -5  -1  12   -6.90    6.70
  -5  -1  12   -4.00    7.30
   4   1 -12   25.10    9.00
   4   1 -12   25.60    6.20
   4   1 -12    6.50    9.00
  -4  -1  12   17.70    7.70
  -4  -1  12   12.20    7.70
  -4  -1  12   29.40    7.30
   3   1 -12   18.20    6.30
   3   1 -12   24.10    8.20
   3   1 -12    7.80    7.00
  -3  -1  12    9.90    6.50
  -3  -1  12   10.20    6.90
  -3  -1  12   18.90    6.10
   2   1 -12   62.79   12.70
   2   1 -12   62.29    7.50
   2   1 -12   50.49    8.40
  -2  -1  12   63.79    8.00
  -2  -1  12   45.70    5.50
  -2  -1  12   53.09    7.70
  -2  -1  12   37.50    7.50
   1   1 -12    3.70    5.00
   1   1 -12    3.70    5.20
   1   1 -12    5.30    5.40
   1   1 -12   17.30    6.50
   1   1 -12   -1.50    3.50
  -1  -1  12    4.90    6.50
  -1  -1  12    8.00    5.00
  -1  -1  12   -0.90    4.20
  -1  -1  12    6.80    6.10
   0   1 -12   -3.90    5.20
   0   1 -12   11.20    6.00
   0  -1  12   -1.90    5.70
   0  -1  12   -1.00    5.90
   0  -1  12   -0.90    3.80
  -1   1 -12  192.58   12.90
  -1   1 -12  201.08   13.90
  -1   1 -12  187.58   11.80
  -1   1 -12  210.28   13.20
   1  -1  12  197.48   14.20
   1  -1  12  209.88   10.50
   1  -1  12  222.38   13.70
  -2   1 -12   63.99    7.80
  -2   1 -12   43.50    7.10
  -2   1 -12   43.70    7.10
   2  -1  12   44.20    5.20
   2  -1  12   38.20    7.30
   2  -1  12   37.40    7.60
  -3   1 -12    8.50    4.10
  -3   1 -12    5.60    6.00
   3  -1  12    7.40    4.90
   3  -1  12   11.20    7.10
  -4   1 -12   21.10    7.00
  -4   1 -12   21.90    4.50
  -4   1 -12   16.20    7.10
   4  -1  12   25.90    7.80
   4  -1  12   20.30    8.20
   4  -1  12   17.70    6.70
  -5   1 -12   -3.80    6.30
  -5   1 -12   -0.50    6.20
   5  -1  12   -2.00    7.80
   5  -1  12   -3.00    7.50
   5  -1  12    7.30    6.80
  -6   0  12   -3.40    7.20
  -6   0  12    3.60    6.60
   5   0 -12   15.90   10.70
   5   0 -12   17.40   10.60
   5   0 -12   22.50    6.30
  -5   0  12   25.90    8.80
  -5   0  12    9.90    7.70
   4   0 -12    1.90    8.50
   4   0 -12    2.60    6.20
   4   0 -12   -3.00    8.70
  -4   0  12    1.40    6.30
  -4   0  12    5.20    7.00
  -4   0  12   -0.40    6.80
   3   0 -12   -4.70    6.00
   3   0 -12    4.40    7.10
   3   0 -12   -3.30    7.50
  -3   0  12   -0.90    6.20
  -3   0  12   -0.80    5.70
  -3   0  12    7.40    6.10
   2   0 -12    3.80    5.90
   2   0 -12    7.50    7.10
   2   0 -12   15.60    6.20
  -2   0  12    0.30    6.00
  -2   0  12    6.00    4.00
  -2   0  12    5.40    4.10
  -2   0  12    9.00    6.50
   1   0 -12    7.50    6.40
   1   0 -12   -1.40    3.10
   1   0 -12    6.30    5.90
   1   0 -12    2.60    4.70
  -1   0  12   -8.90    5.70
  -1   0  12    9.20    6.50
  -1   0  12   -1.70    4.60
   0   0 -12   13.40    5.90
   0   0 -12    9.90    6.10
   0   0 -12   19.20    5.10
   0   0  12    4.00    4.50
   0   0  12    9.00    6.00
   0   0  12    4.70    6.20
  -1   0 -12   11.50    5.50
  -1   0 -12    3.50    5.40
  -1   0 -12    2.80    4.90
   1   0  12   11.20    5.90
   1   0  12   12.00    4.50
   1   0  12   13.10    6.50
  -2   0 -12   36.80    5.10
  -2   0 -12   26.10    6.10
  -2   0 -12   20.80    6.40
   2   0  12   24.70    7.00
   2   0  12   27.30    6.50
   2   0  12   29.40    5.10
  -3   0 -12   46.20    9.60
  -3   0 -12   36.90    7.90
  -3   0 -12   30.50    7.80
   3   0  12   31.80    9.90
   3   0  12   30.70   10.30
  -4   0 -12   31.50    4.30
  -4   0 -12   19.80    6.90
  -4   0 -12   40.60    7.60
   4   0  12   31.40    7.60
   4   0  12   34.90    8.20
   4   0  12   33.70    8.80
  -5   0 -12    2.60    6.50
  -5   0 -12   -4.40    5.90
   5   0  12    2.10    7.30
   5   0  12  -10.30    6.70
   5   0  12   -1.90    7.80
   6  -1 -12   19.10   12.10
  -6   1  12    8.00    6.90
  -6   1  12    3.90    7.60
   5  -1 -12    1.20    6.40
   5  -1 -12   -5.50    9.90
   5  -1 -12   -4.70    8.90
  -5   1  12   -3.50    7.40
  -5   1  12    6.90    8.00
  -5   1  12    1.70    6.00
   4  -1 -12    8.60    6.60
   4  -1 -12   -8.60    8.00
   4  -1 -12   -4.70    8.30
  -4   1  12    6.20    7.10
  -4   1  12    0.40    5.90
  -4   1  12    0.10    7.40
   3  -1 -12    3.50    7.70
   3  -1 -12    5.10    6.30
   3  -1 -12    7.30    6.90
  -3   1  12   -1.40    5.90
  -3   1  12    2.20    6.50
  -3   1  12    1.20    5.90
   2  -1 -12   19.40    6.50
   2  -1 -12   31.60    8.00
   2  -1 -12   17.90    6.30
  -2   1  12   19.00    4.60
  -2   1  12   17.50    6.90
  -2   1  12   23.10    5.90
  -2   1  12   22.20    6.50
  -2   1  12   17.00    4.00
   1  -1 -12   13.40    4.90
   1  -1 -12   21.60    6.40
   1  -1 -12   23.30    7.00
   1  -1 -12   15.00    4.80
   1  -1 -12   17.10    3.40
  -1   1  12   15.80    6.70
  -1   1  12   17.90    6.20
  -1   1  12   29.80    5.70
   0  -1 -12   73.19    8.30
   0  -1 -12   95.79    9.10
   0  -1 -12   87.69   10.40
   0   1  12   95.99    8.80
   0   1  12   69.99    7.70
   0   1  12   90.69   11.70
  -1  -1 -12   11.90    5.50
  -1  -1 -12    7.30    4.90
  -1  -1 -12   10.00    5.90
   1   1  12    2.50    4.80
   1   1  12    5.90    5.50
   1   1  12   12.30    6.50
  -2  -1 -12   46.20    6.80
  -2  -1 -12   35.20    5.60
  -2  -1 -12   54.39    7.50
   2   1  12   49.99    7.30
   2   1  12   36.90    7.70
   2   1  12   41.80    9.10
  -3  -1 -12    2.80    3.50
  -3  -1 -12    9.20    5.90
   3   1  12    2.80    6.70
   3   1  12   -5.80    5.30
   3   1  12    2.80    7.00
  -4  -1 -12    8.10    6.40
  -4  -1 -12    2.70    5.90
   4   1  12    6.00    6.90
   4   1  12    1.60    7.40
   4   1  12    8.10    7.20
  -5  -1 -12   -8.50    6.10
  -5  -1 -12   -0.40    8.10
   5   1  12   11.60    8.50
   5   1  12    1.00   11.80
   5   1  12    0.20    7.00
   5  -2 -12   -5.60    9.70
   5  -2 -12   -9.20    8.50
   5  -2 -12    0.30    6.70
  -5   2  12    5.90    5.70
  -5   2  12   -0.50    8.10
  -5   2  12   13.80    7.70
   4  -2 -12   -2.80    8.80
   4  -2 -12   -0.50    8.10
   4  -2 -12   -1.30    6.90
  -4   2  12   -4.60    6.60
  -4   2  12    3.80    7.50
  -4   2  12   11.70    5.70
   3  -2 -12    6.00    6.50
   3  -2 -12    3.70    8.00
   3  -2 -12  -10.60    6.30
  -3   2  12    2.70    6.30
  -3   2  12   -4.70    5.50
   2  -2 -12    0.60    7.00
   2  -2 -12   -0.10    6.00
   2  -2 -12    0.30    6.00
  -2   2  12   -2.30    6.10
  -2   2  12   -3.90    5.70
  -2   2  12   -7.00    5.50
  -2   2  12    4.10    4.00
  -2   2  12    6.80    4.00
   1  -2 -12   -2.00    5.70
   1  -2 -12   10.30    4.30
   1  -2 -12    3.00    3.40
   1  -2 -12   -4.30    6.00
   1  -2 -12   -1.90    5.50
  -1   2  12   -1.10    5.30
  -1   2  12    5.70    6.40
  -1   2  12    3.40    5.80
   0  -2 -12   -9.50    5.00
   0  -2 -12   -3.90    4.40
   0  -2 -12   -6.10    5.30
   0   2  12   -0.70    5.30
   0   2  12   -4.90    6.00
  -1  -2 -12   67.39    7.90
  -1  -2 -12   72.59    9.20
  -1  -2 -12   89.89    9.50
   1   2  12   70.89    8.10
   1   2  12   56.69    7.40
   1   2  12   55.89    8.30
  -2  -2 -12    8.80    4.70
  -2  -2 -12    8.50    5.40
  -2  -2 -12    9.10    6.00
   2   2  12    9.60    6.00
   2   2  12    8.40    6.70
   2   2  12   15.60    5.30
  -3  -2 -12    9.80    5.70
  -3  -2 -12   10.60    6.40
  -3  -2 -12    5.10    3.20
   3   2  12    1.40    6.10
   3   2  12   11.60    6.80
   3   2  12    0.70    6.90
  -4  -2 -12    8.10    6.00
  -4  -2 -12   22.50    6.60
   4   2  12   22.40    7.80
   4   2  12   27.60    8.70
   4   2  12   27.80    7.90
  -5  -2 -12    6.70    6.40
  -5  -2 -12    4.50    6.50
   5   2  12    1.50    7.40
   5   2  12    0.10    9.40
   5  -3 -12    9.40   10.00
   5  -3 -12    1.60    9.10
   5  -3 -12   -9.60    7.00
  -5   3  12   -1.70    7.30
  -5   3  12   17.50    8.70
  -5   3  12   -8.10    5.20
   4  -3 -12   10.20    8.30
   4  -3 -12    4.20    7.20
   4  -3 -12    1.30    9.00
  -4   3  12    7.00    9.90
  -4   3  12    9.20    7.10
  -4   3  12  -13.10    5.00
   3  -3 -12   17.10    7.20
   3  -3 -12   28.20    7.60
  -3   3  12   13.60    8.70
  -3   3  12   11.10    5.70
  -3   3  12   21.00    7.10
   2  -3 -12    3.00    6.40
   2  -3 -12    0.70    6.80
  -2   3  12    6.40    6.70
  -2   3  12   -1.50    6.00
  -2   3  12    7.10    5.70
   1  -3 -12   -5.40    3.90
   1  -3 -12   -0.40    4.50
   1  -3 -12   -1.30    3.40
   1  -3 -12    2.20    6.30
   1  -3 -12   -0.70    5.80
  -1   3  12    1.90    6.40
  -1   3  12   -1.60    5.40
  -1   3  12    5.00    5.90
   0  -3 -12    1.30    5.60
   0  -3 -12   12.00    4.90
   0  -3 -12   -2.60    5.40
   0   3  12   -1.80    6.30
   0   3  12    0.20    5.00
   0   3  12    2.70    5.30
  -1  -3 -12    8.10    5.10
  -1  -3 -12   -2.60    5.40
  -1  -3 -12    2.10    5.20
   1   3  12   -3.30    5.00
   1   3  12    3.20    6.30
   1   3  12   -0.30    5.50
  -2  -3 -12   10.20    5.60
  -2  -3 -12    5.10   10.90
  -2  -3 -12    6.60    4.00
   2   3  12    1.10    5.40
   2   3  12    3.60    6.00
  -3  -3 -12   38.20    7.20
  -3  -3 -12   33.10    7.50
   3   3  12   21.90    8.10
   3   3  12   49.90    7.80
   3   3  12   30.50    7.40
  -4  -3 -12   21.20    6.90
  -4  -3 -12   10.80    6.40
   4   3  12   28.00    7.80
   4   3  12    8.90    8.10
   5  -4 -12   28.20   10.00
   5  -4 -12   30.60    8.20
   5  -4 -12   30.00   10.60
  -5   4  12   11.50    7.80
  -5   4  12   11.10    5.70
  -5   4  12    4.20    8.30
   4  -4 -12    4.60    9.10
  -4   4  12    5.10    7.80
  -4   4  12    5.40    7.20
  -4   4  12    2.80    4.90
   3  -4 -12   -2.90    6.80
   3  -4 -12   -8.00    6.90
   3  -4 -12   -1.00    8.20
  -3   4  12   -4.80    6.60
  -3   4  12    7.80    5.20
  -3   4  12    4.40    7.00
   2  -4 -12   89.29   11.70
   2  -4 -12   83.99   10.20
   2  -4 -12   82.29    9.70
   2  -4 -12   86.29    7.50
  -2   4  12   94.19   11.50
  -2   4  12   65.79    9.30
  -2   4  12   88.59   10.10
   1  -4 -12   10.20    4.30
   1  -4 -12    8.00    4.50
   1  -4 -12   14.80    7.00
   1  -4 -12    7.60    6.30
   1  -4 -12   -0.10    4.20
  -1   4  12    4.90    5.60
  -1   4  12    9.50    6.80
  -1   4  12   10.40    6.00
   0  -4 -12   31.40    5.60
   0  -4 -12   31.60    7.10
   0  -4 -12   43.10    6.90
   0   4  12   31.00    7.80
   0   4  12   36.90    6.60
   0   4  12   38.50    6.20
  -1  -4 -12    6.50    5.20
  -1  -4 -12    6.60    6.20
  -1  -4 -12    6.80    5.50
   1   4  12    1.10    5.60
   1   4  12    2.80    6.70
   1   4  12    1.30    5.50
  -2  -4 -12   65.09    8.50
  -2  -4 -12   78.39    8.30
  -2  -4 -12   49.99   11.20
   2   4  12   96.69   10.90
   2   4  12   93.89   11.00
   2   4  12   69.69    9.40
  -3  -4 -12   32.30    7.20
  -3  -4 -12   38.00    7.40
   3   4  12   25.40    8.30
   3   4  12   38.40    7.60
   3   4  12   36.10    7.80
  -4  -4 -12   66.09    8.70
  -4  -4 -12   54.09    7.90
   4   4  12   61.39    9.00
   4   4  12   52.19    9.30
   4   4  12   69.89   10.60
   5  -5 -12    3.30    9.40
   5  -5 -12    4.70    7.90
  -5   5  12   -1.70    8.10
  -5   5  12    4.40    7.80
   4  -5 -12   15.80    7.80
   4  -5 -12    1.10    8.30
   4  -5 -12   -1.00    9.10
  -4   5  12    2.00    7.00
  -4   5  12    2.40    5.70
  -4   5  12   -7.70    7.40
   3  -5 -12   50.19    9.60
   3  -5 -12   68.39    8.70
   3  -5 -12   45.40    9.30
  -3   5  12   70.19    8.60
  -3   5  12   49.60    8.80
   2  -5 -12   23.20    4.40
   2  -5 -12    8.70    7.70
   2  -5 -12   17.20    6.30
  -2   5  12   22.50    7.20
  -2   5  12   12.10    7.80
  -2   5  12   20.90    5.60
   1  -5 -12    3.20    6.40
   1  -5 -12    3.30    4.30
   1  -5 -12   -1.60    7.90
   1  -5 -12   -2.50    4.40
  -1   5  12   -2.20    7.50
  -1   5  12    1.80    5.60
  -1   5  12   12.70    6.50
   0  -5 -12  220.78   13.50
   0  -5 -12  200.38   13.90
   0   5  12  200.68   13.20
   0   5  12  211.78   14.20
  -1  -5 -12  100.09    9.90
  -1  -5 -12  111.59   11.80
  -1  -5 -12  110.79   10.90
   1   5  12   74.29    9.60
   1   5  12   95.99   11.60
   1   5  12  127.79   11.20
  -2  -5 -12   10.00    6.50
  -2  -5 -12   -0.60    4.40
  -2  -5 -12    4.20    5.70
   2   5  12   13.20    7.40
   2   5  12    5.60    7.30
   2   5  12   10.80    6.50
  -3  -5 -12   42.30    8.10
  -3  -5 -12   45.50    7.90
   3   5  12   70.79    9.60
   3   5  12   46.10    9.10
  -4  -5 -12   21.50    9.20
  -4  -5 -12   -1.50    6.40
   4   5  12   -4.70    7.30
   4   5  12   -2.40    6.70
   4   5  12   -6.50    9.60
   5  -6 -12   15.30    9.10
   5  -6 -12   -2.10    7.90
   5  -6 -12  -11.50    9.00
   4  -6 -12    5.50    9.10
   4  -6 -12   14.50    8.20
   4  -6 -12   -1.60    7.80
  -4   6  12    3.50    7.20
  -4   6  12   10.50    7.80
   3  -6 -12    4.20    7.40
   3  -6 -12    9.10    7.70
   3  -6 -12   15.50    8.50
  -3   6  12    9.90    4.40
  -3   6  12   21.60    8.10
  -3   6  12    6.50    7.20
   2  -6 -12   66.09    7.60
   2  -6 -12   55.49    5.90
   2  -6 -12   52.29    8.50
  -2   6  12   66.69   14.10
  -2   6  12   45.70    8.70
   1  -6 -12   -2.40    6.30
   1  -6 -12    0.80    4.50
   1  -6 -12    1.60    6.40
   1  -6 -12   -2.60    4.50
  -1   6  12    4.10    7.00
  -1   6  12    0.80    5.40
  -1   6  12    4.70    6.70
   0  -6 -12   10.90    6.20
   0  -6 -12   14.50    6.70
   0  -6 -12   14.20    5.60
   0   6  12   16.70    7.40
   0   6  12   26.90    6.90
   0   6  12   11.80    5.70
  -1  -6 -12   17.70    7.00
  -1  -6 -12   21.00    8.30
  -1  -6 -12   24.10    5.70
   1   6  12   25.30    6.30
   1   6  12   24.60    7.00
   1   6  12   13.10    7.20
  -2  -6 -12    6.90    6.40
  -2  -6 -12    7.50    5.90
   2   6  12    5.10    7.70
  -3  -6 -12   36.00    7.10
  -3  -6 -12   29.00    7.50
   3   6  12   18.90    8.10
   3   6  12   20.60    7.70
   3   6  12   15.90    6.80
   4  -7 -12   -7.70    8.20
   4  -7 -12    4.70    9.20
   4  -7 -12   14.20    8.50
  -4   7  12    3.50    8.20
  -4   7  12   -9.20    6.40
   3  -7 -12    9.00    8.00
   3  -7 -12   21.40    8.10
   3  -7 -12    5.80    8.30
  -3   7  12   24.20    8.20
  -3   7  12   10.30    7.40
   2  -7 -12   12.60    4.90
   2  -7 -12   13.20    7.10
   2  -7 -12   22.90    8.10
   2  -7 -12   12.70    7.60
  -2   7  12    8.90    4.60
  -2   7  12   14.40    7.70
  -2   7  12    0.70    7.00
   1  -7 -12    4.40    4.90
   1  -7 -12    2.70    5.10
   1  -7 -12   12.60    7.00
   1  -7 -12   -1.40    6.60
  -1   7  12    7.20    9.00
  -1   7  12   -1.20    5.20
  -1   7  12    9.20    7.50
   0  -7 -12    4.10    5.30
   0  -7 -12   -3.90    5.80
   0  -7 -12   -2.50    6.20
   0   7  12   -5.90    7.00
   0   7  12  -10.80    5.10
  -1  -7 -12   58.79    8.60
  -1  -7 -12   49.30    7.60
  -1  -7 -12   62.89    6.70
   1   7  12   46.20    8.80
   1   7  12   45.10    7.10
   1   7  12   62.89    8.60
  -2  -7 -12   27.20    7.50
  -2  -7 -12   35.10    7.20
   2   7  12   36.90    6.80
   2   7  12   16.10    7.60
   2   7  12   22.40    8.30
  -3  -7 -12   47.30    7.90
  -3  -7 -12   65.69    8.90
   3   7  12   60.49    8.30
   3   7  12   42.60    9.20
   3   7  12   59.29    9.20
   4  -8 -12   55.09   10.40
   4  -8 -12   12.60    9.10
  -4   8  12   31.50    8.00
  -4   8  12   33.60   10.40
   3  -8 -12    2.20    8.10
   3  -8 -12    4.20    8.00
  -3   8  12    3.30    7.10
  -3   8  12   14.80    8.00
   2  -8 -12    1.50    4.30
   2  -8 -12   -1.40    7.30
   2  -8 -12    2.80    7.30
   2  -8 -12   17.70    7.20
  -2   8  12    6.30    7.60
  -2   8  12    5.80    7.00
   1  -8 -12  -11.20    6.40
   1  -8 -12   -3.10    4.90
   1  -8 -12   12.00    7.90
   1  -8 -12   -5.10    6.80
  -1   8  12   11.90    7.20
  -1   8  12   -9.00    6.70
  -1   8  12   -5.10    5.90
   0  -8 -12  139.49   13.90
   0  -8 -12  165.18   12.40
   0   8  12  130.89   11.30
   0   8  12  132.09   14.50
   0   8  12  151.98   13.90
  -1  -8 -12    4.80    6.90
  -1  -8 -12   21.90    6.60
  -1  -8 -12   25.40    5.70
   1   8  12   20.20    7.60
   1   8  12    8.10    6.00
   1   8  12   13.00    7.90
  -2  -8 -12   36.20    7.90
  -2  -8 -12   29.60    7.30
   2   8  12   31.40    8.10
   2   8  12   23.10    8.40
   2   8  12   36.30    7.10
  -3  -8 -12   13.70    7.30
   3   8  12   13.80    6.60
   3  -9 -12    7.30    8.40
   3  -9 -12    8.30    8.40
   3  -9 -12   -5.90    7.70
  -3   9  12   13.10    7.20
  -3   9  12    4.80    7.80
   2  -9 -12    9.80    7.50
   2  -9 -12    9.60    5.00
   2  -9 -12   13.70    8.00
   2  -9 -12   14.80    7.80
  -2   9  12    7.50    7.80
  -2   9  12   -4.40    6.60
   1  -9 -12    8.10    7.80
   1  -9 -12    8.20    7.30
   1  -9 -12   -7.80    5.60
   1  -9 -12    5.90    5.20
  -1   9  12    2.30    7.10
  -1   9  12    1.30    6.90
   0  -9 -12    5.10    6.70
   0  -9 -12   16.90    6.10
   0  -9 -12   17.90    6.40
   0   9  12   28.00    8.00
   0   9  12   19.90    5.50
   0   9  12   10.40    7.50
  -1  -9 -12    6.50    6.80
  -1  -9 -12   -5.40    5.80
   1   9  12    9.60    6.00
   1   9  12    4.30    7.20
   1   9  12    7.60    7.40
  -2  -9 -12   -2.90    6.20
  -2  -9 -12    3.40    6.90
   2   9  12    0.70    7.40
   2   9  12    8.40    9.00
   2   9  12    0.00    6.00
   2 -10 -12    9.70    7.60
   2 -10 -12   29.80    9.40
  -2  10  12   14.00    8.80
  -2  10  12   20.80    7.70
   1 -10 -12    4.90    9.40
   1 -10 -12    3.00    6.70
   1 -10 -12    0.60    5.20
  -1  10  12    2.00    6.90
  -1  10  12   -1.20    7.20
   0 -10 -12    8.90    8.50
   0 -10 -12   13.40    6.30
   0 -10 -12   -9.50    5.40
   0  10  12    3.90    7.40
   0  10  12   12.90    7.30
  -1 -10 -12    1.20    6.20
   1  10  12  -11.90    6.80
   1  10  12    3.10    7.90
   1  10  12   -7.80    5.80
   1  14 -13   -2.00    7.90
  -1 -14  13    4.20    7.60
  -1 -14  13    1.20   11.20
   0  14 -13  -13.60    6.80
   0 -14  13    2.30    7.70
   0 -14  13    5.10   17.20
   0 -14  13   -3.30    7.70
  -1  14 -13    4.60    8.10
   1 -14  13    2.00    8.10
   1 -14  13    1.60   14.50
   1 -14  13    9.20    8.00
   2  13 -13    3.90    9.20
   2  13 -13   12.20    9.20
  -2 -13  13   25.60    9.80
  -2 -13  13    3.40    8.90
   1  13 -13    2.80    8.10
   1  13 -13    6.20    7.90
  -1 -13  13    5.60    7.30
  -1 -13  13    8.00    8.40
  -1 -13  13    2.40    9.40
   0  13 -13    1.30    7.70
   0  13 -13   13.50    7.40
   0 -13  13    0.70    9.60
   0 -13  13    0.60    7.50
   0 -13  13   10.60    8.60
  -1  13 -13    6.50    7.50
  -1  13 -13   10.90    6.90
   1 -13  13   -8.50    7.80
   1 -13  13    0.80    8.70
   1 -13  13    2.30    7.50
  -2  13 -13    2.40    6.30
   2 -13  13   -7.30    7.60
   2 -13  13   10.90    8.30
   3  12 -13   27.20    9.30
   3  12 -13   39.40   13.60
  -3 -12  13   14.50    9.50
  -3 -12  13   29.00    9.40
   2  12 -13   35.70    9.60
   2  12 -13   21.50    8.50
  -2 -12  13   23.90    7.50
  -2 -12  13   35.20    9.80
  -2 -12  13   15.70    8.80
   1  12 -13    8.30    7.80
   1  12 -13   -6.80    7.50
  -1 -12  13   -2.00    7.90
  -1 -12  13   -5.00    6.90
  -1 -12  13  -11.70    8.40
   0  12 -13   -4.60    7.10
   0  12 -13   10.10    7.50
   0 -12  13   -4.60    9.00
   0 -12  13    1.80    8.30
  -1  12 -13    5.60    7.60
   1 -12  13    1.80    8.50
   1 -12  13   14.10    8.30
  -2  12 -13  141.99   13.80
   2 -12  13  121.59   16.30
   2 -12  13  138.89   15.10
  -3  12 -13    9.00    6.80
   3 -12  13   11.70    8.50
   3  11 -13   -2.00    8.50
   3  11 -13   11.00   10.40
  -3 -11  13   -1.60    8.90
  -3 -11  13   -2.30    5.50
  -3 -11  13   13.00    8.60
   2  11 -13    7.30    9.10
   2  11 -13   21.20    8.50
  -2 -11  13   12.80    6.90
  -2 -11  13   -4.00    4.90
  -2 -11  13    6.80    8.90
  -2 -11  13   18.10    8.70
   1  11 -13    1.70    7.80
   1  11 -13    9.50    8.10
  -1 -11  13    3.20    8.60
  -1 -11  13    6.00    8.10
   0  11 -13   41.20    7.90
   0  11 -13   36.00    8.20
   0  11 -13   45.20    8.60
   0 -11  13   54.59    9.70
   0 -11  13   33.90    9.70
   0 -11  13   26.90    5.30
  -1  11 -13    6.80    7.20
  -1  11 -13   25.90    6.90
  -1  11 -13   22.50    7.60
   1 -11  13   21.80    9.30
   1 -11  13   13.60    8.70
  -2  11 -13   31.30    7.90
  -2  11 -13   34.00    6.70
  -2  11 -13   32.30    8.40
   2 -11  13   27.10    9.20
   2 -11  13   46.70    9.90
  -3  11 -13   14.10    6.10
  -3  11 -13   11.30    6.70
   3 -11  13   17.30    8.80
   3 -11  13   10.00    8.50
   4  10 -13    4.30    9.30
   4  10 -13   -3.50   12.90
  -4 -10  13   19.20    9.10
  -4 -10  13    1.10   11.90
  -4 -10  13    1.60    6.10
   3  10 -13   -3.70    8.50
   3  10 -13   -6.10    9.90
  -3 -10  13    8.40    8.10
  -3 -10  13    3.50    5.60
  -3 -10  13   -2.50    6.10
   2  10 -13   44.80   10.20
   2  10 -13   38.20    9.30
  -2 -10  13   34.80    6.10
  -2 -10  13   56.29    9.60
   1  10 -13   53.59    9.00
   1  10 -13   59.49    8.20
   1  10 -13   54.79    9.40
  -1 -10  13   67.29   10.20
  -1 -10  13   51.59    6.30
   0  10 -13   11.80    7.30
   0  10 -13   17.00    7.10
   0 -10  13   16.90    8.60
   0 -10  13    7.40    8.20
   0 -10  13    9.90    4.80
  -1  10 -13   -1.20    6.50
  -1  10 -13    2.80    5.80
  -1  10 -13    3.40    6.70
   1 -10  13   -4.80    7.80
   1 -10  13   -5.50    8.00
   1 -10  13    7.50    4.40
  -2  10 -13    0.30    5.20
  -2  10 -13   -1.10    6.40
  -2  10 -13    0.20    6.70
   2 -10  13    0.80    7.70
   2 -10  13    0.50    4.40
   2 -10  13  -12.70    7.70
  -3  10 -13   13.00    5.60
  -3  10 -13    3.90    6.60
  -3  10 -13    3.40    7.20
   3 -10  13    8.10    8.80
   3 -10  13    3.90    8.40
   4 -10  13  150.58   15.20
   4 -10  13  127.39   16.00
   4   9 -13   -0.80   11.00
   4   9 -13    9.30    9.70
   4   9 -13    1.20   10.40
  -4  -9  13    3.30    6.20
  -4  -9  13   14.20    8.50
  -4  -9  13    8.20    7.90
   3   9 -13   11.30   10.10
   3   9 -13   19.80    9.00
  -3  -9  13    5.20    5.80
  -3  -9  13   13.60    8.40
  -3  -9  13    0.60    7.80
   2   9 -13   67.29   11.40
   2   9 -13   66.19   10.00
   2   9 -13   88.49   10.30
  -2  -9  13   86.79   10.20
  -2  -9  13   41.80    7.10
  -2  -9  13   60.89    9.60
   1   9 -13  150.28   14.80
   1   9 -13  197.28   13.90
   1   9 -13  219.58   15.10
  -1  -9  13  179.78   16.00
  -1  -9  13  166.38   11.90
  -1  -9  13  219.48   16.10
   0   9 -13   64.39    7.90
   0   9 -13   56.49    8.70
   0   9 -13   57.09    8.40
   0  -9  13   58.69    9.90
   0  -9  13   48.00    6.70
   0  -9  13   49.00    9.40
  -1   9 -13    0.10    5.20
  -1   9 -13   -1.90    6.40
  -1   9 -13   -0.60    6.40
   1  -9  13   -7.20    7.70
   1  -9  13   -0.10    7.50
  -2   9 -13   20.90    5.20
  -2   9 -13   26.20    7.30
  -2   9 -13   20.10    7.30
   2  -9  13   20.60    8.80
   2  -9  13   17.40    8.50
  -3   9 -13   93.39    9.30
  -3   9 -13   89.89   10.20
  -3   9 -13   81.09    9.30
   3  -9  13  103.29   10.30
   3  -9  13   99.99   11.50
   3  -9  13   94.79   11.00
  -4   9 -13   -1.10    7.10
  -4   9 -13   -5.60    5.90
   4  -9  13    2.60    8.10
   4  -9  13   -1.50    7.00
   4  -9  13    1.30    8.90
   4   8 -13   14.00    8.30
   4   8 -13   15.00    9.50
   4   8 -13   -2.50   11.10
  -4  -8  13    5.00    6.40
  -4  -8  13   -0.80    6.80
  -4  -8  13   -4.80    7.70
   3   8 -13    9.20    6.40
   3   8 -13    1.30    5.50
   3   8 -13    5.70    8.90
   3   8 -13    9.80   10.30
  -3  -8  13    0.60    6.20
  -3  -8  13   17.40    8.10
  -3  -8  13   22.50    7.80
   2   8 -13   47.50   10.10
   2   8 -13   60.09   10.00
   2   8 -13   79.59   10.20
  -2  -8  13   34.80    7.10
  -2  -8  13   55.69    9.10
  -2  -8  13   55.79    9.50
   1   8 -13   -2.10    6.70
   1   8 -13   -2.00    7.40
   1   8 -13   -1.40    6.30
  -1  -8  13    9.90    5.50
  -1  -8  13    4.10    7.20
  -1  -8  13    6.30    7.80
   0   8 -13   27.20    6.70
   0   8 -13   27.80    7.30
   0  -8  13   20.10    7.70
   0  -8  13   21.30    5.70
  -1   8 -13   19.10    5.40
   1  -8  13   11.40    5.60
   1  -8  13   38.20   10.20
   1  -8  13   11.50   12.50
  -2   8 -13    9.50    6.30
  -2   8 -13   -0.90    6.50
  -2   8 -13    3.70    4.70
   2  -8  13   -6.90    7.10
   2  -8  13    5.30    7.90
   2  -8  13    5.10    5.70
  -3   8 -13   16.60    6.50
  -3   8 -13   27.20    8.00
  -3   8 -13    5.30    4.50
   3  -8  13   18.90    9.10
   3  -8  13   18.20    8.20
   3  -8  13   19.70    6.80
  -4   8 -13   22.30    6.50
  -4   8 -13   20.80    7.50
   4  -8  13  -12.80    7.60
   4  -8  13   18.50    9.20
   4  -8  13    8.00    7.00
   5   7 -13    4.00    9.20
   5   7 -13   10.50   10.70
  -5  -7  13   -1.90    7.20
   4   7 -13   -2.60   10.40
   4   7 -13  -22.30    8.40
   4   7 -13    6.10    7.80
  -4  -7  13    3.50    8.10
  -4  -7  13  -11.20    5.90
  -4  -7  13   -1.00    6.10
   3   7 -13   13.70    6.40
   3   7 -13   10.20    5.70
   3   7 -13   16.20    9.10
  -3  -7  13    6.80    6.70
  -3  -7  13   11.30    8.00
  -3  -7  13    6.10    6.90
   2   7 -13    8.70    6.20
   2   7 -13   11.50    8.20
   2   7 -13   13.00    8.60
  -2  -7  13   17.10    6.50
  -2  -7  13   -3.90    7.70
  -2  -7  13   21.20    7.60
   1   7 -13    3.10    6.60
   1   7 -13   14.10    6.50
   1   7 -13   11.70    8.90
  -1  -7  13   13.20    7.10
  -1  -7  13    6.50    5.80
  -1  -7  13   19.10    9.10
   0   7 -13    2.70    6.10
   0   7 -13    7.80    7.50
   0   7 -13   -7.50    6.00
   0  -7  13    1.00    5.40
   0  -7  13    7.10    7.30
   0  -7  13    3.40    7.30
  -1   7 -13   -0.40    6.10
  -1   7 -13    5.80    6.40
  -1   7 -13    5.90    4.40
   1  -7  13   -4.20    8.20
   1  -7  13    1.60    5.70
   1  -7  13    0.00    6.60
  -2   7 -13    0.80    6.40
  -2   7 -13    2.80    3.80
  -2   7 -13   -8.60    5.90
   2  -7  13    1.60    6.80
   2  -7  13    4.60    7.80
   2  -7  13    4.80    6.10
  -3   7 -13   74.59    9.40
  -3   7 -13   63.69    8.00
   3  -7  13   61.39    8.20
   3  -7  13   54.49   10.00
   3  -7  13   55.89    9.80
  -4   7 -13   32.00    6.70
  -4   7 -13   41.20    8.80
   4  -7  13   34.50    9.40
   4  -7  13   22.70    9.20
   4  -7  13   34.70    8.30
   5   6 -13    0.40   10.00
   5   6 -13   12.30   11.50
   5   6 -13   -2.70    8.70
  -5  -6  13    3.30    8.30
  -5  -6  13    4.00    7.20
   4   6 -13   17.00    9.50
   4   6 -13   20.60    7.90
   4   6 -13   19.80   10.70
  -4  -6  13   23.00    7.70
  -4  -6  13    9.40    8.20
  -4  -6  13   15.30    5.90
   3   6 -13   -9.90    5.40
   3   6 -13    8.30    8.50
   3   6 -13  -12.00    8.90
   3   6 -13   13.30    6.20
  -3  -6  13    6.70    6.60
  -3  -6  13  -15.40    6.10
  -3  -6  13    5.70    8.00
   2   6 -13  132.99   11.30
   2   6 -13  156.38   14.70
  -2  -6  13  131.09   12.20
  -2  -6  13   86.09   11.40
   1   6 -13   34.70    8.10
   1   6 -13   40.80    7.50
   1   6 -13   57.59    7.50
  -1  -6  13   46.10    7.80
  -1  -6  13   38.80    8.40
  -1  -6  13   26.70    6.60
   0   6 -13   22.50    5.50
   0   6 -13   38.90    7.10
   0   6 -13   26.90    7.20
   0  -6  13   21.20    7.30
   0  -6  13   16.60    6.10
   0  -6  13   35.00    8.20
  -1   6 -13   12.40    6.30
  -1   6 -13   18.20    6.50
  -1   6 -13   13.20    4.10
   1  -6  13    7.10    7.40
   1  -6  13   16.90    7.00
   1  -6  13   21.10    6.50
  -2   6 -13  109.59   10.70
  -2   6 -13  107.59   12.00
   2  -6  13   72.69    8.70
   2  -6  13   94.59   15.10
  -3   6 -13    6.90    5.70
  -3   6 -13    3.60    6.60
   3  -6  13   -7.70    7.50
   3  -6  13   11.10    7.00
   3  -6  13    9.40    8.10
  -4   6 -13   10.70    5.70
  -4   6 -13    2.70    7.30
   4  -6  13    4.20    8.20
   4  -6  13    4.90    8.50
  -5   6 -13   24.10    6.90
   5  -6  13   31.50    9.10
   5  -6  13   20.90    9.30
   5   5 -13   16.80    9.20
   5   5 -13   -1.50   11.70
   5   5 -13   -3.70   10.10
  -5  -5  13   15.40    8.00
  -5  -5  13   12.30    8.20
   4   5 -13    9.70   10.30
   4   5 -13   -2.60    7.30
   4   5 -13    1.00    9.30
  -4  -5  13   10.20    8.00
  -4  -5  13   11.30    6.70
  -4  -5  13    6.50    7.20
   3   5 -13   61.69   10.40
   3   5 -13   69.59    8.70
   3   5 -13   43.70    6.80
   3   5 -13   55.19    9.90
  -3  -5  13   39.20    8.50
  -3  -5  13   40.00    8.40
  -3  -5  13   42.80    8.80
   2   5 -13   -3.70    7.60
   2   5 -13    4.20    7.80
   2   5 -13    3.10    6.00
  -2  -5  13  -11.60    7.20
  -2  -5  13    5.80    6.20
  -2  -5  13   -1.20    6.20
   1   5 -13   13.40    9.20
   1   5 -13    9.00    7.10
   1   5 -13    1.30    6.30
  -1  -5  13  -10.90    5.50
  -1  -5  13    8.10    6.00
  -1  -5  13    7.00    7.30
   0   5 -13    5.20    4.60
   0   5 -13    4.90    6.20
   0   5 -13    3.60    6.50
   0  -5  13    2.10    6.70
   0  -5  13    6.10    6.20
   0  -5  13    1.60    5.90
  -1   5 -13   15.60    6.60
  -1   5 -13   12.10    6.00
   1  -5  13    8.20    6.90
   1  -5  13    8.50    6.40
   1  -5  13   14.80    7.30
  -2   5 -13    7.50    5.60
   2  -5  13    3.70    7.10
   2  -5  13    7.30    6.70
  -3   5 -13    6.00    6.50
  -3   5 -13    2.70    5.30
   3  -5  13   -1.70    7.10
   3  -5  13   -4.20    7.30
   3  -5  13  -10.80    7.40
  -4   5 -13   66.49    8.00
  -4   5 -13   64.79    9.50
   4  -5  13   89.59   11.00
   4  -5  13   90.29   10.80
   4  -5  13   53.29    9.70
  -5   5 -13    9.60    5.90
  -5   5 -13   12.60    7.80
   5  -5  13   -5.00    9.60
   5  -5  13   -3.20    7.80
   5   4 -13   25.00    9.40
   5   4 -13  -11.00   11.00
   5   4 -13    8.00    9.60
  -5  -4  13   21.30    8.40
  -5  -4  13   13.90    7.90
   4   4 -13    6.30    9.20
   4   4 -13    1.70   10.00
   4   4 -13   16.30    5.50
   4   4 -13   16.80    7.70
  -4  -4  13   -6.10    7.00
  -4  -4  13   11.00    7.80
   3   4 -13   14.20    8.90
   3   4 -13    9.70    8.50
   3   4 -13   14.40    6.20
  -3  -4  13    9.20    6.00
  -3  -4  13    3.70    6.60
   2   4 -13  155.68   12.20
   2   4 -13  153.78   13.90
   2   4 -13  177.88   10.00
   2   4 -13  140.09   14.00
  -2  -4  13  154.98   14.60
  -2  -4  13  140.99   14.40
  -2  -4  13  139.49   12.70
   1   4 -13   62.89    7.50
   1   4 -13   42.40    8.30
   1   4 -13   55.49    7.60
  -1  -4  13   62.49    8.70
  -1  -4  13   56.99    7.30
  -1  -4  13   51.39    7.70
   0   4 -13    1.00    5.80
   0   4 -13   -0.60    6.40
   0   4 -13   -4.00    4.00
   0  -4  13   -0.30    6.20
   0  -4  13   -1.60    5.60
   0  -4  13    2.40    6.90
  -1   4 -13    5.00    5.50
  -1   4 -13    9.40    6.30
   1  -4  13    9.20    7.40
   1  -4  13   -0.90    6.20
   1  -4  13   14.60    6.60
  -2   4 -13   53.39   10.50
  -2   4 -13   48.90    6.70
   2  -4  13   44.20    8.30
   2  -4  13   32.60    7.60
   2  -4  13   33.20   11.00
  -3   4 -13   61.69    8.60
  -3   4 -13   55.19    6.90
   3  -4  13   75.99    9.40
   3  -4  13   67.89    9.50
   3  -4  13   56.69    9.10
  -4   4 -13   83.39   10.20
  -4   4 -13   96.69   10.10
   4  -4  13   67.89   10.40
   4  -4  13  141.59   14.40
  -5   4 -13   21.30    6.30
  -5   4 -13   16.40    7.80
   5  -4  13   25.00    9.40
   5   3 -13   -1.30   10.00
   5   3 -13    6.60   10.80
   5   3 -13   22.20    9.00
  -5  -3  13   -1.20    7.60
  -5  -3  13    0.00    7.80
   4   3 -13    1.10    7.50
   4   3 -13   -2.20   12.20
   4   3 -13   -2.70    9.30
   4   3 -13  -10.40    5.50
  -4  -3  13    8.30    7.30
  -4  -3  13   -4.20    7.30
   3   3 -13   -4.20    5.90
   3   3 -13    1.80    8.20
   3   3 -13   10.00    8.40
  -3  -3  13    3.10    7.40
  -3  -3  13    3.10    5.30
  -3  -3  13  -10.80    7.10
   2   3 -13   10.80    7.10
   2   3 -13   17.50    6.50
   2   3 -13   15.70    7.90
  -2  -3  13   14.80    7.00
  -2  -3  13    8.10    7.40
  -2  -3  13   15.20    5.70
   1   3 -13   27.30    6.40
   1   3 -13   28.00    6.80
   1   3 -13   23.20    7.60
  -1  -3  13   25.80    7.60
  -1  -3  13   19.90    6.00
  -1  -3  13   14.50    6.90
   0   3 -13    7.20    6.00
   0   3 -13    5.10    6.50
   0  -3  13   -1.90    6.70
   0  -3  13    9.20    6.60
   0  -3  13    1.50    5.80
  -1   3 -13   10.50    6.00
  -1   3 -13   16.50    6.00
   1  -3  13    5.10    6.50
   1  -3  13    7.30    6.10
   1  -3  13   11.10    6.70
  -2   3 -13   -2.90    6.70
  -2   3 -13   -4.80    4.70
   2  -3  13    0.90    6.60
   2  -3  13   -8.30    7.10
  -3   3 -13   -4.90    4.50
  -3   3 -13    5.60    6.60
   3  -3  13    9.00    7.30
   3  -3  13   -9.00    6.70
  -4   3 -13   31.60    8.40
  -4   3 -13   28.40    7.40
  -4   3 -13   29.10    5.70
   4  -3  13   24.50    8.50
   4  -3  13   31.20    8.80
  -5   3 -13    7.70    7.50
   5  -3  13   22.40    9.20
   5   2 -13    6.50   10.10
   5   2 -13    1.80   10.30
   5   2 -13    1.40    9.00
  -5  -2  13   15.40    7.40
  -5  -2  13   -8.00    7.30
   4   2 -13   15.80    6.30
   4   2 -13    6.60    9.50
  -4  -2  13   -7.90    7.30
  -4  -2  13   17.20    7.70
   3   2 -13   75.09   10.00
   3   2 -13   74.39   10.60
   3   2 -13   57.69    8.20
  -3  -2  13   77.09    7.30
  -3  -2  13   42.80    8.50
  -3  -2  13   77.39   10.00
   2   2 -13    0.80    6.70
   2   2 -13   -1.80    6.40
   2   2 -13    2.20    7.30
  -2  -2  13    5.30    5.10
  -2  -2  13    3.50    5.00
  -2  -2  13   -3.40    6.90
  -2  -2  13    4.20    6.70
   1   2 -13    4.00    5.50
   1   2 -13    5.30    6.50
   1   2 -13   10.50    7.00
   1   2 -13  -11.40    8.20
  -1  -2  13   -3.30    6.50
  -1  -2  13    0.70    5.00
  -1  -2  13    3.40    4.00
  -1  -2  13   -2.90    6.40
   0   2 -13    6.60    6.10
   0   2 -13    2.30    6.30
   0  -2  13    0.70    5.40
   0  -2  13  -10.60    6.00
   0  -2  13    8.70    6.80
  -1   2 -13    4.90    5.90
  -1   2 -13    2.70    5.60
   1  -2  13   -1.50    6.20
   1  -2  13   -0.20    6.40
  -2   2 -13    3.60    4.70
  -2   2 -13   12.30    6.40
  -2   2 -13   -3.50    5.60
   2  -2  13    8.30    6.90
   2  -2  13    3.00    6.50
  -3   2 -13   11.50    6.60
  -3   2 -13    3.90    4.60
  -3   2 -13    2.80    6.40
   3  -2  13    8.10    7.30
  -4   2 -13   64.19    6.60
  -4   2 -13  100.59   12.40
  -4   2 -13   68.29    9.20
   4  -2  13  115.19   13.00
   4  -2  13   49.80    9.70
  -5   2 -13   17.40    7.60
  -5   2 -13    5.60    8.20
   5  -2  13   10.60    9.00
   5  -2  13    1.60   11.00
   5   1 -13    4.90   10.20
   5   1 -13   12.50   10.50
  -5  -1  13   11.10    7.40
  -5  -1  13   23.50    8.50
   4   1 -13   -5.20    6.40
   4   1 -13   -8.20    8.90
  -4  -1  13    6.30    7.40
  -4  -1  13   -9.50    7.10
   3   1 -13    8.00    8.00
   3   1 -13    9.60    6.50
   3   1 -13   -1.90    8.00
  -3  -1  13   -2.40    6.80
  -3  -1  13   -6.90   12.50
  -3  -1  13    7.50    6.20
   2   1 -13    6.00    6.20
   2   1 -13    0.80    6.50
   2   1 -13    8.20    7.50
  -2  -1  13    0.50    6.20
  -2  -1  13    6.70    7.00
  -2  -1  13    2.30    4.60
  -2  -1  13    3.70    6.80
   1   1 -13    3.10    6.60
   1   1 -13    7.80    5.20
   1   1 -13    3.20    6.00
  -1  -1  13    3.20    6.60
  -1  -1  13   -0.90    5.20
  -1  -1  13    3.80    4.40
  -1  -1  13    1.10    6.70
   0   1 -13   54.89    8.00
   0   1 -13   52.39    8.60
   0   1 -13   80.49    8.40
   0  -1  13   60.09    8.50
   0  -1  13   54.49    8.20
   0  -1  13   81.79    7.10
  -1   1 -13   11.40    5.70
  -1   1 -13    5.00    6.10
  -1   1 -13    0.50    5.50
   1  -1  13    9.50    6.80
   1  -1  13   14.90    6.60
  -2   1 -13    5.90    5.80
  -2   1 -13   15.10    4.90
   2  -1  13    6.00    7.40
   2  -1  13    3.50    4.20
   2  -1  13   11.30    7.20
  -3   1 -13   11.00    6.40
  -3   1 -13   10.70    6.60
  -3   1 -13    4.30    4.20
   3  -1  13   10.10    7.40
   3  -1  13    6.10    4.60
   3  -1  13    5.50    7.10
  -4   1 -13   11.60    7.20
  -4   1 -13    7.50    4.20
  -4   1 -13    2.40    6.40
   4  -1  13   -4.30    7.40
   4  -1  13   12.90    8.40
   4  -1  13    2.90    5.90
  -5   1 -13   -4.90    6.30
  -5   1 -13   -0.30    6.70
   5  -1  13    6.00    8.20
   5   0 -13    5.20    6.70
   5   0 -13   -1.50    9.80
   5   0 -13  -11.70    9.40
  -5   0  13   -1.90    7.50
  -5   0  13    2.50    8.50
  -5   0  13   -0.50    6.70
   4   0 -13   16.80    9.80
   4   0 -13    6.20   10.50
   4   0 -13    9.60    6.90
  -4   0  13   -1.00    7.00
  -4   0  13  -13.80    6.90
  -4   0  13    3.20    6.80
   3   0 -13   13.00    7.70
   3   0 -13   11.30    8.60
   3   0 -13   19.40    7.20
  -3   0  13    5.90    6.40
  -3   0  13    2.90    6.90
  -3   0  13   10.10    7.20
   2   0 -13   23.00    8.10
   2   0 -13   14.00    6.90
  -2   0  13   10.70    7.00
  -2   0  13   16.30    7.40
  -2   0  13   17.60    4.90
  -2   0  13   22.60    5.90
   1   0 -13   13.20    3.70
   1   0 -13   15.00    4.90
   1   0 -13   21.90    7.30
   1   0 -13   28.50    7.00
  -1   0  13   26.80    5.30
  -1   0  13   13.60    7.00
  -1   0  13   12.50    6.60
  -1   0  13   15.40    5.50
   0   0 -13   27.80    6.80
   0   0 -13   50.79    6.70
   0   0 -13   32.50    7.20
   0   0  13   18.20    7.30
   0   0  13   34.60    5.40
   0   0  13   39.20    7.20
  -1   0 -13  100.59   10.70
  -1   0 -13   93.09   10.30
  -1   0 -13   86.49   11.10
   1   0  13  101.89   11.60
   1   0  13   71.39    9.30
   1   0  13  103.19    8.30
  -2   0 -13   -1.20    5.30
  -2   0 -13   -0.80    4.20
   2   0  13   -1.70    4.50
   2   0  13   -3.60    7.20
   2   0  13   -4.70    7.10
  -3   0 -13    3.40    3.90
  -3   0 -13   -3.80    5.60
  -3   0 -13  -11.80    5.80
   3   0  13    7.30    7.10
   3   0  13   -9.40    4.90
   3   0  13    5.20    7.50
  -4   0 -13   -4.90    5.70
  -4   0 -13    4.00    6.40
   4   0  13    7.80    8.00
   4   0  13   13.90    6.50
   4   0  13    5.00    7.80
   5  -1 -13   10.50   10.50
   5  -1 -13    1.20    7.10
   5  -1 -13    4.70   10.20
  -5   1  13   12.50    8.50
  -5   1  13   13.90    6.40
  -5   1  13    8.40    7.90
   4  -1 -13    8.70    9.70
   4  -1 -13   -3.10    7.00
  -4   1  13   11.50    7.50
  -4   1  13    0.80    6.40
   3  -1 -13    2.80    6.90
   3  -1 -13   -6.20    8.20
   3  -1 -13   -0.10    7.30
  -3   1  13  -10.10    6.40
  -3   1  13   22.30    7.00
  -3   1  13   -8.30    6.30
   2  -1 -13   17.30    6.70
   2  -1 -13   25.80    8.10
  -2   1  13   18.30    4.60
  -2   1  13   15.30    7.40
  -2   1  13   20.70    6.30
  -2   1  13   20.00    7.00
   1  -1 -13   -7.70    6.70
   1  -1 -13   -2.80    6.30
   1  -1 -13   -9.40    3.90
   1  -1 -13   -2.10    4.40
  -1   1  13   11.90    7.10
  -1   1  13    6.60    6.40
  -1   1  13    8.00    5.70
   0  -1 -13  153.58   12.80
   0  -1 -13  150.08   13.20
   0  -1 -13  175.38   11.80
   0   1  13  173.98   13.60
   0   1  13  173.78   11.00
   0   1  13  150.48   13.70
  -1  -1 -13   84.39   10.20
  -1  -1 -13  107.99   10.50
  -1  -1 -13   95.49   11.00
   1   1  13   71.89    9.30
   1   1  13  105.09   11.50
   1   1  13  101.09    9.50
  -2  -1 -13   88.69   11.30
  -2  -1 -13   82.59    8.60
  -2  -1 -13   75.39   11.80
   2   1  13  109.19    9.50
   2   1  13   77.99   10.60
  -3  -1 -13   93.29   10.00
  -3  -1 -13   86.49   11.40
  -3  -1 -13   79.69    9.40
   3   1  13  109.29   13.70
   3   1  13  121.89   10.80
   3   1  13  106.39   12.50
  -4  -1 -13    7.20    6.20
  -4  -1 -13   32.70    7.40
   4   1  13    9.30    8.30
   4   1  13   30.60    7.40
   4   1  13   19.60    7.90
   5  -2 -13    9.20    7.40
   5  -2 -13   -3.10    9.50
   5  -2 -13  -16.60    9.70
  -5   2  13    8.10    8.40
  -5   2  13   -4.00    7.70
  -5   2  13   -4.50    9.80
   4  -2 -13    7.50    7.00
   4  -2 -13   -4.90    9.00
  -4   2  13   16.90    8.10
  -4   2  13   -8.80    5.70
  -4   2  13   -4.60    7.00
   3  -2 -13    7.40    7.40
   3  -2 -13    5.80    7.40
   3  -2 -13   12.00    8.70
  -3   2  13   -1.80    6.70
  -3   2  13    6.40    6.30
  -3   2  13    9.40    6.90
   2  -2 -13    7.50    7.60
   2  -2 -13   12.10    7.00
  -2   2  13    0.60    6.00
  -2   2  13    7.40    4.60
  -2   2  13   12.30    6.60
   1  -2 -13   -0.70    4.60
   1  -2 -13   -5.00    6.20
   1  -2 -13   -0.30    4.50
   1  -2 -13    5.30    7.00
  -1   2  13    2.80    6.70
  -1   2  13    3.50    6.30
  -1   2  13    4.40    5.80
   0  -2 -13   -4.40    4.60
   0  -2 -13    2.80    6.10
   0  -2 -13    5.10    6.30
   0   2  13   -3.90    5.40
   0   2  13  -16.20    6.10
   0   2  13  -10.50    5.80
  -1  -2 -13    7.40    5.40
  -1  -2 -13    8.00    5.60
   1   2  13   12.20    5.40
   1   2  13    9.50    6.10
  -2  -2 -13  110.69    8.80
  -2  -2 -13  123.09   12.30
  -2  -2 -13  119.79   12.20
   2   2  13  113.89   10.40
   2   2  13   76.49   10.30
  -3  -2 -13   25.60    4.40
  -3  -2 -13   18.00    7.20
  -3  -2 -13   13.40    6.40
   3   2  13   29.90    7.80
   3   2  13   19.20    6.50
   3   2  13   25.30    8.40
  -4  -2 -13   -2.60    5.80
  -4  -2 -13   -1.80    5.50
   4   2  13    4.30    7.90
   4   2  13   -0.60    7.20
   4   2  13    0.00    7.10
   5  -3 -13    2.50    8.90
   5  -3 -13   13.10    7.50
  -5   3  13   -3.10    5.60
  -5   3  13   21.80    8.60
   4  -3 -13   14.90    9.00
   4  -3 -13   10.20   11.00
   4  -3 -13   -4.50    9.40
  -4   3  13   17.50    6.10
  -4   3  13    4.10    7.60
  -4   3  13   -0.30    7.80
   3  -3 -13   66.39    8.80
   3  -3 -13   53.19   10.00
  -3   3  13   45.50    7.10
  -3   3  13   39.50    8.80
  -3   3  13   49.99    8.70
   2  -3 -13    5.70   10.10
   2  -3 -13   -3.70    7.20
   2  -3 -13   -8.30    6.80
  -2   3  13   -2.80    6.10
  -2   3  13    4.10    7.10
  -2   3  13    2.00    6.50
   1  -3 -13   11.80    7.00
   1  -3 -13    2.60    4.30
   1  -3 -13   -7.60    6.50
   1  -3 -13    9.90    4.70
  -1   3  13   -2.10    6.10
  -1   3  13   -0.80    6.00
   0  -3 -13   62.49    6.90
   0  -3 -13   53.69    7.70
   0   3  13   50.79    7.50
   0   3  13   44.50    6.70
  -1  -3 -13   -2.00    5.10
  -1  -3 -13    1.30    5.40
  -1  -3 -13    7.90    6.30
   1   3  13   10.30    5.90
   1   3  13    3.60    7.10
   1   3  13    4.60    6.00
  -2  -3 -13   24.60    6.50
  -2  -3 -13   31.30    7.30
  -2  -3 -13   20.40    4.60
   2   3  13   31.40    6.40
   2   3  13   24.30    8.20
   2   3  13   37.40    7.60
  -3  -3 -13   37.40    7.40
  -3  -3 -13   48.40    8.30
   3   3  13   49.30    8.30
   3   3  13   27.10    8.40
   3   3  13   45.30    7.20
  -4  -3 -13   23.50    8.80
  -4  -3 -13    7.50    7.00
   4   3  13    7.60    8.90
   4   3  13   14.80    7.60
   4   3  13    0.00    7.10
   5  -4 -13   25.30   11.40
   5  -4 -13   10.50    8.10
   5  -4 -13    6.70    9.50
  -5   4  13    0.20    7.90
  -5   4  13   -5.00    8.00
   4  -4 -13   24.40   10.20
   4  -4 -13   35.40    9.60
   4  -4 -13   35.20    8.40
  -4   4  13   27.10    8.60
  -4   4  13   20.80    6.00
  -4   4  13   21.70    8.10
   3  -4 -13  -18.00    7.30
   3  -4 -13   13.60    7.60
   3  -4 -13   13.80    9.00
  -3   4  13    1.40    5.60
  -3   4  13   -2.10    7.20
   2  -4 -13   10.50    6.10
   2  -4 -13   24.70    7.70
  -2   4  13   17.30    7.30
  -2   4  13   13.40    6.30
  -2   4  13   18.10    7.80
   1  -4 -13    1.60    4.30
   1  -4 -13    5.20    4.60
   1  -4 -13   12.00    6.80
   1  -4 -13   11.60    7.20
  -1   4  13    1.80    6.10
  -1   4  13   -5.50    6.70
  -1   4  13   10.60    6.50
   0  -4 -13    2.10    5.20
   0  -4 -13   -3.10    6.00
   0  -4 -13    0.60    6.40
   0   4  13   14.20    6.20
   0   4  13    1.70    6.80
   0   4  13   -0.30    5.80
  -1  -4 -13    2.60    5.50
  -1  -4 -13   -5.10    5.20
  -1  -4 -13    4.90    6.40
   1   4  13    6.20    6.20
   1   4  13   -1.20    5.90
   1   4  13    6.30    7.50
  -2  -4 -13    9.40    6.10
  -2  -4 -13   12.90    7.20
   2   4  13   11.60    7.90
   2   4  13    7.50    6.40
   2   4  13   12.50    6.20
  -3  -4 -13    4.90    6.90
  -3  -4 -13   10.90    6.30
   3   4  13   -1.10    7.40
   3   4  13    8.60    7.00
  -4  -4 -13   12.80    7.00
  -4  -4 -13   11.60    6.40
   4   4  13    5.40    7.20
   4   4  13    2.50    9.40
   4  -5 -13   16.00    8.30
   4  -5 -13   17.20   10.40
   4  -5 -13   19.10    8.90
  -4   5  13    8.30    7.60
  -4   5  13   19.60    8.60
   3  -5 -13   -6.30    7.40
   3  -5 -13    2.50    8.80
   3  -5 -13    3.20    7.80
  -3   5  13   14.70    7.50
  -3   5  13    2.70    7.50
  -3   5  13    7.30    5.30
   2  -5 -13    7.00    7.30
   2  -5 -13   14.20    5.10
   2  -5 -13   24.20    6.60
   2  -5 -13    9.20    7.90
  -2   5  13    7.80    7.50
  -2   5  13   17.20    6.10
  -2   5  13   19.00    9.00
   1  -5 -13   -3.30    6.50
   1  -5 -13   -1.50    4.20
   1  -5 -13    5.60    7.20
   1  -5 -13   -1.50    4.70
  -1   5  13    3.00    6.00
  -1   5  13   -6.30    7.10
  -1   5  13    6.70    6.80
   0  -5 -13   95.59   11.70
   0  -5 -13   97.99   12.40
   0  -5 -13  105.79   10.60
   0   5  13   67.79    9.70
   0   5  13  103.79   11.30
   0   5  13  122.49   12.00
  -1  -5 -13   87.89   10.30
  -1  -5 -13   75.39    9.20
  -1  -5 -13   98.89   12.90
   1   5  13   93.49   11.70
   1   5  13   57.89    9.70
   1   5  13   80.29    8.50
  -2  -5 -13   14.10    4.30
  -2  -5 -13   20.20    6.80
  -2  -5 -13   24.10    7.20
   2   5  13   35.30    7.10
   2   5  13   27.30    8.30
  -3  -5 -13    3.10    6.10
  -3  -5 -13   -4.20    5.40
   3   5  13   -6.10    6.30
   3   5  13   13.70    7.00
   3   5  13   -3.70    7.10
   4  -6 -13   47.40    9.70
   4  -6 -13   14.50    8.30
   4  -6 -13   19.70   10.10
  -4   6  13   14.90    8.10
  -4   6  13   25.90    9.30
   3  -6 -13    2.80    7.80
   3  -6 -13   11.80    9.00
   3  -6 -13    9.30    7.80
  -3   6  13   -6.10    6.50
  -3   6  13    4.00    7.60
  -3   6  13   -6.70    7.50
   2  -6 -13   -3.90    6.40
   2  -6 -13   -2.30    4.90
   2  -6 -13    4.10    7.20
   2  -6 -13    9.00    7.90
  -2   6  13    8.00    7.40
  -2   6  13    2.20    7.30
  -2   6  13    1.40    5.40
   1  -6 -13   25.50    7.80
   1  -6 -13   30.70    5.70
   1  -6 -13   13.40    4.90
   1  -6 -13   17.80    8.00
  -1   6  13   25.90    8.30
  -1   6  13   22.00    6.40
   0  -6 -13   31.50    7.10
   0  -6 -13   18.70    6.30
   0  -6 -13   19.00    7.40
   0   6  13   11.30    7.80
   0   6  13   19.50    6.40
  -1  -6 -13    1.20    6.30
  -1  -6 -13    5.70    5.90
  -1  -6 -13   -5.30    5.60
   1   6  13    2.70    6.00
   1   6  13    6.00    9.40
   1   6  13    7.40    7.70
  -2  -6 -13    7.30    6.80
  -2  -6 -13    7.50    6.50
   2   6  13    5.10    6.20
   2   6  13    1.60    7.50
   2   6  13   -6.30    6.40
  -3  -6 -13   18.30    7.30
  -3  -6 -13   35.70   10.80
   3   6  13   34.50    7.80
   3   6  13   12.00    7.20
   4  -7 -13   -1.10   11.30
   4  -7 -13    6.90    8.80
   4  -7 -13   12.70    8.70
   3  -7 -13   -0.40    8.20
   3  -7 -13   -1.40    7.50
   3  -7 -13   -5.50    8.30
  -3   7  13   -1.00    7.40
  -3   7  13   -0.40    7.80
   2  -7 -13   -6.60    4.20
   2  -7 -13   -9.80    6.10
   2  -7 -13    4.20    7.10
   2  -7 -13    0.00    7.50
  -2   7  13   11.40    7.70
  -2   7  13    0.90    7.40
  -2   7  13   -0.40    5.90
   1  -7 -13   -3.30   10.00
   1  -7 -13   12.00    7.40
   1  -7 -13   13.10    5.40
   1  -7 -13    2.50    6.00
  -1   7  13    4.90    7.40
  -1   7  13   -7.30    7.30
  -1   7  13   -4.30    5.50
   0  -7 -13   -3.40    6.60
   0  -7 -13   25.00    8.90
   0  -7 -13    9.00    6.70
   0   7  13    6.90    7.50
   0   7  13   -1.50    7.00
   0   7  13    5.60    6.00
  -1  -7 -13   53.39    7.90
  -1  -7 -13   65.09    7.20
  -1  -7 -13   57.79    8.80
   1   7  13   72.19    9.00
   1   7  13   60.59    9.80
  -2  -7 -13    7.30    6.40
  -2  -7 -13   15.90    7.40
   2   7  13   13.90    7.40
   2   7  13   12.00    6.50
   2   7  13    0.10    7.30
   3  -8 -13   64.39   11.00
   3  -8 -13   76.09   10.90
   3  -8 -13  108.99   12.90
  -3   8  13  107.59   13.70
  -3   8  13   51.69    9.70
   2  -8 -13    7.20    7.90
   2  -8 -13    0.90    6.80
   2  -8 -13   -5.50    7.30
  -2   8  13   -1.30    7.30
  -2   8  13   -8.50    7.50
   1  -8 -13   -2.30    6.70
   1  -8 -13   -0.20    6.90
   1  -8 -13    5.90    5.70
  -1   8  13   10.80    7.80
  -1   8  13   10.40    7.80
  -1   8  13   -4.00    5.70
   0  -8 -13   -1.80    6.90
   0  -8 -13   -2.60    5.50
   0  -8 -13   12.80    6.60
   0   8  13    2.20    7.00
   0   8  13   -5.30    7.20
   0   8  13   -6.40    5.70
  -1  -8 -13   24.50    6.90
  -1  -8 -13   21.30    7.70
   1   8  13   15.50    8.20
   1   8  13   22.30    7.20
   1   8  13   34.00    8.10
  -2  -8 -13    4.50    8.40
   2   8  13  -16.30    9.50
   2   8  13    6.20    7.30
   2   8  13   11.00    6.40
   2  -9 -13   16.80    8.00
  -2   9  13    6.90    7.60
  -2   9  13   -0.50    8.20
   1  -9 -13   13.80    5.60
   1  -9 -13   -3.50    6.60
  -1   9  13    0.90    7.30
  -1   9  13    7.30    7.80
   0  -9 -13   -1.50    6.70
   0  -9 -13    8.00    5.80
   0   9  13   -8.90    8.60
   0   9  13   14.30    7.80
   0   9  13    6.20    7.50
  -1  -9 -13   32.10    8.50
  -1  -9 -13   54.79    7.80
   1   9  13   42.90    8.80
   1   9  13   40.90    7.00
   1  13 -14   -2.20   10.80
   1  13 -14    3.40    8.00
  -1 -13  14   -0.70    7.40
  -1 -13  14   13.50    9.40
   0  13 -14  -14.80    6.70
   0 -13  14   12.90    9.40
   0 -13  14   19.20   10.00
   0 -13  14   -1.60    7.60
  -1  13 -14   -3.50    6.70
  -1  13 -14   12.70    8.50
   1 -13  14    9.20    9.00
   1 -13  14    8.40    7.80
   2  12 -14    3.80    8.70
  -2 -12  14   12.70    9.70
  -2 -12  14   10.20    7.70
   1  12 -14   68.59    9.90
   1  12 -14   78.39   10.30
  -1 -12  14   57.39    9.00
  -1 -12  14   61.49   10.80
  -1 -12  14   53.19   10.10
   0  12 -14   27.90    7.80
   0  12 -14   17.10    8.20
   0 -12  14   11.30    9.50
   0 -12  14   18.40    8.90
  -1  12 -14   10.20    8.10
  -1  12 -14   13.00    7.10
   1 -12  14   18.20    9.10
   1 -12  14    9.60    9.20
  -2  12 -14   14.90    6.70
   2 -12  14   11.30    8.90
   3  11 -14    5.20    9.80
  -3 -11  14  -11.70    8.30
  -3 -11  14    4.60    5.90
  -3 -11  14   -0.40    8.90
   2  11 -14   56.09   10.30
   2  11 -14   77.89   10.70
  -2 -11  14   61.39   10.30
  -2 -11  14   46.30    7.10
  -2 -11  14   73.59   11.20
   1  11 -14   40.50    9.10
   1  11 -14   35.50    8.80
  -1 -11  14   41.00    9.80
  -1 -11  14   50.29   10.60
  -1 -11  14   17.00    6.20
   0  11 -14    9.00    7.30
   0  11 -14   23.70    8.00
   0 -11  14   16.40    9.00
   0 -11  14   11.10    9.10
  -1  11 -14    1.60    7.20
  -1  11 -14   -1.40    6.20
  -1  11 -14    7.10    7.20
   1 -11  14    4.60    9.00
   1 -11  14   -5.40    8.30
  -2  11 -14    8.10    7.20
  -2  11 -14  -10.10    6.60
  -2  11 -14   -1.60    5.70
   2 -11  14    2.40    8.70
   2 -11  14    8.10    9.10
  -3  11 -14    0.10    7.40
   3 -11  14   -1.60    8.70
   3 -11  14    8.40    9.10
   3  10 -14   29.60   10.50
   3  10 -14   -1.20    8.70
  -3 -10  14    0.30    8.00
  -3 -10  14   12.40    9.30
  -3 -10  14    1.00    5.90
  -3 -10  14    3.10    9.50
   2  10 -14   -5.90    8.50
   2  10 -14   -3.70    8.40
  -2 -10  14   -1.50    8.60
  -2 -10  14    1.80    5.40
  -2 -10  14  -11.00    7.70
   1  10 -14    2.10    6.90
   1  10 -14    1.50    7.90
  -1 -10  14   -7.10    8.50
  -1 -10  14    0.30    8.50
  -1 -10  14  -13.20    4.70
   0  10 -14   -5.80    6.60
   0  10 -14   14.40    7.80
   0  10 -14   -1.10    6.50
   0 -10  14    5.90    4.80
   0 -10  14    5.50    8.50
   0 -10  14   13.40    8.70
  -1  10 -14   73.39    9.70
  -1  10 -14  118.79   11.00
  -1  10 -14   84.29   10.00
   1 -10  14  100.59   11.30
   1 -10  14   88.89   11.80
  -2  10 -14    7.50    7.10
  -2  10 -14   12.30    5.60
  -2  10 -14   14.50    7.40
   2 -10  14   -0.10    8.60
   2 -10  14   19.30    8.60
  -3  10 -14    1.30    7.40
  -3  10 -14    3.00    6.60
   3 -10  14   13.70    9.10
   3 -10  14   12.40    8.80
   4   9 -14   18.20   13.90
  -4  -9  14   -1.30    6.40
  -4  -9  14   13.80    8.80
   3   9 -14   -4.30    8.40
   3   9 -14   -9.70   10.00
  -3  -9  14   -1.50    7.70
  -3  -9  14   -2.50    5.70
  -3  -9  14    8.00    8.40
   2   9 -14   18.30    6.50
   2   9 -14   18.60    8.90
   2   9 -14   19.80    9.10
  -2  -9  14    4.50    6.00
  -2  -9  14   20.20    8.60
  -2  -9  14   11.30    9.10
   1   9 -14   18.90    7.60
   1   9 -14   26.10    8.40
  -1  -9  14    8.50    8.70
  -1  -9  14    4.00    5.60
   0   9 -14    8.20    6.40
   0   9 -14    1.50    6.90
   0   9 -14   -0.80    7.20
   0  -9  14   17.50    8.70
   0  -9  14    9.90    8.70
   0  -9  14    4.80    5.50
  -1   9 -14   40.10    6.30
  -1   9 -14   30.60    8.00
  -1   9 -14   32.70    8.00
   1  -9  14   16.10    5.80
   1  -9  14   27.10    9.10
   1  -9  14   32.80    9.30
  -2   9 -14  137.29   10.20
  -2   9 -14  156.58   13.20
  -2   9 -14  109.89   13.50
   2  -9  14  149.59   15.70
   2  -9  14  145.99   15.40
   2  -9  14  109.09   10.40
  -3   9 -14   -0.30    7.00
  -3   9 -14   -4.00    6.10
   3  -9  14   10.10    9.10
   3  -9  14   -1.50    5.90
   3  -9  14    2.00    8.60
   4   8 -14  -13.40   11.10
   4   8 -14    3.60    9.80
  -4  -8  14   11.80    6.50
   3   8 -14   18.80   10.40
   3   8 -14   12.60    9.40
   3   8 -14   17.00    6.10
  -3  -8  14    7.70    6.10
  -3  -8  14    9.30    8.50
  -3  -8  14   17.50    7.90
   2   8 -14    3.70    8.30
   2   8 -14    5.90    8.90
   2   8 -14   -4.10    6.00
  -2  -8  14   11.50    8.20
  -2  -8  14    7.30    6.20
  -2  -8  14   -9.50    7.80
   1   8 -14   54.19    8.40
   1   8 -14   46.90    9.00
   1   8 -14   38.50    8.00
  -1  -8  14   67.19   10.00
  -1  -8  14   34.90    7.00
  -1  -8  14   64.99    9.80
   0   8 -14   -2.90    5.80
   0   8 -14    0.80    7.80
   0   8 -14    9.50    7.20
   0  -8  14    6.50    8.30
   0  -8  14   -3.90    5.30
  -1   8 -14   18.70    7.40
  -1   8 -14   10.20    7.10
  -1   8 -14    1.90    5.20
   1  -8  14    9.30    8.50
   1  -8  14   19.70    8.30
   1  -8  14    4.60    5.70
  -2   8 -14   -0.80    7.00
  -2   8 -14   -5.80    4.30
  -2   8 -14    4.30    6.30
   2  -8  14    6.70    8.50
   2  -8  14   -7.50    7.50
   2  -8  14    1.80    6.10
  -3   8 -14    8.00    7.40
  -3   8 -14   -5.30    5.80
   3  -8  14   -1.20    7.40
   3  -8  14   -5.00    8.40
   3  -8  14    1.10    6.70
  -4   8 -14    7.30    6.20
   4  -8  14   12.20   10.00
   4  -8  14   17.60    7.30
   4   7 -14   24.40    9.90
   4   7 -14   24.90   11.50
   4   7 -14   24.30    9.60
  -4  -7  14   31.90    9.40
  -4  -7  14   12.60    7.30
   3   7 -14    0.90    8.80
   3   7 -14    4.70    5.80
   3   7 -14   -5.50    9.90
  -3  -7  14   17.80    7.40
  -3  -7  14  -16.50    7.00
  -3  -7  14   -2.80    8.00
   2   7 -14   -7.10    6.30
   2   7 -14   10.40    8.70
   2   7 -14   -0.50    8.30
  -2  -7  14    6.70    8.70
  -2  -7  14    7.00    6.30
   1   7 -14   12.60    7.10
   1   7 -14   13.70    7.00
   1   7 -14   21.00    8.00
  -1  -7  14    7.00    8.10
  -1  -7  14   20.70    8.10
  -1  -7  14   12.00    6.50
   0   7 -14   13.90    5.90
   0   7 -14    9.40    7.30
   0  -7  14   12.90    6.20
   0  -7  14   10.90    7.60
   0  -7  14   13.40    8.00
  -1   7 -14   10.40    4.50
  -1   7 -14    8.50    6.90
  -1   7 -14    2.20    6.80
   1  -7  14    6.00    7.90
   1  -7  14    9.10    7.90
   1  -7  14   16.60    6.30
  -2   7 -14   60.29    9.00
  -2   7 -14   88.29   10.90
   2  -7  14   53.59    9.80
   2  -7  14   44.60    7.80
   2  -7  14   54.79    9.60
  -3   7 -14   14.80    7.60
  -3   7 -14   16.80    6.30
   3  -7  14   10.80    8.70
   3  -7  14    6.40    8.00
   3  -7  14    9.50    7.30
  -4   7 -14    0.70    5.80
  -4   7 -14   -1.70    9.30
   4  -7  14   -7.40    7.10
   4  -7  14    1.60    8.80
   4   6 -14   12.00    9.90
   4   6 -14  -10.70   10.20
   4   6 -14   21.90    7.70
  -4  -6  14    0.60    7.00
  -4  -6  14    5.80    8.40
   3   6 -14    8.70    6.00
   3   6 -14   10.40    9.00
   3   6 -14   12.00    6.20
  -3  -6  14    0.50    7.70
  -3  -6  14    7.50    7.00
  -3  -6  14   -7.00    6.50
   2   6 -14   61.69    8.30
   2   6 -14   78.99   10.30
   2   6 -14   91.99   10.90
  -2  -6  14   61.49    8.70
  -2  -6  14   66.19   10.20
  -2  -6  14   60.19    8.70
   1   6 -14   26.30    7.00
   1   6 -14   35.50    7.70
   1   6 -14   30.80    8.30
  -1  -6  14   43.40    8.20
  -1  -6  14   35.90    9.20
  -1  -6  14   22.40    7.00
   0   6 -14    3.50    6.30
   0   6 -14   -1.40    5.20
   0  -6  14   -1.30    7.60
   0  -6  14    5.40    6.50
   0  -6  14    0.90    7.10
  -1   6 -14   -2.70    3.40
  -1   6 -14   -2.10    6.10
   1  -6  14   -7.70   11.00
   1  -6  14   -3.30    7.60
   1  -6  14    0.60    6.40
  -2   6 -14    2.70    6.80
  -2   6 -14    0.30    6.20
   2  -6  14    9.30    7.20
   2  -6  14    7.00    8.40
   2  -6  14    4.70    7.60
  -3   6 -14    2.00    5.80
  -3   6 -14   -4.90    6.70
   3  -6  14    5.20    7.10
   3  -6  14    9.30    8.20
   3  -6  14    4.50    8.60
  -4   6 -14    6.80    5.70
  -4   6 -14    5.90    7.30
   4  -6  14    3.40    7.70
   4  -6  14  -13.10    8.20
   4  -6  14   -6.00    7.90
   4   5 -14    3.50    9.60
   4   5 -14    4.30   10.00
   4   5 -14  -11.00    5.60
   4   5 -14    5.80    7.60
  -4  -5  14   16.70    8.30
  -4  -5  14    2.40    7.20
   3   5 -14   -6.10    9.00
   3   5 -14   -7.10    8.50
   3   5 -14   14.80    6.30
   3   5 -14   10.40    7.10
  -3  -5  14    5.80    7.90
  -3  -5  14  -12.20    7.60
  -3  -5  14   -7.90    6.70
   2   5 -14    0.90    7.90
   2   5 -14   10.70    8.30
   2   5 -14   -1.20    6.60
  -2  -5  14   -2.00    6.70
  -2  -5  14   -5.60    6.30
  -2  -5  14   -6.10    8.10
   1   5 -14    3.30    6.70
   1   5 -14   12.20    6.60
  -1  -5  14    6.30    6.80
  -1  -5  14    3.50    6.70
   0   5 -14    7.20    6.80
   0   5 -14    1.70    4.60
   0   5 -14    6.20    6.80
   0  -5  14   -5.30    6.40
   0  -5  14   -6.50    6.30
  -1   5 -14    2.20    7.50
  -1   5 -14  -11.20    5.60
   1  -5  14    0.60    7.00
   1  -5  14   -3.50    7.30
   1  -5  14   -0.80    6.50
  -2   5 -14    7.00    6.50
  -2   5 -14   17.70    6.40
   2  -5  14   17.60    8.00
   2  -5  14   13.50    8.10
   2  -5  14    4.20    7.20
  -3   5 -14   60.19    9.10
   3  -5  14   52.69    9.90
   3  -5  14   56.59    9.90
  -4   5 -14  100.09   10.70
  -4   5 -14   74.59   10.00
   4  -5  14   88.79   11.20
   4  -5  14   85.99   10.60
   4  -5  14   82.19   11.40
   5   4 -14  -14.90   10.60
   5   4 -14    5.10    8.80
  -5  -4  14    6.20    8.10
   4   4 -14  -12.70    5.60
   4   4 -14   10.00    9.90
   4   4 -14    7.60    7.70
   4   4 -14   -8.20    9.80
  -4  -4  14   -9.90    7.00
  -4  -4  14   -1.90    7.60
   3   4 -14    2.30    6.40
   3   4 -14   12.50    9.20
   3   4 -14  -10.50    8.90
   3   4 -14   -1.70    8.70
  -3  -4  14   11.70    6.30
  -3  -4  14   -0.80    6.70
  -3  -4  14    5.70    7.90
   2   4 -14   11.40    7.00
   2   4 -14    9.00    8.30
   2   4 -14    7.80    4.70
   2   4 -14   18.00    8.10
  -2  -4  14    6.10    6.20
  -2  -4  14    8.70   11.90
  -2  -4  14    7.20    6.90
   1   4 -14   69.79    8.30
   1   4 -14   80.49    9.00
   1   4 -14   69.79   11.80
  -1  -4  14   54.79    8.40
  -1  -4  14   58.49    7.90
  -1  -4  14   63.79   10.70
   0   4 -14   -4.30    6.20
   0   4 -14    1.50    3.90
   0   4 -14    0.00    6.70
   0  -4  14   -5.20    7.60
   0  -4  14   -3.90    6.60
   0  -4  14   -1.20    6.00
  -1   4 -14   12.60    6.10
   1  -4  14    9.90    7.10
   1  -4  14    1.80    8.70
   1  -4  14    6.00    7.00
  -2   4 -14    0.30    6.50
  -2   4 -14    5.10    5.60
   2  -4  14   -5.00    7.30
   2  -4  14    3.40    7.30
   2  -4  14    8.90    7.50
  -3   4 -14   11.30    5.40
  -3   4 -14    4.10    6.80
   3  -4  14    7.50    7.50
   3  -4  14   10.50    8.00
   3  -4  14    9.70    7.90
  -4   4 -14   11.90    7.40
   4  -4  14   -3.00    7.80
   4  -4  14   -0.90    8.20
   4  -4  14   10.80    8.20
   5   3 -14   -8.90   10.90
   5   3 -14   15.20    9.00
  -5  -3  14    8.40    8.00
   4   3 -14    7.20    8.20
   4   3 -14    1.40   10.00
   4   3 -14    8.10    9.70
   4   3 -14   15.10    6.30
  -4  -3  14    1.50    7.60
  -4  -3  14   -4.20    7.40
   3   3 -14   38.40    9.60
   3   3 -14   45.50    7.80
   3   3 -14   40.40    9.60
  -3  -3  14   48.00    6.50
  -3  -3  14   29.40    8.70
  -3  -3  14   17.50    7.90
   2   3 -14    8.20    8.30
   2   3 -14    8.60    6.90
   2   3 -14    7.20    7.50
  -2  -3  14    3.70    7.30
  -2  -3  14    7.10    6.10
  -2  -3  14   15.10    9.10
   1   3 -14    0.90    6.30
   1   3 -14    8.40    7.60
   1   3 -14    3.90    5.80
  -1  -3  14   -5.30    6.60
  -1  -3  14   -5.50    7.40
  -1  -3  14   -2.60    6.00
   0   3 -14    6.10    6.60
   0   3 -14   11.10    7.00
   0  -3  14   14.00    7.60
   0  -3  14    5.80    7.10
   0  -3  14   13.10    6.90
  -1   3 -14    8.70    6.00
   1  -3  14    1.50    6.90
   1  -3  14    2.80    6.60
  -2   3 -14   17.50    7.10
  -2   3 -14   20.70    6.00
   2  -3  14   15.70    7.80
   2  -3  14   22.10    7.70
  -3   3 -14   21.40    5.60
  -3   3 -14   13.70    7.40
   3  -3  14   12.60    8.10
   3  -3  14   10.70    8.10
  -4   3 -14   30.40    8.20
  -4   3 -14   39.80    6.20
   4  -3  14   43.00    9.70
   4  -3  14   48.80    9.70
   5   2 -14    3.30    9.10
   5   2 -14   12.00   10.70
  -5  -2  14   -2.50    7.30
   4   2 -14   -2.90    9.60
   4   2 -14   -7.10    6.20
   4   2 -14   -0.60    9.50
  -4  -2  14   -6.80    7.40
  -4  -2  14    2.10    7.50
   3   2 -14    5.50    8.90
   3   2 -14    4.00    8.60
   3   2 -14    2.90    7.10
  -3  -2  14    7.20    8.90
  -3  -2  14    2.30    4.40
  -3  -2  14   -7.10    7.20
   2   2 -14   -0.70    7.90
   2   2 -14    1.60    7.00
   2   2 -14    1.10    7.10
  -2  -2  14   -4.50    7.40
  -2  -2  14   12.00    5.50
  -2  -2  14   -5.30   10.80
   1   2 -14    4.60    5.50
   1   2 -14   -4.30    6.60
   1   2 -14    3.20    7.40
  -1  -2  14    3.10    7.50
  -1  -2  14    8.40    4.30
  -1  -2  14    1.90    5.50
  -1  -2  14   -4.30    6.70
   0   2 -14   24.90    7.20
   0   2 -14   19.30    7.00
   0  -2  14    9.50    7.20
   0  -2  14   13.90    7.60
   0  -2  14   15.70    6.80
  -1   2 -14   37.90    7.10
   1  -2  14   16.70    7.60
  -2   2 -14    4.00    6.60
  -2   2 -14    7.00    6.40
  -2   2 -14    1.00    5.10
   2  -2  14    1.80    7.10
  -3   2 -14   42.80    8.20
  -3   2 -14   27.80    5.60
  -3   2 -14   32.80    7.80
   3  -2  14   26.80    8.40
   3  -2  14   19.40    8.50
  -4   2 -14    5.90    5.00
  -4   2 -14  -12.30    6.30
  -4   2 -14   -0.60    6.70
   4  -2  14   -1.00    7.80
   4  -2  14    1.30    8.00
   5   1 -14    8.70   10.50
  -5  -1  14  -13.60    6.90
   4   1 -14   28.80   10.60
   4   1 -14   49.00   10.90
   4   1 -14   49.80    8.30
  -4  -1  14   34.00    8.90
  -4  -1  14   39.60    8.20
   3   1 -14    0.60    7.10
   3   1 -14    5.50    9.00
   3   1 -14   -9.70    8.10
  -3  -1  14    7.10   12.40
  -3  -1  14    3.30    6.40
  -3  -1  14   13.70    7.70
   2   1 -14    8.80    8.30
   2   1 -14    6.30    6.90
   2   1 -14    3.20    6.90
  -2  -1  14   -2.20    5.50
  -2  -1  14   -4.40    7.10
  -2  -1  14   -4.80    5.10
  -2  -1  14    6.70    9.20
   1   1 -14   -2.70    6.40
   1   1 -14    5.20    5.20
   1   1 -14    9.60    7.60
  -1  -1  14    2.60    7.10
  -1  -1  14   13.70    6.10
  -1  -1  14   13.50    4.80
  -1  -1  14   13.50    7.30
   0   1 -14   32.80    7.50
   0   1 -14   24.10    7.80
   0  -1  14   40.60    5.00
   0  -1  14   14.10    7.60
   0  -1  14   23.50    7.90
  -1   1 -14  160.08   13.90
  -1   1 -14  149.59   13.00
  -1   1 -14  130.69   12.30
   1  -1  14  131.69   14.00
  -2   1 -14   16.90    5.30
  -2   1 -14   24.20    7.30
  -2   1 -14   17.90    6.80
   2  -1  14   22.80    8.00
   2  -1  14   25.40    7.80
  -3   1 -14   21.00    4.90
  -3   1 -14   11.00    6.90
  -3   1 -14   26.90    7.30
   3  -1  14   13.80    8.20
   3  -1  14   16.60    8.00
  -4   1 -14   -4.90    7.10
  -4   1 -14    6.40    6.70
  -4   1 -14   -6.70    6.30
   4  -1  14    1.40    8.10
   4  -1  14   -7.10    7.40
   5   0 -14    5.40   13.70
   5   0 -14   26.00   10.60
  -5   0  14   13.70   10.90
  -5   0  14   19.20    7.40
   4   0 -14   15.20    9.60
   4   0 -14   15.60    7.50
   4   0 -14   -2.50    9.50
  -4   0  14    6.90    7.10
  -4   0  14    6.50    7.80
   3   0 -14   42.90    9.30
   3   0 -14   41.10    8.20
   3   0 -14   44.50   10.10
  -3   0  14   40.80    8.30
  -3   0  14   39.00    7.70
  -3   0  14   36.20    8.70
   2   0 -14    2.60    6.70
   2   0 -14   -0.90    8.10
   2   0 -14   11.00    7.60
  -2   0  14    4.90    7.40
  -2   0  14   11.10    5.00
  -2   0  14    2.80    7.20
  -2   0  14    6.30    5.90
   1   0 -14   58.89    8.30
   1   0 -14   35.90    5.50
   1   0 -14   35.00    8.30
  -1   0  14   42.80    6.90
  -1   0  14   41.80    8.20
  -1   0  14   53.29    7.80
   0   0 -14  314.17   19.00
   0   0  14  307.97   23.90
   0   0  14  381.26   17.00
   0   0  14  375.06   19.80
  -1   0 -14    6.90    6.00
  -1   0 -14   -5.60    5.90
  -1   0 -14    0.70    6.60
   1   0  14    0.80    9.20
   1   0  14   -2.40    4.70
  -2   0 -14   16.10    7.20
  -2   0 -14   27.00    5.40
  -2   0 -14   26.20    7.10
   2   0  14   28.80    7.90
   2   0  14   23.50    8.20
   2   0  14   43.70    5.90
  -3   0 -14    0.50    6.30
  -3   0 -14    3.40    6.40
  -3   0 -14   -3.40    4.10
   3   0  14   -2.10    7.80
   3   0  14    8.10    5.30
   3   0  14   -8.80    7.20
  -4   0 -14   12.60    8.60
  -4   0 -14    8.30    6.90
   4   0  14    5.70    8.30
   4   0  14   20.70    8.70
   5  -1 -14   -6.70    9.90
   5  -1 -14    7.90    9.90
  -5   1  14    4.50    6.60
  -5   1  14   -3.10    8.00
  -5   1  14    7.60    7.80
   4  -1 -14   13.80    9.10
   4  -1 -14   31.50   10.60
  -4   1  14   11.10    7.70
  -4   1  14   14.90    8.20
   3  -1 -14    1.60    7.60
   3  -1 -14    5.80    9.30
  -3   1  14    5.00    6.90
  -3   1  14    4.40    7.20
  -3   1  14    4.80    7.30
   2  -1 -14   21.50    8.80
   2  -1 -14   23.70    8.00
   2  -1 -14   25.00   10.80
  -2   1  14   24.70    8.00
  -2   1  14   24.60    5.00
  -2   1  14   31.70    6.70
  -2   1  14   18.30    7.80
   1  -1 -14    7.60    7.20
  -1   1  14   11.70    5.90
  -1   1  14    5.10    7.00
  -1   1  14    2.90    7.40
   0  -1 -14  -10.40    6.30
   0  -1 -14   -5.90    6.60
   0  -1 -14   -4.80    5.50
   0   1  14    3.30    7.20
   0   1  14    0.50    7.00
   0   1  14   -6.60    7.20
  -1  -1 -14   12.50    6.30
  -1  -1 -14    7.80    6.30
  -1  -1 -14    8.40    6.00
   1   1  14    2.20    7.10
  -2  -1 -14    2.20    4.50
  -2  -1 -14   18.20    7.40
  -2  -1 -14    2.80    6.10
   2   1  14    4.70    7.60
   2   1  14   11.30    7.30
   2   1  14   10.90    5.60
  -3  -1 -14    5.80    6.90
  -3  -1 -14   -2.60    5.70
  -3  -1 -14   -4.40    3.70
   3   1  14   -3.80    7.60
   3   1  14    7.90    7.50
   3   1  14    1.20    5.40
  -4  -1 -14    4.30    6.50
   4  -2 -14   -6.80    9.60
   4  -2 -14   -2.00    9.20
   4  -2 -14  -12.20    7.00
  -4   2  14    8.30    7.80
  -4   2  14   15.90    7.70
  -4   2  14   -5.10    6.20
   3  -2 -14   29.10   10.20
   3  -2 -14   73.49    9.50
   3  -2 -14   47.00    8.80
  -3   2  14   52.99    8.50
  -3   2  14   63.89    8.40
  -3   2  14   24.40    8.50
   2  -2 -14   27.00    8.60
   2  -2 -14   11.50    7.50
   2  -2 -14   13.40    7.40
  -2   2  14    3.60    7.10
  -2   2  14    0.50    6.40
  -2   2  14    5.50    7.70
  -2   2  14   13.70    5.30
   1  -2 -14   -0.60    6.90
   1  -2 -14   -0.30    7.30
  -1   2  14    2.10    6.00
  -1   2  14   -0.30    7.00
  -1   2  14   -7.00    6.80
   0  -2 -14   21.40    6.30
   0  -2 -14   14.70    7.10
   0  -2 -14   16.40    7.30
   0   2  14   18.90    7.20
   0   2  14   -1.10    7.30
   0   2  14   26.80    6.00
  -1  -2 -14   50.79    8.90
  -1  -2 -14   41.40    7.90
  -1  -2 -14   59.49    7.50
   1   2  14   54.39    6.90
   1   2  14   30.60    8.50
  -2  -2 -14   91.19   11.50
  -2  -2 -14   99.39    8.90
  -2  -2 -14   98.79   12.80
   2   2  14   84.79    9.80
   2   2  14   75.99   10.40
   2   2  14  106.69   10.30
  -3  -2 -14   21.60    7.00
  -3  -2 -14    9.60    6.90
   3   2  14    7.10    6.10
   3   2  14   -4.50    7.00
   3   2  14    5.90    8.00
  -4  -2 -14   14.90    8.70
  -4  -2 -14    6.60    6.40
   4   2  14   -3.40    7.90
   4   2  14   22.30   10.00
   4  -3 -14    9.40    8.90
   4  -3 -14  -11.70    7.00
   4  -3 -14  -15.50    9.30
  -4   3  14    2.30    5.90
  -4   3  14   -3.60    7.80
  -4   3  14  -11.70    7.30
   3  -3 -14    5.40    7.60
   3  -3 -14   -2.40    7.70
   3  -3 -14    6.50    9.50
  -3   3  14  -10.80    6.30
  -3   3  14    5.40    7.90
   2  -3 -14    5.80    6.40
   2  -3 -14    5.90    7.20
   2  -3 -14    8.30    8.30
  -2   3  14    7.30    7.10
  -2   3  14   17.60    7.10
  -2   3  14    1.10    5.00
  -2   3  14    1.80    7.50
   1  -3 -14   41.20    9.40
   1  -3 -14   25.90    5.80
   1  -3 -14   21.00    7.50
  -1   3  14   28.60    7.40
  -1   3  14   31.20    7.30
  -1   3  14   17.20    8.10
   0  -3 -14    0.00    5.50
   0  -3 -14    6.20    6.90
   0  -3 -14    5.40    6.60
   0   3  14   -6.50    6.00
   0   3  14    8.90    7.80
   0   3  14   17.70    7.10
  -1  -3 -14   29.60    6.60
  -1  -3 -14   21.40    7.00
  -1  -3 -14    8.20    7.20
   1   3  14   16.10    7.90
   1   3  14   22.10    8.20
   1   3  14   19.10    6.40
  -2  -3 -14  -10.10    5.50
  -2  -3 -14   -1.50    6.30
  -2  -3 -14    4.70    4.20
   2   3  14   -8.40    5.80
   2   3  14   -3.70    6.50
   2   3  14   -2.10    7.20
  -3  -3 -14   14.20    7.60
  -3  -3 -14   13.20    6.80
   3   3  14    6.80    7.00
   3   3  14   18.30    7.60
   3   3  14   13.70    8.20
   4  -4 -14   11.10    7.80
   4  -4 -14   -6.70   11.40
   4  -4 -14  -17.10    8.00
  -4   4  14   -5.90    6.30
  -4   4  14   -2.00    8.30
  -4   4  14   16.20    9.40
   3  -4 -14   -0.70    7.70
   3  -4 -14    3.20    9.00
   3  -4 -14   -3.00    7.40
  -3   4  14    2.50    6.10
  -3   4  14   -6.40    7.30
  -3   4  14    3.80    8.10
   2  -4 -14   -2.90    8.10
   2  -4 -14   -2.00    7.30
   2  -4 -14   -1.30    6.10
  -2   4  14   -7.80    7.60
  -2   4  14    5.50    7.60
  -2   4  14    9.10    6.70
   1  -4 -14   46.70    8.50
   1  -4 -14   49.00    6.50
  -1   4  14   40.00    9.10
  -1   4  14   73.39    8.60
  -1   4  14   55.59    8.20
   0  -4 -14   29.30    7.30
   0  -4 -14    9.40    7.10
   0  -4 -14    6.10    5.80
   0   4  14   19.20    7.00
   0   4  14   24.80    7.10
   0   4  14   12.40    8.00
  -1  -4 -14   36.30    7.90
  -1  -4 -14   48.00    7.00
  -1  -4 -14   55.79    7.50
   1   4  14   37.90    7.60
   1   4  14   24.20    8.50
   1   4  14   27.60    7.00
  -2  -4 -14   12.00    6.90
  -2  -4 -14   12.30    6.20
  -2  -4 -14    7.60    4.10
   2   4  14    4.60    6.50
   2   4  14    9.60    7.10
   2   4  14    8.30    7.70
  -3  -4 -14    2.40    7.20
  -3  -4 -14   -0.70    5.70
   3   4  14  -13.80    6.40
   3   4  14    2.60    7.10
   4  -5 -14   22.00    8.50
   4  -5 -14    8.90    8.90
  -4   5  14    2.80    8.20
  -4   5  14    7.40    9.80
   3  -5 -14   -2.70    7.70
   3  -5 -14   -6.30    7.60
   3  -5 -14    3.80    8.60
  -3   5  14    5.80    5.90
  -3   5  14   12.60    7.80
  -3   5  14    8.10    8.10
   2  -5 -14    1.10    7.20
   2  -5 -14   -1.80    8.30
   2  -5 -14   -3.40    5.90
  -2   5  14    9.60    7.80
  -2   5  14   -0.40    6.30
  -2   5  14    8.80    7.70
   1  -5 -14    2.10    5.00
   1  -5 -14   -6.00    7.30
   1  -5 -14   -1.50    7.10
  -1   5  14   -3.20    6.70
  -1   5  14    3.00    7.90
   0  -5 -14  168.88   14.10
   0  -5 -14  197.58   14.30
   0  -5 -14  181.28   15.20
   0   5  14  186.68   14.30
   0   5  14  182.58   16.40
   0   5  14  187.38   16.10
  -1  -5 -14   34.60    7.20
  -1  -5 -14    9.10    6.90
  -1  -5 -14   21.70    6.40
   1   5  14   30.60    7.10
   1   5  14   21.80    8.40
  -2  -5 -14    3.70    6.30
  -2  -5 -14   -6.00    6.70
   2   5  14   -2.40    6.30
   2   5  14   -3.40    6.60
   2   5  14    6.70    7.80
  -3  -5 -14   10.40    6.50
   3  -6 -14  -16.70    8.40
   3  -6 -14   -1.30    8.20
   3  -6 -14   12.50    8.10
  -3   6  14   -0.60    7.80
  -3   6  14   13.50    8.00
   2  -6 -14   -5.90    7.10
   2  -6 -14    1.00    6.30
   2  -6 -14   -7.20    7.80
  -2   6  14    1.00    7.70
  -2   6  14   19.70    8.00
  -2   6  14    5.50    5.90
   1  -6 -14  254.07   14.40
   1  -6 -14  223.18   16.70
   1  -6 -14  226.68   17.10
  -1   6  14  220.68   17.80
  -1   6  14  272.17   16.90
  -1   6  14  244.68   15.30
   0  -6 -14  122.99   11.40
   0  -6 -14  119.29   12.50
   0  -6 -14  114.49   13.70
   0   6  14  110.19   12.60
   0   6  14  118.39   14.50
   0   6  14  147.89   13.20
  -1  -6 -14   47.70    7.50
  -1  -6 -14   47.00    8.00
  -1  -6 -14   35.70    6.70
   1   6  14   46.10    7.70
   1   6  14   33.00    7.30
   1   6  14   32.70    8.80
  -2  -6 -14    4.50    6.20
  -2  -6 -14   12.10    9.00
   2   6  14    8.80    6.80
   2   6  14    7.70    6.80
   3  -7 -14   29.70   10.00
   3  -7 -14   31.90   13.00
  -3   7  14   12.60    8.40
  -3   7  14    0.70   10.80
   2  -7 -14   -7.20    7.00
   2  -7 -14    7.30    8.00
  -2   7  14   18.90    8.40
  -2   7  14    0.80    7.60
   1  -7 -14    9.60    7.40
   1  -7 -14   10.50    5.30
   1  -7 -14   -3.90    7.20
  -1   7  14   -0.10    7.80
  -1   7  14   -4.50    6.20
  -1   7  14    9.30    7.40
   0  -7 -14    9.20    7.40
   0  -7 -14   13.90    6.00
   0  -7 -14   -2.30   10.70
   0   7  14   14.10    6.70
   0   7  14   -2.80    7.00
   0   7  14   13.90    7.80
  -1  -7 -14   -3.00    6.00
   1   7  14   -1.80    6.90
   1   7  14    9.80    6.40
   1   7  14   -3.00    8.40
   1  -8 -14    5.70    5.80
   1  -8 -14    8.00    7.30
   1  -8 -14   16.60    8.50
  -1   8  14   -4.80   11.60
  -1   8  14   21.30    8.10
   0  -8 -14   -5.60    7.00
   0  -8 -14    3.40    7.70
   0  -8 -14    7.60    6.00
   0   8  14   -7.10    6.80
   0   8  14    1.60    7.10
   1  12 -15   -7.00    7.70
   1  12 -15    0.80    8.00
  -1 -12  15    2.70    9.40
  -1 -12  15   15.60    9.80
   0  12 -15   10.90    9.10
   0  12 -15   12.50    7.20
   0 -12  15    9.60    9.80
  -1  12 -15    8.80    8.20
  -1  12 -15   13.70    7.30
   2  11 -15   25.90    9.20
   2  11 -15   14.80   10.00
  -2 -11  15   13.00   10.00
  -2 -11  15   16.90    9.80
   1  11 -15  -10.70    6.70
   1  11 -15   -0.80    7.70
   1  11 -15    5.60   10.10
  -1 -11  15    8.00    9.50
  -1 -11  15    7.80    9.60
   0  11 -15   48.40    8.10
   0  11 -15   43.40    9.00
   0  11 -15   55.69    9.70
   0 -11  15   66.19   10.90
   0 -11  15   40.40   10.10
  -1  11 -15   43.60    8.90
  -1  11 -15   73.49   11.00
  -1  11 -15   55.79    8.00
   1 -11  15   74.59   11.20
   1 -11  15   54.49   10.80
  -2  11 -15    8.30    8.50
   2 -11  15    2.80   10.30
   2  10 -15   -6.70    8.30
   2  10 -15    3.90    8.40
  -2 -10  15    9.10    9.10
  -2 -10  15   -5.50    5.90
  -2 -10  15    1.70    8.60
   1  10 -15    7.50    6.90
   1  10 -15    1.30    8.20
   1  10 -15   13.10    7.70
  -1 -10  15   -2.00    8.70
  -1 -10  15    0.60    8.80
  -1 -10  15   -4.80    5.40
   0  10 -15   20.50    7.50
   0  10 -15   15.60    7.80
   0  10 -15   15.10    6.80
   0 -10  15   -1.90    8.40
   0 -10  15    2.40    5.00
   0 -10  15   25.90    9.30
  -1  10 -15   -1.10    7.10
  -1  10 -15  -10.20    5.90
  -1  10 -15   -6.80    7.00
   1 -10  15   11.00    9.00
   1 -10  15    8.60    9.20
  -2  10 -15    6.60    7.20
  -2  10 -15  -10.00    6.50
   2 -10  15  -12.40    8.50
   2 -10  15   12.60    8.50
   3   9 -15    3.70   10.00
  -3  -9  15    0.50    6.10
  -3  -9  15   13.60    9.40
   2   9 -15    3.00    8.50
   2   9 -15    1.00    6.80
   2   9 -15   -8.10    8.10
  -2  -9  15   -5.20    8.20
  -2  -9  15    8.50    8.70
   1   9 -15    7.90    7.20
   1   9 -15   10.00    8.20
   1   9 -15   13.00    7.50
  -1  -9  15   -4.70    8.20
  -1  -9  15   10.80    6.10
  -1  -9  15    3.00    8.70
   0   9 -15    9.10    6.50
   0   9 -15    9.70    7.80
   0   9 -15   -5.50    7.00
   0  -9  15    9.20    8.80
   0  -9  15   14.00    6.00
   0  -9  15    0.90    8.70
  -1   9 -15   -0.80    7.10
  -1   9 -15   -0.20    7.10
  -1   9 -15  -13.10    5.20
   1  -9  15   -1.80    8.10
   1  -9  15    0.20    8.50
   1  -9  15   10.90    5.80
  -2   9 -15   13.00    7.30
  -2   9 -15   16.30    8.10
   2  -9  15    1.00    8.50
   2  -9  15   16.40    6.40
   2  -9  15   28.30    9.60
  -3   9 -15   15.10    8.40
  -3   9 -15   16.70    7.00
   3  -9  15   13.20   10.50
   3   8 -15   51.49   11.40
   3   8 -15   43.10    7.20
   3   8 -15   58.69   11.00
  -3  -8  15   31.30    7.60
  -3  -8  15   47.00    9.90
  -3  -8  15   55.19    9.00
   2   8 -15    1.00    7.90
  -2  -8  15    0.60    8.50
  -2  -8  15   -0.60   11.10
  -2  -8  15   -5.60    8.60
   1   8 -15    3.20    7.10
   1   8 -15   12.50    7.50
   1   8 -15   20.70    8.50
  -1  -8  15    6.30    6.00
  -1  -8  15    3.30    8.30
  -1  -8  15   16.20    8.90
   0   8 -15    3.30    7.20
   0   8 -15   -3.20    7.10
   0   8 -15   -0.60    5.80
   0  -8  15   -4.40    5.90
   0  -8  15    1.50    8.60
   0  -8  15   -0.30    8.00
  -1   8 -15   41.40    8.30
  -1   8 -15   34.10    8.00
  -1   8 -15   45.10    9.70
   1  -8  15   64.59   10.20
   1  -8  15   43.60    7.70
   1  -8  15   60.09   10.20
  -2   8 -15   27.20    8.00
  -2   8 -15   23.90    7.10
   2  -8  15   15.30    6.80
   2  -8  15   28.90    9.30
   2  -8  15   21.40    9.40
  -3   8 -15   11.00    6.70
   3  -8  15    5.90    9.10
   3  -8  15  -19.10    8.70
   4   7 -15  -13.60   10.60
  -4  -7  15   -4.90    6.70
  -4  -7  15    0.70    9.70
   3   7 -15   -3.10    9.10
   3   7 -15   -1.90    9.80
   3   7 -15    1.60    6.20
  -3  -7  15   -4.10    8.20
  -3  -7  15   -4.10    7.30
  -3  -7  15    5.00    7.10
   2   7 -15    6.80    8.90
   2   7 -15    7.50    8.70
   2   7 -15   10.20    8.50
  -2  -7  15    0.60    8.10
  -2  -7  15    5.50    8.60
  -2  -7  15    1.50    7.80
   1   7 -15    4.60    7.80
   1   7 -15   -2.70    6.80
   1   7 -15    3.80    6.60
  -1  -7  15    7.10    8.50
  -1  -7  15   -2.20    7.80
  -1  -7  15    1.80    6.10
   0   7 -15   -2.10    5.50
   0   7 -15    9.50    6.90
   0   7 -15    9.30    7.40
   0  -7  15   -7.10    8.20
   0  -7  15   11.20    8.10
   0  -7  15    4.70    6.50
  -1   7 -15   -6.20    6.70
  -1   7 -15    0.40    4.00
  -1   7 -15    6.90    7.10
   1  -7  15   -0.70    7.90
   1  -7  15   -2.20    8.20
   1  -7  15   -5.00    6.30
  -2   7 -15  -10.90    6.60
  -2   7 -15    3.30    6.10
   2  -7  15   -0.20    6.80
   2  -7  15    4.50    8.80
   2  -7  15  -10.50    7.20
  -3   7 -15   27.70    8.20
  -3   7 -15   35.20    7.20
   3  -7  15   20.90    8.10
   3  -7  15   38.40    9.30
   3  -7  15   38.40   10.10
   4   6 -15  -16.70   10.00
  -4  -6  15  -16.40   10.40
  -4  -6  15    5.20    7.30
   3   6 -15    4.00    6.50
   3   6 -15   -6.10    9.80
   3   6 -15    8.40    9.20
  -3  -6  15    9.80    7.00
  -3  -6  15    6.60    8.60
  -3  -6  15   -3.50    7.10
   2   6 -15    7.80    8.50
   2   6 -15   -4.60    8.50
   2   6 -15   -4.90    6.70
  -2  -6  15    9.80    7.10
  -2  -6  15   15.10    7.50
  -2  -6  15   10.40    8.70
   1   6 -15    9.00    8.10
   1   6 -15    5.90    6.60
   1   6 -15    0.50    7.80
  -1  -6  15    8.20    7.80
  -1  -6  15   -2.50    8.20
  -1  -6  15   11.40    7.00
   0   6 -15    3.70    5.00
   0   6 -15    5.80    7.00
   0   6 -15   -0.20    6.60
   0  -6  15   11.60   13.40
   0  -6  15    2.80    6.80
   0  -6  15    6.80    8.30
  -1   6 -15   11.30    6.80
  -1   6 -15   10.50    7.10
   1  -6  15   11.40    7.20
   1  -6  15   13.90    7.80
   1  -6  15    7.60    8.50
  -2   6 -15   -4.40    5.80
  -2   6 -15   -6.70    6.40
   2  -6  15    6.20    7.60
   2  -6  15   -1.20    8.30
   2  -6  15    4.90    7.80
  -3   6 -15   -6.80    7.00
  -3   6 -15    5.90    6.00
   3  -6  15   -0.70    8.50
   3  -6  15    9.80    7.60
   3  -6  15   11.90    8.70
   4   5 -15   -0.40   10.10
  -4  -5  15   -2.00    7.50
  -4  -5  15   -1.30    8.20
   3   5 -15   30.40   10.10
  -3  -5  15   47.60    9.50
  -3  -5  15   39.70    8.90
  -3  -5  15   50.79    8.10
   2   5 -15   34.10    9.00
   2   5 -15   21.70    8.00
   2   5 -15   17.30    9.00
  -2  -5  15   20.30    9.00
  -2  -5  15   22.30    7.40
  -2  -5  15   13.60    7.90
   1   5 -15   20.00    6.50
   1   5 -15   21.80    8.60
  -1  -5  15   15.40    8.60
  -1  -5  15   19.10    7.60
  -1  -5  15    8.40    7.70
   0   5 -15   -1.10    4.10
   0   5 -15    1.70    7.10
   0   5 -15    7.90    7.00
   0  -5  15    4.70    7.20
   0  -5  15   -1.50    7.10
   0  -5  15    6.40    8.10
  -1   5 -15   -2.40    6.20
  -1   5 -15    3.20    7.20
   1  -5  15    2.40    8.10
   1  -5  15   -3.00    7.00
   1  -5  15    2.50    7.20
  -2   5 -15    2.90    6.70
  -2   5 -15    6.60    6.00
   2  -5  15    2.00    8.40
   2  -5  15   -7.10    7.80
   2  -5  15   22.10   11.70
  -3   5 -15   11.90    7.40
  -3   5 -15   12.30    5.90
   3  -5  15   18.40    8.10
   3  -5  15   12.50    8.90
   3  -5  15   12.00    8.50
   4   4 -15   33.90   10.70
   4   4 -15   33.00   10.70
   4   4 -15   24.80    7.50
   4   4 -15   14.40    8.40
  -4  -4  15   15.90    8.40
  -4  -4  15   36.10    8.90
   3   4 -15   -5.10    8.90
   3   4 -15    2.90    9.40
   3   4 -15   10.90    7.20
  -3  -4  15    1.50    7.40
  -3  -4  15  -17.10   11.20
  -3  -4  15   -0.80    7.80
   2   4 -15   -5.60    7.10
   2   4 -15   -5.50    8.00
   2   4 -15   -1.50    8.20
  -2  -4  15    5.30    8.40
  -2  -4  15   14.00    7.60
  -2  -4  15   -1.60    6.60
   1   4 -15    7.70    8.20
   1   4 -15   -5.60    7.60
  -1  -4  15   -3.10    6.60
  -1  -4  15    9.20    8.50
   0   4 -15    7.20    7.40
   0   4 -15   -2.50    6.60
   0  -4  15   -2.30    7.20
   0  -4  15    2.00    8.00
   0  -4  15    5.80    6.80
  -1   4 -15    4.40    6.50
  -1   4 -15    5.50    7.00
   1  -4  15    7.90    8.00
   1  -4  15   -5.00    7.70
  -2   4 -15   13.60    6.40
  -2   4 -15   23.80    7.70
   2  -4  15   20.10    8.30
   2  -4  15   -1.70    7.60
   2  -4  15    9.70    8.40
  -3   4 -15    9.60    7.10
  -3   4 -15    8.40    5.50
   3  -4  15   10.20    8.60
   3  -4  15   10.80    8.60
   3  -4  15    7.90    7.70
  -4   4 -15    0.70    5.80
  -4   4 -15    4.80    8.20
   4  -4  15   -3.40    8.40
   4  -4  15    1.10    8.30
   4  -4  15   16.40    9.00
   4   3 -15   24.90    7.50
   4   3 -15   30.70    8.70
   4   3 -15   17.50   10.50
   4   3 -15   19.00   10.10
  -4  -3  15   -4.70    7.60
  -4  -3  15   -0.50    7.80
   3   3 -15   11.50    7.20
   3   3 -15   15.90    9.00
   3   3 -15    8.70    9.40
   3   3 -15   19.20    6.90
  -3  -3  15   17.20    8.90
  -3  -3  15   18.10    8.30
  -3  -3  15   19.50    8.50
   2   3 -15  119.59   14.80
   2   3 -15   76.79    9.70
   2   3 -15   77.99   12.80
  -2  -3  15  110.49   11.10
  -2  -3  15   68.19   10.40
  -2  -3  15   66.59    9.60
   1   3 -15   -7.50    7.60
   1   3 -15    2.70    5.80
  -1  -3  15   -4.10    8.00
  -1  -3  15   10.80    6.50
  -1  -3  15   -1.70    9.00
   0   3 -15   41.80    8.30
   0   3 -15   40.40    9.20
   0  -3  15   42.70    8.30
   0  -3  15   35.00    8.70
  -1   3 -15    2.70    6.60
   1  -3  15   -1.50    8.50
   1  -3  15    6.40    9.70
   1  -3  15    2.30    7.80
  -2   3 -15    6.20    6.80
   2  -3  15    6.40    7.60
   2  -3  15   -6.00    7.50
   2  -3  15   18.70    8.40
  -3   3 -15    1.20    6.70
   3  -3  15   -2.40    7.60
   3  -3  15    1.90    8.10
  -4   3 -15   -0.40    8.90
  -4   3 -15    2.60    5.90
   4  -3  15   10.90    9.10
   4  -3  15   13.10    8.90
   4   2 -15   11.70   10.20
   4   2 -15   24.70   10.60
   4   2 -15   18.40    7.60
  -4  -2  15   14.60    8.00
  -4  -2  15    2.30    8.00
   3   2 -15    0.50    8.90
   3   2 -15   15.10   10.30
   3   2 -15   -4.60    8.40
  -3  -2  15   -9.90    7.20
  -3  -2  15   -4.50    7.60
   2   2 -15   19.70    9.10
   2   2 -15   21.30    7.60
  -2  -2  15    8.60    8.30
  -2  -2  15   -1.30    6.00
  -2  -2  15    3.40    7.40
   1   2 -15    1.00    5.40
   1   2 -15   -5.60    7.30
   1   2 -15    1.70    7.80
  -1  -2  15    1.10    4.20
  -1  -2  15    9.70    7.60
  -1  -2  15    6.10    8.00
  -1  -2  15    2.20    5.80
   0   2 -15   18.20    7.60
   0  -2  15   22.20    7.40
   0  -2  15   13.00    7.90
   0  -2  15   10.50    8.20
  -1   2 -15   20.40    7.40
  -1   2 -15   29.20    7.30
   1  -2  15   32.20    9.60
   1  -2  15   33.00    8.80
   1  -2  15   14.60    7.80
  -2   2 -15   23.20    7.60
  -2   2 -15   17.10    5.80
   2  -2  15   19.40    8.20
   2  -2  15   25.20    8.70
  -3   2 -15  105.49   13.00
  -3   2 -15  101.89   10.20
   3  -2  15  152.98   14.40
   3  -2  15  106.49   14.30
   4   1 -15    2.80    9.50
   4   1 -15    8.90   10.40
   4   1 -15    2.70   10.30
  -4  -1  15    5.20    7.40
  -4  -1  15   -0.50    7.50
   3   1 -15   -3.90    8.70
   3   1 -15    1.10    9.00
   3   1 -15    1.30    8.60
  -3  -1  15   -4.30    7.60
  -3  -1  15    1.50    7.60
   2   1 -15    9.20    8.30
   2   1 -15    3.90    8.50
   2   1 -15   15.20    7.20
  -2  -1  15   -2.40    5.70
  -2  -1  15   10.20    5.70
  -2  -1  15    4.90    7.90
  -2  -1  15   -4.00    7.50
   1   1 -15   -6.50    7.50
   1   1 -15   -3.80    7.60
  -1  -1  15   14.40    8.00
  -1  -1  15   -1.30    6.20
  -1  -1  15   13.90    5.00
  -1  -1  15   14.20    8.60
   0   1 -15    1.90    7.40
   0  -1  15    6.40    7.70
   0  -1  15   12.80    7.20
   0  -1  15   -1.10    7.70
  -1   1 -15    0.20    6.80
  -1   1 -15   -1.80    6.20
   1  -1  15    8.00    7.70
   1  -1  15   -5.40    7.40
  -2   1 -15   14.50    7.10
  -2   1 -15   12.80    7.10
  -2   1 -15    9.10    5.30
   2  -1  15   -2.10    7.70
   2  -1  15   19.50    8.00
  -3   1 -15   39.50    5.90
  -3   1 -15   49.30    8.50
  -3   1 -15   46.90    8.60
   3  -1  15   66.59    9.80
   3  -1  15   40.10    9.40
   4   0 -15   -5.40   12.00
   4   0 -15   -8.40    7.70
   4   0 -15    4.40    9.60
  -4   0  15    3.30    7.40
  -4   0  15   -1.50    7.60
  -4   0  15    2.40    7.10
   3   0 -15    5.90    7.80
   3   0 -15   37.20    9.30
   3   0 -15   27.80   10.00
  -3   0  15   22.10    7.20
  -3   0  15   17.50    8.50
  -3   0  15   22.30    8.10
   2   0 -15   -5.50    7.20
   2   0 -15   -7.60    6.70
   2   0 -15   -3.90    8.30
  -2   0  15   13.80    8.20
  -2   0  15   -3.60    7.20
  -2   0  15    3.10    9.80
  -2   0  15    6.00    6.00
   1   0 -15   32.60    9.00
   1   0 -15   46.40    8.50
  -1   0  15   32.10    7.70
  -1   0  15   24.10    8.70
   0   0 -15   -5.60    9.10
   0   0 -15    5.20    7.10
   0   0  15    3.00    5.20
   0   0  15   -3.00    7.50
   0   0  15    7.90    8.00
  -1   0 -15   59.89    8.30
  -1   0 -15   59.49    9.30
  -1   0 -15   68.89    8.70
   1   0  15   51.69    9.80
   1   0  15   84.69    8.30
   1   0  15   53.09    9.00
  -2   0 -15    4.10    6.80
  -2   0 -15   14.10    6.90
  -2   0 -15    5.50    5.10
   2   0  15   12.20    7.60
   2   0  15    4.30    8.00
  -3   0 -15    0.30    6.60
  -3   0 -15    7.20    6.70
  -3   0 -15    0.60    4.60
   3   0  15   -7.50    7.60
   3   0  15    2.20    8.00
   4  -1 -15   48.50    9.10
   4  -1 -15   70.99   11.30
  -4   1  15   55.19    8.40
  -4   1  15   63.59    9.30
  -4   1  15   30.00   14.40
   3  -1 -15   23.40   10.20
   3  -1 -15   34.90    8.90
   3  -1 -15   21.90    8.70
  -3   1  15   35.60    7.80
  -3   1  15   38.00    8.60
  -3   1  15   23.50    8.40
   2  -1 -15   30.90    8.90
   2  -1 -15   53.59   10.20
   2  -1 -15   56.69    8.10
  -2   1  15   65.29    7.90
  -2   1  15   50.69   10.30
  -2   1  15   35.10    9.30
   1  -1 -15   89.29   10.40
   1  -1 -15  102.39   13.30
  -1   1  15   97.19   10.00
  -1   1  15   77.69    8.70
  -1   1  15   50.59   10.20
   0  -1 -15   69.99   12.20
   0  -1 -15   88.49   11.00
   0  -1 -15   63.69    9.40
   0   1  15   48.80    9.70
   0   1  15   88.99   10.10
   0   1  15  109.99    9.90
  -1  -1 -15    2.60    6.40
  -1  -1 -15    7.20    7.50
  -1  -1 -15   10.90    6.70
   1   1  15    8.40    8.20
   1   1  15   25.20    6.00
   1   1  15    2.00    7.30
  -2  -1 -15  -10.00    6.50
  -2  -1 -15    2.90    6.50
  -2  -1 -15   -0.20    4.60
   2   1  15   -6.40    7.30
   2   1  15   -4.60    5.50
   2   1  15    5.70    7.50
  -3  -1 -15   10.10    6.70
  -3  -1 -15    5.40    6.90
   3   1  15    6.90    8.20
   3   1  15   14.20    8.30
   4  -2 -15    3.80    8.80
   4  -2 -15   13.60    8.00
  -4   2  15   -1.00    7.80
  -4   2  15   -9.10   10.10
  -4   2  15    1.30    6.80
   3  -2 -15   19.90    8.50
   3  -2 -15  -13.70    7.70
   3  -2 -15   -4.20    9.10
  -3   2  15   13.10    7.70
  -3   2  15   -0.50    9.80
   2  -2 -15    2.90    7.40
   2  -2 -15    7.00    8.00
   2  -2 -15    2.50    8.70
  -2   2  15   -0.40    7.60
  -2   2  15    1.70    6.50
  -2   2  15   13.40    8.90
  -2   2  15  -17.60    8.70
   1  -2 -15  154.98   14.80
   1  -2 -15  161.68   14.90
  -1   2  15  178.88   12.60
  -1   2  15  129.69   15.40
   0  -2 -15    4.40    7.30
   0  -2 -15   -1.50    5.90
   0   2  15    2.90    7.80
   0   2  15    4.60    7.80
   0   2  15    0.30    6.20
  -1  -2 -15   58.89    7.60
  -1  -2 -15   46.40    8.40
  -1  -2 -15   31.20    7.40
   1   2  15   32.40    9.10
   1   2  15   28.40    6.60
   1   2  15   33.80    8.20
  -2  -2 -15    5.30    6.60
  -2  -2 -15   -3.00    4.30
  -2  -2 -15   21.60    7.50
   2   2  15    5.10    7.90
   2   2  15    8.10    7.30
   2   2  15    5.90    6.00
  -3  -2 -15   12.60    9.40
  -3  -2 -15   15.30   11.20
   3   2  15   36.40    9.30
   3  -3 -15  -17.30    7.00
   3  -3 -15   10.40    9.40
   3  -3 -15    4.80    7.80
  -3   3  15   -0.30    7.90
  -3   3  15   -7.20    7.60
  -3   3  15    2.70    7.30
   2  -3 -15   -0.40    7.30
   2  -3 -15   16.70    7.80
   2  -3 -15    8.80    8.70
  -2   3  15   17.50    7.60
  -2   3  15    6.20    7.90
  -2   3  15    0.80    8.00
  -2   3  15   23.00    8.00
   1  -3 -15   -2.80    7.30
   1  -3 -15    4.40    7.70
  -1   3  15    3.50   12.50
  -1   3  15    3.90    8.10
  -1   3  15    9.60    7.10
   0  -3 -15  155.28   16.30
   0  -3 -15  165.68   15.00
   0   3  15  202.78   13.50
   0   3  15  175.08   15.00
   0   3  15  151.98   15.50
  -1  -3 -15   -2.70    6.70
  -1  -3 -15    3.50    6.30
  -1  -3 -15   12.10    6.40
   1   3  15   -6.10    6.10
   1   3  15   -2.90    7.00
   1   3  15    1.30    7.90
  -2  -3 -15   -3.10    4.40
  -2  -3 -15    9.20    7.40
  -2  -3 -15   18.70    7.00
   2   3  15    6.60    7.00
   2   3  15   14.40    6.60
   2   3  15    5.80    7.90
   3  -4 -15    2.20    9.20
   3  -4 -15   -4.40    8.00
   3  -4 -15   31.80    8.60
  -3   4  15   -3.30    7.40
  -3   4  15   16.10   13.10
  -3   4  15   31.10    6.90
   2  -4 -15   15.80    8.90
   2  -4 -15   -0.20    7.60
  -2   4  15    2.70    7.00
  -2   4  15    1.40    7.90
  -2   4  15  -15.40    6.80
   1  -4 -15    5.10    7.20
   1  -4 -15   14.10    5.80
   1  -4 -15   23.70    8.50
  -1   4  15   13.00    8.70
  -1   4  15   12.40    9.80
   0  -4 -15    4.00    5.90
   0  -4 -15    2.00   10.70
   0  -4 -15   -0.60    6.90
   0   4  15    3.60    7.40
   0   4  15  -10.10    7.40
   0   4  15   -9.80    6.60
  -1  -4 -15   57.29    7.80
  -1  -4 -15   45.90    8.80
  -1  -4 -15   42.60    7.20
   1   4  15   30.70    8.30
   1   4  15   33.70    9.20
   1   4  15   31.60    7.90
  -2  -4 -15   -0.70    6.00
  -2  -4 -15  -15.10   10.00
   2   4  15    3.80    7.20
   2   4  15    6.90    6.70
   3  -5 -15    1.30    8.90
   3  -5 -15   -0.10    8.30
  -3   5  15   -0.80    7.90
  -3   5  15   -1.30    9.60
   2  -5 -15    3.00    8.10
   2  -5 -15  -10.50    7.30
  -2   5  15    9.10    6.90
  -2   5  15  -13.00    7.00
  -2   5  15   -2.10    7.80
   1  -5 -15   47.40    6.80
   1  -5 -15   38.90    8.60
   1  -5 -15   24.70    8.40
  -1   5  15   18.20    8.70
  -1   5  15   30.40    8.20
  -1   5  15   30.80    8.80
   0  -5 -15   22.40    7.50
   0  -5 -15   22.60    6.50
   0  -5 -15   11.30    7.00
   0   5  15   17.80    7.90
   0   5  15   28.10    7.80
   0   5  15    0.60    8.00
  -1  -5 -15   -5.10    6.00
  -1  -5 -15   -2.60    7.60
  -1  -5 -15    6.90    6.20
   1   5  15    7.00    7.00
   1   5  15   11.20    7.00
   1   5  15   -1.00    8.00
   2  -6 -15   -0.30    8.00
  -2   6  15   -4.40    7.40
   1  -6 -15   10.40    7.70
   1  -6 -15   -9.60    7.10
  -1   6  15    6.80   11.50
  -1   6  15   -0.80    7.50
  -1   6  15   -6.40    7.50
   0  -6 -15   16.60    6.30
   0  -6 -15   10.20    7.10
   0   6  15    0.50    7.50
   0   6  15   21.10   12.40
   0   6  15    5.80    7.40
  -1  -6 -15   -1.50    7.00
  -1  -6 -15   11.00    6.20
   1   6  15   -2.70    6.50
   1   6  15   10.80    7.30
   1   6  15    2.60    8.10
   1  10 -16    0.50    6.90
   1  10 -16   11.20    7.80
  -1 -10  16   -6.00    8.80
  -1 -10  16   12.90   11.40
  -1 -10  16    3.20    6.20
   0  10 -16    9.30    7.50
   0  10 -16   -2.70    6.60
   0 -10  16    3.60    9.10
  -1  10 -16   -8.30   12.60
   1 -10  16    2.30   10.10
   2   9 -16   16.00   11.20
   2   9 -16   -4.20    8.00
   2   9 -16   -0.90    6.50
  -2  -9  16   -2.70    5.90
  -2  -9  16    9.50   10.60
  -2  -9  16    5.50    9.00
   1   9 -16   28.70    9.30
   1   9 -16   16.00    7.70
  -1  -9  16   25.50   10.30
  -1  -9  16   51.19    9.80
   0   9 -16    9.70    7.70
   0   9 -16    0.70    7.90
   0   9 -16   -0.40    6.30
   0  -9  16   11.30    9.20
   0  -9  16    4.70    6.30
   0  -9  16    8.70    9.20
  -1   9 -16   -3.40    7.40
  -1   9 -16   -5.80    7.00
   1  -9  16   -3.90    5.90
   1  -9  16    2.10    8.90
   1  -9  16   -2.60    9.60
  -2   9 -16    3.80    8.40
   2  -9  16   17.50   11.80
   2   8 -16    6.30   10.20
   2   8 -16   -2.00    7.70
   2   8 -16    6.40    6.70
  -2  -8  16    6.00    8.50
  -2  -8  16    3.40    6.50
  -2  -8  16    2.10    9.20
   1   8 -16    9.30    7.40
   1   8 -16   -0.70    6.90
   1   8 -16   -3.00    8.20
  -1  -8  16    6.00    8.20
  -1  -8  16    5.00    6.70
  -1  -8  16    0.70    8.50
   0   8 -16   -7.00    6.90
   0   8 -16    7.60    5.80
   0   8 -16    2.10    7.80
   0  -8  16    3.10    6.80
   0  -8  16   14.30    8.90
   0  -8  16   27.70    9.70
  -1   8 -16    6.70    7.40
  -1   8 -16   -4.90    6.70
   1  -8  16    8.10    9.00
   1  -8  16    1.10    8.10
   1  -8  16   -0.70    6.60
  -2   8 -16   -0.50    6.60
   2  -8  16   -9.00    8.20
   2  -8  16    7.20    7.90
   3   7 -16   -4.10   10.10
   3   7 -16   10.80    9.90
   3   7 -16   -0.90    6.80
  -3  -7  16   -0.80    6.90
   2   7 -16   -1.70    6.90
   2   7 -16   -9.30    8.50
  -2  -7  16   -2.10    8.60
  -2  -7  16   -1.80   10.30
  -2  -7  16    2.20    6.40
   1   7 -16    8.30    6.80
   1   7 -16   -7.50    7.80
   1   7 -16   -5.80    6.90
  -1  -7  16    2.90    6.50
  -1  -7  16   -4.70    8.20
  -1  -7  16   11.60    8.50
   0   7 -16   -7.70    5.50
   0   7 -16   12.10    7.90
   0   7 -16    8.00    7.40
   0  -7  16   -0.70    8.90
   0  -7  16   -2.70    8.00
  -1   7 -16   28.80    8.40
  -1   7 -16   25.80    8.20
   1  -7  16   24.20    9.30
   1  -7  16    9.60   13.10
   1  -7  16   31.80    9.40
  -2   7 -16   -0.30    6.30
  -2   7 -16   -9.60    6.90
   2  -7  16   -7.90    6.70
   2  -7  16    8.20    9.10
   2  -7  16   -6.40    7.40
   3   6 -16   10.80   10.00
   3   6 -16   29.90    7.40
  -3  -6  16    5.70    7.50
  -3  -6  16    3.10    8.90
   2   6 -16   10.50    8.90
   2   6 -16    4.70    8.50
   2   6 -16    2.00    6.70
  -2  -6  16   10.00    7.30
  -2  -6  16   13.80    7.50
  -2  -6  16    2.40    8.70
   1   6 -16   -5.40    6.20
   1   6 -16   -8.40    6.90
   1   6 -16    1.10    7.90
  -1  -6  16   -1.30    6.80
  -1  -6  16    1.90    8.70
   0   6 -16   13.10    7.60
   0   6 -16    6.80    7.20
   0  -6  16  -10.90    8.10
   0  -6  16   18.00    8.10
   0  -6  16   -3.80    6.90
  -1   6 -16    0.40    6.60
  -1   6 -16    0.80    7.10
   1  -6  16    4.80    8.90
   1  -6  16    0.50    7.10
   1  -6  16   -4.30    7.60
  -2   6 -16   19.20    7.60
  -2   6 -16    6.00    6.20
   2  -6  16    5.20    8.10
   2  -6  16    2.00    7.10
   2  -6  16   16.90    9.20
  -3   6 -16    1.70    7.30
  -3   6 -16   11.60    6.20
   3  -6  16    0.60    9.00
   3  -6  16    9.00    7.90
   3  -6  16   -9.50    7.60
   3   5 -16   24.80   12.20
   3   5 -16   -9.30    7.00
   3   5 -16    6.20    9.80
  -3  -5  16   15.90    8.90
  -3  -5  16    0.80    7.40
   2   5 -16    1.90    8.70
   2   5 -16   -3.60    7.40
   2   5 -16  -13.30    8.00
  -2  -5  16    3.30    7.20
  -2  -5  16   -5.40    7.00
  -2  -5  16    3.20    8.70
   1   5 -16    7.30    6.00
   1   5 -16    1.30    8.10
   1   5 -16    0.10    7.60
  -1  -5  16    2.00    7.50
  -1  -5  16   -5.50    8.60
  -1  -5  16  -15.20    6.70
   0   5 -16    7.00    7.70
   0   5 -16   28.60    8.40
   0  -5  16    2.10    8.50
   0  -5  16   17.10    7.90
   0  -5  16   22.20    8.20
  -1   5 -16   14.60    6.90
  -1   5 -16    4.10    7.60
   1  -5  16    7.10    7.60
   1  -5  16    8.30    7.50
   1  -5  16   -5.10    8.60
  -2   5 -16   -4.60    6.70
  -2   5 -16   11.00    6.10
   2  -5  16   10.20    8.70
   2  -5  16    8.40    8.70
   2  -5  16    2.90    7.60
  -3   5 -16   14.90    6.00
  -3   5 -16    8.80    7.80
   3  -5  16   -0.10    7.50
   3  -5  16    7.50   10.40
   3   4 -16   36.40    8.20
   3   4 -16   42.60   11.40
   3   4 -16   41.40   10.50
  -3  -4  16   16.00    8.30
  -3  -4  16   54.59    9.80
   2   4 -16   29.90    9.70
   2   4 -16   31.00    8.70
   2   4 -16   44.50    9.30
  -2  -4  16   14.50    8.00
  -2  -4  16   40.60    9.80
  -2  -4  16   29.00    7.70
   1   4 -16    3.10    7.80
   1   4 -16   -0.30    8.10
   1   4 -16    1.40    7.60
  -1  -4  16    0.30    8.80
  -1  -4  16    2.00    7.00
  -1  -4  16    6.20    7.60
   0   4 -16   31.70    8.30
   0   4 -16   43.50    8.40
   0  -4  16   23.90    8.60
   0  -4  16   22.50    8.80
   0  -4  16   23.10    8.20
  -1   4 -16   64.99    9.50
  -1   4 -16   64.89    8.50
   1  -4  16   73.69   10.70
   1  -4  16   61.99    9.60
   1  -4  16   86.99   10.80
  -2   4 -16   20.00    6.60
  -2   4 -16   28.00    8.00
   2  -4  16   19.60    8.60
   2  -4  16   33.10    9.40
   2  -4  16   28.30    9.60
  -3   4 -16   21.30    6.30
   3  -4  16   17.20    8.80
   3   3 -16    9.30    7.70
   3   3 -16    4.20    9.60
  -3  -3  16    4.70    8.10
  -3  -3  16    2.50    7.80
   2   3 -16   41.00    9.80
   2   3 -16   32.20    8.50
   2   3 -16   47.90    9.00
  -2  -3  16   24.20    9.40
  -2  -3  16   26.40    7.60
  -2  -3  16   32.80    9.10
   1   3 -16   11.80    5.70
   1   3 -16   30.40    8.60
   1   3 -16   20.70    8.90
  -1  -3  16    5.50    8.90
  -1  -3  16   11.40    7.50
  -1  -3  16   19.30    8.30
   0   3 -16   86.79   10.10
   0   3 -16   77.19    9.90
   0  -3  16   74.69   10.50
   0  -3  16   54.69    9.60
  -1   3 -16    6.00    7.20
  -1   3 -16    5.20    6.10
   1  -3  16    2.20    7.70
   1  -3  16   -1.00    8.40
   1  -3  16    5.20    7.90
  -2   3 -16   19.60    6.40
  -2   3 -16   20.50    7.70
   2  -3  16   16.70    8.70
   2  -3  16   27.00    9.20
   2  -3  16    3.00    8.10
  -3   3 -16    4.70    5.70
   3  -3  16   14.00    8.60
   3   2 -16    0.10    7.10
   3   2 -16   -4.10    9.00
   3   2 -16  -14.60    8.80
  -3  -2  16   -1.70    8.00
  -3  -2  16   -4.50    7.70
   2   2 -16   21.70    9.50
   2   2 -16   -9.30    7.40
   2   2 -16   -4.80    7.50
  -2  -2  16   -3.60    8.20
  -2  -2  16    4.80    7.80
  -2  -2  16  -15.70    6.30
   1   2 -16    7.20    8.50
   1   2 -16   18.20    8.20
  -1  -2  16   14.50    8.90
  -1  -2  16   14.80    6.90
  -1  -2  16   12.80    8.10
   0   2 -16   10.80    7.70
   0   2 -16   15.00    7.70
   0  -2  16   10.90    8.30
   0  -2  16   -1.90    8.20
  -1   2 -16   -2.00    5.70
  -1   2 -16    5.20    7.10
   1  -2  16    4.70    8.20
   1  -2  16   -9.60    7.40
   1  -2  16   -8.30    7.40
  -2   2 -16    0.00    5.60
  -2   2 -16    0.50    6.80
   2  -2  16   -6.50    8.00
   2  -2  16    2.10    8.10
  -3   2 -16    7.90    9.90
  -3   2 -16    3.00    5.40
   3  -2  16    6.70    8.50
   3  -2  16    9.20   10.90
   3   1 -16    2.20    8.50
   3   1 -16  -18.60    7.40
   3   1 -16   -2.40    8.80
  -3  -1  16    0.30    6.80
  -3  -1  16    4.40    8.00
  -3  -1  16    2.80    8.10
   2   1 -16   16.90    9.50
   2   1 -16   16.30    8.70
   2   1 -16   11.20    7.20
  -2  -1  16    6.00    6.10
  -2  -1  16   25.90    8.70
  -2  -1  16    4.30    8.30
  -2  -1  16    1.30    5.90
   1   1 -16    0.90    7.90
   1   1 -16   -0.80    8.00
  -1  -1  16   -2.20    8.20
  -1  -1  16    7.20    8.20
  -1  -1  16   -2.80    6.30
   0   1 -16   27.30    8.80
   0   1 -16   11.90    7.80
   0  -1  16   17.10    8.60
   0  -1  16   22.30    8.80
  -1   1 -16    0.30    7.10
  -1   1 -16    6.80    6.50
   1  -1  16    7.00    8.10
   1  -1  16   -8.50    7.50
  -2   1 -16   29.10    7.50
  -2   1 -16   14.30    5.90
   2  -1  16   23.80    8.70
   2  -1  16   10.60    8.50
  -3   1 -16  -11.60    9.10
  -3   1 -16    4.70    7.40
  -3   1 -16   -2.50    7.30
   3  -1  16    4.10    9.40
   3   0 -16   22.40    8.70
   3   0 -16   -3.70    9.40
   3   0 -16    5.20    8.10
  -3   0  16   -3.60    7.50
  -3   0  16    4.50    6.90
  -3   0  16    5.20    7.90
   2   0 -16   14.30    9.20
   2   0 -16   11.20    7.80
   2   0 -16   19.10    8.40
  -2   0  16   27.60    8.90
  -2   0  16   26.00    6.50
  -2   0  16   26.90    6.60
  -2   0  16    8.20    8.60
   1   0 -16  225.28   17.90
   1   0 -16  257.67   17.70
  -1   0  16  256.57   16.10
  -1   0  16  188.68   18.00
  -1   0  16  247.48   18.00
  -1   0  16  291.97   14.00
   0   0 -16   19.40    7.80
   0   0 -16    5.10    8.00
   0   0  16    7.80    8.40
   0   0  16   13.60    8.70
  -1   0 -16   -4.50    7.10
  -1   0 -16   -1.10    6.40
   1   0  16   -0.70    7.80
   1   0  16    0.70    7.60
  -2   0 -16   -2.90    6.70
  -2   0 -16   -4.50    7.00
   2   0  16   -4.30    7.80
   2   0  16   -5.60    8.00
   3  -1 -16    7.80   11.50
   3  -1 -16   15.60    8.50
   3  -1 -16    4.30    7.90
  -3   1  16   -2.50    7.60
  -3   1  16   -4.70   11.10
  -3   1  16   15.40    8.90
   2  -1 -16  120.09   15.30
   2  -1 -16  157.08   14.50
  -2   1  16   96.89   12.20
  -2   1  16   97.69   13.20
  -2   1  16  131.19   12.10
  -2   1  16  156.78   14.80
   1  -1 -16   14.80    8.40
   1  -1 -16    8.80    8.50
  -1   1  16   24.90    6.60
  -1   1  16   25.60    8.70
  -1   1  16    5.60    8.60
  -1   1  16   21.40    7.30
   0  -1 -16   -9.20    6.90
   0  -1 -16   -4.30    7.00
   0   1  16   -4.80    7.80
   0   1  16   -8.90    5.60
   0   1  16   -6.50    7.70
  -1  -1 -16   -1.10    6.50
  -1  -1 -16    3.50    7.40
  -1  -1 -16    6.00    6.80
   1   1  16   -0.10    7.70
   1   1  16   -2.70    7.60
  -2  -1 -16  -10.00   11.20
  -2  -1 -16   -2.70    5.70
  -2  -1 -16   -6.60    6.40
   2   1  16    6.40    7.80
   2   1  16   -2.00    8.30
   3  -2 -16   19.10    9.00
   3  -2 -16    2.50    9.50
  -3   2  16   14.40   11.50
  -3   2  16   14.30    7.70
  -3   2  16    4.20    7.80
   2  -2 -16   -9.70    7.90
   2  -2 -16   19.70    9.20
  -2   2  16    7.50    8.30
  -2   2  16   12.60    8.00
  -2   2  16   -1.70    7.20
   1  -2 -16   56.29    9.90
   1  -2 -16   59.59    9.90
  -1   2  16   81.19    9.90
  -1   2  16   94.89   10.70
  -1   2  16   58.19   10.60
  -1   2  16   85.29   11.00
   0  -2 -16   23.70    6.80
   0  -2 -16   36.20    8.00
   0  -2 -16   39.20    8.40
   0   2  16   46.20    7.40
   0   2  16   39.40    8.90
   0   2  16   23.80    9.10
  -1  -2 -16   -4.70    6.20
  -1  -2 -16    5.20    6.30
  -1  -2 -16   -9.30    6.60
   1   2  16   -9.10    7.20
   1   2  16   -5.20    7.50
   1   2  16   14.70    7.00
  -2  -2 -16    0.30    5.00
  -2  -2 -16    7.30   10.30
  -2  -2 -16    6.30    7.10
   2   2  16    6.70    7.70
   2  -3 -16    6.70    8.90
   2  -3 -16   15.60    8.80
  -2   3  16    8.30    7.70
  -2   3  16   -9.20    9.10
   1  -3 -16   47.20    9.20
   1  -3 -16   48.60    9.40
  -1   3  16   58.29    9.40
  -1   3  16   59.09    9.30
  -1   3  16   49.80   10.10
   0  -3 -16   55.39    8.70
   0  -3 -16   37.30    8.80
   0  -3 -16   62.29    7.70
   0   3  16   26.70    9.20
   0   3  16   84.49   10.70
   0   3  16   33.40    8.90
  -1  -3 -16   20.90    7.00
  -1  -3 -16   23.60    7.10
   1   3  16   33.00    7.50
   1   3  16   11.60    7.80
   1   3  16   19.80   11.80
   2  -4 -16   13.20    8.80
  -2   4  16    7.60    7.30
  -2   4  16   -2.90    9.00
  -2   4  16    9.30    7.60
   1  -4 -16   29.20    8.30
   1  -4 -16   36.30   12.00
  -1   4  16   11.00    7.80
  -1   4  16   44.50    8.80
   0  -4 -16   -1.10    7.10
   0  -4 -16   18.40    6.50
   0   4  16   -9.70    7.40
   0   4  16    7.10    7.30
  -1  -4 -16   22.40    6.90
  -1  -4 -16    1.40    6.50
  -1  -4 -16   -0.40    7.00
   1   4  16    0.00    7.10
   1   4  16   11.70    8.50
   1   4  16  -14.10    6.70
   1   8 -17   -6.10    8.80
   1   8 -17   -6.60    7.10
   1   8 -17  -12.00    9.50
  -1  -8  17    3.70    9.30
  -1  -8  17  -12.20    8.10
  -1  -8  17   -0.50    6.30
   0   8 -17   20.60    8.30
   0  -8  17   -0.70    6.40
   0  -8  17  -17.70    8.20
   0  -8  17    1.70   10.90
  -1   8 -17   -2.30   10.00
   1  -8  17    0.30    9.50
   1  -8  17   -4.70    8.80
   1  -8  17    0.30    6.60
   2   7 -17    9.10    9.00
   2   7 -17    2.80    8.10
   2   7 -17   -7.50    7.20
  -2  -7  17    3.30    6.60
  -2  -7  17   -3.40    8.50
   1   7 -17   31.80    8.60
  -1  -7  17   19.40    8.90
  -1  -7  17   21.80    7.70
   0   7 -17   -0.60    7.80
   0   7 -17   -4.20    7.60
   0  -7  17   -7.50    8.30
   0  -7  17    6.90    7.20
  -1   7 -17    7.40    7.60
   1  -7  17   10.80   16.00
   1  -7  17   25.20    9.10
   1  -7  17    3.10    7.20
   2   6 -17   11.80    9.00
   2   6 -17    6.10    7.30
   2   6 -17    1.00   11.20
  -2  -6  17   -1.00    7.20
  -2  -6  17   21.00   12.00
   1   6 -17   -4.60    7.40
   1   6 -17   17.30    8.40
  -1  -6  17    4.90    9.10
  -1  -6  17    1.80    6.90
  -1  -6  17   -1.10    8.20
   0   6 -17    0.50    7.60
   0   6 -17   -7.40    7.40
   0  -6  17    8.40    7.20
   0  -6  17   -0.90    7.80
   0  -6  17    6.50    9.00
  -1   6 -17   -7.40    6.70
  -1   6 -17    5.10    7.70
   1  -6  17    6.80    7.30
   1  -6  17    5.10    8.30
   2   5 -17   -2.40    7.70
   2   5 -17  -11.20    7.50
  -2  -5  17   19.20    8.30
  -2  -5  17   -0.50    9.20
  -2  -5  17    9.40    7.70
   1   5 -17    7.60    8.40
   1   5 -17   19.90    9.20
  -1  -5  17    7.80    7.70
  -1  -5  17   12.40    9.20
  -1  -5  17   38.70    8.80
   0   5 -17    7.80    7.70
   0   5 -17    1.30    7.60
   0  -5  17    3.70    8.30
   0  -5  17   -1.90    8.60
   0  -5  17    4.80    7.50
  -1   5 -17   -2.00    6.70
  -1   5 -17    5.30    7.60
   1  -5  17   -9.60    9.00
   1  -5  17    4.70    7.80
   1  -5  17    4.70    7.50
  -2   5 -17   11.80    7.70
  -2   5 -17   26.50    7.00
   2  -5  17    5.60    7.60
   2  -5  17    9.80    9.50
   2   4 -17    7.50   13.20
   2   4 -17   14.10    8.20
   2   4 -17    7.10   10.80
  -2  -4  17   -0.70    7.50
  -2  -4  17    1.80    7.50
  -2  -4  17  -10.20    8.40
   1   4 -17   -1.70    7.90
   1   4 -17   -6.50    8.20
  -1  -4  17   -5.80    8.80
  -1  -4  17   -1.70    8.20
  -1  -4  17    9.20    7.90
   0   4 -17    4.40    7.40
   0   4 -17    9.20    7.90
   0  -4  17    3.10    7.80
   0  -4  17  -10.10    7.30
   0  -4  17   -1.40    8.40
  -1   4 -17   -9.20    6.00
  -1   4 -17    2.30    7.40
   1  -4  17   -0.90    8.60
   1  -4  17   -6.70    7.80
   1  -4  17   -6.20    7.50
  -2   4 -17   30.00    7.00
  -2   4 -17   52.39    9.70
   2  -4  17   53.69   12.00
   2  -4  17   59.49   12.90
   2  -4  17   30.00    8.90
   2   3 -17   -6.80    7.70
   2   3 -17    3.20   10.50
  -2  -3  17   -3.30    7.90
  -2  -3  17    7.10    7.90
  -2  -3  17   -9.80    8.50
   1   3 -17    3.60    8.50
   1   3 -17    2.10    7.80
  -1  -3  17    8.20    8.30
  -1  -3  17   -0.40    8.90
   0   3 -17   -0.20    7.30
   0   3 -17   -6.30    7.00
   0  -3  17   -1.20    8.10
   0  -3  17   13.60    7.30
   0  -3  17   -1.30    8.70
  -1   3 -17   -2.20    6.10
  -1   3 -17    5.00    6.90
   1  -3  17    7.50    8.20
   1  -3  17  -16.60    7.30
   1  -3  17    5.80    8.80
  -2   3 -17   -5.80    5.70
  -2   3 -17    2.10    7.20
   2  -3  17   -0.20    7.80
   2  -3  17    0.30   10.10
   2  -3  17   -8.80    7.80
   2   2 -17   43.60   10.60
   2   2 -17   46.20    9.40
  -2  -2  17   34.40   12.30
  -2  -2  17   25.50    9.50
  -2  -2  17   32.90    9.70
   1   2 -17   -0.20    8.30
   1   2 -17    1.30    8.50
  -1  -2  17   11.40    9.10
  -1  -2  17    1.80    8.40
  -1  -2  17   -3.20    7.80
   0   2 -17   -5.80    7.30
   0   2 -17   -5.60    7.20
   0  -2  17   -2.80    8.10
   0  -2  17   -6.20    8.30
   0  -2  17    8.10    8.00
  -1   2 -17   12.20    7.60
  -1   2 -17    7.60    6.00
   1  -2  17    2.30    8.00
   1  -2  17   10.20    8.10
   1  -2  17   16.60    9.10
  -2   2 -17   16.80    6.30
  -2   2 -17   -4.20    6.80
   2  -2  17    0.40    9.30
   2  -2  17   12.80   10.40
   2  -2  17    5.80    9.10
   2   1 -17    5.80    9.40
   2   1 -17    1.50    8.90
  -2  -1  17    5.40    8.40
  -2  -1  17    1.80    8.30
   1   1 -17   36.40    9.50
   1   1 -17   54.09   10.40
  -1  -1  17   26.70    9.00
  -1  -1  17   32.30    9.60
  -1  -1  17   30.70    7.30
   0   1 -17   14.60    8.40
   0   1 -17    8.20    7.70
   0  -1  17   -7.60    8.00
   0  -1  17    6.10    7.80
   0  -1  17  -10.90    7.90
  -1   1 -17   13.10    6.20
  -1   1 -17   28.10   10.40
   1  -1  17   17.70    9.00
   1  -1  17   17.30    8.70
   1  -1  17   28.00    9.00
   2   0 -17   -8.70    8.60
   2   0 -17   10.00    9.60
  -2   0  17   18.00    8.50
   1   0 -17   10.20    8.30
   1   0 -17   21.90    9.30
  -1   0  17    7.40    7.10
  -1   0  17    9.40    8.80
  -1   0  17    4.40    8.50
   0   0 -17    6.70    8.10
   0   0 -17    1.20    7.40
   0   0  17    6.90    8.40
   0   0  17   15.40    8.10
   0   0  17   13.20    8.60
  -1   0 -17   -2.60    6.20
   1   0  17    6.20    9.10
   1   0  17    1.90    8.30
   2  -1 -17   -4.10    8.10
  -2   1  17   -7.70    9.00
  -2   1  17    8.70    8.50
   1  -1 -17   32.60    9.50
   1  -1 -17   32.00    9.10
  -1   1  17   33.40    9.30
  -1   1  17   28.10   10.10
   0  -1 -17    1.60    7.40
   0   1  17   -3.30    7.40
   0   1  17    3.20    8.10
   0   1  17    1.70   12.10
  -1  -1 -17   -1.20    6.30
  -1  -1 -17   10.70    7.90
   1   1  17    4.90    8.10
   1  -2 -17    2.30    8.10
  -1   2  17   -8.10   10.00
  -1   2  17    5.50    8.50
  -1   2  17  -11.10   11.40
   0  -2 -17   -1.10    7.10
   0  -2 -17   -0.40    7.10
   0   2  17    0.70    7.90
   0   2  17   -7.40    9.20
   0   0   0    0.00    0.00

_computing_structure_solution     'SHELXT 2014/5 (Sheldrick, 2014)'
;
_shelx_hkl_checksum              22629
loop_
_space_group_symop_operation_xyz
'x, y, z'
'-x, -y, -z'
loop_
_atom_site_label
_atom_site_type_symbol
_atom_site_fract_x
_atom_site_fract_y
_atom_site_fract_z
_atom_site_U_iso_or_equiv
_atom_site_adp_type
_atom_site_occupancy
_atom_site_site_symmetry_order
_atom_site_calc_flag
_atom_site_refinement_flags_posn
_atom_site_refinement_flags_adp
_atom_site_refinement_flags_occupancy
_atom_site_disorder_assembly
_atom_site_disorder_group
O1 O 0.8388(3) 0.59619(11) 0.94323(11) 0.0252(3) Uani 1 1 d . . . . .
N1 N 0.5576(3) 0.20338(12) 0.88235(12) 0.0206(3) Uani 1 1 d . . . . .
N2 N 0.3759(3) 0.11651(13) 0.82657(13) 0.0219(3) Uani 1 1 d . . . . .
N3 N 0.7256(3) 0.40117(13) 0.88580(13) 0.0211(3) Uani 1 1 d . . . . .
H3 H 0.859(5) 0.391(2) 0.933(2) 0.039(7) Uiso 1 1 d . . . . .
C1 C 0.2547(3) 0.16500(15) 0.74580(15) 0.0214(3) Uani 1 1 d . . . . .
C2 C 0.3594(3) 0.28214(15) 0.74599(14) 0.0199(3) Uani 1 1 d . . . . .
C3 C 0.2751(3) 0.36146(14) 0.66477(14) 0.0194(3) Uani 1 1 d . . . . .
H3A H 0.091660 0.380010 0.682281 0.023 Uiso 1 1 calc R U . . .
C4 C 0.4445(3) 0.47924(15) 0.68574(15) 0.0209(3) Uani 1 1 d . . . . .
H4A H 0.373107 0.530872 0.635076 0.025 Uiso 1 1 calc R U . . .
H4B H 0.624866 0.464277 0.663234 0.025 Uiso 1 1 calc R U . . .
C5 C 0.4557(3) 0.54400(15) 0.81335(15) 0.0217(3) Uani 1 1 d . . . . .
H5A H 0.465113 0.630349 0.815045 0.026 Uiso 1 1 calc R U . . .
H5B H 0.291191 0.521954 0.848521 0.026 Uiso 1 1 calc R U . . .
C6 C 0.6850(3) 0.51695(15) 0.88666(14) 0.0200(3) Uani 1 1 d . . . . .
C7 C 0.5542(3) 0.30275(15) 0.83576(14) 0.0195(3) Uani 1 1 d . . . . .
C8 C 0.0315(4) 0.09569(16) 0.66958(16) 0.0256(4) Uani 1 1 d . . . . .
H8A H 0.020432 0.013435 0.681034 0.038 Uiso 1 1 calc R U . . .
H8B H 0.061055 0.097809 0.587611 0.038 Uiso 1 1 calc R U . . .
H8C H -0.132894 0.130508 0.690293 0.038 Uiso 1 1 calc R U . . .
C9 C 0.2700(3) 0.30374(14) 0.53651(14) 0.0194(3) Uani 1 1 d . . . . .
C10 C 0.4496(4) 0.22436(16) 0.49299(15) 0.0243(4) Uani 1 1 d . . . . .
H10 H 0.582733 0.205660 0.544340 0.029 Uiso 1 1 calc R U . . .
C11 C 0.4371(3) 0.17196(16) 0.37525(15) 0.0232(4) Uani 1 1 d . . . . .
H11 H 0.559961 0.116971 0.347842 0.028 Uiso 1 1 calc R U . . .
C12 C 0.2478(3) 0.19870(15) 0.29706(15) 0.0211(3) Uani 1 1 d . . . . .
C13 C 0.0727(4) 0.28068(16) 0.33987(15) 0.0242(4) Uani 1 1 d . . . . .
H13 H -0.055272 0.302046 0.287790 0.029 Uiso 1 1 calc R U . . .
C14 C 0.0824(3) 0.33180(15) 0.45782(15) 0.0218(3) Uani 1 1 d . . . . .
H14 H -0.040647 0.386697 0.485191 0.026 Uiso 1 1 calc R U . . .
C15 C 0.2275(4) 0.13714(16) 0.17091(15) 0.0253(4) Uani 1 1 d . . . . .
H15A H 0.374098 0.087467 0.155897 0.038 Uiso 1 1 calc R U . . .
H15B H 0.233873 0.196384 0.120515 0.038 Uiso 1 1 calc R U . . .
H15C H 0.061348 0.087571 0.154323 0.038 Uiso 1 1 calc R U . . .
C16 C 0.7440(4) 0.17761(16) 0.97016(15) 0.0227(4) Uani 1 1 d . . . . .
H16A H 0.680179 0.105012 0.996017 0.034 Uiso 1 1 calc R U . . .
H16B H 0.762730 0.243551 1.036994 0.034 Uiso 1 1 calc R U . . .
H16C H 0.914594 0.166893 0.936624 0.034 Uiso 1 1 calc R U . . .
loop_
_atom_site_aniso_label
_atom_site_aniso_U_11
_atom_site_aniso_U_22
_atom_site_aniso_U_33
_atom_site_aniso_U_23
_atom_site_aniso_U_13
_atom_site_aniso_U_12
O1 0.0263(6) 0.0215(6) 0.0261(6) 0.0039(5) -0.0095(5) -0.0009(5)
N1 0.0216(7) 0.0199(7) 0.0193(7) 0.0039(5) -0.0060(5) -0.0007(5)
N2 0.0227(7) 0.0212(7) 0.0205(7) 0.0030(5) -0.0043(5) -0.0009(5)
N3 0.0212(7) 0.0208(7) 0.0201(7) 0.0038(5) -0.0065(6) -0.0007(5)
C1 0.0210(8) 0.0220(8) 0.0206(8) 0.0034(6) -0.0027(6) 0.0016(6)
C2 0.0201(8) 0.0210(8) 0.0178(7) 0.0026(6) -0.0031(6) 0.0012(6)
C3 0.0207(8) 0.0209(8) 0.0159(7) 0.0024(6) -0.0027(6) 0.0021(6)
C4 0.0230(8) 0.0204(8) 0.0189(7) 0.0044(6) -0.0043(6) 0.0009(6)
C5 0.0222(8) 0.0204(8) 0.0213(8) 0.0024(6) -0.0047(6) 0.0019(6)
C6 0.0224(8) 0.0210(8) 0.0158(7) 0.0029(6) -0.0009(6) 0.0004(6)
C7 0.0192(8) 0.0196(7) 0.0192(7) 0.0030(6) -0.0024(6) 0.0008(6)
C8 0.0260(9) 0.0248(8) 0.0245(9) 0.0044(7) -0.0067(7) -0.0023(7)
C9 0.0196(8) 0.0193(7) 0.0188(7) 0.0045(6) -0.0044(6) -0.0015(6)
C10 0.0219(8) 0.0290(9) 0.0220(8) 0.0050(7) -0.0049(6) 0.0048(7)
C11 0.0232(8) 0.0243(8) 0.0216(8) 0.0021(6) -0.0020(6) 0.0049(6)
C12 0.0239(8) 0.0190(7) 0.0194(8) 0.0044(6) -0.0028(6) -0.0029(6)
C13 0.0253(9) 0.0255(8) 0.0216(8) 0.0058(6) -0.0069(7) 0.0024(7)
C14 0.0220(8) 0.0225(8) 0.0208(8) 0.0044(6) -0.0034(6) 0.0042(6)
C15 0.0314(9) 0.0247(8) 0.0190(8) 0.0034(6) -0.0037(7) 0.0017(7)
C16 0.0245(8) 0.0234(8) 0.0197(8) 0.0045(6) -0.0059(6) 0.0020(6)
loop_
_atom_type_symbol
_atom_type_description
_atom_type_scat_dispersion_real
_atom_type_scat_dispersion_imag
_atom_type_scat_source
C C 0.0033 0.0016 'International Tables Vol C Tables 4.2.6.8 and 6.1.1.4'
H H 0.0000 0.0000 'International Tables Vol C Tables 4.2.6.8 and 6.1.1.4'
N N 0.0061 0.0033 'International Tables Vol C Tables 4.2.6.8 and 6.1.1.4'
O O 0.0106 0.0060 'International Tables Vol C Tables 4.2.6.8 and 6.1.1.4'
loop_
_geom_angle_atom_site_label_1
_geom_angle_atom_site_label_2
_geom_angle_atom_site_label_3
_geom_angle
_geom_angle_site_symmetry_1
_geom_angle_site_symmetry_3
_geom_angle_publ_flag
C7 N1 N2 111.78(13) . . ?
C7 N1 C16 128.10(14) . . ?
N2 N1 C16 119.69(14) . . ?
C1 N2 N1 104.59(14) . . ?
C6 N3 C7 126.22(15) . . ?
C6 N3 H3 113.8(16) . . ?
C7 N3 H3 118.9(16) . . ?
N2 C1 C2 112.35(15) . . ?
N2 C1 C8 119.69(15) . . ?
C2 C1 C8 127.95(15) . . ?
C7 C2 C1 103.61(15) . . ?
C7 C2 C3 129.84(15) . . ?
C1 C2 C3 126.54(14) . . ?
C2 C3 C9 113.40(14) . . ?
C2 C3 C4 111.91(13) . . ?
C9 C3 C4 109.71(14) . . ?
C2 C3 H3A 107.2 . . ?
C9 C3 H3A 107.2 . . ?
C4 C3 H3A 107.2 . . ?
C3 C4 C5 112.79(14) . . ?
C3 C4 H4A 109.0 . . ?
C5 C4 H4A 109.0 . . ?
C3 C4 H4B 109.0 . . ?
C5 C4 H4B 109.0 . . ?
H4A C4 H4B 107.8 . . ?
C6 C5 C4 113.78(14) . . ?
C6 C5 H5A 108.8 . . ?
C4 C5 H5A 108.8 . . ?
C6 C5 H5B 108.8 . . ?
C4 C5 H5B 108.8 . . ?
H5A C5 H5B 107.7 . . ?
O1 C6 N3 120.06(16) . . ?
O1 C6 C5 121.60(15) . . ?
N3 C6 C5 118.29(14) . . ?
N1 C7 C2 107.64(14) . . ?
N1 C7 N3 118.52(14) . . ?
C2 C7 N3 133.78(16) . . ?
C1 C8 H8A 109.5 . . ?
C1 C8 H8B 109.5 . . ?
H8A C8 H8B 109.5 . . ?
C1 C8 H8C 109.5 . . ?
H8A C8 H8C 109.5 . . ?
H8B C8 H8C 109.5 . . ?
C10 C9 C14 117.87(15) . . ?
C10 C9 C3 122.47(14) . . ?
C14 C9 C3 119.65(15) . . ?
C9 C10 C11 120.94(16) . . ?
C9 C10 H10 119.5 . . ?
C11 C10 H10 119.5 . . ?
C12 C11 C10 121.17(16) . . ?
C12 C11 H11 119.4 . . ?
C10 C11 H11 119.4 . . ?
C11 C12 C13 117.93(15) . . ?
C11 C12 C15 120.77(16) . . ?
C13 C12 C15 121.26(15) . . ?
C14 C13 C12 120.97(16) . . ?
C14 C13 H13 119.5 . . ?
C12 C13 H13 119.5 . . ?
C13 C14 C9 121.07(16) . . ?
C13 C14 H14 119.5 . . ?
C9 C14 H14 119.5 . . ?
C12 C15 H15A 109.5 . . ?
C12 C15 H15B 109.5 . . ?
H15A C15 H15B 109.5 . . ?
C12 C15 H15C 109.5 . . ?
H15A C15 H15C 109.5 . . ?
H15B C15 H15C 109.5 . . ?
N1 C16 H16A 109.5 . . ?
N1 C16 H16B 109.5 . . ?
H16A C16 H16B 109.5 . . ?
N1 C16 H16C 109.5 . . ?
H16A C16 H16C 109.5 . . ?
H16B C16 H16C 109.5 . . ?
loop_
_geom_bond_atom_site_label_1
_geom_bond_atom_site_label_2
_geom_bond_distance
_geom_bond_site_symmetry_2
_geom_bond_publ_flag
O1 C6 1.231(2) . ?
N1 C7 1.357(2) . ?
N1 N2 1.3639(19) . ?
N1 C16 1.454(2) . ?
N2 C1 1.334(2) . ?
N3 C6 1.365(2) . ?
N3 C7 1.401(2) . ?
N3 H3 0.89(3) . ?
C1 C2 1.416(2) . ?
C1 C8 1.499(2) . ?
C2 C7 1.388(2) . ?
C2 C3 1.504(2) . ?
C3 C9 1.521(2) . ?
C3 C4 1.530(2) . ?
C3 H3A 1.0000 . ?
C4 C5 1.535(2) . ?
C4 H4A 0.9900 . ?
C4 H4B 0.9900 . ?
C5 C6 1.507(2) . ?
C5 H5A 0.9900 . ?
C5 H5B 0.9900 . ?
C8 H8A 0.9800 . ?
C8 H8B 0.9800 . ?
C8 H8C 0.9800 . ?
C9 C10 1.392(2) . ?
C9 C14 1.395(2) . ?
C10 C11 1.392(2) . ?
C10 H10 0.9500 . ?
C11 C12 1.391(2) . ?
C11 H11 0.9500 . ?
C12 C13 1.392(3) . ?
C12 C15 1.508(2) . ?
C13 C14 1.392(2) . ?
C13 H13 0.9500 . ?
C14 H14 0.9500 . ?
C15 H15A 0.9800 . ?
C15 H15B 0.9800 . ?
C15 H15C 0.9800 . ?
C16 H16A 0.9800 . ?
C16 H16B 0.9800 . ?
C16 H16C 0.9800 . ?
loop_
_geom_hbond_atom_site_label_D
_geom_hbond_atom_site_label_H
_geom_hbond_atom_site_label_A
_geom_hbond_distance_DH
_geom_hbond_distance_HA
_geom_hbond_distance_DA
_geom_hbond_angle_DHA
_geom_hbond_site_symmetry_A
_geom_hbond_publ_flag
N3 H3 O1 0.89(3) 2.04(3) 2.9194(19) 168(2) 2_767 yes
loop_
_geom_torsion_atom_site_label_1
_geom_torsion_atom_site_label_2
_geom_torsion_atom_site_label_3
_geom_torsion_atom_site_label_4
_geom_torsion
_geom_torsion_site_symmetry_1
_geom_torsion_site_symmetry_2
_geom_torsion_site_symmetry_3
_geom_torsion_site_symmetry_4
_geom_torsion_publ_flag
C7 N1 N2 C1 -1.41(19) . . . . ?
C16 N1 N2 C1 -174.46(15) . . . . ?
N1 N2 C1 C2 1.44(19) . . . . ?
N1 N2 C1 C8 -177.51(15) . . . . ?
N2 C1 C2 C7 -1.0(2) . . . . ?
C8 C1 C2 C7 177.89(17) . . . . ?
N2 C1 C2 C3 178.21(16) . . . . ?
C8 C1 C2 C3 -3.0(3) . . . . ?
C7 C2 C3 C9 127.42(19) . . . . ?
C1 C2 C3 C9 -51.5(2) . . . . ?
C7 C2 C3 C4 2.7(3) . . . . ?
C1 C2 C3 C4 -176.27(16) . . . . ?
C2 C3 C4 C5 -54.14(19) . . . . ?
C9 C3 C4 C5 179.08(14) . . . . ?
C3 C4 C5 C6 92.94(18) . . . . ?
C7 N3 C6 O1 172.97(16) . . . . ?
C7 N3 C6 C5 -9.4(3) . . . . ?
C4 C5 C6 O1 126.14(18) . . . . ?
C4 C5 C6 N3 -51.4(2) . . . . ?
N2 N1 C7 C2 0.9(2) . . . . ?
C16 N1 C7 C2 173.18(16) . . . . ?
N2 N1 C7 N3 178.38(14) . . . . ?
C16 N1 C7 N3 -9.3(3) . . . . ?
C1 C2 C7 N1 0.04(19) . . . . ?
C3 C2 C7 N1 -179.08(17) . . . . ?
C1 C2 C7 N3 -176.95(19) . . . . ?
C3 C2 C7 N3 3.9(3) . . . . ?
C6 N3 C7 N1 -151.34(17) . . . . ?
C6 N3 C7 C2 25.4(3) . . . . ?
C2 C3 C9 C10 -34.6(2) . . . . ?
C4 C3 C9 C10 91.37(19) . . . . ?
C2 C3 C9 C14 146.55(16) . . . . ?
C4 C3 C9 C14 -87.52(18) . . . . ?
C14 C9 C10 C11 -1.9(3) . . . . ?
C3 C9 C10 C11 179.15(16) . . . . ?
C9 C10 C11 C12 1.1(3) . . . . ?
C10 C11 C12 C13 0.7(3) . . . . ?
C10 C11 C12 C15 -177.04(17) . . . . ?
C11 C12 C13 C14 -1.7(3) . . . . ?
C15 C12 C13 C14 176.05(16) . . . . ?
C12 C13 C14 C9 0.9(3) . . . . ?
C10 C9 C14 C13 1.0(3) . . . . ?
C3 C9 C14 C13 179.91(16) . . . . ?
