#------------------------------------------------------------------------------
#$Date: 2021-12-07 05:54:57 +0200 (Tue, 07 Dec 2021) $
#$Revision: 271226 $
#$URL: file:///home/coder/svn-repositories/cod/cif/7/15/83/7158390.cif $
#------------------------------------------------------------------------------
#
# This file is available in the Crystallography Open Database (COD),
# http://www.crystallography.net/
#
# All data on this site have been placed in the public domain by the
# contributors.
#
data_7158390
loop_
_publ_author_name
'Goryaeva, Marina V.'
'Kushch, Svetlana O.'
'Burgart, Yanina V.'
'Ezhikova, Marina A.'
'Kodess, Mikhail I.'
'Slepukhin, Pavel A.'
'Triandafilova, Galina A.'
'Krasnykh, Olga P.'
'Yakovleva, Ekaterina I.'
'Zarubaev, Vladimir V.'
'Sinegubova, Ekaterina O.'
'Esaulkova, Iana L.'
'Shtro, Anna A.'
'Galochkina, Anastasia V.'
'Nikolaeva, Yulia V.'
'Saloutin, Victor I.'
_publ_section_title
;
 New heteroanalogs of tricyclic ascidian alkaloids: synthesis and
 biological activity.
;
_journal_issue                   45
_journal_name_full               'Organic &amp; biomolecular chemistry'
_journal_page_first              9925
_journal_page_last               9935
_journal_paper_doi               10.1039/d1ob01843d
_journal_volume                  19
_journal_year                    2021
_chemical_formula_moiety         'C11 H14 F3 N O3'
_chemical_formula_sum            'C11 H14 F3 N O3'
_chemical_formula_weight         265.23
_space_group_crystal_system      triclinic
_space_group_IT_number           2
_space_group_name_Hall           '-P 1'
_space_group_name_H-M_alt        'P -1'
_atom_sites_solution_hydrogens   mixed
_atom_sites_solution_primary     dual
_audit_creation_date             2021-03-17
_audit_creation_method
;
Olex2 1.3
(compiled 2020.11.12 svn.r5f609507 for OlexSys, GUI svn.r6272)
;
_audit_update_record
;
2021-09-04 deposited with the CCDC.	2021-10-28 downloaded from the CCDC.
;
_cell_angle_alpha                93.198(7)
_cell_angle_beta                 100.084(8)
_cell_angle_gamma                92.872(8)
_cell_formula_units_Z            2
_cell_length_a                   5.4368(6)
_cell_length_b                   8.6060(7)
_cell_length_c                   12.6785(11)
_cell_measurement_reflns_used    1085
_cell_measurement_temperature    295(2)
_cell_measurement_theta_max      28.4020
_cell_measurement_theta_min      4.1820
_cell_volume                     582.06(10)
_computing_cell_refinement       'CrysAlisPro 1.171.39.38a (Rigaku OD, 2017)'
_computing_data_collection       'CrysAlisPro 1.171.39.38a (Rigaku OD, 2017)'
_computing_data_reduction        'CrysAlisPro 1.171.39.38a (Rigaku OD, 2017)'
_computing_molecular_graphics    'Olex2 1.3 (Dolomanov et al., 2009)'
_computing_publication_material  'Olex2 1.3 (Dolomanov et al., 2009)'
_computing_structure_refinement  'SHELXL 2018/3 (Sheldrick, 2015)'
_computing_structure_solution    'SHELXT 2018/2 (Sheldrick, 2018)'
_diffrn_ambient_temperature      295(2)
_diffrn_detector                 'CCD plate'
_diffrn_detector_area_resol_mean 16.5253
_diffrn_detector_type            Sapphire3
_diffrn_measured_fraction_theta_full 0.987
_diffrn_measured_fraction_theta_max 0.857
_diffrn_measurement_details
;
List of Runs (angles in degrees, time in seconds):

  # Type    Start    End  Width  t~exp~   \w     \q     \k     \f   Frames
#--------------------------------------------------------------------------
  1  \w    -18.00  23.00   1.00   12.00    --  -24.08 101.00-113.00   41
  2  \w    -65.00 -38.00   1.00   12.00    --  -24.08 101.00-113.00   27
  3  \w    -23.00  65.00   1.00   12.00    --   22.52-101.00 142.00   88
  4  \w     35.00  81.00   1.00   12.00    --   22.52 178.00 -90.00   46
  5  \w    -93.00  -7.00   1.00   12.00    --  -24.08 -57.00-120.00   86
  6  \w    -90.00   2.00   1.00   12.00    --  -24.08 -77.00   0.00   92
  7  \w      9.00  33.00   1.00   12.00    --  -24.08  57.00  30.00   24
;
_diffrn_measurement_device       'four-circle diffractometer'
_diffrn_measurement_device_type  'Xcalibur, Sapphire3'
_diffrn_measurement_method       '\w scans'
_diffrn_orient_matrix_type
'CrysAlisPro convention (1999,Acta A55,543-557)'
_diffrn_orient_matrix_UB_11      0.0466616000
_diffrn_orient_matrix_UB_12      -0.0211029000
_diffrn_orient_matrix_UB_13      0.0527331000
_diffrn_orient_matrix_UB_21      0.0552466000
_diffrn_orient_matrix_UB_22      0.0765442000
_diffrn_orient_matrix_UB_23      0.0135303000
_diffrn_orient_matrix_UB_31      -0.1113319000
_diffrn_orient_matrix_UB_32      0.0231331000
_diffrn_orient_matrix_UB_33      0.0167021000
_diffrn_radiation_monochromator  graphite
_diffrn_radiation_probe          x-ray
_diffrn_radiation_type           'Mo K\a'
_diffrn_radiation_wavelength     0.71073
_diffrn_reflns_av_R_equivalents  0.0405
_diffrn_reflns_av_unetI/netI     0.0719
_diffrn_reflns_Laue_measured_fraction_full 0.987
_diffrn_reflns_Laue_measured_fraction_max 0.857
_diffrn_reflns_limit_h_max       7
_diffrn_reflns_limit_h_min       -7
_diffrn_reflns_limit_k_max       11
_diffrn_reflns_limit_k_min       -10
_diffrn_reflns_limit_l_max       16
_diffrn_reflns_limit_l_min       -17
_diffrn_reflns_number            5258
_diffrn_reflns_point_group_measured_fraction_full 0.987
_diffrn_reflns_point_group_measured_fraction_max 0.857
_diffrn_reflns_theta_full        26.000
_diffrn_reflns_theta_max         30.865
_diffrn_reflns_theta_min         3.814
_diffrn_source                   'fine-focus sealed X-ray tube'
_diffrn_source_type              'Enhance (Mo) X-ray Source'
_exptl_absorpt_coefficient_mu    0.140
_exptl_absorpt_correction_T_max  1.00000
_exptl_absorpt_correction_T_min  0.82866
_exptl_absorpt_correction_type   multi-scan
_exptl_absorpt_process_details
;
CrysAlisPro 1.171.39.38a (Rigaku Oxford Diffraction, 2017)
Empirical absorption correction using spherical harmonics,
 implemented in SCALE3 ABSPACK scaling algorithm.
;
_exptl_crystal_colour            colourless
_exptl_crystal_colour_primary    colourless
_exptl_crystal_density_diffrn    1.513
_exptl_crystal_description       block
_exptl_crystal_F_000             276
_exptl_crystal_size_max          0.43
_exptl_crystal_size_mid          0.21
_exptl_crystal_size_min          0.07
_refine_diff_density_max         0.263
_refine_diff_density_min         -0.251
_refine_diff_density_rms         0.056
_refine_ls_extinction_coef       0.032(6)
_refine_ls_extinction_expression Fc^*^=kFc[1+0.001xFc^2^\l^3^/sin(2\q)]^-1/4^
_refine_ls_extinction_method     'SHELXL-2018/3 (Sheldrick 2018)'
_refine_ls_goodness_of_fit_ref   1.011
_refine_ls_hydrogen_treatment    mixed
_refine_ls_matrix_type           full
_refine_ls_number_parameters     188
_refine_ls_number_reflns         3141
_refine_ls_number_restraints     0
_refine_ls_restrained_S_all      1.011
_refine_ls_R_factor_all          0.1090
_refine_ls_R_factor_gt           0.0564
_refine_ls_shift/su_max          0.000
_refine_ls_shift/su_mean         0.000
_refine_ls_structure_factor_coef Fsqd
_refine_ls_weighting_details
'w=1/[\s^2^(Fo^2^)+(0.0548P)^2^+0.1499P] where P=(Fo^2^+2Fc^2^)/3'
_refine_ls_weighting_scheme      calc
_refine_ls_wR_factor_gt          0.1207
_refine_ls_wR_factor_ref         0.1697
_reflns_Friedel_coverage         0.000
_reflns_number_gt                1715
_reflns_number_total             3141
_reflns_threshold_expression     'I > 2\s(I)'
_cod_data_source_file            d1ob01843d2.cif
_cod_data_source_block           exp_936
_cod_depositor_comments
'Adding full bibliography for 7158386--7158394.cif.'
_cod_database_code               7158390
_shelx_shelxl_version_number     2018/3
_shelx_space_group_comment
;
The symmetry employed for this shelxl refinement is uniquely defined
by the following loop, which should always be used as a source of
symmetry information in preference to the above space-group names.
They are only intended as comments.
;
_shelx_estimated_absorpt_t_max   0.990
_shelx_estimated_absorpt_t_min   0.942
_reflns_odcompleteness_completeness 98.30
_reflns_odcompleteness_iscentric 1
_reflns_odcompleteness_theta     28.22
_olex2_refinement_description
;
1. Fixed Uiso
 At 1.2 times of:
  All C(H,H) groups
2.a Secondary CH2 refined with riding coordinates:
 C11(H11A,H11B), C6(H6A,H6B), C8(H8A,H8B), C7(H7A,H7B)
;
_shelx_res_file
;
TITL exp_936_a.res in P-1
    exp_936.res
    created by SHELXL-2018/3 at 15:23:09 on 17-Mar-2021
REM Old TITL exp_936 in P-1
REM SHELXT solution in P-1: R1 0.220, Rweak 0.009, Alpha 0.034
REM <I/s> 0.000 for 0 systematic absences, Orientation as input
REM Formula found by SHELXT: C11 N O6
CELL 0.71073 5.4368 8.606 12.6785 93.198 100.084 92.872
ZERR 2 0.0006 0.0007 0.0011 0.007 0.008 0.008
LATT 1
SFAC C H F N O
UNIT 22 28 6 2 6

L.S. 10
PLAN  5
SIZE 0.43 0.21 0.07
TEMP 22(2)
CONF
list 4
fmap 2 53
MORE -1
BOND $H
ACTA 52
HTAB
OMIT 2 10 6
OMIT -5 -3 12
OMIT 0 -2 2
REM <olex2.extras>
REM <HklSrc "%.\\exp_936.hkl">
REM </olex2.extras>

WGHT    0.054800    0.149900
EXTI    0.032031
FVAR       1.38196
O15   5    0.828528    0.472132    0.662825    11.00000    0.04055    0.04118 =
         0.04325   -0.00542    0.01138    0.00120
F1    3    0.524745    0.239441    0.709774    11.00000    0.09378    0.03308 =
         0.06139   -0.00284    0.01436   -0.01652
F2    3    0.397871    0.372054    0.835143    11.00000    0.09512    0.05694 =
         0.06994    0.00853    0.04269   -0.01471
F3    3    0.783485    0.316965    0.852515    11.00000    0.10070    0.04397 =
         0.07070    0.01854   -0.01393    0.00064
O4    5    1.048618    0.842330    0.759114    11.00000    0.04030    0.03956 =
         0.06841    0.01173    0.00481   -0.00343
O14   5    0.395099    0.719921    0.509918    11.00000    0.07599    0.04779 =
         0.03535   -0.00011   -0.00839    0.00169
N1    4    0.663029    0.808766    0.658283    11.00000    0.04783    0.03207 =
         0.03433    0.00479    0.00555   -0.00288
C10   1    0.654440    0.508915    0.730228    11.00000    0.04067    0.03199 =
         0.03574   -0.00120    0.01003   -0.00121
C12   1    0.488976    0.704393    0.604405    11.00000    0.04345    0.03498 =
         0.03502   -0.00377    0.00477    0.00499
C5    1    0.796837    0.798885    0.768303    11.00000    0.03561    0.03182 =
         0.03965    0.00056    0.00028   -0.00319
C9    1    0.785716    0.634944    0.814209    11.00000    0.04741    0.03271 =
         0.03374    0.00151    0.00285    0.00095
C11   1    0.417910    0.568627    0.665227    11.00000    0.03896    0.03780 =
         0.04291    0.00015    0.00560   -0.00363
AFIX  23
H11A  2    0.331198    0.485896    0.615341    11.00000   -1.20000
H11B  2    0.306279    0.601144    0.713031    11.00000   -1.20000
AFIX   0
C13   1    0.590189    0.359726    0.782332    11.00000    0.06383    0.03351 =
         0.04391    0.00060    0.00790   -0.00670
C6    1    0.703094    0.908296    0.849832    11.00000    0.05780    0.04026 =
         0.04295   -0.00348    0.00066    0.00573
AFIX  23
H6A   2    0.789637    1.010568    0.855450    11.00000   -1.20000
H6B   2    0.524612    0.919326    0.829734    11.00000   -1.20000
AFIX   0
C2    1    0.798509    0.920299    0.603086    11.00000    0.07089    0.03824 =
         0.05192    0.00944    0.01287   -0.00776
C8    1    0.679673    0.660479    0.918069    11.00000    0.09251    0.04442 =
         0.03688   -0.00190    0.01699   -0.00710
AFIX  23
H8A   2    0.498676    0.644832    0.904318    11.00000   -1.20000
H8B   2    0.748930    0.590457    0.971384    11.00000   -1.20000
AFIX   0
C7    1    0.762079    0.829544    0.954613    11.00000    0.09216    0.04683 =
         0.03880   -0.00586    0.00885    0.00297
AFIX  23
H7A   2    0.667247    0.870116    1.006997    11.00000   -1.20000
H7B   2    0.939274    0.841302    0.984666    11.00000   -1.20000
AFIX   0
C3    1    1.034306    0.963362    0.685283    11.00000    0.05320    0.03846 =
         0.07992    0.01674    0.01618   -0.00620
H9    2    0.959554    0.606476    0.832103    11.00000    0.03623
H2A   2    0.832862    0.867467    0.539544    11.00000    0.05942
H3A   2    1.022072    1.068721    0.719156    11.00000    0.07595
H3B   2    1.186592    0.962964    0.651979    11.00000    0.07932
H2B   2    0.698327    1.008531    0.586119    11.00000    0.06841
H15   2    0.750382    0.413104    0.605217    11.00000    0.09998
HKLF 4




REM  exp_936_a.res in P-1
REM wR2 = 0.1697, GooF = S = 1.011, Restrained GooF = 1.011 for all data
REM R1 = 0.0564 for 1715 Fo > 4sig(Fo) and 0.1090 for all 3141 data
REM 188 parameters refined using 0 restraints

END

WGHT      0.0528      0.1386

REM Instructions for potential hydrogen bonds
EQIV $1 x-1, y, z
HTAB C11 O4_$1
HTAB C6 O4_$1
EQIV $2 -x+1, -y+1, -z+1
HTAB O15 O14_$2

REM Highest difference peak  0.263,  deepest hole -0.251,  1-sigma level  0.056
Q1    1   0.7444  0.6128  0.7451  11.00000  0.05    0.26
Q2    1   0.6824  0.8222  0.7192  11.00000  0.05    0.23
Q3    1   0.7459  0.2971  0.7785  11.00000  0.05    0.23
Q4    1   1.0152  0.8048  0.7018  11.00000  0.05    0.21
Q5    1   0.7239  0.8407  0.6442  11.00000  0.05    0.21
;
_shelx_res_checksum              17033
_shelx_hkl_file
;
   0   0   3    3.51    1.58
   0   0   3    3.44    1.43
   0   0  -3    6.61    2.06
   0   0   4  135.73    9.89
   0   0  -4  121.88    9.18
   0   0   5   70.41    8.03
   0   0  -5   76.87    8.64
   0   0   6 1278.74   38.05
   0   0  -6 1301.02   37.34
   0   0  -7   28.26    6.01
   0   0   7   29.93    6.21
   0   0   8    2.01    1.29
   0   0  -8   -1.81    2.78
   0   0   9  151.54   16.50
   0   0  -9  163.40   16.53
   0   0  10   40.77    8.89
   0   0 -10   33.06    8.29
   0   0  11  119.32   15.63
   0   0 -11  148.24   18.01
   0   0  12  129.20   17.37
   0   0 -12  124.07   17.06
   0   0  13   -2.01    1.78
   0   0 -13    5.19    4.13
   0   0 -14   -1.12    5.02
   0   0 -15   12.38    6.90
   0   0 -16   46.64   12.94
   0   0 -17  -15.49    7.78
   0   1 -17    2.60    4.61
   0   1 -16    0.37    2.77
   0   1 -15   40.92   11.34
   0   1 -14   44.26   11.73
   0   1 -13  283.15   27.76
   0   1 -12  102.02   16.03
   0   1 -11  127.61   17.07
   0   1 -10    2.17    2.50
   0  -1  10    4.15    2.07
   0   1  -9   31.90    7.13
   0  -1   9   35.94    7.87
   0   1  -8  286.54   20.73
   0  -1   8  254.59   19.22
   0  -1   7   -1.87    1.57
   0   1  -7   -3.87    4.47
   0   1  -6  165.66    5.44
   0   1  -6  193.52   14.92
   0  -1   6  188.83   14.09
   0  -1   5 1077.64   30.18
   0   1  -5 1112.51   32.49
   0   1  -5 1017.91   15.99
   0  -1   4  407.15   16.72
   0   1  -4  435.51   17.89
   0   1  -4  448.23   10.93
   0   1  -3 1741.22   30.32
   0   1  -3 1758.16   33.97
   0   1  -2   30.69    3.32
   0  -1   2   33.51    4.20
   0  -1  -2 2145.13   29.64
   0   1   2 1988.48   29.42
   0   1   3  264.03   12.86
   0  -1  -3  273.90   12.31
   0   1   4   15.03    1.94
   0  -1  -4   12.50    2.76
   0   1   5  340.98    9.14
   0  -1  -5  315.88   16.92
   0   1   6 2612.20   21.73
   0  -1  -6 2633.46   53.79
   0   1   6 2587.99   56.97
   0   1   7  217.08   17.66
   0  -1  -7  206.28   16.20
   0  -1  -8  763.39   33.91
   0   1   8  758.28   35.75
   0  -1  -9   31.70    7.71
   0   1   9   31.23    7.43
   0   1  10    1.34    1.89
   0  -1 -10   -3.16    3.08
   0   1  11   22.07    7.49
   0  -1 -11   26.72    8.61
   0   1  12    4.95    5.00
   0  -1 -12    1.80    2.03
   0  -1 -13   19.47    7.46
   0   1  13   16.51    6.44
   0   1  14    6.81    3.14
   0  -1 -14   17.71    7.24
   0  -1 -15    5.04    4.76
   0   1  15   19.21    8.18
   0  -1 -16   -1.77    2.61
   0  -1 -17    0.01    3.49
   0   2 -17   73.56   17.96
   0   2 -16    2.51    1.75
   0   2 -15   62.56   13.97
   0   2 -14   -0.92    4.19
   0   2 -13   40.65   10.41
   0   2 -12   51.41   10.93
   0   2 -11   12.19    4.09
   0   2 -10   41.83    9.47
   0  -2   9  892.51   18.34
   0   2  -9  853.80   39.92
   0   2  -8   -2.36    4.12
   0   2  -8    0.83    0.73
   0   2  -7   91.33   11.22
   0   2  -7   89.13    6.77
   0   2  -6  158.20    9.49
   0   2  -6  194.34   15.81
   0   2  -5  124.32   11.59
   0   2  -5  105.47    7.93
   0   2  -4 2764.18   50.69
   0   2  -3  598.19   21.12
   0   2  -2   31.27    4.42
   0  -2   1 3155.92   40.50
   0   2  -1 3029.53   32.85
   0   2   0 1293.76   20.68
   0  -2   0 1360.55   21.11
   0  -2   0 1402.59   19.51
   0   2   0 1385.12   20.23
   0   2   1 4952.27   43.86
   0  -2  -1 5174.38   43.63
   0  -2  -2 1102.76   24.13
   0   2   2 1039.74   23.64
   0   2   3 1872.10   36.44
   0   2   4    4.64    2.18
   0   2   4    6.66    1.98
   0   2   5  326.41   13.75
   0  -2  -5  326.57   17.98
   0   2   6    0.14    0.61
   0  -2  -6    2.47    2.09
   0  -2  -7    9.39    3.21
   0   2   7    8.02    2.10
   0   2   8  249.73   10.17
   0   2   8  250.22   20.99
   0  -2  -8  223.04   18.75
   0  -2  -8  193.10    8.58
   0   2   9   63.30    4.10
   0  -2  -9   48.33    8.86
   0   2   9   50.24   10.24
   0  -2  -9   43.89    3.18
   0  -2 -10  322.89   25.54
   0   2  10  314.29   26.03
   0  -2 -11  208.00   21.36
   0   2  11  198.72   21.77
   0  -2 -12  137.27   18.01
   0   2  12  141.03   19.14
   0  -2 -13    0.02    2.04
   0   2  13    0.51    2.83
   0   2  14   37.43   10.77
   0  -2 -14   34.90    9.89
   0  -2 -15   15.14    7.08
   0   2  15   10.03    4.28
   0  -2 -16   -5.25    5.45
   0   2  16   -6.19    4.27
   0  -2 -17    3.48    4.35
   0   3 -16   22.89    8.74
   0   3 -15    8.08    5.02
   0   3 -14    4.53    4.02
   0   3 -13   47.49   11.47
   0   3 -12   -2.77    3.72
   0   3 -11   -0.39    3.18
   0   3 -10  207.01   21.46
   0   3  -9  490.34   19.27
   0   3  -9  541.36   33.23
   0   3  -8   85.75    8.34
   0   3  -8   82.32   11.74
   0   3  -7  160.18   16.27
   0   3  -7  153.33   11.51
   0   3  -6    1.87    1.25
   0   3  -6   -3.70    4.64
   0   3  -5   14.38    5.93
   0   3  -5    3.00    2.37
   0   3  -4  280.24   17.42
   0   3  -3 4877.57   67.81
   0   3  -1 1769.44   30.95
   0   3  -1 1775.69   30.01
   0   3   0   41.92    4.22
   0  -3   0   48.91    4.90
   0  -3   0   48.36    4.49
   0   3   0   41.42    4.53
   0  -3  -1   62.76    5.86
   0   3   1   63.49    5.73
   0   3   2  398.32   16.75
   0   3   3 2929.52   48.40
   0   3   4 1895.81   43.15
   0   3   5  144.06   12.83
   0   3   5  161.47   11.73
   0  -3  -6  734.30   30.69
   0   3   6  768.65   25.49
   0  -3  -7   18.08    5.08
   0   3   7   24.46    4.49
   0  -3  -8  438.36   26.60
   0   3   8  434.27   18.72
   0   3   9   38.34    9.40
   0   3   9   48.38    5.79
   0  -3  -9   36.06    8.09
   0   3  10  341.50   28.30
   0  -3 -10  382.58   27.70
   0  -3 -11   -3.26    3.45
   0   3  11    0.72    2.00
   0  -3 -12   -0.95    2.39
   0   3  12   -0.59    2.18
   0   3  13  117.18   18.47
   0  -3 -13  113.36   17.46
   0  -3 -14   -7.94    6.25
   0   3  14    0.68    3.06
   0   3  15    1.93    2.90
   0  -3 -15   -2.41    4.70
   0  -3 -16   -2.50    4.20
   0  -3 -17   -1.82    4.75
   0   4 -16    5.24    4.98
   0   4 -15   -5.60    4.76
   0   4 -14   -6.08    4.73
   0   4 -13    3.71    3.48
   0   4 -12   19.00    6.67
   0   4 -11   97.77   15.29
   0   4 -10   34.98    5.91
   0   4 -10   31.19    8.35
   0   4  -9  239.25   16.49
   0   4  -9  275.97   24.65
   0   4  -8  102.10   10.99
   0   4  -8  116.40   15.34
   0   4  -7   -2.21    1.90
   0   4  -7    0.89    2.43
   0   4  -6   33.45    7.64
   0   4  -6   20.32    4.79
   0   4  -5 1378.08   40.77
   0   4  -5 1462.50   45.43
   0   4  -4  152.10   14.15
   0   4  -2  430.42   18.55
   0   4  -1 3820.06   49.89
   0   4  -1 3812.68   51.41
   0   4   0   54.22    5.90
   0   4   0   57.12    5.70
   0   4   1  745.70   22.47
   0  -4  -1  446.29   15.47
   0   4   2  327.61   16.29
   0  -4  -2  113.14    8.33
   0   4   3  252.72   15.43
   0   4   4  219.98   16.04
   0   4   4  207.60   15.16
   0   4   5  704.03   28.86
   0   4   5  640.90   28.82
   0   4   6   49.99    8.67
   0   4   6   55.54    7.97
   0  -4  -7   76.35   10.87
   0   4   7   78.51    9.55
   0  -4  -8   -0.13    2.75
   0   4   8    1.02    0.82
   0  -4  -9  124.30   15.46
   0   4   9  134.87   11.98
   0  -4 -10  251.29   23.43
   0   4  10  252.50   25.05
   0  -4 -11   84.82   14.00
   0   4  11   71.22   13.40
   0   4  12    4.28    3.95
   0  -4 -12   -1.52    3.75
   0   4  13   66.26   14.12
   0  -4 -13   60.56   12.92
   0   4  14   -6.32    5.06
   0  -4 -14    3.62    3.91
   0  -4 -15   -2.35    4.09
   0   4  15  -11.68    6.56
   0  -4 -16    2.81    4.30
   0   5 -15   -2.39    3.49
   0   5 -14    5.53    1.68
   0   5 -13   -4.06    4.49
   0   5 -12   75.52   14.58
   0   5 -11    4.43    4.57
   0   5 -10    2.30    1.67
   0   5 -10    4.69    4.84
   0   5  -9  328.56   22.11
   0   5  -9  313.31   26.41
   0   5  -8   69.66   12.19
   0   5  -8   54.79    9.25
   0   5  -7   43.02    7.96
   0   5  -7   51.79   10.30
   0   5  -6    6.81    4.66
   0   5  -6   -0.09    0.99
   0   5  -5  178.45   17.92
   0   5  -5  147.62   14.97
   0   5  -4   64.82    8.59
   0   5  -4   47.12    8.30
   0   5  -3  472.51   22.56
   0   5  -2  223.51   14.07
   0   5  -2  223.79   14.20
   0   5  -1   16.63    3.67
   0   5  -1   16.55    3.63
   0   5   0   16.78    3.53
   0   5   1  271.31   15.01
   0   5   2  442.71   20.79
   0   5   3   25.89    5.84
   0   5   3   23.97    5.00
   0   5   4  924.81   33.66
   0   5   4  937.91   37.64
   0   5   5  330.37   22.22
   0   5   5  335.30   21.65
   0   5   6    6.84    2.86
   0   5   6    7.88    3.62
   0   5   7   72.20   10.49
   0   5   8  169.06   16.03
   0  -5  -8  171.29   18.34
   0   5   9   62.13    9.49
   0  -5  -9   48.96    9.95
   0  -5 -10   50.52   10.89
   0   5  11    2.98    3.08
   0  -5 -11    2.40    3.55
   0  -5 -12    2.70    3.08
   0   5  12    3.75    2.91
   0  -5 -13    4.10    3.86
   0   5  13    3.35    2.88
   0   5  14    7.14    4.95
   0  -5 -14    0.93    1.54
   0  -5 -15    9.87    7.02
   0   6 -14   -2.75    3.51
   0   6 -13    1.12    2.30
   0   6 -12   22.15    7.54
   0   6 -11   22.23    8.03
   0   6 -10    4.83    2.65
   0   6 -10   11.71    5.97
   0   6  -9   17.96    6.83
   0   6  -9   27.57    7.08
   0   6  -8   43.74   10.52
   0   6  -8   35.52    8.11
   0   6  -7   -5.98    3.87
   0   6  -7   10.27    7.59
   0   6  -6    9.02    3.93
   0   6  -6    5.53    3.34
   0   6  -5   32.48    6.81
   0   6  -5   28.80    7.19
   0   6  -4  201.61   16.81
   0   6  -4  171.42   17.63
   0   6  -3   12.34    3.54
   0   6  -3    9.29    4.00
   0   6  -3   13.69    3.95
   0   6  -2  123.10   11.50
   0   6  -2  128.92   11.29
   0   6  -2  121.50   14.79
   0   6  -1  400.69   19.45
   0   6  -1  338.53   24.95
   0   6  -1  366.30   18.99
   0   6   0  262.86   16.32
   0   6   0  265.32   22.00
   0   6   1  130.40   11.33
   0   6   1  141.83   16.32
   0   6   2   13.60    4.10
   0   6   2    9.49    4.04
   0   6   3    5.38    3.40
   0   6   3    2.85    1.55
   0   6   4   59.95   10.62
   0   6   4   59.48    9.05
   0   6   5  153.50   16.62
   0   6   5  148.34   14.86
   0   6   6  101.01   13.60
   0   6   6   84.93   12.09
   0   6   7  218.66   20.11
   0   6   8   55.15   10.14
   0   6   9   20.52    6.43
   0  -6  -9   19.00    6.75
   0  -6 -10  137.57   18.75
   0  -6 -11   44.18   10.95
   0   6  11   50.69   12.11
   0  -6 -12    7.71    5.00
   0   6  12    6.23    5.74
   0  -6 -13    8.02    5.31
   0   6  13    4.61    3.25
   0   6  14    0.01    1.70
   0   7 -13   -5.70    5.03
   0   7 -12    2.66    2.89
   0   7 -11   32.61   10.03
   0   7 -10    5.41    3.00
   0   7 -10   -3.67    3.63
   0   7  -9    7.94    3.48
   0   7  -9    3.71    1.14
   0   7  -8    4.76    2.05
   0   7  -8   12.36    4.89
   0   7  -7    5.15    2.58
   0   7  -7    5.70    3.47
   0   7  -6    5.83    3.21
   0   7  -6    8.14    2.46
   0   7  -5   74.45   11.14
   0   7  -5   59.14   11.34
   0   7  -5   77.08   11.20
   0   7  -4  334.78   22.44
   0   7  -4  288.99   25.08
   0   7  -4  334.13   21.84
   0   7  -3   44.09    9.59
   0   7  -3   51.32    8.18
   0   7  -3   48.30    7.93
   0   7  -2   82.14    9.77
   0   7  -2   89.81   10.52
   0   7  -2   72.18   12.56
   0   7  -1   11.51    5.20
   0   7  -1   11.79    4.08
   0   7   0  174.09   19.26
   0   7   0  191.13   14.89
   0   7   1  373.71   21.32
   0   7   1  343.52   27.48
   0   7   2  633.79   29.44
   0   7   2  588.20   35.73
   0   7   3  103.90   14.98
   0   7   3  117.84   12.71
   0   7   4   85.14   11.37
   0   7   4   82.61   13.49
   0   7   5  221.15   22.02
   0   7   5  242.79   20.21
   0   7   6    1.80    2.02
   0   7   6    2.77    3.35
   0   7   7    3.22    2.95
   0   7   8   13.76    5.87
   0  -7  -9    5.80    3.23
   0  -7 -10   -3.66    3.81
   0   7  11   35.44   10.55
   0  -7 -11   49.58   11.98
   0   7  12    1.14    2.75
   0  -7 -12   -2.42    3.19
   0   7  13   -5.83    5.16
   0   8 -13    2.47    3.76
   0   8 -12    8.72    6.01
   0   8 -11   33.32   10.22
   0   8 -10   91.00   15.76
   0   8 -10   69.00   13.82
   0   8  -9   14.41    6.17
   0   8  -9    5.35    4.57
   0   8  -8   41.80   10.54
   0   8  -8   60.59   12.23
   0   8  -7   62.12   12.74
   0   8  -7   87.89   14.24
   0   8  -6    5.57    3.99
   0   8  -6   -3.32    3.42
   0   8  -5   -0.13    1.89
   0   8  -5   -1.04    2.53
   0   8  -5   -2.01    3.08
   0   8  -4  283.65   20.81
   0   8  -4  211.05   23.11
   0   8  -4  255.81   20.07
   0   8  -3  131.18   13.44
   0   8  -3  137.20   14.62
   0   8  -3  130.57   18.22
   0   8  -2  215.78   16.34
   0   8  -2  189.57   22.21
   0   8  -2  240.45   18.07
   0   8  -1  103.11   16.10
   0   8  -1  119.05   12.54
   0   8   0    9.45    3.80
   0   8   0    9.79    5.54
   0   8   1   16.21    6.91
   0   8   1   27.37    6.18
   0   8   2    8.92    5.04
   0   8   2    6.67    3.31
   0   8   3    4.02    2.29
   0   8   3    1.51    3.13
   0   8   4    9.56    5.10
   0   8   4   10.87    4.23
   0   8   5   11.75    3.57
   0   8   5   14.03    5.99
   0   8   6   -4.39    4.49
   0   8   6    0.23    1.65
   0   8   7    1.16    1.07
   0   8   8   -1.28    2.84
   0  -8  -9   33.65    9.45
   0  -8 -10   -0.67    1.15
   0   8  11   12.93    6.53
   0   8  12   -0.08    2.42
   0   9 -13    0.99    2.07
   0   9 -12    0.91    4.38
   0   9 -11    1.15    2.87
   0   9  -9    6.15    4.74
   0   9  -8    0.85    1.48
   0   9  -7    9.79    5.68
   0   9  -6   15.07    7.01
   0   9  -5    1.36    1.51
   0   9  -4   55.96   12.75
   0   9  -3    5.20    4.60
   0   9  -2   63.32   13.31
   0   9  -1   26.07    7.80
   0   9   0   21.53    7.84
   0   9   1  198.28   24.21
   0   9   2   99.96   17.05
   0   9   3   -2.41    3.18
   0   9   4    9.29    5.43
   0   9   5   19.96    7.57
   0   9   6    6.12    4.59
   0   9   7    5.89    4.31
   0   9   8   14.89    6.99
   0   9  11    0.23    1.86
   0  10  -9    2.88    4.06
   0  10  -8    3.41    3.21
   0  10  -7   20.65    8.52
   0  10  -6    8.76    6.42
   0  10  -5    2.06    1.77
   0  10  -4    1.02    3.18
   0  10  -3    0.49    1.80
   0  10  -2    2.02    4.11
   0  10  -1   45.52   12.28
   0  10   0    2.13    2.99
   0  10   1   -0.89    2.83
   0  10   2    8.48    5.03
   0  10   3   -2.86    1.79
   0  10   4   25.70    9.56
   0  10   5   11.63    6.69
   0  10   6    0.89    0.90
   0  10   7   -0.99    2.85
   0  11  -9   -1.55    2.50
   0  11  -8   -2.48    3.16
   0  11  -7   24.79   10.45
   0  11  -6   -5.07    4.53
   0  11  -5   57.35   15.05
   0  11  -4    8.46    6.27
   0  11  -3   51.55   14.05
   0  11  -2    1.77    2.17
   0  11  -1    2.84    4.07
   0  11   0   33.53   11.37
   0  11   1    4.48    4.65
   0  11   2   14.36    7.65
   0  11   3    1.90    1.83
   0  11   4    0.98    1.70
   0  11   5    2.74    3.72
   0  11   6   15.09    8.84
  -1  11   7    0.64    3.28
  -1  11   6    3.28    3.96
  -1  11   5    1.73    2.59
  -1  11   4    1.40    3.60
  -1  11   3    2.18    2.85
  -1  11   2   62.66   15.11
  -1  11   1   29.43   11.28
  -1  11   0    6.13    4.46
  -1  11  -1   31.15   10.52
  -1  11  -2   12.08    6.48
  -1  11  -3    4.31    4.48
  -1  11  -4   26.57   10.28
  -1  11  -5    2.48    2.90
  -1  11  -6   37.92   12.17
  -1  11  -7   -2.08    2.86
  -1  11  -8    2.82    3.54
  -1  10   8    2.99    3.61
  -1  10   7   12.43    6.47
  -1  10   6   -3.23    3.25
  -1  10   5   14.53    7.08
  -1  10   4   -2.15    3.19
  -1  10   3    9.14    5.28
  -1  10   2   18.22    7.38
  -1  10   1   15.80    6.62
  -1  10   0   72.28   15.45
  -1  10  -1   24.71    9.36
  -1  10  -2    4.88    3.55
  -1  10  -3    2.50    3.29
  -1  10  -4   74.54   15.37
  -1  10  -5    0.25    2.64
  -1  10  -6    6.12    4.03
  -1  10  -7    1.32    1.74
  -1  10  -8    0.00    1.86
  -1  10  -9    3.96    3.66
   1  -9 -11    9.44    6.02
   1  -9 -10   17.05    8.30
  -1   9   8    7.20    4.76
  -1   9   7   -2.60    3.68
  -1   9   6    0.60    1.38
  -1   9   5    5.47    4.15
  -1   9   4    6.32    4.32
  -1   9   3   40.67   10.73
  -1   9   2  168.77   22.36
  -1   9   1   35.08   10.00
  -1   9   0   41.17   10.72
  -1   9  -1   97.30   16.61
  -1   9  -2    2.61    3.64
  -1   9  -3  179.28   22.83
  -1   9  -3  239.93   22.80
  -1   9  -4    4.98    2.99
  -1   9  -4    4.18    3.96
  -1   9  -5    3.15    3.36
  -1   9  -5   -5.46    5.06
  -1   9  -6   23.11    8.31
  -1   9  -6   30.49    8.34
  -1   9  -7   66.05   13.40
  -1   9  -7   52.16   12.34
  -1   9  -8    3.57    4.13
  -1   9  -8    1.99    2.69
  -1   9  -9   72.40   15.15
  -1   9  -9   47.42   12.90
  -1   9 -10    3.03    4.35
  -1   9 -11    8.25    7.04
  -1   9 -12    0.06    2.31
   1  -8 -13    9.05    6.92
  -1   8  13    8.63    6.38
  -1   8  12    2.37    2.25
   1  -8 -12   -1.77    4.51
  -1   8  11   18.35    7.89
   1  -8 -11   13.66    6.89
   1  -8 -10   38.31   11.28
  -1   8  10   40.38   10.50
  -1   8   9   -0.06    1.30
  -1   8   8    2.26    2.00
  -1   8   8    0.70    1.90
  -1   8   7   37.34    9.57
  -1   8   6   17.09    6.48
  -1   8   5   29.46    8.43
  -1   8   4  104.63   16.34
  -1   8   3   43.05   10.85
  -1   8   2    9.31    5.06
  -1   8   1   45.86   10.89
  -1   8   0  169.52   20.81
  -1   8  -1    9.20    3.64
  -1   8  -2  161.71   20.51
  -1   8  -2  201.12   19.46
  -1   8  -3  169.25   21.08
  -1   8  -3  206.04   20.44
  -1   8  -4   12.91    5.72
  -1   8  -4   11.23    4.50
  -1   8  -5   10.78    4.90
  -1   8  -5    3.28    1.05
  -1   8  -6   13.48    6.10
  -1   8  -6   11.54    4.96
  -1   8  -7   11.48    4.98
  -1   8  -7   14.54    6.56
  -1   8  -8    2.37    1.26
  -1   8  -8    5.40    3.70
  -1   8  -9  138.03   19.02
  -1   8  -9  113.05   18.36
  -1   8 -10    3.01    3.95
  -1   8 -11   21.71    8.53
  -1   8 -12    1.77    3.83
  -1   8 -13    3.05    5.42
   1  -7 -14   -6.50    5.14
  -1   7  14    5.08    5.02
  -1   7  13    2.98    3.23
   1  -7 -13   -1.69    3.71
  -1   7  12    3.56    2.96
   1  -7 -12   -5.61    4.50
  -1   7  11   13.11    6.03
   1  -7 -11   32.42   10.36
   1  -7 -10   -0.04    4.19
  -1   7  10   10.69    4.90
  -1   7   9    3.13    2.25
  -1   7   9   -1.37    3.12
  -1   7   8   15.28    5.63
  -1   7   8   13.77    5.17
  -1   7   7    2.05    2.39
  -1   7   6  242.66   22.68
  -1   7   5   58.69   11.44
  -1   7   4  325.41   26.98
  -1   7   3  112.60   10.51
  -1   7   3  110.49   15.71
  -1   7   2   37.03    5.69
  -1   7   2   33.72    8.48
  -1   7   1   -0.05    0.57
  -1   7   1    5.94    4.33
  -1   7   0    5.55    3.38
  -1   7   0    4.84    1.67
  -1   7  -1  360.40   23.94
  -1   7  -1  315.33   26.16
  -1   7  -1  326.83   13.77
  -1   7  -2   63.92   11.84
  -1   7  -2   74.25   11.22
  -1   7  -3   -3.09    3.30
  -1   7  -3   -0.04    1.46
  -1   7  -4  193.53   19.11
  -1   7  -4  164.98   19.56
  -1   7  -5   18.45    6.56
  -1   7  -5   10.43    4.73
  -1   7  -6   55.29   10.94
  -1   7  -6   84.07   13.55
  -1   7  -7   46.56    9.91
  -1   7  -7   55.68   11.39
  -1   7  -8   67.17   12.02
  -1   7  -8   74.81   13.95
  -1   7  -9   19.08    6.30
  -1   7  -9   17.56    6.97
  -1   7 -10    3.99    3.67
  -1   7 -11   10.83    6.05
  -1   7 -12   11.39    6.72
  -1   7 -13    1.80    3.43
   1  -6 -15    2.95    3.85
   1  -6 -14   20.60    9.04
  -1   6  14   10.90    5.89
  -1   6  13    8.60    5.76
   1  -6 -13   14.79    7.34
   1  -6 -12  152.25   21.44
  -1   6  12  137.10   20.12
   1  -6 -11   96.95   17.21
  -1   6  11   72.48   13.77
   1  -6 -10   10.42    5.13
  -1   6  10    7.97    4.66
  -1   6   9   26.99    7.21
  -1   6   9   19.27    7.07
   1  -6  -9   16.40    6.18
  -1   6   8  107.40   13.92
  -1   6   8  124.39   15.34
  -1   6   7    7.16    3.51
  -1   6   6  328.77   24.11
  -1   6   5    2.09    2.68
  -1   6   4  205.31   19.63
  -1   6   3    1.76    1.81
  -1   6   3    3.50    2.22
  -1   6   2   43.34    5.80
  -1   6   2   46.45    9.14
  -1   6   1  142.53    9.16
  -1   6   1  150.39   16.52
  -1   6   0 1445.44   27.64
  -1   6   0 1391.79   51.47
  -1   6  -1   12.03    5.17
  -1   6  -1    8.12    2.06
  -1   6  -1    9.94    3.80
  -1   6  -2  606.81   29.66
  -1   6  -2  587.41   18.39
  -1   6  -2  543.25   31.90
  -1   6  -3   23.71    4.24
  -1   6  -3   28.12    6.78
  -1   6  -3   19.11    5.54
  -1   6  -4   94.34   13.54
  -1   6  -4   93.71   12.61
  -1   6  -5   90.17   12.75
  -1   6  -5   76.49   11.88
  -1   6  -6  213.56   19.80
  -1   6  -6  275.39   23.64
  -1   6  -7   24.51    6.67
  -1   6  -7   34.21    8.22
  -1   6  -8   45.50   10.20
  -1   6  -8   46.21    9.10
  -1   6  -9   12.45    6.12
  -1   6  -9   12.65    5.02
  -1   6  -9    8.94    3.91
  -1   6 -10   44.92   11.49
  -1   6 -11    3.96    3.87
  -1   6 -12  -14.87    7.29
  -1   6 -13   -3.92    4.99
  -1   6 -14   -0.01    2.70
   1  -5 -15    6.91    5.31
  -1   5  15   -1.66    2.52
  -1   5  14    3.15    2.67
   1  -5 -14    3.20    2.55
  -1   5  13   60.04   13.04
   1  -5 -13   52.80   13.13
  -1   5  12   28.33    9.14
   1  -5 -12   25.69    9.18
   1  -5 -11   15.15    6.64
  -1   5  11   15.64    5.89
  -1   5  10  132.98   17.49
   1  -5 -10  152.96   19.81
  -1   5   9    2.82    2.47
   1  -5  -9    0.13    1.83
  -1   5   9    2.54    3.71
  -1   5   8   -0.72    1.46
  -1   5   8    0.42    2.47
  -1   5   7  140.74   15.21
  -1   5   7  127.49   13.84
  -1   5   6    4.62    2.70
  -1   5   5  430.35   25.22
  -1   5   4    4.36    2.45
  -1   5   3  625.63   30.88
  -1   5   2   14.21    4.14
  -1   5   2   21.26    3.75
  -1   5   1   40.78    4.42
  -1   5   1   48.86    8.49
  -1   5   0  197.97   17.56
  -1   5   0  199.74   15.29
  -1   5   0  199.89    8.76
  -1   5  -1    9.42    3.39
  -1   5  -1   10.45    4.08
  -1   5  -1    7.38    1.59
  -1   5  -2    3.78    2.52
  -1   5  -2    9.68    2.21
  -1   5  -2   10.89    3.41
  -1   5  -3    9.76    2.45
  -1   5  -3   22.04    5.89
  -1   5  -3   16.78    4.83
  -1   5  -4  544.67   29.55
  -1   5  -4  511.58   28.09
  -1   5  -5   59.73    9.56
  -1   5  -5   63.19    9.80
  -1   5  -6 1769.35   56.44
  -1   5  -6 1553.47   48.37
  -1   5  -7   46.69   10.68
  -1   5  -7   27.40    6.46
  -1   5  -8 1459.26   58.53
  -1   5  -8 1253.73   44.34
  -1   5  -9  133.18   17.75
  -1   5  -9  136.31   13.78
  -1   5 -10    6.84    4.20
  -1   5 -11   27.45    8.48
  -1   5 -12   26.80    9.21
  -1   5 -13   -2.67    4.16
  -1   5 -14   12.28    6.25
  -1   5 -15    9.03    7.35
   1  -4 -16   13.59    7.60
   1  -4 -15   25.05   10.16
  -1   4  15   12.35    6.29
  -1   4  14    4.07    3.43
   1  -4 -14    5.12    4.02
   1  -4 -13   45.15   11.31
  -1   4  13   31.98    9.46
  -1   4  12   19.28    6.83
   1  -4 -12   24.76    9.27
  -1   4  11    5.65    4.31
   1  -4 -11    8.62    5.07
   1  -4 -10   16.19    6.26
  -1   4  10   17.79    6.22
  -1   4   9  239.90   16.03
  -1   4   9  228.64   21.67
   1  -4  -9  223.14   22.21
  -1   4   8    6.02    2.48
  -1   4   8    4.99    2.66
   1  -4  -8    7.15    2.72
  -1   4   7  307.55   19.09
  -1   4   7  296.33   21.91
  -1   4   6    1.23    1.00
  -1   4   6    1.04    1.05
  -1   4   5  514.47   24.37
  -1   4   4 1181.27   37.56
  -1   4   3  182.03   14.69
  -1   4   2   -1.91    1.95
   1  -4  -2   -0.23    0.29
  -1   4   1  271.11    9.45
  -1   4   1  284.72   18.66
  -1   4   0  452.45   21.56
  -1   4   0  419.60    9.65
  -1   4   0  455.50   23.87
  -1   4  -1    1.31    0.61
  -1   4  -1    0.71    1.25
  -1   4  -1    2.76    2.46
  -1   4  -2    8.79    3.19
  -1   4  -2    8.06    3.04
  -1   4  -3  325.99   20.45
  -1   4  -3  314.24   19.79
  -1   4  -4  498.21   24.56
  -1   4  -4  491.56   25.26
  -1   4  -5   19.36    6.18
  -1   4  -5   10.92    3.47
  -1   4  -5   17.41    5.28
  -1   4  -6   69.35    9.22
  -1   4  -6   90.59   12.36
  -1   4  -7  105.77   11.28
  -1   4  -7  112.05   14.15
  -1   4  -8  433.46   22.61
  -1   4  -8  450.15   29.18
  -1   4  -9    2.58    1.26
  -1   4  -9   -5.28    4.98
  -1   4 -10   28.12    7.63
  -1   4 -11   30.12    8.64
  -1   4 -12   27.25    7.90
  -1   4 -13   22.28    8.30
  -1   4 -14   19.72    8.44
  -1   4 -15    6.12    4.24
  -1   4 -16   -5.84    4.79
   1  -3 -16    7.30    6.28
   1  -3 -15    2.31    4.80
  -1   3  15   11.28    6.61
  -1   3  14   41.16   10.39
   1  -3 -14   40.07   11.56
   1  -3 -13   62.41   13.56
  -1   3  13   50.80   11.78
  -1   3  12   -2.15    2.67
   1  -3 -12   -2.00    4.21
  -1   3  11   78.83   13.64
   1  -3 -11   79.12   14.58
  -1   3  10   -0.08    1.67
   1  -3 -10   -2.14    2.70
   1  -3  -9  879.35   42.10
  -1   3   9  921.43   27.92
  -1   3   9  815.81   39.95
   1  -3  -8   -1.64    2.58
  -1   3   8   -1.05    1.19
  -1   3   8   -1.19    2.28
   1  -3  -7  306.48   22.62
  -1   3   7  302.20   16.05
  -1   3   7  289.84   20.81
  -1   3   6   -0.75    1.18
  -1   3   6    9.49    2.66
  -1   3   5   82.26    8.60
  -1   3   5   82.50    9.64
  -1   3   4  105.83    9.74
  -1   3   4  104.94    9.56
  -1   3   3  346.64   17.65
  -1   3   2 1261.73   33.89
   1  -3  -2 1204.32   22.44
   1  -3  -1    1.16    0.66
  -1   3   1   -1.34    1.60
  -1   3   0   45.28    6.75
  -1   3   0   43.50    6.33
  -1   3  -1  123.69   10.31
  -1   3  -1  131.58   10.87
  -1   3  -2  227.41   14.77
  -1   3  -2  206.88   13.86
  -1   3  -3   31.85    5.48
  -1   3  -3   33.73    6.06
  -1   3  -4  221.88   14.56
  -1   3  -4  231.88   17.20
  -1   3  -5   22.47    4.64
  -1   3  -5   24.33    5.27
  -1   3  -6  839.73   27.76
  -1   3  -6  950.85   36.54
  -1   3  -7  973.34   29.78
  -1   3  -7  965.16   39.41
  -1   3  -8   97.37    9.27
  -1   3  -8  104.02   13.54
  -1   3  -9   73.97    7.89
  -1   3  -9   76.76   12.12
  -1   3 -10   17.34    5.79
  -1   3 -11   28.90    8.05
  -1   3 -12   25.05    8.44
  -1   3 -13   11.56    5.25
  -1   3 -14   13.86    6.56
  -1   3 -15    4.51    4.20
  -1   3 -16    1.42    2.35
   1  -2 -17  -13.17    8.87
   1  -2 -16   11.32    5.16
   1  -2 -15    5.39    4.91
   1  -2 -14    4.52    3.21
  -1   2  13   -1.89    3.50
   1  -2 -13   -0.87    2.75
   1  -2 -12    9.18    4.93
  -1   2  12    5.01    3.33
   1  -2 -11  308.00   26.83
  -1   2  11  264.19   23.51
  -1   2  10   21.32    6.23
   1  -2 -10   14.73    5.51
   1  -2  -9   -2.91    4.24
  -1   2   9    1.87    1.16
  -1   2   9   -0.89    3.55
  -1   2   8  236.44   12.03
  -1   2   8  229.01   18.90
   1  -2  -8  240.94   20.47
  -1   2   7   60.01    8.98
   1  -2  -7   60.19    9.19
  -1   2   7   62.47    6.29
  -1   2   6  299.85   13.98
  -1   2   6  275.97   18.22
   1  -2  -6  283.38   19.64
  -1   2   5 1338.69   29.33
  -1   2   5 1316.55   36.37
  -1   2   4 1570.30   32.19
  -1   2   4 1604.77   36.26
  -1   2   3  809.70   22.33
  -1   2   3  805.36   23.24
  -1   2   2  279.71   10.82
  -1   2   2  271.76   13.85
  -1   2   1 3968.94   53.06
   1  -2  -1 4015.58   27.04
  -1   2   1 3874.97   29.93
  -1   2   0 6585.68   66.83
  -1   2   0 6222.83   66.57
  -1   2  -1  705.34   22.48
  -1   2  -1  678.87   10.81
  -1   2  -1  673.59   21.64
   1  -2   2    1.06    0.82
  -1   2  -2    3.65    1.88
  -1   2  -2    3.80    2.54
  -1   2  -2    1.23    0.83
  -1   2  -3 1133.72   25.04
   1  -2   3 1038.72   22.27
  -1   2  -3 1010.82   26.14
  -1   2  -3 1126.14   31.30
   1  -2   4   99.73    8.25
  -1   2  -4   93.76    8.11
  -1   2  -4  112.77   10.46
  -1   2  -5   42.56    5.46
  -1   2  -5   54.16    7.94
   1  -2   5   44.06    6.28
  -1   2  -6  670.81   28.76
   1  -2   6  590.22   25.17
  -1   2  -6  633.71   21.29
  -1   2  -7   65.81    9.63
  -1   2  -7   61.47    6.32
   1  -2   7   53.89    8.21
   1  -2   8    1.07    1.96
  -1   2  -8   -0.27    2.53
  -1   2  -8   -1.12    1.07
  -1   2  -9   -0.32    0.65
   1  -2   9   -0.54    1.80
  -1   2  -9    2.08    2.46
   1  -2  10   77.70   12.04
  -1   2 -10   99.28   14.46
   1  -2  11  311.60   25.50
  -1   2 -11  397.76   30.45
  -1   2 -12   44.38   11.28
  -1   2 -13   -0.83    4.00
  -1   2 -14   34.62   10.39
  -1   2 -15   -2.44    3.45
  -1   2 -16   38.10   12.28
  -1   2 -17   -7.69    5.55
   1  -1 -17   -4.02    4.19
   1  -1 -16    4.18    4.35
   1  -1 -15    5.68    5.78
   1  -1 -14   52.38   12.43
   1  -1 -13   64.09   12.68
   1  -1 -12   16.63    6.47
   1  -1 -11    0.00    2.16
  -1   1  11   -4.34    4.43
  -1   1  10    9.28    3.98
   1  -1 -10   11.88    4.73
   1  -1  -9    3.49    1.08
  -1   1   9   12.09    4.70
   1  -1  -9   11.45    3.58
   1  -1  -8   71.99   11.31
  -1   1   8   64.43    9.91
  -1   1   7  105.95   11.79
  -1   1   7  120.05    7.32
   1  -1  -7  116.97   13.18
   1  -1  -6   20.70    3.19
  -1   1   6   32.95    3.86
  -1   1   6   27.64    5.09
  -1   1   5   34.03    5.48
  -1   1   5   40.27    4.52
   1  -1  -5   19.90    3.14
   1  -1  -5   41.04    6.60
  -1   1   4   63.96    5.58
  -1   1   4   56.05    6.45
   1  -1  -4   58.43    4.90
   1  -1  -4   59.85    6.92
   1  -1  -4   32.72    4.08
   1  -1  -3 7691.65   62.08
  -1   1   3 7536.28   60.90
  -1   1   3 7464.59   60.38
   1  -1  -3 7400.83   57.50
   1  -1  -2 2047.12   28.67
   1  -1  -2 1962.17   29.97
  -1   1   2 2021.06   32.41
  -1   1   2 1991.59   32.01
   1  -1  -2 2041.25   31.59
  -1   1   1  600.74   17.62
   1  -1  -1  619.19   17.37
  -1   1   1  604.56   17.62
   1  -1  -1  600.54   16.49
  -1   1   0 6335.18   58.51
  -1   1   0 6349.13   57.70
   1  -1   0 6414.04   35.41
   1  -1   0 6598.09   55.62
   1  -1   0 6588.99   57.04
  -1   1   0 6387.59   57.16
  -1   1  -1 3688.39   43.63
   1  -1   1 3735.23   33.06
  -1   1  -1 3699.16   44.33
  -1   1  -1 3756.69   33.09
   1  -1   1 3890.39   43.61
   1  -1   1 4035.66   45.66
  -1   1  -1 3659.22   46.09
   1  -1   1 3860.75   42.43
   1  -1   2   25.18    3.43
   1  -1   2   25.08    3.25
  -1   1  -2   19.78    3.23
  -1   1  -2   25.13    3.46
   1  -1   2   30.85    3.97
   1  -1   2   23.18    3.12
  -1   1  -2   27.52    3.53
  -1   1  -2   25.18    3.43
  -1   1  -2   23.17    3.47
   1  -1   3 2102.02   36.25
  -1   1  -3 2097.28   32.41
  -1   1  -3 2082.04   32.86
   1  -1   3 2235.04   31.85
  -1   1  -3 2152.00   36.23
   1  -1   3 2275.23   33.17
  -1   1  -4  209.53   12.74
   1  -1   4  229.52   10.80
  -1   1  -4  203.89   10.52
   1  -1   5 1280.64   35.72
  -1   1  -5 1359.05   36.11
   1  -1   5 1368.48   25.77
  -1   1  -5 1233.23   26.02
   1  -1   6  358.33   20.41
  -1   1  -6  325.88   12.58
  -1   1  -6  373.42   20.57
   1  -1   6  373.05   13.63
  -1   1  -7  141.26   13.73
   1  -1   7  124.18    7.32
   1  -1   7  120.24   12.75
  -1   1  -8   87.61   11.53
   1  -1   8   84.10   11.46
   1  -1   8   56.60    4.67
  -1   1  -9   44.04    8.47
   1  -1   9   35.23    7.81
  -1   1 -10    1.73    3.22
   1  -1  10    2.29    2.71
   1  -1  11    2.07    2.58
  -1   1 -11    0.08    2.89
   1  -1  12   93.41   14.83
  -1   1 -12  107.53   15.96
  -1   1 -13   11.89    5.72
   1  -1  13   13.65    5.44
   1  -1  14   -1.79    3.30
  -1   1 -14   -7.98    5.42
  -1   1 -15    3.92    2.16
  -1   1 -16   17.00    7.81
  -1   1 -17    0.28    2.13
   1   0 -17    4.53    4.15
   1   0 -16   81.36   17.11
   1   0 -15    5.84    4.85
   1   0 -14   68.41   14.32
   1   0 -13    5.69    5.16
   1   0 -12   10.56    6.80
   1   0 -11  100.56   14.91
   1   0 -10   14.23    5.94
   1   0  -9  443.00   28.33
   1   0  -8    3.59    1.09
   1   0  -8    6.24    3.59
  -1   0   7    0.74    0.37
   1   0  -7    0.98    2.31
   1   0  -7    0.89    0.51
   1   0  -7   -0.43    0.43
   1   0  -6    1.99    0.92
   1   0  -6    1.74    1.02
  -1   0   6    0.96    0.61
   1   0  -5   26.25    3.37
   1   0  -5   28.07    5.10
   1   0  -5   14.45    2.53
   1   0  -4  220.21   13.34
   1   0  -4  231.00   10.31
   1   0  -4  242.19   10.36
   1   0  -3  892.94   19.77
   1   0  -3  830.03   22.79
   1   0  -3  883.95   19.47
   1   0  -2  246.89   10.25
  -1   0   2  249.56   10.75
   1   0  -2  235.88   10.31
   1   0  -2  233.15   10.13
  -1   0   1 9976.65   67.05
   1   0  -1 9893.82   66.24
   1   0  -1 9999.00   65.75
   1   0   0 3173.90   34.73
  -1   0   0 3124.95   34.09
  -1   0   0 3259.26   34.20
   1   0   0 3211.84   37.77
  -1   0   0 3166.17   37.90
   1   0   0 3321.01   33.76
   1   0   0 3236.69   38.14
   1   0   1 4617.80   30.36
  -1   0  -1 4557.56   46.80
   1   0   1 4557.75   45.07
  -1   0  -1 4569.21   44.16
   1   0   1 4820.05   45.71
  -1   0  -1 4749.39   42.97
   1   0   1 4820.54   46.75
   1   0   2  625.12   16.94
   1   0   2  598.52   14.15
  -1   0  -2  598.76   13.73
   1   0   2  638.25   16.80
  -1   0  -2  611.45   17.75
   1   0   2  598.81   18.73
   1   0   3   77.45    5.93
   1   0   3   63.80    6.55
   1   0   3   74.69    5.87
  -1   0  -3   62.62    5.52
   1   0   3   75.35    5.75
   1   0   4    1.03    0.77
   1   0   4    1.70    0.87
  -1   0  -4    0.46    1.01
   1   0   4    2.56    1.39
   1   0   5  649.32   26.14
   1   0   5  634.51   16.02
  -1   0  -5  595.84   21.98
  -1   0  -6  478.31   13.19
  -1   0  -6  506.31   22.43
   1   0   6  494.99   13.72
  -1   0  -7   16.92    4.74
   1   0   7   17.57    2.36
   1   0   8   11.04    4.10
   1   0   8   12.77    1.62
  -1   0  -8    9.38    3.60
  -1   0  -9   86.53   11.44
   1   0   9   83.90   12.86
   1   0  10  126.81   16.75
  -1   0 -10  135.61   15.94
  -1   0 -11   33.82    8.32
   1   0  11   23.52    7.63
   1   0  12    1.41    1.34
  -1   0 -12   -1.35    2.34
  -1   0 -13   17.71    6.32
   1   0  13   19.54    6.92
   1   0  14    1.74    3.68
  -1   0 -14   -3.69    4.28
   1   0  15   19.77    8.01
  -1   0 -15   12.00    5.66
  -1   0 -16    2.03    3.59
   1   0  16   -3.31    3.52
  -1   0 -17   29.27   11.65
   1   1 -17   27.90   11.57
   1   1 -16   36.27   12.51
   1   1 -15  -12.44    7.26
   1   1 -14  108.23   18.09
   1   1 -13    1.55    3.04
   1   1 -12   36.06    9.92
   1   1 -11   23.82    7.02
   1   1 -10   77.08   12.80
   1   1  -9    0.00    3.07
   1   1  -9    1.42    0.60
   1   1  -8  595.22   16.19
   1   1  -8 1153.24   42.88
   1   1  -7   81.26   10.50
   1   1  -7   45.87    4.72
   1   1  -6    2.79    1.68
  -1  -1   6    2.94    1.30
  -1  -1   5   48.28    5.07
   1   1  -5   48.60    6.82
  -1  -1   4    3.60    1.38
   1   1  -4    3.41    2.46
   1   1  -3 1499.20   28.52
   1   1  -3 1465.74   30.33
  -1  -1   2   49.57    4.66
  -1  -1   2   49.49    5.23
   1   1  -2   50.32    4.73
   1   1  -2   47.01    4.88
  -1  -1   1  131.14    8.41
   1   1  -1  132.06    5.90
  -1  -1   1  131.76    6.06
   1   1  -1  127.54    8.23
  -1  -1   0  708.45   19.47
  -1  -1   0  690.48   19.08
   1   1   0  673.93   12.08
   1   1   0  671.53   19.40
   1   1   0  673.05   18.86
   1   1   1 2504.01   38.13
   1   1   1 2722.76   37.67
  -1  -1  -1 2675.55   38.13
  -1  -1  -1 2543.12   26.97
   1   1   2 1267.23   29.58
  -1  -1  -2 1311.89   17.89
  -1  -1  -2 1357.54   27.18
   1   1   2 1334.08   26.65
  -1  -1  -3  170.69    8.39
   1   1   3  168.68   12.09
   1   1   3  191.13    8.84
  -1  -1  -3  173.21    9.63
  -1  -1  -4 1184.20   24.91
   1   1   4 1214.34   34.70
  -1  -1  -4 1178.68   26.56
   1   1   5  972.78   33.84
  -1  -1  -5  940.25   26.84
   1   1   6    0.71    0.62
  -1  -1  -6    0.48    1.12
   1   1   6    0.47    2.33
   1   1   7   59.75    5.14
  -1  -1  -7   71.10    8.65
  -1  -1  -8    6.23    1.73
   1   1   8    2.40    0.90
  -1  -1  -8    4.53    1.18
  -1  -1  -9    3.26    2.35
  -1  -1 -10    5.52    2.04
   1   1  10    1.80    1.53
   1   1  11   41.02   10.30
  -1  -1 -11   60.49   10.81
   1   1  12   28.91    9.53
  -1  -1 -12   22.28    6.83
  -1  -1 -13   44.70   10.64
   1   1  13   50.04   12.00
  -1  -1 -14   17.07    6.67
   1   1  14   27.31    9.30
   1   1  15    8.98    5.74
  -1  -1 -15    4.47    3.86
   1   1  16   27.40   10.48
  -1  -1 -16   12.35    6.83
   1   2 -17   -2.21    3.01
   1   2 -16   67.44   16.20
   1   2 -15    0.98    4.28
   1   2 -14   36.27    9.86
   1   2 -13   49.76   11.05
   1   2 -12   -3.19    3.21
   1   2 -11  236.58   23.91
   1   2 -10  345.08   13.77
   1   2 -10  329.68   26.68
  -1  -2   9   81.79    7.32
   1   2  -9   80.46   11.98
  -1  -2   8  361.97   16.66
   1   2  -8  331.36   23.48
  -1  -2   7  390.32   17.30
   1   2  -7  395.36   24.01
  -1  -2   6   12.19    2.99
   1   2  -6   15.14    4.87
   1   2  -5    1.83    2.24
  -1  -2   5    2.70    1.74
  -1  -2   4  652.13   21.50
   1   2  -4  644.92   24.22
  -1  -2   3   50.04    5.78
   1   2  -3   48.40    6.00
   1   2  -2 2746.05   40.24
  -1  -2   2 2763.87   39.32
  -1  -2   1  219.63    9.78
   1   2  -1  220.63   13.05
   1   2  -1  189.69    8.84
   1   2   0    5.59    1.54
  -1  -2   0    5.68    1.44
   1   2   1  318.51   14.98
   1   2   2 1833.30   38.68
  -1  -2  -2 1771.08   35.92
  -1  -2  -3    4.76    1.57
  -1  -2  -3    3.70    1.84
   1   2   3   -0.44    2.47
   1   2   4   80.19    9.40
  -1  -2  -4   74.74    6.77
  -1  -2  -4   62.72    6.62
  -1  -2  -5  983.44   26.96
   1   2   5 1063.19   37.17
  -1  -2  -5 1095.99   29.71
   1   2   6   91.82   11.70
  -1  -2  -6   95.28    9.64
  -1  -2  -6   85.27    7.90
  -1  -2  -7   94.29    7.97
   1   2   7  101.37   13.07
  -1  -2  -7  110.41   11.26
  -1  -2  -8  106.43    7.78
  -1  -2  -8  104.76   12.07
  -1  -2  -9  123.64   13.84
  -1  -2 -10  520.49   30.21
  -1  -2 -11   57.38   10.54
   1   2  11   49.46   11.30
   1   2  12    9.54    4.06
  -1  -2 -12   12.75    5.93
   1   2  13   55.90   12.55
  -1  -2 -13   51.64   11.23
   1   2  14    7.31    3.68
  -1  -2 -14    4.89    3.84
  -1  -2 -15    0.22    2.71
   1   2  15   -5.04    4.35
   1   3 -16    5.19    2.84
   1   3 -15   -1.21    3.26
   1   3 -14   31.58   10.09
   1   3 -13   32.41    9.83
   1   3 -12  131.48   18.84
   1   3 -11   71.25   13.86
  -1  -3  10  128.72   10.97
   1   3 -10  110.58   15.68
   1   3  -9  191.05   19.90
  -1  -3   9  224.78   14.61
   1   3  -8   69.62   11.24
  -1  -3   8   73.00    8.27
   1   3  -7  175.03   16.43
  -1  -3   7  175.55   12.99
   1   3  -6  206.36   17.04
   1   3  -5  824.21   32.30
   1   3  -4 2932.06   55.96
   1   3  -3 6404.59   75.64
   1   3  -2  739.90   23.36
   1   3  -1  615.03   23.95
  -1  -3   0 1823.73   32.76
   1   3   0 1995.99   42.70
   1   3   1    0.17    1.04
   1   3   2 2596.02   50.48
   1   3   3  761.88   29.59
   1   3   4 1811.72   49.06
  -1  -3  -5  124.07   10.57
   1   3   5  113.41   12.40
  -1  -3  -5   88.90    9.42
  -1  -3  -6   21.20    4.49
   1   3   6   18.64    5.04
  -1  -3  -6   30.30    5.56
  -1  -3  -7   73.99    8.42
   1   3   7   82.16   12.04
  -1  -3  -7   79.75   10.18
  -1  -3  -8  114.19   12.92
   1   3   8  109.96   14.91
  -1  -3  -8  107.04    9.97
  -1  -3  -9  468.12   27.89
  -1  -3 -10    0.90    2.10
  -1  -3 -11   -1.64    2.18
  -1  -3 -12    5.82    3.62
   1   3  12    0.30    5.35
   1   3  13   57.98   13.57
  -1  -3 -13   68.01   12.81
   1   3  14   21.06    8.43
  -1  -3 -14   18.70    7.11
   1   3  15    3.81    4.29
   1   4 -16   -5.60    4.69
   1   4 -15    5.81    3.21
   1   4 -14   -1.57    5.04
   1   4 -13   -3.41    2.30
   1   4 -12   62.36   13.10
   1   4 -11  285.74   27.27
  -1  -4  10   29.36    5.98
   1   4 -10   28.51    9.02
   1   4  -9  114.38   15.81
  -1  -4   9  117.81   11.93
   1   4  -8  108.83   14.51
   1   4  -7   44.38    8.87
   1   4  -6  222.39   18.53
   1   4  -5  136.73   13.76
   1   4  -4  162.34   13.89
   1   4  -3 1088.70   35.39
   1   4  -2  795.48   30.57
   1   4  -1  867.14   15.66
   1   4  -1  886.37   31.40
   1   4   0   10.50    3.76
   1   4   1  294.30   17.61
   1   4   2  818.83   30.46
  -1  -4  -2  343.35    8.78
   1   4   3   -1.24    1.05
   1   4   4  890.07   36.40
   1   4   5  575.43   29.91
  -1  -4  -6  351.24   20.47
   1   4   6  312.72   23.62
   1   4   7  239.94   21.79
  -1  -4  -7  253.87   19.07
  -1  -4  -7  212.47   15.95
  -1  -4  -8   29.92    6.00
   1   4   8   27.23    7.41
  -1  -4  -8   35.36    7.47
  -1  -4  -9   51.95    9.58
  -1  -4 -10  290.08   24.09
  -1  -4 -11   -0.44    2.94
  -1  -4 -12   94.82   14.78
   1   4  12   94.90   17.56
   1   4  13   -6.69    4.60
   1   4  14   16.79    8.22
   1   5 -15    0.01    4.85
   1   5 -14    0.32    4.91
   1   5 -13   55.63   12.88
   1   5 -12   49.66   11.52
   1   5 -11  146.52   19.78
   1   5 -10   49.75    8.70
  -1  -5  10   42.18    8.23
   1   5 -10   43.47   10.63
   1   5  -9  234.71   23.34
   1   5  -8   97.74   14.36
   1   5  -7   76.53   11.74
   1   5  -6   12.21    5.02
   1   5  -5   35.41    7.33
   1   5  -4  875.97   37.25
   1   5  -3    3.14    1.23
   1   5  -2   17.77    4.90
   1   5  -2   23.47    3.59
   1   5  -1  563.20   26.95
   1   5  -1  601.44   14.69
   1   5   0  360.88   21.42
   1   5   1  203.26   16.27
  -1  -5  -2  221.27    6.66
   1   5   2  603.00   28.20
   1   5   3    3.52    2.81
  -1  -5  -3    0.02    0.41
   1   5   4  102.96   13.40
   1   5   5  303.31   23.09
   1   5   6    3.63    2.31
   1   5   7   73.43   12.04
  -1  -5  -7   91.88   12.17
  -1  -5  -8    0.24    1.41
   1   5   8   -2.37    2.08
  -1  -5  -8    0.68    1.84
   1   5   9    6.89    5.81
  -1  -5  -9   -1.65    2.67
  -1  -5 -10   23.35    7.25
  -1  -5 -11   38.29    8.47
   1   5  13   -5.56    4.61
   1   5  14   16.92    8.09
   1   6 -15   -4.46    6.02
   1   6 -14   14.80    8.25
   1   6 -13   24.16    9.37
   1   6 -12   58.12   13.48
   1   6 -11   12.07    5.18
   1   6 -10    7.82    4.18
   1   6 -10   -2.04    3.69
   1   6  -9    3.34    3.40
   1   6  -8    1.54    2.86
   1   6  -7  518.34   34.30
   1   6  -6  110.41   15.89
   1   6  -4  432.49   27.13
   1   6  -4  420.68   20.54
   1   6  -3   77.42    8.31
   1   6  -3   74.60   10.73
   1   6  -2    0.91    1.88
   1   6  -2    0.04    0.74
   1   6  -1  946.42   37.34
   1   6   0   97.89   11.33
   1   6   1 1104.99   41.21
   1   6   2   17.46    5.28
   1   6   3   64.29   10.37
   1   6   4   15.59    5.88
   1   6   5   13.53    4.78
   1   6   6   23.35    6.65
  -1  -6  -7    0.78    1.23
   1   6   7   -3.63    3.76
  -1  -6  -8   15.72    5.46
  -1  -6  -8   11.03    5.13
   1   6   8   13.17    4.69
   1   6   8    4.96    3.59
   1   6   9    1.72    2.03
  -1  -6  -9   -3.27    2.80
   1   6  13   -8.70    5.92
   1   7 -14   23.95    9.72
   1   7 -13   -7.16    5.28
   1   7 -12  -10.82    6.26
   1   7 -11    9.93    6.48
   1   7 -10   11.69    6.63
   1   7 -10    4.61    3.86
   1   7  -9    1.72    3.73
   1   7  -9    0.02    1.18
   1   7  -8    0.03    3.74
   1   7  -6   27.83    7.72
   1   7  -6   23.45    5.96
   1   7  -5   52.20   10.39
   1   7  -5   44.72    7.42
   1   7  -4   71.07    8.97
   1   7  -4   78.46   12.07
   1   7  -3  119.42   14.60
   1   7  -3  124.06   10.36
   1   7  -2  118.75    9.28
   1   7  -2  113.62   13.65
   1   7  -1  168.44   16.36
   1   7   0  103.06   13.01
   1   7   1 1267.93   46.29
   1   7   2  535.42   30.71
   1   7   3  179.88   18.31
   1   7   4    6.49    4.44
   1   7   5    2.06    2.31
   1   7   6   14.33    5.68
   1   7   7  107.06   15.83
   1   7   7   92.44   14.93
   1   7   8   10.26    4.31
  -1  -7  -8    6.99    3.18
   1   7   8    0.80    1.83
   1   7   9    1.73    2.20
   1   8 -13    0.01    2.59
   1   8 -12  177.86   27.02
   1   8 -11    4.10    4.22
   1   8 -10   -0.14    2.02
   1   8  -9    5.46    3.85
   1   8  -9   12.92    5.62
   1   8  -8   -0.09    1.41
   1   8  -7   26.54    8.39
   1   8  -7   27.40    8.27
   1   8  -6   13.68    5.15
   1   8  -5   39.09    8.94
   1   8  -4    4.04    3.57
   1   8  -3  116.79   14.88
   1   8  -2   18.69    6.43
   1   8  -1   24.28    6.80
   1   8   0    2.44    1.26
   1   8   1   11.54    4.45
   1   8   2   30.68    7.58
   1   8   3   21.77    6.71
   1   8   4  137.39   17.09
   1   8   5    1.08    1.90
   1   8   5    1.27    2.01
   1   8   6    6.58    3.46
   1   8   6   10.71    5.38
   1   8   7   33.65    9.79
   1   8   7   25.19    7.75
   1   8   8   17.71    6.84
   1   8   8   20.58    7.89
   1   9 -10    0.18    2.10
   1   9  -9    1.60    2.27
   1   9  -8    6.58    4.78
   1   9  -7   -3.46    4.18
   1   9  -6   19.83    7.01
   1   9  -6    9.45    5.61
   1   9  -5    0.30    1.73
   1   9  -5    2.35    2.62
   1   9  -4   13.81    6.03
   1   9  -4   10.68    4.73
   1   9  -3    0.54    1.22
   1   9  -2   34.99    8.13
   1   9  -1   43.66    9.41
   1   9   0    7.15    3.15
   1   9   1  372.17   27.64
   1   9   2   -3.23    3.58
   1   9   2    3.16    2.49
   1   9   3   16.62    6.14
   1   9   3    9.74    5.51
   1   9   4    6.08    4.75
   1   9   4    7.36    4.51
   1   9   5   15.87    6.88
   1   9   5   28.34    8.20
   1   9   6    0.89    1.50
   1   9   6    0.83    2.47
   1   9   7    4.11    3.77
   1   9   7   11.49    5.51
   1   9   8   21.97    7.91
   1  10 -10    2.11    3.72
   1  10  -9    0.40    1.76
   1  10  -8    1.51    2.49
   1  10  -7    9.69    5.64
   1  10  -6    7.40    5.25
   1  10  -5    2.53    4.34
   1  10  -4    2.97    3.39
   1  10  -3   30.67   10.06
   1  10  -2  103.42   18.87
   1  10  -1  102.56   18.76
   1  10   0   33.37   10.66
   1  10   1   -3.50    3.38
   1  10   2    9.81    5.74
   1  10   3    1.09    1.89
   1  10   4    7.88    5.23
   1  10   5    0.47    1.91
   1  10   6   14.12    7.70
   1  10   7    4.32    4.72
   1  11  -8   22.64   10.50
   1  11  -7   20.95   10.08
   1  11  -6   -2.36    3.24
   1  11  -5   19.87    8.96
   1  11  -4   -1.08    2.35
   1  11  -3   29.33   10.84
   1  11  -2   38.13   12.17
   1  11  -1   -0.14    1.17
   1  11   0   -0.22    3.14
   1  11   1   -8.16    7.45
   1  11   2    0.41    2.69
   1  11   3    1.47    2.56
   1  11   4    1.30    2.97
  -2  11   4    1.68    2.70
  -2  11   3  101.85   20.09
  -2  11   2   20.54    9.26
  -2  11   1    0.59    2.19
  -2  11   0   49.77   13.77
  -2  11  -1   -3.45    3.73
  -2  11  -2    5.72    4.68
  -2  11  -3  -10.59    6.44
  -2  11  -4   11.48    7.78
  -2  11  -5    0.01    0.88
  -2  10   8    6.98    5.67
  -2  10   7    2.89    3.64
  -2  10   6    4.04    3.56
  -2  10   5   11.20    7.00
  -2  10   4   19.18    7.86
  -2  10   3   12.44    6.33
  -2  10   2   -0.21    2.95
  -2  10   1   15.25    6.36
  -2  10   0    8.28    4.75
  -2  10  -1    2.70    3.86
  -2  10  -2    6.72    5.53
  -2  10  -3   54.15   13.45
  -2  10  -4   10.85    5.80
  -2  10  -4   15.05    7.26
  -2  10  -5   34.41   10.64
  -2  10  -5   33.03   10.17
  -2  10  -6    0.74    1.84
  -2  10  -6    1.91    3.73
  -2  10  -7    8.13    6.08
  -2  10  -7    6.97    4.79
  -2  10  -8    0.00    1.89
  -2  10  -8    0.55    2.60
  -2  10  -9    1.90    4.40
  -2   9   8    3.98    3.70
  -2   9   7   -1.27    2.07
  -2   9   6    5.36    4.36
  -2   9   5    2.67    2.64
  -2   9   4    0.20    1.91
  -2   9   3   10.36    5.31
  -2   9   2   -2.45    2.52
  -2   9   1   24.59    8.37
  -2   9   0   23.07    7.94
  -2   9  -1    0.73    1.67
  -2   9  -2    1.47    2.31
  -2   9  -3   22.60    7.65
  -2   9  -3   15.04    6.94
  -2   9  -4    4.68    4.16
  -2   9  -4    1.85    2.65
  -2   9  -5   -0.93    3.22
  -2   9  -5    1.04    2.00
  -2   9  -6    9.33    5.12
  -2   9  -6   10.29    6.15
  -2   9  -7    2.71    4.01
  -2   9  -7   -2.27    2.73
  -2   9  -8   22.39    8.64
  -2   9  -8   21.72    9.03
  -2   9  -9    0.19    2.09
  -2   9  -9    2.15    3.04
  -2   9 -10   -2.36    3.12
   2  -8 -12   33.63   12.20
   2  -8 -11   21.16    9.21
  -2   8   9   -0.31    1.81
  -2   8   8    2.44    2.45
  -2   8   7   57.91   11.69
  -2   8   6   34.16    9.17
  -2   8   5  194.58   22.73
  -2   8   4    0.33    1.60
  -2   8   3   33.01    9.45
  -2   8   2   17.80    6.87
  -2   8   1  130.53   18.63
  -2   8   0   84.60   14.94
  -2   8  -1  219.61   24.30
  -2   8  -2    5.82    5.05
  -2   8  -2    5.02    3.60
  -2   8  -3   63.51   12.55
  -2   8  -3   58.51   12.36
  -2   8  -4   35.54    9.94
  -2   8  -4   32.92    9.08
  -2   8  -5    0.53    1.83
  -2   8  -5    0.89    1.04
  -2   8  -6   25.41    8.28
  -2   8  -6   26.51    8.30
  -2   8  -7   38.25    9.96
  -2   8  -7   33.06    9.93
  -2   8  -8   11.51    5.96
  -2   8  -8   19.75    8.52
  -2   8  -9    2.57    3.40
  -2   8  -9    7.26    5.04
  -2   8 -10   11.09    6.42
  -2   8 -11    2.23    3.94
  -2   7  13    5.17    4.66
   2  -7 -13   10.79    7.28
  -2   7  12    8.51    5.59
   2  -7 -12   14.88    7.39
  -2   7  11    1.09    1.70
   2  -7 -11   -0.09    3.82
   2  -7 -10   -6.85    6.76
  -2   7  10    5.14    3.75
  -2   7   9    1.40    2.05
  -2   7   9    0.74    1.21
  -2   7   8   10.10    5.07
  -2   7   8   10.13    4.43
  -2   7   7    3.91    3.16
  -2   7   7   -1.82    1.56
  -2   7   6    0.31    1.87
  -2   7   6   -0.23    3.26
  -2   7   5  304.06   26.48
  -2   7   5  372.52   21.27
  -2   7   4   32.69    8.86
  -2   7   3   19.07    6.78
  -2   7   2    0.58    1.44
  -2   7   1   68.18   12.46
  -2   7   0    1.22    2.21
  -2   7  -1   87.25   13.21
  -2   7  -1   74.90   12.93
  -2   7  -2    6.10    3.31
  -2   7  -2    3.71    2.74
  -2   7  -3   80.30   13.45
  -2   7  -3   65.91   12.68
  -2   7  -4   68.52   12.57
  -2   7  -4   70.23   12.23
  -2   7  -5    0.60    1.55
  -2   7  -5   -2.51    3.04
  -2   7  -6   37.70    9.30
  -2   7  -6   54.31   11.62
  -2   7  -7    0.45    1.73
  -2   7  -7    7.02    4.72
  -2   7  -8  104.36   15.37
  -2   7  -8  101.51   17.01
  -2   7  -9    7.18    4.00
  -2   7  -9   14.06    6.38
  -2   7 -10    0.75    2.27
  -2   7 -11   -1.22    3.04
  -2   7 -12    6.85    5.36
   2  -6 -14    3.26    4.03
   2  -6 -13   23.27    9.84
  -2   6  13   17.03    7.27
   2  -6 -12   20.94    8.58
  -2   6  12   20.61    7.08
  -2   6  11    1.73    2.20
   2  -6 -11    3.57    4.66
  -2   6  10    3.57    3.37
   2  -6 -10    8.15    5.24
  -2   6   9   31.18    7.46
  -2   6   9   32.63    7.79
  -2   6   8   88.27   12.69
  -2   6   8   89.14   12.42
  -2   6   7   28.46    6.86
  -2   6   7   26.66    6.99
  -2   6   6   52.51    8.39
  -2   6   6   37.13    8.15
  -2   6   5   43.54    6.91
  -2   6   5   42.32    9.10
  -2   6   4   26.47    7.55
  -2   6   4   28.87    5.11
  -2   6   3    8.81    3.93
  -2   6   3    9.78    2.68
  -2   6   2    8.87    2.01
  -2   6   2   11.17    5.42
  -2   6   1  156.11   17.45
  -2   6   0   98.33   13.91
  -2   6  -1   71.48   11.37
  -2   6  -1   72.83   11.95
  -2   6  -2  208.07   20.46
  -2   6  -2  224.23   20.84
  -2   6  -3   27.90    7.44
  -2   6  -3   28.69    7.17
  -2   6  -4  182.47   18.93
  -2   6  -4  177.07   19.07
  -2   6  -5  535.09   34.50
  -2   6  -5  468.60   30.34
  -2   6  -6  270.50   22.95
  -2   6  -6  304.06   27.13
  -2   6  -7    4.01    2.68
  -2   6  -7    1.47    3.09
  -2   6  -8   -1.46    2.28
  -2   6  -8    2.03    2.97
  -2   6  -9    0.79    2.22
  -2   6  -9    4.31    4.32
  -2   6 -10   -0.36    2.43
  -2   6 -11    4.85    4.61
  -2   6 -12    0.73    3.15
  -2   6 -13   40.44   12.66
   2  -5 -15   -1.47    2.67
   2  -5 -14   78.09   17.69
   2  -5 -13   -3.73    3.70
   2  -5 -12   25.56    9.13
  -2   5  12   24.32    7.90
   2  -5 -11   17.35    7.95
  -2   5  11    8.96    4.60
   2  -5 -10   38.72    9.51
  -2   5  10   43.55    9.35
  -2   5   9    3.02    2.73
  -2   5   9    4.28    3.45
   2  -5  -9    6.22    3.63
  -2   5   8  280.78   21.29
  -2   5   8  271.07   20.90
  -2   5   7   12.54    4.61
  -2   5   7   18.94    5.51
  -2   5   6   21.65    4.81
  -2   5   6   23.94    5.96
  -2   5   5    3.06    1.51
  -2   5   5    4.53    2.81
  -2   5   4  186.61   12.30
  -2   5   4  166.28   16.41
  -2   5   3  558.11   29.92
  -2   5   3  564.46   18.72
   2  -5  -2   30.30    2.62
  -2   5   2   73.25   11.00
  -2   5   1   29.91    7.02
  -2   5   0  248.29   20.36
  -2   5   0  259.38   20.55
  -2   5  -1    9.15    3.69
  -2   5  -1   12.33    4.99
  -2   5  -2  315.19   22.71
  -2   5  -2  333.01   23.79
  -2   5  -3   19.45    2.38
  -2   5  -3   29.34    6.67
  -2   5  -3   35.75    7.87
  -2   5  -4   -0.15    1.25
  -2   5  -4   -1.30    3.34
  -2   5  -5  417.88   26.48
  -2   5  -5  494.03   31.42
  -2   5  -6  199.47   18.28
  -2   5  -6  258.43   24.14
  -2   5  -7  470.53   28.36
  -2   5  -7  571.96   37.14
  -2   5  -8   63.23   10.60
  -2   5  -8   58.30   12.15
  -2   5  -9   70.76   11.22
  -2   5  -9   65.18   13.19
  -2   5 -10    5.45    3.89
  -2   5 -10    2.40    3.04
  -2   5 -11   -1.10    3.39
  -2   5 -11   -6.56    4.63
  -2   5 -12   23.86    8.96
  -2   5 -12   20.47    8.19
  -2   5 -13   47.46   13.35
  -2   5 -13   44.92   13.15
  -2   5 -14    1.22    2.60
  -2   5 -14   -0.43    4.04
  -2   5 -15  -13.24    7.52
   2  -4 -15   26.92    9.90
   2  -4 -14   -3.03    3.60
   2  -4 -13    5.17    4.09
   2  -4 -12   18.96    7.32
   2  -4 -11   13.07    5.99
  -2   4  11   10.83    5.01
  -2   4  10  230.40   17.67
  -2   4  10  197.04   19.97
   2  -4 -10  225.09   24.43
  -2   4   9   69.98    9.63
   2  -4  -9   78.14   13.20
  -2   4   9   70.25   11.19
  -2   4   8  517.12   27.39
  -2   4   8  499.01   27.93
  -2   4   7   25.35    6.05
  -2   4   7   27.54    5.74
  -2   4   6  126.67   12.31
  -2   4   6  127.37   13.02
  -2   4   5    3.15    2.48
  -2   4   5    4.26    2.24
  -2   4   4    2.94    2.34
  -2   4   4    1.51    1.24
   2  -4  -3   25.98    3.89
  -2   4   3   52.25    8.58
   2  -4  -2    1.74    0.57
  -2   4   2    5.11    2.54
  -2   4   1  647.51   30.04
  -2   4   0  232.44   18.24
  -2   4   0  233.36   18.50
  -2   4  -1   55.69    8.78
  -2   4  -1   52.99    8.88
  -2   4  -2  117.77   12.60
  -2   4  -2  130.75   13.73
  -2   4  -3   27.29    3.43
  -2   4  -3   46.34    7.84
  -2   4  -3   48.49    8.79
  -2   4  -4    3.28    1.94
  -2   4  -4   -1.91    2.58
  -2   4  -5   74.26   10.24
  -2   4  -5   86.58   12.55
  -2   4  -6   -0.65    1.75
  -2   4  -6   -2.01    1.86
  -2   4  -7    7.71    2.80
  -2   4  -7    3.97    2.36
  -2   4  -8  251.89   19.11
  -2   4  -8  250.32   24.08
  -2   4  -8  294.61   25.84
  -2   4  -9   66.42   12.59
  -2   4  -9   74.50   10.42
  -2   4  -9   68.24   13.38
  -2   4 -10   25.97    8.33
  -2   4 -11    9.80    5.61
  -2   4 -12   -5.08    4.14
  -2   4 -13   44.50   11.50
  -2   4 -14    4.72    3.15
  -2   4 -15    0.17    2.71
   2  -3 -16    0.01    4.26
   2  -3 -15    9.90    6.66
   2  -3 -14   58.59   14.34
   2  -3 -13    0.58    1.74
   2  -3 -12   12.64    5.51
   2  -3 -11   15.28    5.68
  -2   3  10  237.30   16.53
   2  -3 -10  214.30   22.79
   2  -3  -9  283.04   24.91
  -2   3   9  296.48   19.10
   2  -3  -8  308.11   25.36
  -2   3   8  325.81   19.58
  -2   3   7  216.40   15.79
  -2   3   6   23.12    5.21
  -2   3   5   -1.81    1.67
  -2   3   4 2192.24   51.63
  -2   3   3 2030.18   49.17
  -2   3   2  740.25   29.58
   2  -3  -1   62.25    3.65
  -2   3   1   65.98    9.09
  -2   3   0   45.58    7.37
  -2   3   0   50.88    7.90
  -2   3  -1  353.05   20.43
  -2   3  -1  377.73   22.03
   2  -3   2  325.48    8.99
  -2   3  -2  352.67   21.71
  -2   3  -2  352.40   21.27
  -2   3  -3  585.26   26.91
   2  -3   3  522.19   15.25
  -2   3  -3  598.43   29.38
  -2   3  -4  560.42   26.97
   2  -3   4  534.08   18.51
  -2   3  -4  615.02   31.34
  -2   3  -5  276.88   18.61
  -2   3  -5  303.40   22.10
   2  -3   5  287.67   15.66
  -2   3  -6    3.92    2.21
   2  -3   6    4.38    2.33
  -2   3  -6    0.31    2.13
  -2   3  -7   24.18    6.24
  -2   3  -7   23.24    5.50
   2  -3   7   23.09    5.30
  -2   3  -7   20.11    6.16
   2  -3   8  474.75   25.68
  -2   3  -8  523.84   31.01
  -2   3  -9   -1.56    3.54
  -2   3  -9   -1.73    1.79
   2  -3   9   -1.49    2.17
  -2   3 -10  120.85   16.27
   2  -3  10  100.61   13.22
  -2   3 -11    8.05    5.10
   2  -3  11    2.92    2.15
  -2   3 -12    7.00    3.34
  -2   3 -13   34.08    9.52
  -2   3 -14   -5.40    4.32
  -2   3 -15   14.06    7.22
  -2   3 -16    7.38    6.83
   2  -2 -16   12.26    6.48
   2  -2 -15    6.25    5.11
   2  -2 -14   32.86   11.05
   2  -2 -13   16.61    7.94
   2  -2 -12   -1.64    2.35
   2  -2 -11   15.00    5.48
  -2   2  10    9.29    3.08
   2  -2 -10    7.40    4.04
  -2   2   9    6.85    2.67
   2  -2  -9    0.70    1.79
  -2   2   8  171.62   12.97
   2  -2  -8  162.99   17.58
  -2   2   7   53.80    7.34
   2  -2  -7   45.41    8.46
  -2   2   6   92.20    9.61
   2  -2  -6   86.40   11.55
  -2   2   5  793.08   28.60
  -2   2   4   56.01    7.39
  -2   2   3  177.52   13.57
  -2   2   3  177.33   13.52
  -2   2   2  286.07   17.08
  -2   2   2  329.92   18.32
   2  -2  -2  297.41   12.22
   2  -2  -1 2199.24   30.70
  -2   2   1 2239.92   48.27
  -2   2   0  359.06   19.33
  -2   2   0  388.40   19.97
  -2   2   0  365.29   19.92
  -2   2  -1  386.88   20.27
  -2   2  -1  318.97   12.22
   2  -2   1  357.52   12.43
  -2   2  -1  396.96   20.07
  -2   2  -1  381.52   20.39
  -2   2  -2 1506.38   28.80
   2  -2   2 1548.13   29.24
  -2   2  -2 1631.92   42.33
  -2   2  -2 1743.35   45.11
  -2   2  -2 1725.96   42.26
  -2   2  -3 1672.63   42.05
  -2   2  -3 1718.93   47.06
  -2   2  -4 1098.50   34.87
  -2   2  -4 1160.31   39.77
  -2   2  -5  729.49   28.26
  -2   2  -5  745.58   33.26
  -2   2  -6    4.95    2.52
  -2   2  -6    6.82    2.79
   2  -2   6    2.08    1.06
  -2   2  -7    1.52    1.85
   2  -2   7    1.42    1.80
  -2   2  -7    0.19    0.53
  -2   2  -8   39.22    7.95
  -2   2  -8   33.10    5.74
   2  -2   8   28.56    6.68
  -2   2  -9    5.12    1.62
   2  -2   9    8.52    3.75
   2  -2  10  219.76   20.84
  -2   2 -10  275.78   23.02
  -2   2 -11   41.51    9.90
   2  -2  11   30.68    7.53
   2  -2  12    6.05    3.08
  -2   2 -12   10.74    5.23
  -2   2 -13   14.26    6.09
   2  -2  13    3.99    3.44
  -2   2 -14   -3.27    4.21
   2  -2  14   -4.83    3.81
  -2   2 -15   23.89    8.97
  -2   2 -16    0.28    2.67
   2  -1 -16    5.98    4.88
   2  -1 -15    2.63    3.43
   2  -1 -14   -0.07    1.80
   2  -1 -13  175.48   22.42
   2  -1 -12   -5.50    5.55
   2  -1 -11   89.86   15.32
   2  -1 -10   25.57    7.52
   2  -1  -9   56.80   10.81
  -2   1   8   45.03    6.18
   2  -1  -8   34.66    7.49
  -2   1   7  430.09   20.15
  -2   1   7  456.73   20.50
   2  -1  -7  402.81   25.55
  -2   1   6    2.94    2.54
   2  -1  -6    3.24    2.74
  -2   1   6    0.86    1.06
  -2   1   5 1025.67   30.91
  -2   1   5 1026.54   30.53
   2  -1  -5 1008.12   34.84
  -2   1   4 2383.24   47.00
  -2   1   4 2301.32   45.73
  -2   1   3  112.25   10.05
  -2   1   3  109.22    9.89
  -2   1   2   56.36    7.11
  -2   1   2   53.09    7.36
   2  -1  -1 1120.48   26.42
  -2   1   1 1044.82   30.72
  -2   1   0   21.07    3.54
   2  -1   0   13.86    2.85
  -2   1   0   15.02    4.08
  -2   1   0   19.91    4.38
  -2   1   0   14.77    3.82
   2  -1   1   52.85    5.87
  -2   1  -1   39.47    6.30
  -2   1  -1   48.80    6.56
  -2   1  -1   44.08    6.21
  -2   1  -2  225.46   14.64
   2  -1   2  223.16   12.75
  -2   1  -2  219.24   13.91
  -2   1  -2  226.05   15.26
   2  -1   3  143.36   10.96
  -2   1  -3  125.39   10.64
  -2   1  -3  149.49   13.11
  -2   1  -3  133.24   11.12
  -2   1  -4  483.99   21.65
   2  -1   4  512.00   22.61
  -2   1  -4  564.44   22.19
  -2   1  -4  482.77   20.98
  -2   1  -4  495.09   24.15
  -2   1  -5 2158.04   45.54
   2  -1   5 2255.58   51.42
  -2   1  -5 2075.36   44.40
  -2   1  -5 2235.15   45.70
  -2   1  -6   26.47    5.06
  -2   1  -6   26.91    5.19
  -2   1  -6   24.78    4.68
  -2   1  -7    1.55    1.50
  -2   1  -8    6.08    3.16
   2  -1   9   57.92   11.12
  -2   1  -9   79.55   10.97
  -2   1 -10  283.82   22.93
   2  -1  10  240.38   22.88
   2  -1  11   49.70   10.52
  -2   1 -11   51.74   10.40
  -2   1 -12   27.59    7.87
   2  -1  12   24.70    7.71
  -2   1 -13   10.01    4.81
   2  -1  13    5.30    3.87
  -2   1 -14    4.28    4.20
   2  -1  14    5.19    4.42
  -2   1 -15    3.18    2.90
   2  -1  15    0.00    1.99
   2  -1  16   27.30   10.85
   2   0 -16   13.55    8.45
   2   0 -15   32.81    9.85
   2   0 -14    4.19    2.71
   2   0 -13  136.53   19.68
   2   0 -12   32.99    9.23
   2   0 -11    1.01    2.26
  -2   0  10  143.47   10.47
   2   0 -10  132.44   17.16
  -2   0   9    6.96    2.15
   2   0  -9    4.71    3.31
  -2   0   8   28.11    4.62
   2   0  -8   21.03    6.48
  -2   0   7  727.63   23.80
   2   0  -7  735.35   33.86
   2   0  -6   15.51    5.07
   2   0  -5 1734.30   44.29
   2   0  -4   15.41    3.85
   2   0  -3 1391.75   32.53
   2   0  -2  272.85   12.72
   2   0  -1  632.99   22.26
   2   0   0  267.54   14.41
  -2   0   0  269.31   14.40
   2   0   1  662.48   22.37
  -2   0  -1  621.53   22.42
   2   0   2  177.19   12.23
  -2   0  -2  171.24   12.32
   2   0   2  168.30    8.24
  -2   0  -3   19.50    3.18
   2   0   3   18.23    4.07
   2   0   3   16.95    3.03
  -2   0  -3   18.12    4.38
   2   0   4 1528.59   41.25
  -2   0  -4 1442.58   39.09
  -2   0  -4 1500.74   29.99
  -2   0  -5   52.14    6.46
   2   0   5   71.33    9.79
  -2   0  -5   75.56    7.55
   2   0   6  110.88   12.91
  -2   0  -6  100.83    9.04
  -2   0  -6  126.05   10.95
   2   0   7  141.53   15.26
  -2   0  -7  120.64    9.74
  -2   0  -7  155.25   13.15
  -2   0  -8    3.39    2.16
  -2   0  -8    0.73    1.11
  -2   0  -9    5.91    3.48
  -2   0 -10  108.47   13.90
   2   0  10   89.10   14.59
  -2   0 -11   -1.29    3.12
   2   0  11   -2.88    3.46
  -2   0 -12    9.90    5.29
   2   0  12    4.58    3.60
  -2   0 -13   14.26    5.57
   2   0  13    5.59    4.97
   2   0  14    3.94    3.92
   2   0  15    3.91    4.12
   2   1 -16   16.33    6.98
   2   1 -15    0.46    3.45
   2   1 -14   -6.88    5.17
   2   1 -13   11.84    6.42
   2   1 -12   37.39    9.85
   2   1 -11  396.33   30.50
  -2  -1  10  170.62   11.27
   2   1 -10  156.86   18.33
   2   1  -9   80.18   12.26
   2   1  -8   23.10    6.27
   2   1  -7  698.41   32.46
   2   1  -6   69.68    9.34
   2   1  -5  199.48   14.84
  -2  -1   5  199.72   13.62
  -2  -1   4 1188.51   33.80
   2   1  -4 1141.22   32.21
  -2  -1   3  332.63   17.80
   2   1  -3  347.69   15.91
  -2  -1   2  805.41   27.93
   2   1  -2  829.77   21.04
   2   1  -1  377.62   19.07
  -2  -1   1  356.56   18.35
   2   1  -1  421.74   16.32
   2   1  -1  372.70   11.52
   2   1   0  115.71   10.45
  -2  -1   0  110.47   10.22
   2   1   0  116.87    8.51
   2   1   1 3612.73   57.17
  -2  -1  -1 3614.67   58.62
  -2  -1  -1 3461.20   47.58
   2   1   2 1049.71   32.96
  -2  -1  -2  993.88   30.68
   2   1   3   32.13    6.20
   2   1   3   22.93    2.70
  -2  -1  -3   29.89    2.87
  -2  -1  -3   30.25    5.32
  -2  -1  -3   27.80    4.63
  -2  -1  -4    0.65    0.72
   2   1   4   -1.58    1.56
   2   1   4    0.53    0.69
   2   1   5  608.12   29.24
  -2  -1  -5  639.47   20.74
   2   1   6   30.17    6.94
  -2  -1  -6   38.43    5.63
   2   1   7  994.80   42.80
  -2  -1  -7 1004.24   32.74
  -2  -1  -8  124.84    9.57
   2   1   8  122.86   15.70
  -2  -1  -8  127.54   12.61
  -2  -1  -9   10.40    3.60
  -2  -1 -10   49.56    9.28
  -2  -1 -11   11.15    5.35
   2   1  12   38.04   10.58
  -2  -1 -12   50.79    9.93
   2   1  13   -5.78    6.00
   2   1  14   -0.30    1.36
   2   1  15   -3.65    3.74
   2   2 -16    3.12    3.99
   2   2 -15    0.12    2.05
   2   2 -14    2.94    2.12
   2   2 -13   -2.58    3.31
   2   2 -12   47.66   11.43
   2   2 -11  155.48   19.00
   2   2 -10   12.47    4.39
  -2  -2   9  118.95   11.14
   2   2  -9   95.16   13.80
  -2  -2   8  479.46   22.58
   2   2  -8  444.50   27.88
  -2  -2   7  219.31   15.54
   2   2  -7  190.82   17.05
  -2  -2   6  475.91   23.28
   2   2  -6  447.30   24.24
  -2  -2   5   10.33    3.82
   2   2  -5    0.85    1.75
  -2  -2   4  595.30   26.00
   2   2  -4  538.36   22.38
  -2  -2   3  354.70   20.23
   2   2  -3  323.13   15.38
   2   2  -2  157.70   14.01
  -2  -2   2  159.68   13.63
  -2  -2   2  142.98    9.13
   2   2  -2  142.11    8.93
  -2  -2   1  118.81   11.56
   2   2  -1  138.96   12.58
   2   2  -1  136.43    8.31
   2   2  -1  110.64    6.50
   2   2   0   55.98    8.10
  -2  -2   0   50.91    7.79
   2   2   0   59.34    5.22
   2   2   1   17.16    4.33
  -2  -2  -1   14.03    4.45
  -2  -2  -1   15.86    2.75
   2   2   2    3.10    1.34
  -2  -2  -2    5.66    2.48
  -2  -2  -2    2.51    1.17
  -2  -2  -3  132.13   12.23
   2   2   3  124.42   12.83
  -2  -2  -3  125.52    5.38
  -2  -2  -3  119.78    8.98
   2   2   4   12.74    4.56
  -2  -2  -4    7.76    2.89
  -2  -2  -4    8.80    1.96
  -2  -2  -5    1.78    0.49
  -2  -2  -5    3.23    2.17
   2   2   5    1.86    2.73
  -2  -2  -6    0.84    1.26
  -2  -2  -6   -0.61    1.25
   2   2   6    3.17    3.28
   2   2   7  307.91   24.47
  -2  -2  -7  322.69   18.02
   2   2   8  184.74   20.22
  -2  -2  -8  198.24   15.48
   2   2   9  563.48   36.89
  -2  -2  -9  594.29   28.63
  -2  -2 -10   83.35   11.83
  -2  -2 -11   -2.34    2.71
   2   2  13    6.91    4.58
   2   2  14    2.22    1.99
   2   3 -16   37.44   12.41
   2   3 -15   10.19    4.93
   2   3 -14    7.93    5.52
   2   3 -13   -0.23    2.14
   2   3 -12   46.55   11.06
   2   3 -11  109.82   16.53
  -2  -3  10   30.11    6.03
   2   3 -10   28.38    8.39
  -2  -3   9    1.66    1.93
   2   3  -9    3.57    2.53
  -2  -3   8   40.03    7.06
   2   3  -8   36.14    8.03
   2   3  -7   48.84    8.85
  -2  -3   7   42.15    7.60
  -2  -3   6   11.58    4.06
   2   3  -6    8.41    3.47
  -2  -3   5   97.60   11.63
   2   3  -5   80.02    9.75
  -2  -3   4  474.90   25.00
   2   3  -4  433.72   21.76
  -2  -3   3  443.30   24.17
   2   3  -3  408.69   18.91
   2   3  -2    3.69    1.85
   2   3  -2    4.63    1.74
  -2  -3   2    4.74    2.69
   2   3  -1   67.27    9.74
  -2  -3   1   50.64    5.14
   2   3  -1   60.88    4.66
  -2  -3   1   58.92    8.86
   2   3   0  453.72   24.46
  -2  -3   0  409.88   23.28
  -2  -3  -1  936.48   35.27
   2   3   1  941.05   35.10
  -2  -3  -2  158.20   14.40
   2   3   2  175.80   15.91
  -2  -3  -2  124.80    6.59
  -2  -3  -3  833.14   33.04
   2   3   3  849.75   35.88
  -2  -3  -3  860.16   17.94
  -2  -3  -4    5.35    3.00
  -2  -3  -4   11.37    2.39
   2   3   4    9.49    4.69
  -2  -3  -5   78.81    7.26
  -2  -3  -5   56.19    8.72
   2   3   5   68.51   11.11
  -2  -3  -6  309.02   20.29
   2   3   6  336.55   25.26
  -2  -3  -6  350.39   17.24
  -2  -3  -7   59.64    8.42
   2   3   7   65.47   11.49
  -2  -3  -7   81.57    9.21
   2   3   8   -1.75    4.01
  -2  -3  -8    1.16    1.54
  -2  -3  -8    4.22    2.79
  -2  -3  -9   90.11   11.16
   2   3   9   88.49   14.96
   2   3  13   -0.61    3.34
   2   3  14    9.02    5.15
   2   4 -16   -4.57    4.71
   2   4 -15  -12.02    6.94
   2   4 -14   -4.08    2.96
   2   4 -13    0.88    3.13
   2   4 -12  133.16   19.83
   2   4 -11   21.25    8.16
  -2  -4  10  421.15   25.63
   2   4 -10  332.81   28.45
   2   4  -9   24.90    7.05
  -2  -4   9   19.39    5.49
  -2  -4   8  666.91   32.52
   2   4  -8  586.54   34.15
  -2  -4   7  200.88   17.86
   2   4  -7  190.92   18.51
   2   4  -6   23.28    6.19
  -2  -4   6   37.99    7.86
   2   4  -5   15.21    4.48
  -2  -4   5   18.10    5.53
   2   4  -4    4.68    2.52
  -2  -4   4    3.46    1.63
   2   4  -3   17.95    4.30
   2   4  -3   20.40    5.55
  -2  -4   3   18.74    5.79
   2   4  -2    1.87    3.51
  -2  -4   2   -1.03    2.31
   2   4  -1  236.95   19.21
  -2  -4   1  199.18   17.41
   2   4   0   14.73    5.01
  -2  -4   0   16.13    5.31
   2   4   1  199.55   16.95
  -2  -4  -1  195.11   17.35
   2   4   2    9.03    3.38
  -2  -4  -2    3.04    2.30
  -2  -4  -2    3.52    1.38
  -2  -4  -3   18.55    2.61
   2   4   3   33.58    7.33
  -2  -4  -3   29.01    6.83
   2   4   4   91.60   13.17
  -2  -4  -4   72.70   10.55
  -2  -4  -4   93.67    8.02
  -2  -4  -4   56.47    5.58
  -2  -4  -5   83.42   11.53
  -2  -4  -5  102.43    9.12
   2   4   5   97.69   14.15
  -2  -4  -6   11.32    4.37
   2   4   6    5.64    3.18
  -2  -4  -6   13.75    3.51
  -2  -4  -7  162.21   15.82
   2   4   7  170.65   19.93
  -2  -4  -7  180.54   14.30
   2   4   8    1.82    2.12
  -2  -4  -8   10.84    4.24
   2   4   9  177.78   21.67
   2   4  10    5.77    4.19
   2   5 -15    7.22    5.55
   2   5 -14   17.88    7.87
   2   5 -13   15.09    7.81
   2   5 -12    1.91    2.89
  -2  -5  11   22.14    6.25
   2   5 -11   23.49    7.70
  -2  -5  10   30.39    7.56
   2   5 -10   14.23    6.09
   2   5  -9   -3.01    3.47
  -2  -5   9    2.62    3.60
   2   5  -8   17.82    5.73
  -2  -5   8   18.02    6.43
  -2  -5   7  399.43   27.13
   2   5  -7  356.95   25.96
   2   5  -6   97.62   12.86
  -2  -5   6  101.57   13.76
   2   5  -5   36.63    7.49
  -2  -5   5   46.33    8.89
   2   5  -4   50.10    8.55
   2   5  -4   69.64   11.78
  -2  -5   4   53.57   10.05
   2   5  -3   32.01    7.95
  -2  -5   3   24.67    6.54
   2   5  -2   41.02    8.51
  -2  -5   2   44.42    8.87
   2   5  -2   39.74    3.10
   2   5  -1    6.29    3.64
  -2  -5   1   10.08    5.31
   2   5   0    6.27    3.13
  -2  -5   0    0.62    2.76
   2   5   1   23.43    6.05
  -2  -5  -1   21.88    6.75
   2   5   2  532.61   32.11
  -2  -5  -2  497.96   29.85
   2   5   3    0.68    2.99
  -2  -5  -3   -0.19    1.41
   2   5   4   11.85    5.38
  -2  -5  -4   10.53    3.85
   2   5   5    1.98    1.93
  -2  -5  -5   -0.13    0.96
   2   5   6   -3.60    3.18
  -2  -5  -6   -0.30    1.89
  -2  -5  -6    5.34    2.79
  -2  -5  -7    7.81    3.82
   2   5   7    3.08    2.88
  -2  -5  -8    7.76    3.56
   2   5   8    5.94    4.50
   2   5   9   32.09    9.38
   2   5  10   -1.04    4.57
   2   6 -14  -16.05    7.90
   2   6 -13    1.62    3.42
   2   6 -12   50.82   12.81
   2   6 -11   -0.05    2.67
  -2  -6  11   -5.63    4.37
   2   6 -10   -0.81    2.12
  -2  -6  10    0.99    2.01
   2   6  -9   11.78    5.90
  -2  -6   9    9.50    4.03
   2   6  -8   91.05   13.93
  -2  -6   8  103.63   14.42
   2   6  -7   20.19    6.50
  -2  -6   7   17.68    5.83
   2   6  -6   23.55    6.96
  -2  -6   6   24.87    7.85
   2   6  -5    4.67    3.55
   2   6  -5    4.81    3.22
  -2  -6   5    3.41    4.50
   2   6  -4    8.44    4.56
   2   6  -3   23.88    7.17
   2   6  -3   21.31    3.28
   2   6  -2  303.47   24.81
   2   6  -1 1039.22   45.45
   2   6   0   94.28   13.13
   2   6   1  237.77   21.55
  -2  -6  -2   28.92    7.13
   2   6   2   31.08    8.00
   2   6   3  108.73   15.24
  -2  -6  -3   86.47   13.25
  -2  -6  -4   17.27    5.74
   2   6   4   17.74    6.77
   2   6   5   50.75   11.32
  -2  -6  -5   42.53    9.21
   2   6   6   72.22   13.39
  -2  -6  -6   70.59   12.35
   2   6   7   15.57    6.46
  -2  -6  -7   13.88    5.58
  -2  -6  -8   -4.24    3.74
   2   6   8   -4.55    4.11
   2   6   9    2.88    3.48
   2   6  10   12.23    7.00
   2   7 -14    5.15    5.67
   2   7 -13    3.10    3.14
   2   7 -12   12.86    7.13
   2   7 -11    3.27    3.31
  -2  -7  11   -6.91    5.13
   2   7 -10    3.35    4.29
  -2  -7  10    3.03    2.09
   2   7  -9    0.70    3.30
  -2  -7   9   -1.86    1.04
   2   7  -8   12.04    5.24
  -2  -7   8   23.02    7.96
   2   7  -7    9.41    5.06
   2   7  -7   19.10    7.40
  -2  -7   7   11.70    5.50
   2   7  -6  188.40   21.75
  -2  -7   6  189.77   21.41
   2   7  -5   44.59    9.86
   2   7  -4   28.95    7.81
   2   7  -3   21.20    6.73
   2   7  -2  173.10   19.62
   2   7  -1   47.20   10.36
   2   7   0  514.88   32.41
   2   7   1  613.59   37.20
   2   7   2    4.19    2.43
  -2  -7  -3   77.48   13.73
   2   7   3   88.18   13.84
  -2  -7  -4   48.33   10.55
   2   7   4   65.23   12.90
  -2  -7  -5   16.54    5.97
   2   7   5   24.35    7.71
   2   7   6   91.29   15.37
  -2  -7  -6   73.64   13.70
   2   7   7   58.74   12.81
  -2  -7  -7   44.50   11.23
   2   7   8   -1.97    1.27
   2   7   9    3.75    4.24
   2   7  10    5.33    5.33
   2   8 -13   51.81   15.89
   2   8 -12   26.82   11.50
   2   8 -11   15.69    8.15
  -2  -8  11   59.73   13.21
   2   8 -10   -1.14    2.46
  -2  -8  10    9.11    5.10
   2   8  -9   -0.54    2.42
  -2  -8   9    5.74    3.96
   2   8  -8    6.67    4.37
  -2  -8   8    4.21    3.72
   2   8  -7   23.59    8.08
  -2  -8   7   11.37    5.11
   2   8  -6   23.99    7.91
   2   8  -5    1.32    1.98
   2   8  -4   -2.84    2.92
   2   8  -3   -1.40    2.71
   2   8  -2   56.95   11.79
   2   8  -1  180.31   20.08
   2   8   0   15.63    6.47
   2   8   1   30.77    8.23
   2   8   2   83.38   14.00
  -2  -8  -3    1.76    1.71
   2   8   3    4.29    4.51
  -2  -8  -4   42.11   11.10
   2   8   4   83.49   15.51
  -2  -8  -5   39.24   10.81
   2   8   5   50.96   12.03
  -2  -8  -6   13.29    6.62
   2   8   6   32.73    9.56
   2   8   7    7.42    4.79
  -2  -8  -7    5.13    5.49
   2   8   8   -1.07    3.11
   2   8   9   15.42    6.99
   2   8  10    3.89    4.29
   2   9 -11   -7.23    5.32
   2   9 -10   24.12   10.54
   2   9 -10   41.18   12.44
  -2  -9  10   46.62   12.76
   2   9  -9    6.01    5.00
  -2  -9   9   -0.77    2.44
   2   9  -8   49.85   12.63
  -2  -9   8   48.84   13.10
   2   9  -7   -3.82    5.05
  -2  -9   7    5.21    4.65
   2   9  -6    1.95    1.83
   2   9  -5   -0.46    2.63
   2   9  -4   39.00   10.14
   2   9  -3    9.41    5.25
   2   9  -2   37.45    9.18
   2   9  -1    1.25    2.48
   2   9   0   -1.01    3.05
   2   9   1   18.63    6.84
   2   9   2   31.08    8.80
   2   9   3  121.96   18.61
  -2  -9  -3   58.32   14.33
  -2  -9  -4    2.68    3.73
   2   9   4    4.50    3.82
  -2  -9  -5    1.19    2.25
   2   9   5   -0.93    2.17
  -2  -9  -6   -2.91    3.25
   2   9   6    5.39    4.64
   2   9   7    0.19    2.00
   2   9   7    8.93    6.11
  -2  -9  -7    6.18    4.62
   2   9   8    6.06    5.58
   2   9   9   16.68    8.82
   2  10 -10   42.17   13.68
  -2 -10  10   24.12   10.99
   2  10  -9    3.88    5.19
  -2 -10   9   17.71    9.15
   2  10  -8   -2.81    3.38
  -2 -10   8   -1.55    2.78
  -2 -10   7    4.48    5.14
  -2 -10   6    3.39    4.41
   2  10  -4   42.15   11.01
   2  10  -3   17.67    6.70
   2  10  -2  291.85   28.57
   2  10  -1   24.59    8.54
   2  10   0   59.95   12.65
   2  10   1    6.70    4.47
  -2 -10  -2   48.39   14.04
   2  10   2   55.83   12.77
  -2 -10  -3   10.57    6.85
   2  10   3   29.49    9.93
  -2 -10  -4    4.71    4.39
   2  10   4    6.09    4.69
   2  10   5    6.11    5.45
  -2 -10  -5    4.51    4.22
   2  10   5   -2.04    3.18
   2  10   6    3.98    5.76
   2  10   6    0.64    1.47
   2  10   7    2.64    3.47
  -3  10   8    2.66    3.94
  -3  10   7    7.00    5.71
  -3  10   6    2.81    3.84
  -3  10   5    6.77    5.34
  -3  10   4   18.44    8.19
  -3  10   3   20.90    8.67
  -3  10   2    4.57    3.46
  -3  10   1   -1.65    1.78
  -3  10   0    5.66    4.89
  -3  10  -1    4.90    2.28
  -3  10  -2    6.19    4.14
  -3  10  -3    2.92    4.21
  -3  10  -4   11.40    6.88
  -3  10  -4    5.65    4.04
  -3  10  -5    0.48    1.63
  -3  10  -5    2.36    3.19
  -3  10  -6    3.23    3.89
  -3  10  -6    8.12    6.65
  -3  10  -7    0.42    3.04
  -3  10  -7    0.79    2.32
  -3  10  -8    5.67    6.17
  -3   9   9   -0.42    2.42
  -3   9   8   -0.69    0.85
  -3   9   7    1.65    1.70
  -3   9   6    0.45    1.13
  -3   9   5   -0.66    2.13
  -3   9   4   93.35   16.73
  -3   9   3    4.24    3.85
  -3   9   2  149.60   21.07
  -3   9   1    6.51    5.12
  -3   9   0   14.70    7.31
  -3   9  -1    0.52    1.67
  -3   9  -2   -0.14    1.40
  -3   9  -3    1.06    2.82
  -3   9  -3   -1.64    2.32
  -3   9  -4    2.98    2.82
  -3   9  -4    2.07    2.38
  -3   9  -5    7.13    5.15
  -3   9  -5    6.57    5.07
  -3   9  -6   -4.37    5.01
  -3   9  -6    3.74    4.13
  -3   9  -7    4.15    3.62
  -3   9  -7    4.87    4.98
  -3   9  -8   -1.39    3.25
  -3   9  -8    3.75    5.26
  -3   8   9    1.27    1.54
  -3   8   8    7.89    5.06
  -3   8   7    3.76    3.03
  -3   8   6   50.04   11.81
  -3   8   5   10.35    5.22
  -3   8   4   38.52   10.36
  -3   8   3   -0.03    3.72
  -3   8   2   39.35   10.05
  -3   8   1   89.46   15.45
  -3   8   0    3.08    3.43
  -3   8  -1   21.88    7.78
  -3   8  -2   -1.53    2.33
  -3   8  -2   -0.19    2.96
  -3   8  -3   51.19   11.99
  -3   8  -3   59.66   13.21
  -3   8  -4   30.96    9.35
  -3   8  -4   52.36   12.53
  -3   8  -5   76.48   14.70
  -3   8  -5   87.42   16.57
  -3   8  -6   12.35    6.10
  -3   8  -6   25.12    9.27
  -3   8  -7   14.63    7.18
  -3   8  -7   21.68    8.34
  -3   8  -8   -0.06    1.29
  -3   8  -8    0.00    3.04
  -3   8  -9   10.15    6.96
  -3   8 -10   -0.99    2.15
   3  -7 -12    1.91    1.30
   3  -7 -11   11.67    7.78
  -3   7   9    3.24    3.70
  -3   7   8   82.41   14.36
  -3   7   7   14.17    6.00
  -3   7   6    4.34    3.64
  -3   7   5    4.39    3.73
  -3   7   4   35.53    9.21
  -3   7   3   14.37    6.13
  -3   7   2   32.83    9.05
  -3   7   1   77.95   13.81
  -3   7   0   -4.64    3.71
  -3   7  -1   34.16    9.13
  -3   7  -1   48.27   11.50
  -3   7  -2   51.18   11.45
  -3   7  -2   50.29   11.41
  -3   7  -3   67.74   13.65
  -3   7  -3   55.78   11.91
  -3   7  -4   82.24   15.32
  -3   7  -4   51.46   11.22
  -3   7  -5    6.87    4.70
  -3   7  -5    1.07    2.03
  -3   7  -6    9.87    5.41
  -3   7  -6    6.84    3.69
  -3   7  -7   10.34    5.27
  -3   7  -7   15.10    7.03
  -3   7  -8   17.91    7.56
  -3   7  -8   33.81   10.53
  -3   7  -9   15.43    7.65
  -3   7 -10   19.84    8.71
  -3   7 -11    6.33    4.48
   3  -6 -13   10.67    7.46
   3  -6 -12   12.73    8.25
   3  -6 -11   -0.41    4.35
  -3   6  10    8.69    4.42
   3  -6 -10   12.23    5.94
  -3   6   9    4.69    3.47
  -3   6   8    6.58    4.27
  -3   6   7   10.46    5.13
  -3   6   6   14.01    5.29
  -3   6   5  108.95   15.81
  -3   6   4    4.93    4.02
  -3   6   3    3.43    2.54
  -3   6   2    7.91    4.47
  -3   6   1   28.12    7.82
  -3   6   0   13.53    6.04
  -3   6  -1   62.06   11.43
  -3   6  -1   79.04   13.61
  -3   6  -2    0.48    2.38
  -3   6  -2    2.97    2.40
  -3   6  -3   83.01   13.95
  -3   6  -3  101.20   15.77
  -3   6  -4   76.88   13.36
  -3   6  -4   99.53   16.08
  -3   6  -5    6.61    3.52
  -3   6  -5   10.57    4.86
  -3   6  -6   17.49    6.39
  -3   6  -6   32.70    9.52
  -3   6  -7   10.40    4.83
  -3   6  -7   20.17    7.90
  -3   6  -8   43.89   10.28
  -3   6  -8   53.71   12.66
  -3   6  -9   17.79    7.24
  -3   6 -10    1.17    1.83
  -3   6 -11    9.50    6.11
  -3   6 -12    4.94    5.15
   3  -5 -14    7.75    7.11
   3  -5 -13    2.91    3.90
   3  -5 -12   27.08   10.58
   3  -5 -11    3.71    5.09
  -3   5  10    4.29    3.49
   3  -5 -10   -8.51    6.34
  -3   5   9   48.96    9.78
  -3   5   8    6.84    4.37
  -3   5   7  434.85   29.36
  -3   5   6    6.86    3.51
  -3   5   5  188.82   19.66
  -3   5   4  188.56   19.56
  -3   5   3  336.44   26.14
  -3   5   2   12.77    4.43
  -3   5   1   75.74   12.36
  -3   5   0    6.26    3.82
  -3   5  -1   33.21    8.14
  -3   5  -1   31.31    8.26
  -3   5  -2   35.36    8.65
  -3   5  -2   51.31   10.90
  -3   5  -3    5.06    3.55
  -3   5  -3    8.70    4.86
  -3   5  -4    0.60    1.01
  -3   5  -4   -0.67    1.78
  -3   5  -5  119.62   15.75
  -3   5  -5  133.92   18.38
  -3   5  -6    2.53    1.23
  -3   5  -6    3.08    2.55
  -3   5  -7    4.52    2.34
  -3   5  -7    7.67    4.96
  -3   5  -8   14.75    5.54
  -3   5  -8   29.49    9.07
  -3   5  -9   -3.55    4.83
  -3   5 -10    1.33    1.41
  -3   5 -11   -3.92    4.46
  -3   5 -12    8.48    6.52
   3  -4 -15    3.64    5.26
   3  -4 -14   71.19   17.19
   3  -4 -13    0.45    3.87
   3  -4 -12    5.33    3.21
   3  -4 -11    1.93    3.47
  -3   4  10   82.81   12.29
   3  -4 -10   72.93   13.74
  -3   4   9   -2.46    2.53
   3  -4  -9   -7.12    5.48
  -3   4   8   61.54   10.61
  -3   4   7    6.30    3.68
  -3   4   6    1.65    2.50
  -3   4   5   44.75    9.00
  -3   4   4   55.78    9.66
  -3   4   3    2.51    2.53
  -3   4   2  214.26   19.60
   3  -4  -2  169.00    8.10
  -3   4   1  535.27   31.39
   3  -4  -1  413.49    9.20
  -3   4   0   12.72    4.88
  -3   4   0   13.63    4.93
  -3   4  -1  100.99   13.53
  -3   4  -1  103.57   14.03
  -3   4  -2   93.41   12.79
  -3   4  -2   87.34   13.19
  -3   4  -3    2.55    2.55
  -3   4  -3    2.27    2.54
  -3   4  -4    2.66    2.34
   3  -4   4    2.14    1.27
  -3   4  -4   -0.73    2.38
  -3   4  -5   32.28    7.84
   3  -4   5   36.35    5.29
  -3   4  -5   46.76   10.10
  -3   4  -6   33.18    7.91
   3  -4   6   38.60    6.06
  -3   4  -6   46.73   10.61
  -3   4  -7    8.02    4.12
   3  -4   7    7.24    3.07
  -3   4  -7   12.00    5.89
  -3   4  -8   19.82    5.94
  -3   4  -8   27.76    9.12
  -3   4  -9   11.70    5.87
  -3   4 -10    3.05    3.40
  -3   4 -11   12.14    6.18
  -3   4 -12   39.29   11.74
  -3   4 -13   46.44   13.79
   3  -3 -15   41.21   12.22
   3  -3 -14   12.70    7.52
   3  -3 -13   -1.12    3.93
   3  -3 -12   13.04    6.31
   3  -3 -11    3.83    1.93
  -3   3  10   38.28    8.00
   3  -3 -10   45.32   10.72
  -3   3   9    0.60    2.35
   3  -3  -9    3.32    3.35
  -3   3   8   99.98   12.78
   3  -3  -8   74.39   13.01
  -3   3   7   72.09   10.94
  -3   3   6  123.89   14.16
  -3   3   5    6.66    3.73
  -3   3   4  200.38   17.91
  -3   3   3  146.34   15.43
   3  -3  -2   21.46    3.97
  -3   3   2   34.41    7.80
   3  -3  -2   23.46    3.77
   3  -3  -1    8.23    2.22
  -3   3   1   14.96    5.39
   3  -3   0   41.74    4.74
  -3   3   0   59.14   10.20
  -3   3   0   54.57   10.18
  -3   3  -1    1.18    2.68
   3  -3   1    4.15    1.78
  -3   3  -2  311.34   22.51
   3  -3   2  269.18   13.63
  -3   3  -2  327.96   24.31
   3  -3   3   48.44    6.20
  -3   3  -3   53.21    9.85
  -3   3  -3   51.58    9.52
  -3   3  -4   47.04    9.17
  -3   3  -4   54.81   10.18
  -3   3  -5  642.68   33.12
  -3   3  -5  665.59   36.87
  -3   3  -6   35.82    7.79
   3  -3   6   38.79    6.62
  -3   3  -6   43.13   10.26
  -3   3  -7    9.88    4.18
   3  -3   7   14.54    4.28
  -3   3  -7    7.18    4.27
  -3   3  -8    9.39    4.06
   3  -3   8    7.96    3.33
  -3   3  -8    6.15    3.44
   3  -3   9   -2.66    2.12
  -3   3  -9   -0.70    2.33
   3  -3  10    4.02    2.77
  -3   3 -10    0.59    2.65
  -3   3 -11    9.72    4.97
   3  -3  11    4.66    3.34
  -3   3 -11   10.22    5.14
  -3   3 -12    3.27    2.88
   3  -3  12   -5.87    3.76
  -3   3 -12    9.74    5.89
  -3   3 -13   13.45    6.22
  -3   3 -13    8.44    6.20
   3  -2 -16    0.01    2.03
   3  -2 -15    2.94    4.34
   3  -2 -14    5.31    3.67
   3  -2 -13   -6.06    5.89
   3  -2 -12  100.32   17.52
   3  -2 -11   19.82    7.31
   3  -2 -10  104.37   16.64
  -3   2   9    3.47    2.94
   3  -2  -9    1.97    2.21
  -3   2   8   16.33    4.77
   3  -2  -8   19.66    6.41
  -3   2   7    2.31    1.79
   3  -2  -7    2.72    2.33
  -3   2   7    1.53    1.39
  -3   2   6   93.25   11.43
  -3   2   6   99.35   11.99
   3  -2  -6  103.63   13.40
  -3   2   5  174.74   16.03
  -3   2   5  197.00   17.20
  -3   2   4  126.53   13.84
  -3   2   4  118.61   13.29
  -3   2   3   88.19   11.73
  -3   2   3   84.96   10.98
   3  -2  -2   48.07    6.32
  -3   2   2   40.63    7.77
  -3   2   2   34.90    7.45
  -3   2   1  175.55   16.62
   3  -2  -1  136.57   10.47
  -3   2   1  165.76   15.75
   3  -2   0   20.08    3.67
  -3   2   0   34.07    7.75
  -3   2   0   21.15    5.84
  -3   2   0   24.87    6.25
  -3   2  -1    5.64    2.16
   3  -2   1    3.12    1.43
  -3   2  -1    7.17    2.82
  -3   2  -1    8.92    3.92
   3  -2   2  303.54   16.72
  -3   2  -2  340.61   22.64
  -3   2  -2  347.14   23.26
  -3   2  -2  332.08   22.86
  -3   2  -3   17.60    4.97
   3  -2   3   19.32    4.41
  -3   2  -3   19.04    5.76
  -3   2  -3   19.42    5.92
  -3   2  -4  182.06   16.43
   3  -2   4  173.92   14.21
  -3   2  -4  168.78   15.52
  -3   2  -4  185.74   17.79
  -3   2  -5  105.26   12.68
   3  -2   5   99.55   11.46
  -3   2  -5  101.49   12.13
  -3   2  -5  108.48   14.07
  -3   2  -6   29.59    7.77
  -3   2  -6   24.04    6.08
  -3   2  -7   74.98   11.12
  -3   2  -7   68.32   12.39
   3  -2   8    1.52    1.04
  -3   2  -8    0.25    2.00
   3  -2   9   58.87   10.65
  -3   2  -9   88.46   13.47
  -3   2  -9   70.03   13.00
   3  -2  10   86.46   13.78
  -3   2 -10   97.82   16.15
  -3   2 -11    2.91    2.82
   3  -2  11    0.64    0.82
   3  -2  12   -3.69    3.18
  -3   2 -12   -4.35    4.66
   3  -2  13   -7.39    5.07
  -3   2 -13    0.91    2.91
   3  -2  14   -5.76    4.15
  -3   2 -14    0.15    3.30
   3  -2  15   -4.82    4.04
   3  -1 -16    1.56    3.47
   3  -1 -15   17.48    7.77
   3  -1 -14   -0.91    3.83
   3  -1 -13   22.14    8.41
   3  -1 -12   35.97    9.77
   3  -1 -11    9.75    5.39
  -3   1  10  160.82   14.73
   3  -1 -10  127.91   17.80
   3  -1  -9   19.23    6.87
  -3   1   9   21.60    5.55
  -3   1   8    7.57    2.37
   3  -1  -8    5.15    2.19
  -3   1   7  189.28   15.81
   3  -1  -7  154.62   16.13
  -3   1   6 1418.38   43.74
   3  -1  -6 1429.92   47.44
  -3   1   5  150.24   14.54
  -3   1   5  144.65   13.77
   3  -1  -5  145.37   14.31
  -3   1   4 2949.51   65.31
  -3   1   4 2660.92   60.65
  -3   1   3  337.56   22.29
  -3   1   3  304.69   20.23
   3  -1  -2   -2.91    2.33
  -3   1   2    5.42    3.43
  -3   1   2    3.33    2.10
  -3   1   1   92.14   11.75
   3  -1  -1   82.36    9.10
  -3   1   1   94.47   11.05
   3  -1   0  225.72   14.82
  -3   1   0  232.21   17.34
  -3   1   0  250.05   18.04
  -3   1   0  250.54   18.82
  -3   1  -1  386.29   24.24
   3  -1   1  349.43   18.72
  -3   1  -1  367.73   21.91
  -3   1  -1  366.10   22.58
  -3   1  -2   17.70    5.21
   3  -1   2   11.58    3.42
  -3   1  -2   12.49    4.40
  -3   1  -2    8.07    3.19
  -3   1  -3   22.29    5.79
   3  -1   3   20.68    4.92
  -3   1  -3   22.12    5.52
  -3   1  -3   19.13    5.11
  -3   1  -4  151.45   15.07
   3  -1   4  143.98   13.44
  -3   1  -4  132.98   13.37
  -3   1  -4  134.63   14.82
   3  -1   5   22.82    5.87
  -3   1  -5   23.54    5.68
  -3   1  -5   21.77    6.10
   3  -1   6   48.14    9.21
  -3   1  -6   46.88    7.69
  -3   1  -6   53.66   10.18
  -3   1  -7   57.88    8.57
   3  -1   7   53.42    9.96
  -3   1  -7   64.09   11.35
  -3   1  -7   79.05   10.59
  -3   1  -8   36.56    7.60
  -3   1  -8   30.10    8.16
  -3   1  -9  109.48   16.28
  -3   1  -9  138.78   14.96
  -3   1 -10   23.43    6.10
   3  -1  10   16.95    6.45
  -3   1 -10   21.40    7.68
   3  -1  11    7.90    5.52
  -3   1 -11    4.95    3.62
   3  -1  12    1.56    2.28
  -3   1 -12    1.18    3.29
   3  -1  13    4.37    4.17
  -3   1 -13    7.77    5.75
   3  -1  14   -3.64    3.56
  -3   1 -14    0.90    1.66
   3  -1  15   13.09    6.76
   3   0 -16   15.43    8.74
   3   0 -15  -12.18    6.78
   3   0 -14   29.94   11.14
   3   0 -13   74.08   14.98
   3   0 -12  128.08   18.90
   3   0 -11  160.52   20.01
  -3   0  10   41.51    7.19
   3   0 -10   35.44    9.25
  -3   0   9   48.03    7.96
   3   0  -9   42.28    9.68
  -3   0   8    9.04    3.65
   3   0  -8    3.29    2.40
   3   0  -7  117.70   14.04
   3   0  -6   15.35    4.63
   3   0  -5   -0.16    1.07
   3   0  -4  447.86   22.10
   3   0  -3  198.30   13.45
   3   0  -2  134.37   12.62
   3   0  -2  120.93    9.65
   3   0  -1  741.06   29.26
   3   0   0    0.89    1.19
   3   0   1 1332.03   38.81
  -3   0  -1 1347.44   40.08
   3   0   2   92.41   10.58
  -3   0  -2   84.00   10.11
   3   0   3   11.59    4.48
  -3   0  -3    9.22    3.50
   3   0   3    5.91    2.02
   3   0   4    7.19    3.90
  -3   0  -4    5.90    2.81
   3   0   5  310.39   22.19
  -3   0  -5  248.74   17.32
  -3   0  -5  290.19   21.53
  -3   0  -6    3.45    2.04
   3   0   6    0.36    2.05
  -3   0  -6    7.03    3.31
  -3   0  -7   20.86    5.03
  -3   0  -7   17.08    4.21
   3   0   7   13.76    4.54
  -3   0  -7   12.46    4.95
  -3   0  -8   22.29    5.23
   3   0   8    9.74    4.55
  -3   0  -8   14.06    4.44
  -3   0  -8   11.62    4.66
  -3   0  -9   44.67    7.84
  -3   0  -9   36.78    9.27
  -3   0 -10    7.45    4.11
   3   0  12    3.01    3.23
   3   0  13  -10.13    5.81
   3   0  14   -2.40    3.01
   3   1 -16    1.02    5.11
   3   1 -15   44.40   13.10
   3   1 -14    2.39    3.93
   3   1 -13   -2.17    2.43
   3   1 -12   48.21   11.21
   3   1 -11  421.20   32.29
   3   1 -10   10.96    4.45
   3   1  -9  191.88   19.98
   3   1  -8   31.53    8.25
   3   1  -7   -0.25    2.27
   3   1  -6   60.03    9.09
   3   1  -5  577.65   26.70
   3   1  -4  864.66   30.24
   3   1  -3  223.45   18.55
   3   1  -3  189.49   12.59
   3   1  -2  123.95   13.07
   3   1  -2  114.49    8.88
   3   1  -1    2.90    2.75
   3   1  -1   -0.82    1.12
   3   1   0 1288.02   42.16
   3   1   0 1284.20   18.71
   3   1   1  494.53   25.35
  -3  -1  -1  435.51   21.22
   3   1   2  132.63   13.92
  -3  -1  -2  114.03   11.48
   3   1   3   41.20    7.84
  -3  -1  -3   36.36    6.27
   3   1   4   30.36    7.14
   3   1   4   14.19    2.29
  -3  -1  -4   22.74    5.38
   3   1   5  171.16   17.74
  -3  -1  -5  143.96   14.60
   3   1   6  417.09   28.49
  -3  -1  -6  388.74   24.74
   3   1   7  605.48   36.20
  -3  -1  -7  550.87   30.73
  -3  -1  -7  655.82   23.83
  -3  -1  -8    5.78    2.68
   3   1   8    8.83    4.89
  -3  -1  -8   10.42    4.60
   3   1   9    4.99    3.60
  -3  -1  -9    5.57    3.11
   3   1  13    3.93    4.77
   3   1  14   -7.44    5.32
   3   2 -16    9.25    7.11
   3   2 -15   44.50   12.52
   3   2 -14    3.25    2.39
   3   2 -13   86.59   15.62
   3   2 -12   31.42    9.55
   3   2 -11   18.95    7.00
   3   2 -10   21.10    7.94
   3   2  -9  158.80   18.14
   3   2  -8   26.28    6.76
  -3  -2   7  979.84   39.03
   3   2  -7  894.63   37.85
  -3  -2   6   46.93    8.52
   3   2  -6   33.75    6.66
  -3  -2   5   22.22    5.97
   3   2  -5   20.42    4.94
   3   2  -4   84.68    9.10
  -3  -2   4   86.39   11.40
   3   2  -3  427.51   26.67
  -3  -2   3  400.62   24.68
   3   2  -3  377.83   17.20
   3   2  -2   61.40   10.10
  -3  -2   2   50.07    9.01
   3   2  -2   49.93    5.64
   3   2  -1  527.68   28.90
  -3  -2   1  485.48   27.36
   3   2  -1  461.26   13.37
   3   2   0  467.75   27.32
  -3  -2   0  445.06   26.09
   3   2   1   31.79    7.02
  -3  -2  -1   30.59    6.87
   3   2   2  720.07   35.32
  -3  -2  -2  661.01   31.67
  -3  -2  -2  649.35   25.02
  -3  -2  -3    4.55    2.47
   3   2   3    7.65    3.91
  -3  -2  -3    7.06    2.45
   3   2   4  217.24   20.14
  -3  -2  -4  179.09   16.24
  -3  -2  -4  186.71   14.52
   3   2   5   -0.15    2.56
  -3  -2  -5    0.66    1.42
   3   2   6  240.11   22.55
  -3  -2  -6  234.93   18.58
   3   2   7  413.50   30.68
  -3  -2  -7  390.26   24.36
   3   2   8   10.83    4.78
  -3  -2  -8   13.64    5.24
   3   2   9  267.54   27.01
  -3  -2  -9  274.81   23.24
   3   2  10    3.54    3.30
   3   3 -16    6.34    7.15
   3   3 -15   -2.04    3.25
   3   3 -14    8.18    5.37
   3   3 -13    9.01    5.80
   3   3 -12   11.01    5.31
   3   3 -11   47.50   11.05
   3   3 -10  230.25   23.57
  -3  -3  10  282.83   21.33
  -3  -3   9  439.38   27.05
   3   3  -9  358.36   27.84
  -3  -3   8  711.63   34.86
   3   3  -8  570.21   33.48
  -3  -3   7  385.76   26.02
   3   3  -7  363.48   24.82
  -3  -3   6  287.32   22.86
   3   3  -6  268.08   19.94
  -3  -3   5  177.32   17.84
   3   3  -5  148.11   13.80
   3   3  -4    1.09    1.80
  -3  -3   4   -0.15    1.59
   3   3  -4    0.83    1.26
   3   3  -3    2.38    1.60
   3   3  -3    2.59    1.75
  -3  -3   3    4.28    2.51
   3   3  -2    4.06    1.75
   3   3  -2    5.12    3.03
  -3  -3   2   -0.07    2.08
   3   3  -1   -1.36    4.07
  -3  -3   1   -2.40    4.00
  -3  -3   1    0.90    0.65
   3   3   0    1.36    1.83
   3   3   0    3.32    1.45
   3   3   1   28.80    6.97
  -3  -3  -1   26.98    7.01
   3   3   2    5.89    4.12
  -3  -3  -2    7.67    2.12
  -3  -3  -2   10.80    4.30
   3   3   3  224.91   20.72
  -3  -3  -3  188.75   18.09
  -3  -3  -3  170.46   12.12
  -3  -3  -4   78.17   11.70
   3   3   4   99.05   14.60
  -3  -3  -4   90.40    9.27
  -3  -3  -5  124.50   14.43
  -3  -3  -5  124.61   11.81
   3   3   6   56.51   11.41
  -3  -3  -6   41.25    8.24
  -3  -3  -6   47.06    7.71
   3   3   7    0.64    3.17
  -3  -3  -7    6.39    2.91
   3   3   8    3.85    2.86
  -3  -3  -8    0.70    0.76
   3   3   9    6.18    2.44
  -3  -3  -9    9.99    4.27
   3   3  10  128.85   19.55
   3   4 -15    8.78    7.68
   3   4 -14   23.48    9.67
   3   4 -13    8.24    5.34
   3   4 -12    9.88    5.12
  -3  -4  11    4.80    2.78
   3   4 -11    5.27    3.10
  -3  -4  10   12.00    4.46
   3   4 -10    7.58    4.74
  -3  -4   9   42.61    9.13
   3   4  -9   32.47    8.36
  -3  -4   8  141.97   16.71
   3   4  -8  122.95   15.82
   3   4  -7   30.65    7.29
  -3  -4   7   33.36    8.28
   3   4  -6   71.08   10.83
  -3  -4   6   54.58   10.75
   3   4  -5   -4.09    2.89
   3   4  -5   -3.98    3.23
  -3  -4   5    4.45    4.59
   3   4  -4   30.92    5.78
   3   4  -4   37.95    9.41
  -3  -4   4   36.22    8.89
   3   4  -3   50.09    6.85
  -3  -4   3   52.38    9.64
   3   4  -3   73.61   12.29
  -3  -4   2 1918.60   62.71
   3   4  -2 2017.50   64.24
  -3  -4   1   35.98    8.44
   3   4  -1   35.46    8.58
   3   4  -1   18.11    2.83
  -3  -4   1   18.95    3.29
  -3  -4   0  207.04   20.45
   3   4   0  217.71   21.12
  -3  -4  -1  131.80   16.23
   3   4   1  138.11   16.40
   3   4   2   99.71   14.36
  -3  -4  -2   70.86   11.97
   3   4   3   29.41    7.64
  -3  -4  -3   23.54    6.91
  -3  -4  -3   31.52    4.17
   3   4   4   24.94    8.22
  -3  -4  -4   19.31    6.35
   3   4   5   -6.33    4.46
  -3  -4  -5    1.87    1.96
  -3  -4  -6   30.88    7.36
   3   4   6   44.78   10.68
   3   4   7   -0.09    1.86
  -3  -4  -7    7.02    3.98
   3   4   8   33.17    9.99
  -3  -4  -8   33.48    8.22
   3   4   9   63.29   13.91
   3   4  10  119.40   19.53
   3   4  11   45.92   12.44
   3   5 -15   20.03    9.50
   3   5 -14   15.71    8.82
   3   5 -13    0.50    2.11
   3   5 -12   20.06    7.71
   3   5 -11   -2.51    2.48
  -3  -5  11   -1.01    2.65
   3   5 -10   -2.30    3.99
  -3  -5  10    5.11    2.97
   3   5  -9   12.26    4.22
  -3  -5   9   16.53    5.91
   3   5  -8    3.25    2.98
  -3  -5   8   -0.91    1.54
  -3  -5   7  173.53   20.08
   3   5  -7  171.05   17.85
   3   5  -6   73.44   10.94
  -3  -5   6   81.23   13.39
   3   5  -6   85.49   15.04
  -3  -5   5   96.95   15.01
   3   5  -5   84.54   11.12
   3   5  -5  111.22   16.77
  -3  -5   4  385.71   29.27
   3   5  -4  416.58   31.37
   3   5  -4  380.94   23.06
   3   5  -3   92.50   15.00
  -3  -5   3   76.80   13.03
   3   5  -2    3.28    3.80
  -3  -5   2   -0.83    3.32
   3   5  -1   89.27   14.18
  -3  -5   1   66.25   11.87
   3   5   0   58.98   11.62
  -3  -5   0   53.38   10.64
  -3  -5  -1  263.22   24.03
   3   5   1  278.35   24.81
  -3  -5  -2   65.87   12.20
   3   5   2   88.87   14.40
  -3  -5  -3   89.56   14.37
   3   5   3   78.81   13.02
  -3  -5  -4  358.39   28.52
   3   5   4  360.75   30.54
   3   5   5    7.43    4.64
  -3  -5  -5    2.64    2.60
  -3  -5  -6  310.61   26.52
   3   5   6  388.91   33.16
  -3  -5  -7    7.27    3.92
   3   5   7   13.41    6.44
   3   5   8   22.86    8.66
   3   5   9   -5.40    5.24
   3   5  10   10.84    5.91
   3   5  11   34.11   10.89
   3   6 -14   -0.01    3.83
   3   6 -13   -1.58    2.62
   3   6 -12    8.16    6.14
   3   6 -11   20.24    9.17
  -3  -6  11   20.56    7.04
   3   6 -10   39.95   10.76
  -3  -6  10   66.31   12.96
   3   6  -9   14.42    6.32
  -3  -6   9    7.46    5.05
   3   6  -8   14.34    6.14
  -3  -6   8   11.26    4.96
  -3  -6   7   -0.45    2.88
   3   6  -7    0.27    1.26
  -3  -6   6  218.38   23.60
   3   6  -6  231.76   25.38
   3   6  -6  194.29   19.14
   3   6  -5   41.84    8.56
   3   6  -5   52.19   12.05
  -3  -6   5   36.23    9.89
  -3  -6   4  193.50   21.95
   3   6  -4  207.58   23.73
  -3  -6   3  353.64   29.71
   3   6  -3  385.04   31.61
  -3  -6   2  701.07   42.18
   3   6  -2  765.58   43.88
   3   6  -1   66.32   13.07
  -3  -6   1   47.49   10.72
   3   6   0   79.80   13.32
  -3  -6   0   70.76   13.41
   3   6   1   41.06    9.91
  -3  -6  -1   36.15    9.12
   3   6   2   -2.62    3.35
  -3  -6  -2    4.04    3.32
  -3  -6  -3    7.69    4.82
   3   6   3    2.39    2.00
  -3  -6  -4    3.61    2.75
   3   6   4    4.77    4.25
  -3  -6  -5    8.65    4.65
   3   6   5   12.50    5.55
  -3  -6  -6   51.99   11.98
   3   6   6   50.15   11.93
   3   6   7    3.20    4.86
  -3  -6  -7    3.64    4.00
   3   6   8   14.88    6.95
   3   6   9   15.20    7.23
   3   6  10    7.41    4.89
   3   7 -13   15.10    8.94
   3   7 -12    2.24    2.98
   3   7 -11   35.27   10.86
  -3  -7  11  105.53   17.60
   3   7 -10    0.75    1.92
  -3  -7  10   -0.98    3.38
  -3  -7   9   -2.20    3.52
   3   7  -9    2.41    3.99
   3   7  -9    4.43    4.29
   3   7  -8   10.58    6.06
   3   7  -8    5.61    4.83
  -3  -7   8   -2.87    2.78
   3   7  -7   -0.12    1.37
   3   7  -7   -4.26    4.99
  -3  -7   7   -2.36    4.91
   3   7  -6   -3.66    4.17
  -3  -7   6   -0.03    3.13
   3   7  -5   42.52   11.39
  -3  -7   5   50.08   12.11
   3   7  -4   25.94    8.85
  -3  -7   4   22.41    8.45
   3   7  -3   33.67    9.45
  -3  -7   3   31.30    8.86
   3   7  -2   -3.76    3.49
  -3  -7   2    2.60    3.95
  -3  -7   1    5.95    5.04
   3   7  -1    9.11    4.61
   3   7   0    7.07    4.04
  -3  -7   0    5.99    4.09
   3   7   1    7.15    4.98
  -3  -7  -1   11.14    6.24
   3   7   2   19.26    6.97
  -3  -7  -2   15.05    6.37
   3   7   3   11.39    5.35
  -3  -7  -3    9.54    5.25
   3   7   4   46.18   11.33
  -3  -7  -4   37.91    9.68
  -3  -7  -5   61.31   13.79
   3   7   5  104.97   17.89
  -3  -7  -6    2.72    3.06
   3   7   6    5.10    4.38
  -3  -7  -7   33.47   11.03
   3   7   7   64.15   14.63
   3   7   8   -2.63    1.86
   3   7   9   20.20    9.24
   3   8 -12    0.04    4.33
   3   8 -11    0.24    1.70
  -3  -8  11   -5.10    4.94
  -3  -8  10   17.42    7.68
   3   8 -10   14.60    8.28
   3   8 -10   16.72    8.52
   3   8  -9   12.53    6.39
  -3  -8   9    8.86    5.51
   3   8  -8   -1.47    3.79
  -3  -8   8    8.33    5.61
   3   8  -7    1.25    2.96
  -3  -8   7   -0.46    2.45
   3   8  -6   -0.17    3.30
  -3  -8   6    5.43    4.22
   3   8  -5   36.93   10.46
  -3  -8   5   34.49   10.36
   3   8  -4    1.90    2.62
  -3  -8   4    6.53    4.47
   3   8  -3   52.84   12.69
  -3  -8   3   49.01   12.04
   3   8  -2   -1.70    2.78
  -3  -8   2   -0.72    4.05
   3   8  -1    8.38    4.72
  -3  -8   1    6.41    4.80
   3   8   0    3.53    3.66
  -3  -8   0    9.62    6.62
   3   8   1   28.51    9.38
  -3  -8  -1   30.27   10.31
   3   8   2   13.32    6.24
  -3  -8  -2   24.73    8.78
   3   8   3   10.70    5.64
  -3  -8  -3    2.99    3.93
  -3  -8  -4   12.27    6.73
   3   8   4   19.05    7.98
   3   8   5   18.47    8.00
  -3  -8  -5    2.69    3.63
  -3  -8  -6    6.66    4.83
   3   8   6   24.98    9.55
  -3  -8  -7    6.23    4.67
   3   8   7    4.10    1.76
   3   8   8   49.79   14.14
  -3  -9  11    2.12    3.51
   3   9 -11   10.60    7.80
   3   9 -10   10.89    7.38
  -3  -9  10    1.74    3.74
   3   9  -9   -7.44    6.17
  -3  -9   9    0.24    1.35
   3   9  -8    3.49    4.77
  -3  -9   8    1.37    3.25
   3   9  -7   57.22   14.16
  -3  -9   7   58.96   14.98
   3   9  -6   -2.90    2.40
  -3  -9   6   -3.36    3.69
   3   9  -5   87.95   17.33
  -3  -9   5  114.20   20.26
   3   9  -4    1.97    3.80
  -3  -9   4  -15.50    7.57
   3   9  -3   20.46    7.97
  -3  -9   3   14.26    6.20
   3   9  -2    8.20    4.60
  -3  -9   2   11.32    7.07
   3   9  -1   77.89   15.61
  -3  -9   1   86.36   17.21
   3   9   0   13.39    6.72
  -3  -9   0    3.65    3.06
   3   9   1   11.08    6.17
  -3  -9  -1    6.64    5.58
   3   9   2   52.55   13.21
  -3  -9  -2   44.76   12.52
   3   9   3    0.26    2.38
  -3  -9  -3   -6.89    5.13
   3   9   4   24.13    9.31
  -3  -9  -4    0.31    1.40
   3   9   5    9.89    6.64
  -3  -9  -5    3.22    5.16
  -3  -9  -6   -3.78    3.84
   3   9   6   -1.91    2.39
   3  10  -9    1.90    3.53
   3  10  -8    0.86    2.76
   3  10  -7    9.59    6.71
  -3 -10   7   27.39   11.66
   3  10  -6   24.53    9.56
  -3 -10   6   25.51   10.43
   3  10  -5   41.12   12.46
  -3 -10   5   63.95   16.76
   3  10  -4    8.79    5.95
  -3 -10   4   -6.48    5.30
   3  10  -3   59.53   14.08
  -3 -10   3   73.90   16.78
   3  10  -2    3.47    2.87
  -3 -10   2   11.78    7.28
   3  10  -1    3.67    4.14
  -3 -10   1    0.33    1.61
   3  10   0    2.43    3.31
  -3 -10   0    1.22    1.65
   3  10   1    0.24    2.49
  -3 -10  -1   -5.14    4.81
   3  10   2   11.51    7.15
  -3 -10  -2    6.85    6.45
   3  10   3    9.45    7.23
  -3 -10  -3   -2.34    3.27
   3  10   4    2.98    3.71
  -4   9   9    0.14    0.56
  -4   9   8    5.25    5.17
  -4   9   7    9.03    6.85
  -4   9   6    4.66    4.00
  -4   9   5    0.42    1.82
  -4   9   4   20.46    8.49
  -4   9   3    5.28    3.57
  -4   9   2    4.46    4.26
  -4   9   1    3.53    3.41
  -4   9   0   -7.86    5.39
  -4   9  -1   -0.82    2.31
  -4   9  -2   -1.12    2.03
  -4   9  -3    7.64    4.90
  -4   9  -4   20.40    9.38
  -4   9  -4   17.33    9.09
  -4   9  -5    5.25    4.46
  -4   9  -5   10.55    7.44
  -4   9  -6    2.45    4.12
  -4   9  -6    5.14    6.38
  -4   9  -7    1.94    2.81
  -4   8   9    0.99    2.72
  -4   8   8   -0.94    2.49
  -4   8   7    2.69    1.04
  -4   8   6    1.23    2.84
  -4   8   5    5.22    3.33
  -4   8   4    8.89    5.11
  -4   8   3    5.93    4.24
  -4   8   2   55.07   13.16
  -4   8   1    9.24    4.94
  -4   8   0   58.24   13.61
  -4   8  -1    1.87    2.04
  -4   8  -2    1.31    1.94
  -4   8  -3    0.50    2.22
  -4   8  -3    0.18    1.28
  -4   8  -4    6.63    4.18
  -4   8  -4    3.64    3.53
  -4   8  -5   -6.04    4.51
  -4   8  -5    0.48    1.99
  -4   8  -6    4.86    4.69
  -4   8  -6   17.79    8.52
  -4   8  -7    0.00    2.83
  -4   8  -7    1.25    1.78
  -4   8  -8    3.98    4.95
   4  -7 -11    9.94    7.16
  -4   7   9    0.03    1.80
  -4   7   8    0.91    0.76
  -4   7   7   -0.74    2.11
  -4   7   6    2.16    2.39
  -4   7   5    2.84    2.89
  -4   7   4  112.61   18.21
  -4   7   3   27.59    8.85
  -4   7   2    3.18    3.70
  -4   7   1   -1.66    2.86
  -4   7   0    2.66    2.37
  -4   7  -1    7.63    4.36
  -4   7  -2   -3.14    3.26
  -4   7  -2   -5.20    5.32
  -4   7  -3   22.03    8.14
  -4   7  -3   24.44    8.58
  -4   7  -4    4.34    3.62
  -4   7  -4    5.58    4.85
  -4   7  -5   37.55   10.64
  -4   7  -5   32.15   10.35
  -4   7  -6    8.51    5.70
  -4   7  -6    5.70    4.61
  -4   7  -7    3.28    3.64
  -4   7  -7    0.42    1.04
  -4   7  -8   -1.04    3.11
  -4   7  -8    0.92    1.87
  -4   7  -9    1.02    3.21
   4  -6 -12   16.49    8.67
   4  -6 -11   -3.38    3.72
  -4   6  10    5.90    4.30
   4  -6 -10   -0.62    1.81
  -4   6   9    3.57    3.27
  -4   6   8    8.79    4.73
  -4   6   7   67.53   13.31
  -4   6   6    4.79    2.90
  -4   6   5   11.99    5.83
  -4   6   4   52.15   11.66
  -4   6   3   21.29    7.78
  -4   6   2    8.04    4.37
  -4   6   1   13.29    5.98
  -4   6   0   62.25   12.73
  -4   6  -1   76.16   14.38
  -4   6  -2  218.95   24.40
  -4   6  -2  272.23   27.90
  -4   6  -3   37.23   10.20
  -4   6  -3   54.74   12.29
  -4   6  -4   11.35    5.45
  -4   6  -4   14.59    6.27
  -4   6  -5    2.49    2.93
  -4   6  -5    5.92    3.90
  -4   6  -6    6.36    4.36
  -4   6  -6    9.44    6.01
  -4   6  -7    5.72    3.91
  -4   6  -7   13.04    6.49
  -4   6  -8    0.72    2.52
  -4   6  -8   10.84    6.39
  -4   6  -9   18.64    8.64
  -4   6 -10    5.26    5.60
   4  -5 -13   37.33   12.70
   4  -5 -12   14.87    8.11
   4  -5 -11    1.17    2.04
  -4   5  10    7.74    4.06
   4  -5 -10   17.71    7.62
  -4   5   9   -1.71    3.10
   4  -5  -9   -0.28    2.36
  -4   5   8    4.56    3.04
  -4   5   7   26.04    8.07
  -4   5   6   37.07    9.64
  -4   5   5  115.63   17.28
  -4   5   4  190.09   21.96
  -4   5   3   16.68    6.30
  -4   5   2   91.31   15.06
  -4   5   1   -0.63    2.18
  -4   5   0   45.39   10.42
  -4   5  -1   12.75    5.20
  -4   5  -1    8.25    4.58
  -4   5  -2    6.05    3.33
  -4   5  -2   10.28    5.47
  -4   5  -3    0.48    1.86
  -4   5  -3    7.23    4.42
  -4   5  -4   96.72   15.82
  -4   5  -4  100.91   17.23
  -4   5  -5    1.33    1.21
  -4   5  -5   -5.01    5.01
  -4   5  -6   -0.92    1.14
  -4   5  -6    7.51    4.85
  -4   5  -7   53.21   12.08
  -4   5  -7   66.92   14.42
  -4   5  -8    1.79    2.87
  -4   5  -8    3.07    3.53
  -4   5  -9   -3.05    2.44
  -4   5 -10    3.46    4.01
  -4   5 -11   13.11    8.31
   4  -4 -14   25.90   11.46
   4  -4 -13   52.43   14.92
   4  -4 -12   -0.88    2.44
   4  -4 -11   -4.75    2.53
  -4   4  10   -1.78    2.07
   4  -4 -10    2.15    2.78
  -4   4   9   -3.73    4.21
   4  -4  -9   -1.39    2.01
  -4   4   8    3.71    3.49
  -4   4   7    0.93    1.84
  -4   4   6   39.19    9.70
  -4   4   5  334.69   27.94
   4  -4  -4    3.93    1.81
  -4   4   4    3.72    2.81
  -4   4   3  392.28   29.95
   4  -4  -3  403.26   18.13
  -4   4   2   50.16   10.76
  -4   4   1   24.57    7.62
  -4   4   0   -0.31    2.46
  -4   4  -1  122.34   16.99
  -4   4  -1  136.53   18.17
  -4   4  -2  120.89   16.92
  -4   4  -2  125.71   17.67
  -4   4  -3   31.30    8.66
  -4   4  -3   32.24    9.44
  -4   4  -4   98.07   15.64
  -4   4  -4  113.49   17.22
  -4   4  -5   27.95    8.32
  -4   4  -5   27.10    8.32
  -4   4  -6   81.75   13.90
  -4   4  -6   91.06   15.71
  -4   4  -7   26.98    8.14
  -4   4  -7   27.33    8.97
  -4   4  -8    7.28    4.17
  -4   4  -8   10.85    5.40
  -4   4  -9   12.58    6.57
  -4   4 -10    0.11    1.85
  -4   4 -11   31.24   11.60
   4  -3 -14    6.83    4.90
   4  -3 -13   -9.93    6.09
   4  -3 -12    7.76    5.89
   4  -3 -11    7.06    4.55
  -4   3  10    3.03    1.82
   4  -3 -10    6.11    4.32
  -4   3   9   98.66   14.18
   4  -3  -9   87.84   14.94
  -4   3   8    9.07    4.22
   4  -3  -8   14.90    5.80
  -4   3   7  103.75   14.75
  -4   3   6  103.04   14.89
  -4   3   5   36.72    9.21
  -4   3   5   40.13    9.21
   4  -3  -4   50.98    7.81
  -4   3   4   50.54   10.36
  -4   3   4   55.08   10.51
  -4   3   3  166.30   18.73
   4  -3  -3  149.30   12.52
  -4   3   3  150.97   17.81
  -4   3   2  124.66   16.64
   4  -3  -2  110.01   10.26
  -4   3   2  110.16   14.96
   4  -3  -1   47.64    6.26
  -4   3   1   56.87   11.04
  -4   3   1   60.85   11.60
  -4   3   0   13.05    5.20
   4  -3   0   11.74    3.07
  -4   3   0    9.95    4.97
  -4   3  -1   20.91    6.91
   4  -3   1   18.40    3.96
  -4   3  -1   15.55    5.64
  -4   3  -1   18.54    6.40
  -4   3  -2    3.87    1.51
   4  -3   2    2.24    1.41
  -4   3  -2    3.60    2.16
  -4   3  -2    6.07    4.01
  -4   3  -3   24.93    7.58
   4  -3   3   23.87    5.01
  -4   3  -3   24.93    7.59
  -4   3  -4  114.46   15.73
   4  -3   4  127.98   12.65
  -4   3  -4  118.03   16.83
  -4   3  -5   87.49   13.92
   4  -3   5   83.50   10.92
  -4   3  -5   82.85   13.98
  -4   3  -6    1.49    1.10
  -4   3  -6    2.38    2.07
  -4   3  -7  123.85   17.07
  -4   3  -7  110.22   17.38
  -4   3  -8    9.02    4.89
  -4   3  -8    6.78    3.46
  -4   3  -9    5.23    3.75
  -4   3 -10   59.71   14.35
  -4   3 -11    5.31    5.09
  -4   3 -12   26.41   10.68
   4  -2 -15    9.21    6.08
   4  -2 -14   16.69    8.68
   4  -2 -13    3.15    2.69
   4  -2 -12   -1.78    4.08
   4  -2 -11   21.90    8.00
   4  -2 -10    8.15    4.40
   4  -2  -9    7.40    4.84
  -4   2   9   15.42    5.48
  -4   2   8    1.71    1.99
  -4   2   8    3.32    3.10
   4  -2  -8    4.06    3.75
  -4   2   7    1.87    3.08
  -4   2   7    1.20    2.95
   4  -2  -7   -2.86    4.18
  -4   2   6  251.37   22.71
  -4   2   6  263.18   23.03
   4  -2  -6  226.34   20.66
  -4   2   5   16.37    5.89
  -4   2   5    7.27    3.24
  -4   2   4  261.68   22.83
   4  -2  -4  259.73   19.34
  -4   2   4  263.84   23.01
  -4   2   3  548.04   33.78
   4  -2  -3  527.04   25.82
  -4   2   3  558.31   33.22
  -4   2   2  531.55   32.54
   4  -2  -2  464.00   23.84
  -4   2   2  519.32   31.61
  -4   2   1   60.72   11.14
   4  -2  -1   51.89    7.62
  -4   2   1   50.05    9.75
  -4   2   0  413.96   29.41
   4  -2   0  362.62   20.21
  -4   2   0  409.88   28.51
  -4   2  -1   23.53    7.24
   4  -2   1   15.14    3.96
  -4   2  -1   15.97    5.73
  -4   2  -1   18.81    6.21
  -4   2  -2   13.65    5.22
   4  -2   2   10.50    3.71
  -4   2  -2   13.79    4.87
  -4   2  -2   13.37    5.22
  -4   2  -3    2.38    2.70
   4  -2   3    1.23    1.14
  -4   2  -3    3.71    2.53
  -4   2  -3    3.63    2.98
  -4   2  -4   21.79    7.25
   4  -2   4   24.06    5.96
  -4   2  -4   22.57    7.12
  -4   2  -4   19.51    6.84
  -4   2  -5   37.51    9.04
   4  -2   5   37.66    8.09
  -4   2  -5   34.09    7.78
  -4   2  -5   34.12    8.69
   4  -2   6   91.30   12.47
  -4   2  -6   91.95   13.14
  -4   2  -6  105.06   16.03
  -4   2  -7   12.83    5.58
  -4   2  -8   34.92    9.92
   4  -2   9    0.00    0.78
  -4   2  -9    2.77    3.94
   4  -2  10   10.43    5.79
  -4   2 -10   12.00    6.59
  -4   2 -11   13.00    7.58
  -4   2 -12   -1.79    2.79
   4  -1 -15   32.92   11.87
   4  -1 -14   -7.54    5.43
   4  -1 -13   29.57    8.18
   4  -1 -12   67.64   14.31
  -4   1  11   -0.10    2.06
   4  -1 -11   -1.71    2.88
  -4   1  10   -2.01    2.66
   4  -1 -10    4.17    4.59
  -4   1   9    6.99    3.10
   4  -1  -9    5.22    3.05
  -4   1   8  102.03   13.47
   4  -1  -8   97.27   14.56
  -4   1   7   90.02   12.71
   4  -1  -7   59.02   10.38
  -4   1   6    1.96    2.57
   4  -1  -6    5.93    3.12
  -4   1   5  601.47   33.56
   4  -1  -5  606.83   30.80
   4  -1  -4    2.90    2.61
  -4   1   4   -0.19    1.79
   4  -1  -4    1.13    1.37
  -4   1   3  152.41   17.87
   4  -1  -3  125.17   13.86
  -4   1   3  132.06   15.37
  -4   1   2   29.74    7.97
   4  -1  -2   26.87    6.35
  -4   1   2   24.94    6.21
  -4   1   1  153.94   18.03
   4  -1  -1  126.00   13.35
  -4   1   1  144.72   15.96
   4  -1   0  280.32   19.14
  -4   1   0  307.69   23.45
   4  -1   1    7.64    3.51
  -4   1  -1    9.13    4.57
  -4   1  -1    8.49    4.24
   4  -1   2    1.41    1.42
  -4   1  -2    2.26    3.15
  -4   1  -2   -3.52    2.70
   4  -1   3   14.50    4.99
  -4   1  -3   11.51    4.41
  -4   1  -3   14.05    5.71
   4  -1   4   70.06   11.08
  -4   1  -4   53.62    9.74
  -4   1  -4   59.84   10.83
   4  -1   5    1.36    1.95
  -4   1  -5    1.53    2.24
  -4   1  -5    0.34    2.08
   4  -1   6  271.43   23.35
  -4   1  -6  243.29   20.84
  -4   1  -6  229.64   23.02
   4  -1   7   56.90   10.68
  -4   1  -7   56.54   10.30
  -4   1  -7   39.43    9.91
  -4   1  -8    7.65    3.75
  -4   1  -8    5.36    4.13
  -4   1  -9    7.02    4.20
  -4   1 -10    2.31    3.53
   4  -1  11   -8.93    5.56
  -4   1 -11   -9.18    5.63
   4  -1  12   -6.61    4.59
  -4   1 -12    3.82    5.23
   4  -1  13   -2.10    2.72
  -4   1 -13   -5.26    4.63
   4   0 -15   14.87    8.32
   4   0 -14   17.31    8.76
   4   0 -13   19.52    7.97
   4   0 -12    9.05    5.20
  -4   0  11   89.77   12.75
   4   0 -11   79.42   14.88
  -4   0  10    1.72    0.97
   4   0 -10    3.10    3.54
  -4   0   9    3.72    2.29
   4   0  -9   -4.12    3.73
  -4   0   8    6.82    2.96
   4   0  -8    1.44    1.96
  -4   0   7   98.91   12.79
   4   0  -7   93.07   13.23
   4   0  -6  247.88   19.84
   4   0  -5    3.56    2.64
   4   0  -4    5.66    3.06
   4   0  -4    5.03    3.03
   4   0  -3  219.62   19.14
   4   0  -3  224.58   15.53
   4   0  -2   -0.88    1.84
   4   0  -2    0.81    1.25
   4   0  -1   55.84    9.40
   4   0  -1   54.29    6.68
   4   0   0   19.37    5.71
   4   0   1  322.23   22.63
  -4   0  -1  292.60   21.61
   4   0   2    5.90    3.04
  -4   0  -2    8.16    3.75
  -4   0  -3   82.80   11.85
   4   0   3   92.67   12.85
  -4   0  -3   97.98   13.41
  -4   0  -4   51.30    9.36
   4   0   4   66.73   11.56
  -4   0  -4   49.24    9.59
   4   0   5  127.04   16.06
  -4   0  -5  132.99   14.98
  -4   0  -5  108.99   14.29
   4   0   6    0.57    1.97
  -4   0  -6    1.08    1.14
  -4   0  -7    9.00    3.57
   4   0   7   16.82    5.97
  -4   0  -7   13.22    5.95
   4   0   8    4.40    3.81
  -4   0  -8    7.38    3.46
  -4   0  -8    4.90    4.13
   4   0   9   22.67    7.80
  -4   0  -9   22.23    7.88
  -4   0 -10   23.70    8.73
  -4   0 -11    2.67    3.43
   4   0  12   11.83    7.43
  -4   0 -12   11.92    7.30
   4   0  13    2.12    5.29
  -4   0 -13    0.57    2.49
   4   1 -15   13.31    8.55
   4   1 -14   13.13    7.44
   4   1 -13    3.58    5.27
   4   1 -12   -0.93    2.47
  -4  -1  11    3.55    1.61
   4   1 -11    2.84    2.16
   4   1 -10    2.77    2.66
   4   1  -9    1.11    2.32
   4   1  -8   -2.41    3.42
   4   1  -7   22.17    5.93
   4   1  -6   47.70    8.73
   4   1  -5    2.88    1.83
   4   1  -4    1.51    1.65
   4   1  -4   -2.22    1.82
   4   1  -3   -1.48    2.05
   4   1  -3    0.73    0.63
   4   1  -2   34.03    8.02
   4   1  -2   33.17    5.16
   4   1  -1    2.06    1.57
   4   1  -1   10.92    2.35
   4   1   0   57.53   10.13
   4   1   0   60.97    4.53
   4   1   1   -0.02    1.60
   4   1   2  292.75   23.34
  -4  -1  -2  279.39   20.61
   4   1   3   19.50    6.60
  -4  -1  -3   17.32    5.32
   4   1   4  370.15   28.07
  -4  -1  -4  340.84   23.81
   4   1   5   76.82   13.31
  -4  -1  -5   74.17   11.20
   4   1   6  263.96   24.74
  -4  -1  -6  228.26   20.89
  -4  -1  -7    2.90    2.50
   4   1   7    5.66    4.04
  -4  -1  -7   10.25    4.76
   4   1   8   -2.83    4.05
  -4  -1  -8   -5.26    3.49
   4   1   9   10.47    6.00
  -4  -1  -9    3.93    3.53
   4   1  10    2.95    4.11
  -4  -1 -10    2.16    2.82
  -4  -1 -11    3.33    3.36
   4   1  13    0.52    1.73
   4   2 -15   -3.52    3.87
   4   2 -14    1.23    2.04
   4   2 -13   -0.59    2.93
   4   2 -12   -2.97    2.99
   4   2 -11   19.36    6.83
   4   2 -10   11.65    4.22
   4   2  -9  204.98   20.85
   4   2  -8   53.40   10.02
   4   2  -7  397.87   26.22
   4   2  -6   98.87   12.15
   4   2  -5  170.66   19.66
   4   2  -5  161.37   14.39
   4   2  -4   36.82    9.01
   4   2  -4   38.44    6.51
   4   2  -3  115.11   15.96
   4   2  -3  115.09   10.01
   4   2  -2  152.39   18.00
   4   2  -2  166.20   10.38
   4   2  -1   13.63    5.19
   4   2  -1    8.75    1.72
   4   2   0   12.31    6.01
   4   2   1   57.32   10.87
   4   2   2   29.28    8.02
   4   2   3   44.07    9.72
  -4  -2  -3   39.68    7.18
   4   2   4   21.99    7.39
  -4  -2  -4   26.30    6.27
   4   2   5  126.19   17.97
  -4  -2  -5  117.06   13.17
   4   2   6    5.24    4.02
  -4  -2  -6    5.88    3.32
   4   2   7   12.37    5.48
  -4  -2  -7   11.09    4.46
   4   2   8    2.58    2.64
  -4  -2  -8   -0.38    1.28
   4   2   9    2.64    4.33
   4   2  10   -1.56    2.53
   4   3 -15   13.92    8.67
   4   3 -14   -1.17    2.38
   4   3 -13   -4.32    3.98
   4   3 -12    3.85    1.99
   4   3 -11   -9.67    5.37
   4   3 -10   25.65    7.37
   4   3  -9   19.87    6.01
   4   3  -8   -2.87    3.65
  -4  -3   7   69.76   12.41
   4   3  -7   85.83   12.17
  -4  -3   6    4.40    4.20
   4   3  -6    4.10    3.54
   4   3  -6   -2.48    3.07
   4   3  -5   -2.79    1.72
  -4  -3   5    0.51    1.37
   4   3  -5    2.13    2.60
   4   3  -4   64.40   12.68
  -4  -3   4   56.72   10.84
   4   3  -4   64.54    8.37
   4   3  -3   16.28    3.82
  -4  -3   3   10.26    5.18
   4   3  -3   13.80    6.00
  -4  -3   2    3.50    2.38
   4   3  -2    2.34    2.13
  -4  -3   1    6.08    4.35
   4   3  -1    1.13    3.02
   4   3   0   27.96    8.02
  -4  -3   0   24.93    7.50
   4   3   1  250.76   23.59
  -4  -3  -1  222.29   21.82
  -4  -3  -2    2.75    2.26
   4   3   2    4.09    3.82
  -4  -3  -3   38.66    8.91
   4   3   3   44.37   10.10
  -4  -3  -3   42.29    6.93
   4   3   4   45.93   10.54
   4   3   5   19.16    7.08
   4   3   6    4.27    3.71
   4   3   7   26.67    8.28
   4   3   8    0.26    2.85
   4   3   9   60.45   14.04
   4   3  10   26.00    9.62
   4   3  11   19.88    9.24
   4   4 -15  -24.93   10.02
   4   4 -14   13.94    8.57
   4   4 -13    7.00    5.63
   4   4 -12    0.20    2.64
   4   4 -11   17.64    8.03
  -4  -4  10    2.58    2.56
   4   4 -10   12.73    6.37
  -4  -4   9    4.85    4.05
   4   4  -9    4.07    3.97
  -4  -4   8   77.03   13.71
   4   4  -8   69.91   11.66
   4   4  -7    2.16    3.52
  -4  -4   7    5.31    3.46
   4   4  -7    9.67    4.77
   4   4  -6  283.09   28.68
  -4  -4   6  246.10   24.59
   4   4  -6  274.21   21.21
   4   4  -5   -6.19    3.43
   4   4  -5   -1.19    3.80
  -4  -4   5    0.41    1.72
   4   4  -4  274.74   27.42
  -4  -4   4  283.93   25.78
   4   4  -4  246.20   16.49
   4   4  -3  181.11   21.53
  -4  -4   3  150.89   18.89
  -4  -4   2  109.15   16.25
   4   4  -2  118.22   17.17
  -4  -4   1   21.88    6.66
   4   4  -1   19.35    6.38
  -4  -4   0    7.53    5.24
   4   4   0   -3.09    2.79
  -4  -4  -1   90.36   14.62
   4   4   1  115.82   16.87
   4   4   2   10.58    5.59
  -4  -4  -2    0.07    2.84
   4   4   3  268.22   26.39
  -4  -4  -3  250.04   24.12
  -4  -4  -4    7.55    3.59
   4   4   4    8.95    4.98
  -4  -4  -5   10.91    5.60
   4   4   5   14.85    6.47
  -4  -4  -6    3.55    2.51
   4   4   6    4.72    3.48
   4   4   7   13.92    5.89
   4   4   8   71.84   14.86
   4   4   9   52.02   13.28
   4   4  10   14.53    7.10
   4   5 -14   -5.70    4.87
   4   5 -13   -1.43    2.57
   4   5 -12    2.91    3.90
   4   5 -11    9.21    6.41
  -4  -5  11   16.41    6.70
   4   5 -10   34.27   10.39
  -4  -5  10   91.72   15.33
   4   5  -9    8.74    4.58
  -4  -5   9    4.36    3.60
   4   5  -8   17.15    6.26
   4   5  -8   27.02    8.53
  -4  -5   8   15.70    6.75
   4   5  -7    2.47    2.35
  -4  -5   7    1.19    1.45
   4   5  -7   -3.30    3.07
   4   5  -6   52.87    9.18
   4   5  -6   51.76   12.77
  -4  -5   6   57.52   12.35
   4   5  -5  359.58   32.41
  -4  -5   5  334.92   30.08
   4   5  -4  156.36   21.26
  -4  -5   4  133.43   19.26
   4   5  -3  191.88   23.45
  -4  -5   3  184.67   21.95
   4   5  -2   15.59    6.90
  -4  -5   2   15.87    6.06
   4   5  -1   47.43   11.61
  -4  -5   1   41.19   10.37
   4   5   0   46.15   10.79
  -4  -5   0   34.42    9.48
   4   5   1   73.76   13.94
  -4  -5  -1   77.90   14.27
   4   5   2  173.52   21.80
  -4  -5  -2  149.58   19.81
  -4  -5  -3   97.69   15.89
   4   5   3  110.87   17.53
  -4  -5  -4    7.07    5.16
   4   5   4    5.08    4.37
   4   5   5   65.02   14.19
  -4  -5  -5   37.06   10.14
  -4  -5  -6   11.18    5.76
   4   5   6   19.32    7.30
  -4  -5  -7    2.88    3.49
   4   5   7    3.49    4.29
   4   5   8    7.16    3.41
   4   5   9    7.14    6.12
   4   6 -14   10.95    6.64
   4   6 -13    7.80    7.21
   4   6 -12    2.35    4.89
   4   6 -11    5.53    4.53
  -4  -6  11    3.95    3.75
   4   6 -10   44.07   11.62
  -4  -6  10   58.93   13.02
  -4  -6   9   26.78    9.03
   4   6  -9   15.51    7.13
   4   6  -9   35.16   10.94
   4   6  -8    7.85    4.28
   4   6  -8   16.45    7.18
  -4  -6   8   11.66    5.67
   4   6  -7   -2.17    3.48
  -4  -6   7    3.56    3.72
   4   6  -6   27.11    9.36
  -4  -6   6   25.03    8.75
   4   6  -5    9.14    4.50
  -4  -6   5    7.46    3.99
   4   6  -4   13.15    7.08
  -4  -6   4    7.50    4.14
   4   6  -3   17.05    7.44
  -4  -6   3   10.33    5.08
   4   6  -2   11.65    3.36
  -4  -6   2    9.64    5.44
   4   6  -1   -0.29    2.53
  -4  -6   1   -1.11    3.83
   4   6   0   48.80   11.08
  -4  -6   0   40.02   10.80
   4   6   1    1.96    2.76
  -4  -6  -1    0.90    1.42
   4   6   2   -1.36    2.49
  -4  -6  -2    0.87    3.49
   4   6   3   11.00    5.40
  -4  -6  -3    0.71    1.93
  -4  -6  -4   -0.64    1.82
   4   6   4    0.71    4.52
  -4  -6  -5    2.34    2.59
   4   6   5    6.87    5.75
   4   6   6   45.38   13.10
  -4  -6  -6   10.41    6.48
  -4  -6  -7    5.89    4.19
   4   6   7    1.67    3.65
   4   6   8    8.05    5.90
   4   7 -13    0.46    5.18
   4   7 -12   12.79    8.10
   4   7 -11    5.65    5.07
  -4  -7  11   11.57    6.12
   4   7 -10   11.29    6.72
   4   7 -10   32.57   11.50
  -4  -7  10   18.80    8.17
   4   7  -9   15.93    6.67
  -4  -7   9   27.55    9.53
   4   7  -8    1.05    3.26
  -4  -7   8    5.80    5.29
   4   7  -7   20.64    8.92
  -4  -7   7   12.73    6.93
   4   7  -6   -2.35    4.37
  -4  -7   6   10.20    6.31
   4   7  -5   33.91   10.96
  -4  -7   5    8.82    5.39
   4   7  -4   63.19   14.50
  -4  -7   4   77.76   15.78
  -4  -7   3    9.04    4.34
   4   7  -3   10.45    6.56
  -4  -7   2  146.89   22.50
   4   7  -2  182.43   23.93
  -4  -7   1   35.24   10.25
   4   7  -1   32.05    9.77
  -4  -7   0   -5.53    4.71
   4   7   0   -4.41    5.82
   4   7   1   -2.44    4.26
  -4  -7  -1    9.24    5.35
   4   7   2    9.30    5.64
  -4  -7  -2    9.71    4.86
   4   7   3   -3.70    4.71
  -4  -7  -3   -0.83    1.99
   4   7   4   12.71    7.24
  -4  -7  -4    2.41    2.95
   4   7   5  -11.81    6.92
  -4  -7  -5    3.59    5.24
  -4  -7  -6   28.65   11.10
   4   7   6   89.64   18.76
  -4  -8  11    1.89    3.37
   4   8 -10    8.47    4.61
  -4  -8  10   -2.32    3.15
   4   8  -9   58.75   15.65
  -4  -8   9   36.42   11.88
   4   8  -8    8.51    6.09
  -4  -8   8   14.51    7.93
   4   8  -7   51.87   14.74
  -4  -8   7   43.47   12.84
  -4  -8   6    4.42    3.97
   4   8  -6    5.41    4.33
  -4  -8   5    7.20    6.29
   4   8  -5   10.09    6.15
  -4  -8   4   -1.13    2.26
   4   8  -4   -0.33    2.83
  -4  -8   3   27.91   10.60
   4   8  -3   26.92    9.48
  -4  -8   2   11.93    6.28
   4   8  -2    7.35    4.91
  -4  -8   1    2.49    3.98
   4   8  -1    1.23    4.62
  -4  -8   0  -11.96    6.93
   4   8   0    3.39    2.23
  -4  -8  -1   -0.47    1.98
   4   8   1   -2.75    3.37
  -4  -8  -2   12.38    6.20
   4   8   2   23.38    8.72
   4   8   3   20.29    7.90
  -4  -8  -3    0.01    2.16
   4   8   4    0.32    4.43
  -4  -8  -4    0.86    4.27
   4   8   5  101.83   20.64
  -4  -8  -5   31.83   12.93
  -4  -8  -6    4.06    5.56
   4   9  -8   53.82   15.82
  -4  -9   8   58.82   16.04
  -4  -9   7   74.02   17.81
   4   9  -7   69.70   17.56
  -4  -9   6   85.09   19.03
   4   9  -6   98.09   20.01
  -4  -9   5   70.74   17.36
   4   9  -5   33.54   11.80
  -4  -9   4   -7.76    5.76
   4   9  -4   -4.06    4.12
  -4  -9   3   10.18    6.64
   4   9  -3    0.69    3.15
  -4  -9   2    1.04    4.72
   4   9  -2    0.97    3.00
  -4  -9   1   12.35    7.84
   4   9  -1    8.89    6.44
  -4  -9   0   -4.19    4.48
   4   9   0    0.11    1.71
  -4  -9  -1    0.02    2.73
   4   9   1    3.04    5.62
  -4  -9  -2    0.33    2.94
   4   9   2    0.21    3.67
  -4  -9  -3    6.06    7.04
  -5   8   9   18.12   10.13
  -5   8   8    2.25    3.78
  -5   8   7   -4.40    4.17
  -5   8   6    5.45    5.42
  -5   8   5    0.01    3.43
  -5   8   4   -0.49    2.64
  -5   8   3    4.14    4.57
  -5   8   2  -22.21    9.15
  -5   8   1    3.37    3.84
  -5   8   0    1.97    3.12
  -5   8  -1   -0.35    2.60
  -5   8  -2   28.10   10.76
  -5   8  -3    5.81    5.67
  -5   8  -4    1.56    3.04
  -5   8  -4    0.80    1.78
  -5   8  -5    1.10    2.71
  -5   8  -6    2.60    3.30
  -5   8  -7    0.32    2.81
  -5   7  10    3.80    4.37
  -5   7   9   -0.20    0.99
  -5   7   8    3.48    4.59
  -5   7   7    2.04    3.76
  -5   7   6    4.41    4.27
  -5   7   5   45.09   12.62
  -5   7   4   15.45    7.29
  -5   7   3   12.00    7.05
  -5   7   2   -1.63    3.73
  -5   7   1    0.68    1.82
  -5   7   0   23.84    9.49
  -5   7  -1   -2.16    2.47
  -5   7  -2   59.07   14.48
  -5   7  -3   -2.15    2.59
  -5   7  -3   -2.69    3.44
  -5   7  -4    4.77    4.70
  -5   7  -4    6.55    5.48
  -5   7  -5    5.63    5.37
  -5   7  -5   22.73    9.62
  -5   7  -6    3.60    4.32
  -5   7  -6   20.74    9.93
  -5   7  -7    0.32    1.15
  -5   6  10    0.54    1.43
   5  -6 -10   -5.51    4.72
  -5   6   9    3.34    3.46
  -5   6   8    1.39    3.40
  -5   6   7   19.37    7.99
  -5   6   6    5.35    4.75
  -5   6   5    6.69    4.15
  -5   6   4   -0.19    1.47
  -5   6   3   12.81    6.82
  -5   6   2   -4.11    3.80
  -5   6   1   16.75    7.22
  -5   6   0   -2.10    4.22
  -5   6  -1  207.63   26.23
  -5   6  -2   26.17    9.54
  -5   6  -3   93.81   17.72
  -5   6  -3  115.19   19.96
  -5   6  -4    2.21    2.31
  -5   6  -4    3.49    2.98
  -5   6  -5   21.31    8.39
  -5   6  -5   14.73    7.09
  -5   6  -6   -8.50    5.39
  -5   6  -6    6.79    6.04
  -5   6  -7   -1.32    3.01
  -5   6  -7    3.34    4.71
   5  -5 -12   32.35   11.63
   5  -5 -11   -8.92    5.91
  -5   5  10    9.21    5.40
   5  -5 -10   11.11    6.32
  -5   5   9    0.69    0.88
   5  -5  -9    3.24    3.34
  -5   5   8   17.48    7.02
  -5   5   7   12.21    5.81
  -5   5   6    6.35    5.00
  -5   5   5   51.02   12.37
  -5   5   4    4.50    2.90
  -5   5   3   23.96    8.42
  -5   5   2   10.29    5.79
  -5   5   1   -2.29    4.56
  -5   5   0   28.52    9.62
  -5   5  -1    6.11    4.47
  -5   5  -2   41.06   11.17
  -5   5  -2   45.17   11.77
  -5   5  -3    1.38    1.71
  -5   5  -3    6.00    4.71
  -5   5  -4    2.46    3.56
  -5   5  -4    1.91    1.85
  -5   5  -5    2.88    3.49
  -5   5  -5   10.82    6.28
  -5   5  -6   15.50    7.37
  -5   5  -6   22.68    8.71
  -5   5  -7    2.58    3.31
  -5   5  -7    9.05    7.29
  -5   5  -8    3.46    4.41
   5  -4 -12    0.01    3.97
   5  -4 -11   -3.74    3.80
  -5   4  10   -1.69    2.97
   5  -4 -10    0.00    3.30
  -5   4   9    8.91    5.33
   5  -4  -9   12.54    6.76
  -5   4   8   11.38    5.70
   5  -4  -8    9.63    5.28
  -5   4   7   37.59   10.21
  -5   4   6    4.42    3.63
  -5   4   5    7.04    4.81
  -5   4   4   -1.33    2.59
  -5   4   3    1.60    2.10
  -5   4   2   18.33    6.71
  -5   4   1    2.63    2.90
  -5   4   0    0.83    1.35
  -5   4  -1   17.41    7.36
  -5   4  -2   19.67    7.67
  -5   4  -2   23.01    8.31
  -5   4  -3   -2.19    4.04
  -5   4  -3    2.60    3.20
  -5   4  -4   24.89    8.44
  -5   4  -4   30.59    9.82
  -5   4  -5   31.57    9.88
  -5   4  -5   41.96   11.53
  -5   4  -6   -2.47    2.86
  -5   4  -6   -2.42    2.93
  -5   4  -7    4.72    4.21
  -5   4  -7    0.14    1.98
  -5   4  -8    8.26    6.65
  -5   4  -9    0.14    2.65
   5  -3 -13   -6.74    5.27
   5  -3 -12    5.61    5.50
   5  -3 -11    3.86    3.33
   5  -3 -10    3.10    3.54
  -5   3   9   11.85    4.96
   5  -3  -9    6.43    4.27
  -5   3   8   23.49    8.01
   5  -3  -8   16.95    7.33
  -5   3   7    8.53    4.64
   5  -3  -7    4.46    3.75
   5  -3  -6    5.34    3.32
  -5   3   6    8.20    4.18
  -5   3   6    9.34    4.22
   5  -3  -5   -0.85    1.83
  -5   3   5    3.75    2.93
  -5   3   5    0.95    1.60
   5  -3  -4    1.69    1.85
  -5   3   4    5.87    5.14
  -5   3   4    3.94    1.84
  -5   3   3  241.28   25.85
  -5   3   3  256.63   25.66
  -5   3   2   -2.75    4.27
  -5   3   2    2.96    3.80
  -5   3   1  116.97   17.84
  -5   3   1  139.15   18.61
  -5   3   0    2.36    2.29
  -5   3   0   -2.23    4.31
  -5   3  -1   61.63   13.50
  -5   3  -1   55.88   11.78
  -5   3  -2   25.84    8.75
  -5   3  -2   19.98    7.69
  -5   3  -2   23.44    8.01
  -5   3  -3   14.71    6.33
  -5   3  -3   13.65    6.55
  -5   3  -3   11.19    4.78
  -5   3  -4    0.12    1.92
  -5   3  -4   -0.04    2.36
  -5   3  -5    5.67    3.60
  -5   3  -5    3.62    2.93
  -5   3  -6   50.22   12.61
  -5   3  -7    7.44    5.32
  -5   3  -8    4.54    2.98
  -5   3  -9   52.80   14.15
  -5   3 -10   -2.10    2.97
   5  -2 -14    5.92    5.73
   5  -2 -13   -3.36    3.76
   5  -2 -12    5.02    3.16
   5  -2 -11   -0.15    2.70
   5  -2 -10   -7.74    4.91
  -5   2  10    3.97    2.98
  -5   2   9   -0.71    1.61
   5  -2  -9   -2.41    2.99
  -5   2   8   45.51   11.18
   5  -2  -8   24.06    7.33
  -5   2   7    3.28    2.87
   5  -2  -7    6.93    4.04
   5  -2  -6    1.90    2.34
  -5   2   6    0.29    3.15
   5  -2  -6    2.20    1.60
  -5   2   5   11.21    4.85
   5  -2  -5   15.83    5.55
  -5   2   5   18.63    6.75
   5  -2  -5   12.73    3.75
  -5   2   4  207.88   24.04
   5  -2  -4  174.52   17.51
  -5   2   4  215.22   22.82
  -5   2   3  165.56   21.67
   5  -2  -3  147.29   15.54
  -5   2   3  178.03   20.90
  -5   2   2   42.51   11.20
   5  -2  -2   38.02    7.33
  -5   2   2   43.30   10.50
  -5   2   1  136.96   19.84
   5  -2  -1  102.89   12.12
  -5   2   1  120.07   17.22
  -5   2   0    4.32    4.09
   5  -2   0   -1.75    1.30
  -5   2   0   -0.74    3.71
  -5   2  -1   29.21    9.37
   5  -2   1   33.44    6.88
  -5   2  -1   24.89    7.76
  -5   2  -2   -2.90    1.40
   5  -2   2   -1.54    2.76
  -5   2  -2   -1.49    3.17
  -5   2  -2    2.38    3.18
   5  -2   3   39.32    8.31
  -5   2  -3   40.44   10.14
  -5   2  -3   40.68   10.05
   5  -2   4   20.96    5.50
  -5   2  -4   20.09    7.28
  -5   2  -4   17.40    6.06
   5  -2   5   19.68    6.54
  -5   2  -5   12.46    5.86
  -5   2  -5   13.84    6.01
   5  -2   6    2.15    2.26
  -5   2  -6    1.60    2.49
  -5   2  -6   -2.30    2.29
   5  -2   7    0.88    1.46
  -5   2  -7    3.29    3.64
  -5   2  -8   -7.86    5.22
  -5   2  -9   -0.90    1.94
  -5   2 -10    2.39    3.10
  -5   2 -11   -2.65    3.34
   5  -1 -14   -5.78    4.87
   5  -1 -13    1.56    2.69
   5  -1 -12   -7.14    4.98
  -5   1  11   22.23    7.44
   5  -1 -11   12.30    6.52
  -5   1  10    9.40    5.00
   5  -1 -10    5.09    3.76
  -5   1   9    7.78    3.94
   5  -1  -9    6.32    4.22
  -5   1   8   18.87    6.82
   5  -1  -8   16.17    5.64
  -5   1   7    2.33    2.88
   5  -1  -7    6.45    3.81
   5  -1  -6   67.81   11.89
  -5   1   6   82.38   13.44
   5  -1  -6   77.32   12.12
   5  -1  -5   20.56    6.95
  -5   1   5   21.77    7.20
   5  -1  -5   10.09    3.93
   5  -1  -4   38.92    9.04
  -5   1   4   40.30    9.35
   5  -1  -4   41.11    7.84
   5  -1  -3   35.30    8.72
  -5   1   3   31.20    8.48
   5  -1  -3   38.64    7.26
   5  -1  -2   64.31   11.11
  -5   1   2   76.99   13.17
   5  -1  -1    6.48    3.51
  -5   1   1    3.97    3.24
   5  -1   0  190.20   18.44
  -5   1   0  168.32   19.60
   5  -1   1   -2.31    1.13
  -5   1  -1   -4.79    4.03
   5  -1   2   98.90   13.46
  -5   1  -2  104.18   15.40
  -5   1  -2   92.88   15.06
   5  -1   3   34.41    8.52
  -5   1  -3   45.63   10.22
  -5   1  -3   38.45    9.66
   5  -1   4    4.36    4.41
  -5   1  -4   -4.27    3.71
  -5   1  -4    0.69    1.29
   5  -1   5   39.40    9.17
  -5   1  -5   33.76    8.84
  -5   1  -5   34.45    9.64
   5  -1   6   27.14    8.25
  -5   1  -6   26.69    8.18
  -5   1  -6   20.52    7.48
   5  -1   7    5.55    3.91
  -5   1  -7    5.73    4.69
  -5   1  -7   10.88    5.52
   5  -1   8   -3.03    3.03
  -5   1  -8    7.86    4.58
  -5   1  -9   16.36    7.58
  -5   1 -10    0.93    3.56
  -5   1 -11    0.08    2.30
   5   0 -14    2.44    5.03
   5   0 -13   13.70    7.87
   5   0 -12    0.00    2.15
  -5   0  11   10.87    5.10
   5   0 -11    0.30    2.02
  -5   0  10   18.79    6.54
   5   0 -10   21.59    7.92
  -5   0   9    1.46    1.64
   5   0  -9    4.71    3.09
  -5   0   8   10.70    4.55
   5   0  -8   15.28    5.87
  -5   0   7   25.53    7.27
   5   0  -7   28.56    7.67
   5   0  -6   67.86   12.68
  -5   0   6   75.85   12.94
   5   0  -6   73.22   11.35
   5   0  -5   22.03    7.20
  -5   0   5   25.65    7.79
   5   0  -5   22.36    5.83
   5   0  -4   35.85    9.13
  -5   0   4   30.39    7.96
   5   0  -4   25.50    5.86
   5   0  -3    2.32    2.32
   5   0  -3    0.04    1.54
   5   0  -2   21.84    7.23
   5   0  -1  117.21   15.52
  -5   0   1  118.50   16.22
   5   0   0  114.32   15.13
  -5   0   0  118.60   16.10
  -5   0  -1   59.01   11.08
   5   0   1   48.03   10.07
   5   0   2  175.10   18.97
  -5   0  -2  186.11   20.04
  -5   0  -3   36.27    8.67
   5   0   3   46.56    9.83
  -5   0  -3   38.58    9.01
  -5   0  -4   77.02   12.87
   5   0   4   85.18   14.13
  -5   0  -4   86.23   13.96
  -5   0  -5    0.07    1.60
   5   0   5   -4.37    2.66
  -5   0  -5    0.55    1.49
  -5   0  -6   14.74    6.11
   5   0   6   20.31    7.17
  -5   0  -6   20.55    7.17
   5   0   7   30.48    8.96
  -5   0  -7   36.06    9.78
  -5   0  -7   33.90    9.85
   5   0   8    4.33    4.68
  -5   0  -8    7.01    4.89
   5   0   9    6.28    5.39
  -5   0  -9   10.88    6.30
  -5   0 -10    0.00    2.04
   5   1 -14   -2.00    2.99
   5   1 -13    0.00    2.21
   5   1 -12    6.23    5.37
  -5  -1  11   -2.74    2.97
   5   1 -11    0.02    1.80
  -5  -1  10   11.45    5.22
   5   1 -10    8.12    3.92
   5   1  -9    5.77    3.36
   5   1  -8    6.81    3.69
   5   1  -7   -2.84    4.31
   5   1  -7    3.15    1.31
   5   1  -6  175.42   21.36
   5   1  -6  158.92   16.38
   5   1  -5    8.74    4.73
   5   1  -5   10.04    4.30
   5   1  -4   81.30   14.15
   5   1  -4   88.20   10.56
   5   1  -3    1.63    2.10
   5   1  -2   39.29    9.53
   5   1  -1    4.47    3.12
   5   1   0    6.24    3.93
   5   1   1   17.92    6.33
   5   1   2    2.82    2.92
   5   1   3   61.84   11.88
  -5  -1  -3   57.65   10.68
   5   1   4    0.89    2.11
  -5  -1  -4    1.38    1.75
  -5  -1  -5    3.91    2.32
   5   1   5   12.31    6.07
  -5  -1  -5   11.45    4.71
  -5  -1  -6   28.81    8.08
   5   1   6   28.99    9.14
  -5  -1  -6   47.64   10.99
  -5  -1  -7    1.36    1.92
   5   1   7    2.77    4.06
  -5  -1  -7    1.61    2.93
   5   1   8   14.70    6.92
   5   1   9   -3.38    3.51
   5   1  10    0.01    2.36
   5   2 -14    3.73    5.80
   5   2 -13    2.78    4.01
   5   2 -12   -3.87    3.64
   5   2 -11   -2.41    2.86
   5   2 -10    5.21    4.89
   5   2  -9   13.19    6.12
   5   2  -8    2.66    1.94
   5   2  -7   76.85   15.05
   5   2  -7   57.31   10.08
   5   2  -6  107.69   17.36
   5   2  -6  112.07   13.26
   5   2  -5    2.00    2.10
   5   2  -4  157.26   20.51
   5   2  -3  300.43   28.31
   5   2  -2   13.09    6.53
   5   2  -1   68.15   12.96
   5   2   0   27.89    7.97
   5   2   1   12.39    5.76
   5   2   2   55.92   11.67
   5   2   3   47.12   10.63
   5   2   4    1.78    2.92
   5   2   5   15.49    6.67
   5   2   6   10.06    4.81
  -5  -2  -7   21.92    7.83
   5   2   7   32.60   10.66
   5   2   8    0.00    2.27
   5   2   9    4.18    4.66
   5   2  10    0.01    3.83
   5   3 -14   35.64   11.65
   5   3 -13    4.13    6.53
   5   3 -12    0.78    1.25
   5   3 -11    0.00    2.47
   5   3 -10    2.09    3.04
   5   3  -9    2.35    2.60
   5   3  -8   28.44    9.82
   5   3  -8   33.73    8.24
   5   3  -7   -2.31    4.35
   5   3  -6   71.23   14.59
   5   3  -5    4.10    3.10
   5   3  -4   19.88    8.14
   5   3  -3   73.55   14.43
   5   3  -2  117.27   18.24
   5   3  -1   86.16   15.40
   5   3   0    1.45    3.27
   5   3   1   28.33    8.30
   5   3   2   29.92    9.69
   5   3   3   22.85    8.06
   5   3   4    1.79    2.98
   5   3   5   13.86    7.29
   5   3   6    4.01    2.99
   5   3   7    1.25    2.77
   5   3   8    5.44    6.40
   5   3   9    1.83    2.93
   5   4 -14    3.28    6.60
   5   4 -13   -7.38    5.19
   5   4 -12    0.05    1.00
   5   4 -11   -0.69    1.86
   5   4 -10    4.06    4.46
   5   4  -9   15.70    6.98
   5   4  -8   -2.04    3.43
   5   4  -7    1.12    2.60
   5   4  -6   -0.70    2.14
  -5  -4   6    1.04    3.28
  -5  -4   5   12.39    5.06
   5   4  -5    9.25    4.32
   5   4  -4    1.03    2.56
  -5  -4   4   -1.51    3.81
   5   4  -3    5.85    3.79
  -5  -4   3   12.34    5.96
   5   4  -2   24.75    8.54
  -5  -4   2   28.74    9.45
   5   4  -1   46.67   11.98
  -5  -4   1   42.06   10.60
   5   4   0   21.45    7.57
  -5  -4   0   10.66    5.08
  -5  -4  -1   51.77   12.05
   5   4   1   49.36   12.15
   5   4   2   60.67   13.41
   5   4   3   -2.87    3.57
   5   4   4    4.06    3.54
   5   4   5   36.12   11.67
   5   4   6    5.94    3.23
   5   4   7   13.34    8.39
   5   4   8   -3.12    3.83
   5   5 -14   -8.37    5.84
   5   5 -13   -5.94    4.76
   5   5 -11   -6.04    5.33
   5   5 -10    2.97    3.24
   5   5  -9   28.23   10.14
  -5  -5   9   13.81    6.49
   5   5  -8   -5.35    5.77
  -5  -5   8    0.02    1.61
   5   5  -7   14.21    7.67
  -5  -5   7    1.51    2.32
   5   5  -6   -4.61    5.14
  -5  -5   6   -2.49    3.60
  -5  -5   5   17.23    6.42
   5   5  -5   18.31    8.33
  -5  -5   4    5.96    4.73
   5   5  -4   -2.47    2.93
   5   5  -3    4.26    4.31
  -5  -5   3   -0.97    4.41
   5   5  -2    8.98    4.93
  -5  -5   2   23.99    8.09
  -5  -5   1   56.09   12.60
   5   5  -1   64.58   13.87
  -5  -5   0    6.18    5.07
   5   5   0    9.05    5.43
   5   5   1    5.55    5.58
  -5  -5  -1    0.00    2.95
  -5  -5  -2    9.09    6.45
   5   5   2    9.22    4.91
   5   5   3    2.04    2.81
  -5  -5  -3   -0.42    2.64
  -5  -5  -4    0.59    1.76
   5   5   4   -3.10    3.45
   5   5   5   17.32    9.62
   5   5   6   -5.11    6.67
  -5  -6  11    7.54    5.74
  -5  -6  10   -2.85    3.24
   5   6 -10    9.04    6.90
   5   6  -9   -3.64    4.98
  -5  -6   9  -11.92    7.24
   5   6  -8   -0.19    2.07
  -5  -6   8   10.37    6.46
   5   6  -7   -1.08    5.08
  -5  -6   7    6.57    5.84
   5   6  -6   88.11   18.18
  -5  -6   6   68.39   15.07
   5   6  -5   15.66    7.48
  -5  -6   5   17.60    7.85
   5   6  -4    4.85    5.16
  -5  -6   4    3.14    4.23
   5   6  -3   25.60    9.37
  -5  -6   3   20.72    8.18
   5   6  -2   13.93    7.31
  -5  -6   2    6.07    4.63
   5   6  -1    3.59    2.52
  -5  -6   1    0.23    1.30
   5   6   0   13.48    7.81
  -5  -6   0    4.20    5.01
   5   6   1    8.92    5.47
  -5  -6  -1    8.66    5.98
   5   6   2   31.31   10.41
  -5  -6  -2   10.50    6.53
  -5  -6  -3   -5.20    4.27
   5   6   3    4.50    3.67
   5   6   4    7.37    6.26
  -5  -6  -4    0.86    2.77
   5   6   5   -6.76    5.58
  -5  -6  -5    0.03    2.13
  -5  -7  11    1.63    4.56
  -5  -7  10    0.01    1.68
  -5  -7   9    7.82    6.24
   5   7  -8    0.56    2.98
  -5  -7   8    8.49    6.50
   5   7  -7    7.35    3.51
  -5  -7   7    1.63    2.77
  -5  -7   6    2.83    4.15
   5   7  -6   -7.42    5.74
  -5  -7   5   71.14   16.41
   5   7  -5   99.48   19.95
  -5  -7   4    1.02    2.34
   5   7  -4   -0.81    2.24
  -5  -7   3    8.35    6.71
   5   7  -3   21.97    9.14
  -5  -7   2    1.66    2.09
   5   7  -2    0.10    2.90
  -5  -7   1    0.37    3.75
   5   7  -1    5.18    4.30
  -5  -7   0   -3.79    4.01
   5   7   0    6.91    6.50
  -5  -7  -1    0.01    1.95
   5   7   1    1.60    2.35
   5   7   2    0.17    2.83
  -5  -7  -2    2.14    3.56
   5   7   3   13.58    8.25
  -5  -7  -3   -3.67    3.86
  -5  -7  -4   -3.23    3.56
  -5  -7  -5    8.84    8.54
   5   8  -5    0.83    1.63
   5   8  -4    9.84    7.41
   5   8  -3    2.37    5.34
   5   8  -2    2.35    1.63
   5   8  -1    1.65    3.03
  -6   6  10   12.03    7.93
  -6   6   9    0.87    3.71
  -6   6   8    8.93    6.69
  -6   6   7    0.67    1.80
  -6   6   6   -1.72    2.96
  -6   6   5    3.22    4.11
  -6   6   4    0.64    2.56
  -6   6   3   -2.12    4.73
  -6   6   2   -3.02    4.56
  -6   6   1    1.91    2.04
  -6   6   0   36.12   12.00
  -6   6  -1   -3.89    4.01
  -6   6  -2   35.53   11.70
  -6   6  -3    1.75    1.69
  -6   6  -4    8.18    6.51
  -6   6  -5   -0.20    1.43
  -6   6  -6    6.25    6.32
  -6   5  10    0.93    3.15
   6  -5 -10    4.54    6.22
  -6   5   9   -1.33    3.17
   6  -5  -9    0.48    2.78
  -6   5   8    1.13    2.62
   6  -5  -8   11.07    7.40
  -6   5   7    4.18    4.44
  -6   5   6   12.44    7.90
  -6   5   5   14.67    7.15
  -6   5   4    3.49    1.66
  -6   5   3    3.20    3.37
  -6   5   2   -5.07    5.20
  -6   5   1   11.49    6.97
  -6   5   0   15.88    8.06
  -6   5  -1    8.26    5.61
  -6   5  -2    9.03    6.19
  -6   5  -3   -5.42    4.58
  -6   5  -4    2.96    4.26
  -6   5  -4   13.69    7.53
  -6   5  -5   -4.23    4.14
  -6   5  -5   -3.01    3.63
  -6   5  -6   -0.01    2.27
   6  -4 -11    0.01    3.67
   6  -4 -10  -12.33    6.71
  -6   4   9   -0.48    1.45
   6  -4  -9   -3.34    3.47
  -6   4   8   -0.78    1.87
   6  -4  -8    3.79    4.19
  -6   4   7    9.87    6.03
   6  -4  -7    3.19    4.32
  -6   4   6    5.82    4.29
  -6   4   5   25.43    9.35
  -6   4   4   -5.22    5.34
  -6   4   3    1.18    2.45
  -6   4   2    1.39    2.33
  -6   4   1   19.40    8.05
  -6   4   0    9.81    6.61
  -6   4  -1   -5.77    3.93
  -6   4  -2   25.55    9.30
  -6   4  -3   45.13   12.97
  -6   4  -4    3.02    3.42
  -6   4  -4    3.92    4.56
  -6   4  -5   -0.02    0.91
  -6   4  -6    0.47    2.43
   6  -3 -12   -5.26    4.66
   6  -3 -11   -3.90    3.84
   6  -3 -10    9.57    7.21
   6  -3  -9    9.18    6.71
   6  -3  -8    3.01    4.03
   6  -3  -7   -3.44    3.18
  -6   3   7   -8.97    5.48
   6  -3  -6   -4.86    3.63
  -6   3   6    3.38    3.88
  -6   3   5   -7.86    5.90
   6  -3  -5   -3.70    3.10
  -6   3   5   -1.65    2.94
  -6   3   4    1.40    1.69
  -6   3   4   -3.43    4.75
  -6   3   3   -0.09    1.30
  -6   3   3    3.12    4.40
  -6   3   2   23.91    8.94
  -6   3   2   12.59    5.61
  -6   3   1    9.44    4.99
  -6   3   1   22.42    8.13
  -6   3   0   33.62   10.65
  -6   3   0   29.81    9.37
  -6   3  -1    4.70    3.92
  -6   3  -1    9.43    5.39
  -6   3  -2   53.87   12.90
  -6   3  -4    3.97    4.00
  -6   3  -5   19.90    8.52
  -6   3  -6   10.47    7.29
  -6   3  -7   -2.00    2.87
   6  -2 -12    5.47    4.62
   6  -2 -11   -2.77    3.32
   6  -2 -10    9.59    6.87
  -6   2  10   17.00    7.86
  -6   2   9   -6.06    4.44
   6  -2  -9   -5.04    4.00
  -6   2   8   23.34    8.73
   6  -2  -8    5.87    4.79
  -6   2   7   27.25    9.23
   6  -2  -7    7.39    4.79
  -6   2   6    1.13    1.18
   6  -2  -6    6.20    3.96
  -6   2   5    9.31    5.71
   6  -2  -5    4.29    3.98
  -6   2   4    2.38    2.95
  -6   2   3    2.71    2.52
  -6   2   2   31.51   10.02
  -6   2   1    4.83    2.69
  -6   2   0    2.53    3.79
  -6   2  -1    2.58    3.45
  -6   2  -2   -1.84    2.75
  -6   2  -3    0.65    1.76
  -6   2  -4    9.69    5.38
  -6   2  -4    6.69    4.94
  -6   2  -5   50.39   13.37
  -6   2  -5   30.75   10.50
  -6   2  -6    4.21    4.13
  -6   2  -6   -2.54    2.84
  -6   2  -7    0.01    2.06
  -6   2  -8   -4.43    4.16
   6  -1 -13    0.01    3.98
   6  -1 -12    0.17    2.75
  -6   1  11   -5.24    4.14
   6  -1 -11   -5.15    4.23
  -6   1  10    6.60    5.50
   6  -1 -10    9.69    7.12
   6  -1  -9   -5.31    5.11
  -6   1   9    1.60    3.21
   6  -1  -9    2.50    3.45
   6  -1  -8    4.74    3.69
  -6   1   8    9.91    5.52
   6  -1  -8   17.50    7.20
   6  -1  -7   -0.89    1.65
  -6   1   7   -7.99    4.95
   6  -1  -7   -7.03    4.76
   6  -1  -6    5.46    3.65
  -6   1   6   -1.52    3.51
   6  -1  -5   25.59    8.14
  -6   1   5   41.16   10.69
   6  -1  -4    2.44    2.73
  -6   1   4   -0.87    3.27
   6  -1  -3   -0.52    1.78
  -6   1   3   -6.88    5.34
   6  -1  -2    2.77    3.42
  -6   1   2    2.40    4.02
   6  -1  -1   28.48    7.91
  -6   1   1   49.96   11.72
   6  -1   0   -2.04    2.56
  -6   1   0   -0.86    3.49
   6  -1   1   27.35    7.72
  -6   1  -1   29.26    8.54
   6  -1   2   -0.27    1.57
  -6   1  -2    5.15    4.62
   6  -1   3    1.31    1.53
  -6   1  -3    3.10    3.21
  -6   1  -4    1.17    1.76
  -6   1  -4    1.53    1.53
   6  -1   5   -0.79    2.31
  -6   1  -5    0.48    1.88
  -6   1  -6   -2.27    2.82
  -6   1  -6    6.49    5.10
  -6   1  -7   -2.98    3.30
  -6   1  -8   -5.20    4.37
  -6   1  -9    0.02    3.02
   6   0 -13   10.64    9.07
   6   0 -12    0.01    3.51
  -6   0  11    3.49    3.25
   6   0 -11   -0.50    1.51
  -6   0  10    0.07    2.19
   6   0 -10   -2.73    3.74
   6   0  -9    0.00    2.16
  -6   0   9    0.24    2.52
   6   0  -8    0.36    1.65
  -6   0   8    0.21    3.46
   6   0  -7    1.54    1.68
  -6   0   7   -3.65    3.37
   6   0  -6    7.44    4.16
  -6   0   6    9.67    5.14
   6   0  -5    0.72    1.36
  -6   0   5    1.04    2.03
   6   0  -4   32.49    9.24
  -6   0   4   27.86    8.41
   6   0  -3   47.79   10.77
  -6   0   3   45.60   10.80
   6   0  -2    5.28    3.56
  -6   0   2    7.35    5.17
   6   0  -1   11.54    5.85
  -6   0   1    8.64    4.95
   6   0   0   12.73    5.92
  -6   0   0   15.77    5.81
   6   0   1    3.23    3.20
  -6   0  -1   10.13    3.49
   6   0   2    3.14    2.69
  -6   0  -2   -2.83    2.86
   6   0   3    4.85    3.99
  -6   0  -3    2.85    2.79
   6   0   4   -0.74    2.50
  -6   0  -4   -3.86    3.39
   6   0   5    1.64    3.31
  -6   0  -5    1.01    2.93
  -6   0  -5    1.06    1.65
   6   0   6    5.51    4.95
  -6   0  -6   13.12    6.20
   6   0   7    9.51    6.40
   6   0   8    0.01    1.28
   6   0   9   -3.58    3.69
   6   1 -13    3.18    4.27
   6   1 -12    4.84    4.09
  -6  -1  11   12.10    6.52
   6   1 -11    0.00    3.27
   6   1 -10    3.20    4.37
  -6  -1  10    4.33    3.91
   6   1  -9   -2.35    3.05
  -6  -1   9   -1.99    2.40
   6   1  -8   -0.24    1.72
  -6  -1   8    4.37    3.97
   6   1  -7    2.39    4.06
  -6  -1   7   13.63    6.66
   6   1  -6   21.76    8.24
   6   1  -5    2.29    1.43
   6   1  -4   14.30    6.82
   6   1  -3    3.65    2.54
   6   1  -2    1.28    2.15
   6   1  -1    8.96    4.80
   6   1   0    1.69    1.31
  -6  -1  -1    1.00    2.67
   6   1   1    9.36    5.02
  -6  -1  -2    9.77    5.21
   6   1   2    9.68    5.34
  -6  -1  -3    6.44    4.14
   6   1   3   12.09    6.00
  -6  -1  -4    0.07    1.10
   6   1   4    0.61    3.94
  -6  -1  -5    1.83    1.56
   6   1   5   -2.64    3.09
  -6  -1  -6    5.49    4.40
   6   1   6    0.50    1.64
   6   1   7   -3.91    3.89
   6   1   8    0.01    3.81
   6   2 -11   -2.11    3.11
  -6  -2  11   -3.84    3.37
   6   2 -10    4.80    5.04
   6   2  -9   -6.18    4.90
   6   2  -8    8.33    5.92
   6   2  -7    7.55    5.24
   6   2  -6   -2.57    3.24
   6   2  -5   10.59    6.60
   6   2  -4   28.53    9.29
   6   2  -3    1.14    3.02
   6   2  -2   45.55   11.98
   6   2  -1    1.16    2.13
   6   2   0   -0.35    2.62
   6   2   1    2.03    2.43
   6   2   2   -3.56    3.52
   6   2   3   -1.11    2.16
   6   2   4   -6.59    4.92
  -6  -2  -5   -0.51    1.32
   6   2   5    1.61    3.80
  -6  -2  -6   -2.82    2.84
   6   2   6    7.67    6.16
   6   2   7   -3.58    3.88
   6   3 -11   -4.92    4.79
   6   3 -10   -3.79    4.42
   6   3  -9    5.73    5.70
   6   3  -8   13.21    7.53
   6   3  -7   11.85    6.97
   6   3  -6   20.44    8.43
   6   3  -5    8.73    5.15
   6   3  -4   22.60    9.14
   6   3  -3   -0.14    2.38
   6   3  -2   41.55   12.06
   6   3  -1   -2.10    2.85
   6   3   0    7.44    5.67
   6   3   1   10.63    6.70
   6   3   2    8.73    5.78
   6   3   3    0.01    3.08
   6   3   4   10.15    6.47
   6   3   5   -7.99    5.78
   6   3   6   -0.01    2.72
   6   4 -10   -9.42    6.55
   6   4  -9    0.01    2.37
   6   4  -8    8.29    6.31
   6   4  -7   -2.20    3.21
   6   4  -6   18.19    8.34
   6   4  -5   17.08    8.47
   6   4  -4    1.19    3.62
   6   4  -3    7.08    5.02
   6   4  -2   60.72   15.08
   6   4  -1   11.91    5.63
   6   4   0   55.05   14.27
   6   4   1   10.95    6.59
   6   4   2   17.81    8.97
   6   4   3   -2.18    4.73
   6   4   4    0.44    1.97
   6   5  -8   21.24   10.66
   6   5  -7   10.05    6.42
   6   5  -6   60.25   16.01
   6   5  -5    3.19    3.34
   6   5  -4   21.97    9.24
   6   5  -3   14.72    7.91
   6   5  -2   50.47   13.72
   6   5  -1    5.19    2.90
   6   5   0   20.03    8.68
   6   5   1   18.84    8.32
   6   5   2   -3.35    5.11
  -6  -6   5   92.22   19.17
   6   6  -4    4.25    4.71
  -6  -6   4   -1.36    3.13
   6   6  -3   36.17   12.51
  -6  -6   3   28.37   10.67
  -6  -6   2    2.36    3.53
   6   6  -2    3.17    4.01
  -6  -6   1    0.82    2.71
  -7   3   6   18.15    8.88
  -7   3   5   18.74    9.38
  -7   3   4  -11.53    6.72
  -7   3   3    9.08    6.97
  -7   3   2    0.13    4.07
  -7   3   1    0.01    3.40
  -7   3   0    1.88    2.28
  -7   3  -1    6.54    5.01
  -7   2   9    5.91    5.65
  -7   2   8    1.64    2.43
  -7   2   7    4.00    4.08
  -7   2   6   13.68    7.46
  -7   2   5    9.68    7.05
  -7   2   4    5.09    5.96
  -7   2   3    1.36    1.34
  -7   2   2   14.56    8.56
  -7   2   1   -6.50    5.07
  -7   2   0   12.36    6.97
  -7   2  -1    0.03    2.85
  -7   2  -2    0.27    2.93
  -7   2  -3    2.58    3.35
  -7   2  -4   16.12    9.15
  -7   1  10    0.04    1.33
  -7   1   9    2.85    2.70
  -7   1   8    2.87    2.98
  -7   1   7    5.89    4.70
  -7   1   6    9.51    6.38
  -7   1   5    0.85    3.74
  -7   1   4   31.93   10.79
  -7   1   3   10.37    5.93
  -7   1   2   -2.34    3.14
  -7   1   1   -0.01    3.67
  -7   1   0   -7.42    5.27
  -7   1  -1   -4.22    3.98
  -7   1  -2   -4.32    4.03
  -7   1  -3   14.00    8.27
  -7   1  -4   12.05    8.04
   7   0 -11    3.09    6.51
   7   0 -10  -10.93    6.50
  -7   0  10    0.69    2.09
   7   0  -9    2.97    4.77
  -7   0   9    6.20    5.62
   7   0  -8    1.88    4.38
  -7   0   8    2.88    4.49
   7   0  -7   -3.64    3.61
  -7   0   7    2.81    4.15
   7   0  -6    1.18    3.06
  -7   0   6    8.10    5.97
   7   0  -5   10.32    6.79
  -7   0   5   34.28   10.79
   7   0  -4    3.79    4.48
  -7   0   4   -8.87    5.67
   7   0  -3    2.26    3.40
  -7   0   3    0.10    1.18
   7   0  -2    1.09    2.72
  -7   0   2    0.00    1.39
   7   0  -1    1.32    1.89
  -7   0   1    7.56    5.47
   7   0   0    6.94    5.45
  -7   0   0   14.09    7.38
  -7   0  -1    0.23    0.71
  -7   0  -2    6.61    5.53
  -7   0  -3    3.90    5.15
  -7   0  -4    3.00    4.45
   7   1 -10   -7.02    5.44
   7   1  -9   13.97    7.52
  -7  -1   9   32.64   11.54
   7   1  -8    0.79    2.07
  -7  -1   8    3.56    4.89
   7   1  -7    5.81    6.89
  -7  -1   7   16.29    7.16
   7   1  -6    1.26    3.59
  -7  -1   6    7.73    4.92
   7   1  -5   -1.38    2.42
  -7  -1   5   -5.45    4.39
   7   1  -4    5.41    5.45
  -7  -1   4  -13.57    6.78
   7   1  -3    4.61    4.79
  -7  -1   3    0.00    2.24
  -7  -1   2    0.00    1.04
   7   1  -2   -0.03    1.06
  -7  -1   1   30.52   10.32
   7   1  -1    5.09    4.95
  -7  -1   0    0.00    1.99
   7   1   0   -6.47    4.67
  -7  -1  -1   28.32   10.22
   7   1   1   18.45    9.57
  -7  -1  -2    7.78    5.44
   7   1   2    0.02    1.62
  -7  -1  -3   12.03    7.55
   7   1   3    6.31    4.94
   7   1   4    0.81    4.35
   7   2  -8   -0.86    2.18
   7   2  -7    6.00    6.72
  -7  -2   7    6.18    4.46
   7   2  -6  -11.29    6.71
   7   2  -5   -2.67    3.29
   7   2  -4    3.60    5.42
   7   2  -3    0.68    1.88
   7   2  -2    0.84    4.36
   7   2  -1   -0.01    2.49
   7   2   0    2.13    3.73
  -7  -2  -1   -5.39    4.34
   7   2   1   -8.78    5.74
   7   2   2    4.47    6.12
   7   2   3  -12.87    7.27
   7   3  -6    9.58    7.61
   7   3  -5  -17.59    8.51
   7   3  -4   -0.37    6.46
   7   3  -3   -4.86    4.35
   7   3  -2   -0.83    2.08
   7   3  -1    2.90    4.68
   7   3   0    5.33    6.48
   0   0   0    0.00    0.00


TITL exp_936 in P-1
REM P-1 (#2 in standard setting)
CELL 0.71073   5.436793   8.606014  12.678544  93.1982 100.0843  92.8718
ZERR    3.00   0.000572   0.000747   0.001095   0.0071   0.0080   0.0078
LATT  1
SFAC C H N O
UNIT 33.00 30.00 3.00 3.00
TREF
HKLF 4
END
_computing_structure_solution     'SHELXT 2018/2 (Sheldrick, 2018)'
;
_shelx_hkl_checksum              39558
_olex2_submission_special_instructions 'No special instructions were received'
_oxdiff_exptl_absorpt_empirical_details
;
Empirical correction (ABSPACK) includes:
- Absorption correction using spherical harmonics
- Frame scaling
;
_oxdiff_exptl_absorpt_empirical_full_max 1.134
_oxdiff_exptl_absorpt_empirical_full_min 0.857
loop_
_space_group_symop_operation_xyz
'x, y, z'
'-x, -y, -z'
loop_
_atom_site_label
_atom_site_type_symbol
_atom_site_fract_x
_atom_site_fract_y
_atom_site_fract_z
_atom_site_U_iso_or_equiv
_atom_site_adp_type
_atom_site_occupancy
_atom_site_site_symmetry_order
_atom_site_calc_flag
_atom_site_refinement_flags_posn
_atom_site_refinement_flags_adp
_atom_site_refinement_flags_occupancy
_atom_site_disorder_assembly
_atom_site_disorder_group
O15 O 0.8285(3) 0.47213(19) 0.66283(14) 0.0415(4) Uani 1 1 d . . . . .
F1 F 0.5247(3) 0.23944(17) 0.70977(13) 0.0636(5) Uani 1 1 d . . . . .
F2 F 0.3979(3) 0.3721(2) 0.83514(13) 0.0711(5) Uani 1 1 d . . . . .
F3 F 0.7835(3) 0.31696(19) 0.85252(14) 0.0749(6) Uani 1 1 d . . . . .
O4 O 1.0486(3) 0.8423(2) 0.75911(15) 0.0499(5) Uani 1 1 d . . . . .
O14 O 0.3951(4) 0.7199(2) 0.50992(14) 0.0554(5) Uani 1 1 d . . . . .
N1 N 0.6630(4) 0.8088(2) 0.65828(15) 0.0384(5) Uani 1 1 d . . . . .
C10 C 0.6544(4) 0.5089(3) 0.73023(17) 0.0360(5) Uani 1 1 d . . . . .
C12 C 0.4890(4) 0.7044(3) 0.60440(18) 0.0382(5) Uani 1 1 d . . . . .
C5 C 0.7968(4) 0.7989(3) 0.76830(18) 0.0367(5) Uani 1 1 d . . . . .
C9 C 0.7857(5) 0.6349(3) 0.81421(18) 0.0386(5) Uani 1 1 d . . . . .
C11 C 0.4179(4) 0.5686(3) 0.66523(19) 0.0404(6) Uani 1 1 d . . . . .
H11A H 0.331198 0.485896 0.615341 0.048 Uiso 1 1 calc R U . . .
H11B H 0.306279 0.601144 0.713031 0.048 Uiso 1 1 calc R U . . .
C13 C 0.5902(5) 0.3597(3) 0.7823(2) 0.0477(6) Uani 1 1 d . . . . .
C6 C 0.7031(5) 0.9083(3) 0.84983(19) 0.0482(6) Uani 1 1 d . . . . .
H6A H 0.789637 1.010568 0.855450 0.058 Uiso 1 1 calc R U . . .
H6B H 0.524612 0.919326 0.829734 0.058 Uiso 1 1 calc R U . . .
C2 C 0.7985(6) 0.9203(3) 0.6031(2) 0.0536(7) Uani 1 1 d . . . . .
C8 C 0.6797(6) 0.6605(3) 0.9181(2) 0.0578(8) Uani 1 1 d . . . . .
H8A H 0.498676 0.644832 0.904318 0.069 Uiso 1 1 calc R U . . .
H8B H 0.748930 0.590457 0.971384 0.069 Uiso 1 1 calc R U . . .
C7 C 0.7621(6) 0.8295(3) 0.9546(2) 0.0600(8) Uani 1 1 d . . . . .
H7A H 0.667247 0.870116 1.006997 0.072 Uiso 1 1 calc R U . . .
H7B H 0.939274 0.841302 0.984666 0.072 Uiso 1 1 calc R U . . .
C3 C 1.0343(6) 0.9634(3) 0.6853(3) 0.0565(8) Uani 1 1 d . . . . .
H9 H 0.960(4) 0.606(3) 0.8321(18) 0.036(6) Uiso 1 1 d . . . . .
H2A H 0.833(5) 0.867(3) 0.540(2) 0.059(8) Uiso 1 1 d . . . . .
H3A H 1.022(6) 1.069(4) 0.719(2) 0.076(10) Uiso 1 1 d . . . . .
H3B H 1.187(6) 0.963(4) 0.652(2) 0.079(10) Uiso 1 1 d . . . . .
H2B H 0.698(5) 1.009(4) 0.586(2) 0.068(9) Uiso 1 1 d . . . . .
H15 H 0.750(7) 0.413(4) 0.605(3) 0.100(13) Uiso 1 1 d . . . . .
loop_
_atom_site_aniso_label
_atom_site_aniso_U_11
_atom_site_aniso_U_22
_atom_site_aniso_U_33
_atom_site_aniso_U_23
_atom_site_aniso_U_13
_atom_site_aniso_U_12
O15 0.0405(9) 0.0412(10) 0.0432(10) -0.0054(8) 0.0114(7) 0.0012(7)
F1 0.0938(13) 0.0331(8) 0.0614(10) -0.0028(7) 0.0144(9) -0.0165(8)
F2 0.0951(13) 0.0569(11) 0.0699(12) 0.0085(9) 0.0427(10) -0.0147(9)
F3 0.1007(14) 0.0440(9) 0.0707(12) 0.0185(8) -0.0139(10) 0.0006(9)
O4 0.0403(9) 0.0396(10) 0.0684(12) 0.0117(8) 0.0048(8) -0.0034(7)
O14 0.0760(13) 0.0478(11) 0.0354(10) -0.0001(8) -0.0084(9) 0.0017(9)
N1 0.0478(11) 0.0321(10) 0.0343(10) 0.0048(8) 0.0055(8) -0.0029(8)
C10 0.0407(12) 0.0320(11) 0.0357(12) -0.0012(9) 0.0100(9) -0.0012(9)
C12 0.0434(12) 0.0350(12) 0.0350(12) -0.0038(9) 0.0048(10) 0.0050(10)
C5 0.0356(11) 0.0318(11) 0.0397(13) 0.0006(9) 0.0003(9) -0.0032(9)
C9 0.0474(14) 0.0327(12) 0.0337(12) 0.0015(9) 0.0028(10) 0.0009(10)
C11 0.0390(12) 0.0378(13) 0.0429(13) 0.0001(10) 0.0056(10) -0.0036(10)
C13 0.0638(17) 0.0335(13) 0.0439(14) 0.0006(10) 0.0079(12) -0.0067(11)
C6 0.0578(16) 0.0403(14) 0.0429(14) -0.0035(11) 0.0007(11) 0.0057(12)
C2 0.0709(19) 0.0382(15) 0.0519(18) 0.0094(12) 0.0129(14) -0.0078(14)
C8 0.093(2) 0.0444(15) 0.0369(14) -0.0019(11) 0.0170(13) -0.0071(14)
C7 0.092(2) 0.0468(16) 0.0388(15) -0.0059(12) 0.0088(14) 0.0030(15)
C3 0.0532(17) 0.0385(15) 0.080(2) 0.0167(14) 0.0162(15) -0.0062(12)
loop_
_atom_type_symbol
_atom_type_description
_atom_type_scat_dispersion_real
_atom_type_scat_dispersion_imag
_atom_type_scat_source
C C 0.0033 0.0016 'International Tables Vol C Tables 4.2.6.8 and 6.1.1.4'
H H 0.0000 0.0000 'International Tables Vol C Tables 4.2.6.8 and 6.1.1.4'
F F 0.0171 0.0103 'International Tables Vol C Tables 4.2.6.8 and 6.1.1.4'
N N 0.0061 0.0033 'International Tables Vol C Tables 4.2.6.8 and 6.1.1.4'
O O 0.0106 0.0060 'International Tables Vol C Tables 4.2.6.8 and 6.1.1.4'
loop_
_geom_angle_atom_site_label_1
_geom_angle_atom_site_label_2
_geom_angle_atom_site_label_3
_geom_angle
_geom_angle_site_symmetry_1
_geom_angle_site_symmetry_3
_geom_angle_publ_flag
C10 O15 H15 109(2) . . ?
C5 O4 C3 106.19(18) . . ?
C12 N1 C5 125.99(19) . . ?
C12 N1 C2 121.7(2) . . ?
C2 N1 C5 109.71(19) . . ?
O15 C10 C9 106.51(18) . . ?
O15 C10 C11 110.70(18) . . ?
O15 C10 C13 107.31(19) . . ?
C11 C10 C9 110.60(18) . . ?
C13 C10 C9 111.40(18) . . ?
C13 C10 C11 110.22(19) . . ?
O14 C12 N1 121.0(2) . . ?
O14 C12 C11 122.8(2) . . ?
N1 C12 C11 116.26(19) . . ?
O4 C5 N1 102.28(18) . . ?
O4 C5 C9 109.50(18) . . ?
O4 C5 C6 111.35(19) . . ?
N1 C5 C9 115.76(18) . . ?
N1 C5 C6 113.10(18) . . ?
C6 C5 C9 104.97(19) . . ?
C10 C9 C5 112.48(18) . . ?
C10 C9 C8 117.9(2) . . ?
C10 C9 H9 105.6(13) . . ?
C5 C9 H9 105.9(14) . . ?
C8 C9 C5 105.0(2) . . ?
C8 C9 H9 109.3(13) . . ?
C10 C11 H11A 109.8 . . ?
C10 C11 H11B 109.8 . . ?
C12 C11 C10 109.32(18) . . ?
C12 C11 H11A 109.8 . . ?
C12 C11 H11B 109.8 . . ?
H11A C11 H11B 108.3 . . ?
F1 C13 F2 105.8(2) . . ?
F1 C13 C10 111.9(2) . . ?
F2 C13 C10 113.3(2) . . ?
F3 C13 F1 106.5(2) . . ?
F3 C13 F2 106.8(2) . . ?
F3 C13 C10 112.0(2) . . ?
C5 C6 H6A 110.9 . . ?
C5 C6 H6B 110.9 . . ?
H6A C6 H6B 108.9 . . ?
C7 C6 C5 104.20(19) . . ?
C7 C6 H6A 110.9 . . ?
C7 C6 H6B 110.9 . . ?
N1 C2 C3 102.4(2) . . ?
N1 C2 H2A 107.7(18) . . ?
N1 C2 H2B 109.7(18) . . ?
C3 C2 H2A 112.4(17) . . ?
C3 C2 H2B 112.9(18) . . ?
H2A C2 H2B 111(2) . . ?
C9 C8 H8A 111.1 . . ?
C9 C8 H8B 111.1 . . ?
H8A C8 H8B 109.1 . . ?
C7 C8 C9 103.3(2) . . ?
C7 C8 H8A 111.1 . . ?
C7 C8 H8B 111.1 . . ?
C6 C7 C8 101.4(2) . . ?
C6 C7 H7A 111.5 . . ?
C6 C7 H7B 111.5 . . ?
C8 C7 H7A 111.5 . . ?
C8 C7 H7B 111.5 . . ?
H7A C7 H7B 109.3 . . ?
O4 C3 C2 105.2(2) . . ?
O4 C3 H3A 113.7(18) . . ?
O4 C3 H3B 107.9(19) . . ?
C2 C3 H3A 109.2(17) . . ?
C2 C3 H3B 111.7(18) . . ?
H3A C3 H3B 109(3) . . ?
loop_
_geom_bond_atom_site_label_1
_geom_bond_atom_site_label_2
_geom_bond_distance
_geom_bond_site_symmetry_2
_geom_bond_publ_flag
O15 C10 1.418(3) . ?
O15 H15 0.89(4) . ?
F1 C13 1.337(3) . ?
F2 C13 1.342(3) . ?
F3 C13 1.334(3) . ?
O4 C5 1.427(3) . ?
O4 C3 1.435(3) . ?
O14 C12 1.235(3) . ?
N1 C12 1.338(3) . ?
N1 C5 1.465(3) . ?
N1 C2 1.462(3) . ?
C10 C9 1.532(3) . ?
C10 C11 1.529(3) . ?
C10 C13 1.529(3) . ?
C12 C11 1.506(3) . ?
C5 C9 1.558(3) . ?
C5 C6 1.529(3) . ?
C9 C8 1.537(3) . ?
C9 H9 0.98(2) . ?
C11 H11A 0.9700 . ?
C11 H11B 0.9700 . ?
C6 H6A 0.9700 . ?
C6 H6B 0.9700 . ?
C6 C7 1.517(4) . ?
C2 C3 1.519(4) . ?
C2 H2A 0.95(3) . ?
C2 H2B 0.97(3) . ?
C8 H8A 0.9700 . ?
C8 H8B 0.9700 . ?
C8 C7 1.523(4) . ?
C7 H7A 0.9700 . ?
C7 H7B 0.9700 . ?
C3 H3A 0.99(3) . ?
C3 H3B 0.99(3) . ?
loop_
_geom_torsion_atom_site_label_1
_geom_torsion_atom_site_label_2
_geom_torsion_atom_site_label_3
_geom_torsion_atom_site_label_4
_geom_torsion
_geom_torsion_site_symmetry_1
_geom_torsion_site_symmetry_2
_geom_torsion_site_symmetry_3
_geom_torsion_site_symmetry_4
_geom_torsion_publ_flag
O15 C10 C9 C5 76.9(2) . . . . ?
O15 C10 C9 C8 -160.7(2) . . . . ?
O15 C10 C11 C12 -54.9(2) . . . . ?
O15 C10 C13 F1 -50.7(3) . . . . ?
O15 C10 C13 F2 -170.17(18) . . . . ?
O15 C10 C13 F3 68.9(3) . . . . ?
O4 C5 C9 C10 -109.5(2) . . . . ?
O4 C5 C9 C8 121.0(2) . . . . ?
O4 C5 C6 C7 -92.3(2) . . . . ?
O14 C12 C11 C10 136.8(2) . . . . ?
N1 C12 C11 C10 -42.7(3) . . . . ?
N1 C5 C9 C10 5.4(3) . . . . ?
N1 C5 C9 C8 -124.1(2) . . . . ?
N1 C5 C6 C7 153.2(2) . . . . ?
N1 C2 C3 O4 17.8(3) . . . . ?
C10 C9 C8 C7 -154.3(2) . . . . ?
C12 N1 C5 O4 135.7(2) . . . . ?
C12 N1 C5 C9 16.8(3) . . . . ?
C12 N1 C5 C6 -104.4(3) . . . . ?
C12 N1 C2 C3 -157.6(2) . . . . ?
C5 O4 C3 C2 -35.4(3) . . . . ?
C5 N1 C12 O14 -176.6(2) . . . . ?
C5 N1 C12 C11 2.9(3) . . . . ?
C5 N1 C2 C3 5.2(3) . . . . ?
C5 C9 C8 C7 -28.1(3) . . . . ?
C5 C6 C7 C8 -43.7(3) . . . . ?
C9 C10 C11 C12 62.9(2) . . . . ?
C9 C10 C13 F1 -166.9(2) . . . . ?
C9 C10 C13 F2 73.6(3) . . . . ?
C9 C10 C13 F3 -47.4(3) . . . . ?
C9 C5 C6 C7 26.1(2) . . . . ?
C9 C8 C7 C6 44.3(3) . . . . ?
C11 C10 C9 C5 -43.5(3) . . . . ?
C11 C10 C9 C8 79.0(3) . . . . ?
C11 C10 C13 F1 70.0(3) . . . . ?
C11 C10 C13 F2 -49.6(3) . . . . ?
C11 C10 C13 F3 -170.5(2) . . . . ?
C13 C10 C9 C5 -166.4(2) . . . . ?
C13 C10 C9 C8 -44.0(3) . . . . ?
C13 C10 C11 C12 -173.49(19) . . . . ?
C6 C5 C9 C10 130.9(2) . . . . ?
C6 C5 C9 C8 1.4(2) . . . . ?
C2 N1 C12 O14 -16.7(4) . . . . ?
C2 N1 C12 C11 162.9(2) . . . . ?
C2 N1 C5 O4 -26.2(3) . . . . ?
C2 N1 C5 C9 -145.2(2) . . . . ?
C2 N1 C5 C6 93.7(3) . . . . ?
C3 O4 C5 N1 37.7(2) . . . . ?
C3 O4 C5 C9 161.0(2) . . . . ?
C3 O4 C5 C6 -83.4(2) . . . . ?
