#------------------------------------------------------------------------------
#$Date: 2016-02-16 03:10:39 +0200 (Tue, 16 Feb 2016) $
#$Revision: 176453 $
#$URL: svn://www.crystallography.net/cod/cif/7/20/67/7206709.cif $
#------------------------------------------------------------------------------
#
# This file is available in the Crystallography Open Database (COD),
# http://www.crystallography.net/
#
# All data on this site have been placed in the public domain by the
# contributors.
#
data_7206709
loop_
_publ_author_name
'Malinowski, Przemys\/law J.'
'Mazej, Zoran'
'Derzsi, Mariana'
'Jagli\<ci\'c, Zvonko'
'Szyd\/lowska, Jadwiga'
'Gilewski, Tomasz'
'Grochala, Wojciech'
_publ_section_title
;
 Silver(ii) triflate with one-dimensional [Ag(ii)(SO3CF3)4/2]\\infty
 chains hosting antiferromagnetism
;
_journal_issue                   22
_journal_name_full               CrystEngComm
_journal_page_first              6871
_journal_paper_doi               10.1039/c1ce05712j
_journal_volume                  13
_journal_year                    2011
_chemical_formula_moiety         'Ag S2 O6 C2 F6'
_chemical_formula_structural     Ag(SO3CF3)2
_chemical_formula_sum            'C2 Ag F6 O6 S2'
_chemical_formula_weight         406
_chemical_name_common            'Silver (II) triflate'
_chemical_name_systematic        'Silver (II) trifluoromethanesulfonate'
_space_group_IT_number           2
_symmetry_cell_setting           triclinic
_symmetry_Int_Tables_number      2
_symmetry_space_group_name_Hall  '-P 1'
_symmetry_space_group_name_H-M   'P -1'
_cell_angle_alpha                79.955(14)
_cell_angle_beta                 75.771(16)
_cell_angle_gamma                61.571(17)
_cell_formula_units_Z            1
_cell_length_a                   4.9117(11)
_cell_length_b                   5.1136(10)
_cell_length_c                   11.033(3)
_cell_measurement_temperature    293
_cell_volume                     235.68(10)
_computing_cell_refinement       unknown
_computing_data_collection       unknown
_computing_data_reduction        unknown
_computing_molecular_graphics    unknown
_computing_structure_solution    unknown
_diffrn_ambient_temperature      293
_diffrn_measurement_device_type  'Bruker D8 DISCOVER'
_diffrn_radiation_type           'Cu K\a'
_diffrn_radiation_wavelength     1.5418
_exptl_absorpt_coefficient_mu    22.544
_exptl_crystal_density_diffrn    2.8596
_exptl_crystal_F_000             364
_pd_char_colour                  brown
_pd_meas_2theta_range_inc        0.018
_pd_meas_2theta_range_max        74.997
_pd_meas_2theta_range_min        5.000
_pd_meas_number_of_points        3797
_pd_proc_2theta_range_inc        0.018
_pd_proc_2theta_range_max        74.997
_pd_proc_2theta_range_min        6.715
_pd_proc_ls_background_function  '15 Legendre polynoms'
_pd_proc_ls_pref_orient_corr     none
_pd_proc_ls_profile_function     Pseudo-Voigt
_pd_proc_ls_prof_R_factor        0.0381
_pd_proc_ls_prof_wR_expected     0.0227
_pd_proc_ls_prof_wR_factor       0.0500
_refine_diff_density_max         0.44
_refine_diff_density_min         -0.48
_refine_ls_goodness_of_fit_all   2.20
_refine_ls_number_constraints    0
_refine_ls_number_parameters     63
_refine_ls_number_restraints     19
_refine_ls_R_factor_all          0.0393
_refine_ls_shift/su_max          0.0354
_refine_ls_shift/su_mean         0.0066
_refine_ls_weighting_scheme      sigma
_cod_data_source_file            c1ce05712j.txt
_cod_data_source_block           I
_cod_original_formula_sum        'C2 Ag1 F6 O6 S2'
_cod_database_code               7206709
loop_
_symmetry_equiv_pos_site_id
_symmetry_equiv_pos_as_xyz
1 x,y,z
2 -x,-y,-z
loop_
_atom_site_label
_atom_site_type_symbol
_atom_site_fract_x
_atom_site_fract_y
_atom_site_fract_z
_atom_site_adp_type
_atom_site_U_iso_or_equiv
_atom_site_symmetry_multiplicity
_atom_site_occupancy
_atom_site_calc_flag
Ag Ag 0.5 0.5 0.5 Uiso 0.027(6) 1 1 d
S S 0.788(5) 0.751(3) 0.6607(12) Uiso 0.024(10) 2 1 d
O1 O 1.089(6) 0.499(6) 0.612(3) Uiso 0.014(10) 2 1 d
O2 O 0.521(6) 0.749(7) 0.624(3) Uiso 0.014(10) 2 1 d
O3 O 0.797(9) 1.031(5) 0.622(2) Uiso 0.014(10) 2 1 d
C C 0.727(5) 0.703(4) 0.8287(13) Uiso 0.03 2 1 d
F1 F 0.476(7) 0.929(6) 0.8752(19) Uiso 0.065(13) 2 1 d
F2 F 0.691(8) 0.466(6) 0.865(2) Uiso 0.065(13) 2 1 d
F3 F 0.970(7) 0.676(7) 0.866(2) Uiso 0.065(13) 2 1 d
loop_
_atom_type_symbol
_atom_type_scat_dispersion_real
_atom_type_scat_dispersion_imag
_atom_type_scat_source
_atom_type_scat_Cromer_Mann_a1
_atom_type_scat_Cromer_Mann_b1
_atom_type_scat_Cromer_Mann_a2
_atom_type_scat_Cromer_Mann_b2
_atom_type_scat_Cromer_Mann_a3
_atom_type_scat_Cromer_Mann_b3
_atom_type_scat_Cromer_Mann_a4
_atom_type_scat_Cromer_Mann_b4
_atom_type_scat_Cromer_Mann_c
C 0.018 0.009 'International Tables Vol C tables 4.2.6.8 and 6.1.1.4' 2.31
20.843901 1.02 10.2075 1.5886 0.5687 0.865 51.651199 0.2156
Ag 0.131 4.282 'International Tables Vol C tables 4.2.6.8 and 6.1.1.4' 19.2808
0.6446 16.688499 7.4726 4.8045 24.6605 1.0463 99.815598 5.179
F 0.073 0.053 'International Tables Vol C tables 4.2.6.8 and 6.1.1.4' 3.5392
10.2825 2.6412 4.2944 1.517 0.2615 1.0243 26.1476 0.2776
O 0.049 0.032 'International Tables Vol C tables 4.2.6.8 and 6.1.1.4' 3.0485
13.2771 2.2868 5.7011 1.5463 0.3239 0.867 32.908901 0.2508
S 0.333 0.557 'International Tables Vol C tables 4.2.6.8 and 6.1.1.4' 6.9053
1.4679 5.2034 22.215099 1.4379 0.2536 1.5863 56.172001 0.8669
loop_
_geom_angle_atom_site_label_1
_geom_angle_atom_site_label_2
_geom_angle_atom_site_label_3
_geom_angle_site_symmetry_1
_geom_angle_site_symmetry_3
_geom_angle
_geom_angle_publ_flag
O1 Ag O1 1_455 2_766 180.0(5) yes
O1 Ag O2 1_455 . 91.5(13) yes
O1 Ag O2 1_455 2_666 88.5(13) yes
O1 Ag O3 1_455 1_545 86.7(11) yes
O1 Ag O3 1_455 2_676 93.3(11) yes
O1 Ag O2 2_766 . 88.5(13) yes
O1 Ag O2 2_766 2_666 91.5(13) yes
O1 Ag O3 2_766 1_545 93.3(11) yes
O1 Ag O3 2_766 2_676 86.7(11) yes
O2 Ag O2 . 2_666 180.0(5) yes
O2 Ag O3 . 1_545 90.5(11) yes
O2 Ag O3 . 2_676 89.5(11) yes
O2 Ag O3 2_666 1_545 89.5(11) yes
O2 Ag O3 2_666 2_676 90.5(11) yes
O3 Ag O3 1_545 2_676 180.0(5) yes
O1 S O2 . . 112(2) yes
O1 S O3 . . 111(2) yes
O1 S C . . 107.3(15) yes
O2 S O3 . . 111(2) yes
O2 S C . . 106.7(18) yes
O3 S C . . 108.7(17) yes
Ag O1 S 1_655 . 130(2) yes
Ag O2 S . . 132.1(16) yes
Ag O3 S 1_565 . 137(3) yes
S C F1 . . 109.5(15) yes
S C F2 . . 109.4(19) yes
S C F3 . . 109.3(19) yes
F1 C F2 . . 109(3) yes
F1 C F3 . . 111(3) yes
F2 C F3 . . 109(2) yes
loop_
_geom_bond_atom_site_label_1
_geom_bond_atom_site_label_2
_geom_bond_site_symmetry_2
_geom_bond_distance
_geom_bond_publ_flag
Ag O1 1_455 2.09(3) yes
Ag O1 2_766 2.09(3) yes
Ag O2 . 2.07(4) yes
Ag O2 2_666 2.07(4) yes
Ag O3 1_545 2.49(2) yes
Ag O3 2_676 2.49(2) yes
S O1 . 1.47(3) yes
S O2 . 1.47(5) yes
S O3 . 1.44(4) yes
S C . 1.795(18) yes
C F1 . 1.29(3) yes
C F2 . 1.29(4) yes
C F3 . 1.29(5) yes
loop_
_pd_proc_point_id
_pd_proc_2theta_corrected
_pd_proc_intensity_net
_pd_calc_intensity_net
_pd_proc_ls_weight
1 6.7682 4631.00 4817.62 68.05
2 6.7866 4711.00 4789.63 68.64
3 6.8051 4436.00 4762.00 66.60
4 6.8235 4621.00 4735.01 67.98
5 6.8419 4546.00 4708.51 67.42
6 6.8604 4662.00 4682.34 68.28
7 6.8788 4486.00 4656.79 66.98
8 6.8973 4616.00 4631.56 67.94
9 6.9157 4506.00 4606.92 67.13
10 6.9341 4421.00 4632.63 66.49
11 6.9526 4434.00 4634.76 66.59
12 6.9710 4363.00 4613.57 66.05
13 6.9895 4460.00 4592.78 66.78
14 7.0079 4408.00 4572.61 66.39
15 7.0263 4330.00 4552.95 65.80
16 7.0448 4353.00 4533.70 65.98
17 7.0632 4444.00 4515.06 66.66
18 7.0817 4382.00 4496.83 66.20
19 7.1001 4400.00 4479.21 66.33
20 7.1185 4337.00 4462.10 65.86
21 7.1370 4373.00 4445.41 66.13
22 7.1554 4308.00 4429.32 65.64
23 7.1739 4232.00 4413.67 65.05
24 7.1923 4293.00 4398.63 65.52
25 7.2107 4293.00 4384.11 65.52
26 7.2292 4274.00 4370.06 65.38
27 7.2476 4203.00 4356.63 64.83
28 7.2661 4305.00 4343.67 65.61
29 7.2845 4283.00 4331.36 65.44
30 7.3029 4273.00 4319.61 65.37
31 7.3214 4303.00 4308.40 65.60
32 7.3398 4263.00 4297.86 65.29
33 7.3582 4263.00 4287.95 65.29
34 7.3767 4282.00 4278.63 65.44
35 7.3951 4279.00 4270.04 65.41
36 7.4136 4466.00 4262.10 66.83
37 7.4320 4366.00 4254.94 66.08
38 7.4504 4344.00 4248.55 65.91
39 7.4689 4294.00 4242.93 65.53
40 7.4873 4296.00 4238.19 65.54
41 7.5058 4328.00 4234.34 65.79
42 7.5242 4299.00 4231.47 65.57
43 7.5426 4451.00 4229.62 66.72
44 7.5611 4462.00 4228.87 66.80
45 7.5795 4415.00 4229.31 66.45
46 7.5980 4366.00 4231.05 66.08
47 7.6164 4428.00 4234.18 66.54
48 7.6348 4466.00 4238.82 66.83
49 7.6533 4428.00 4245.17 66.54
50 7.6717 4506.00 4253.35 67.13
51 7.6902 4546.00 4263.64 67.42
52 7.7086 4574.00 4276.20 67.63
53 7.7270 4591.00 4291.40 67.76
54 7.7455 4574.00 4309.77 67.63
55 7.7639 4608.00 4331.67 67.88
56 7.7824 4912.00 4358.09 70.09
57 7.8008 4801.00 4389.79 69.29
58 7.8192 4941.00 4428.33 70.29
59 7.8377 4973.00 4475.99 70.52
60 7.8561 5045.00 4534.96 71.03
61 7.8746 5197.00 4609.51 72.09
62 7.8930 5377.00 4703.50 73.33
63 7.9114 5461.00 4823.00 73.90
64 7.9299 5659.00 4975.67 75.23
65 7.9483 5919.00 5167.32 76.93
66 7.9668 6189.00 5407.61 78.67
67 7.9852 6303.00 5700.80 79.39
68 8.0036 6517.00 6053.40 80.73
69 8.0221 6980.00 6471.35 83.55
70 8.0405 7298.00 6952.50 85.43
71 8.0590 7771.00 7505.07 88.15
72 8.0774 8246.00 8128.56 90.81
73 8.0958 8918.00 8833.60 94.44
74 8.1143 9674.00 9631.07 98.36
75 8.1327 10458.00 10511.30 102.26
76 8.1512 11405.00 11479.70 106.79
77 8.1696 12565.00 12547.80 112.09
78 8.1880 14171.00 13828.10 119.04
79 8.2065 15913.00 15581.40 126.15
80 8.2249 18714.00 18159.10 136.80
81 8.2434 22027.00 21871.10 148.41
82 8.2618 25946.00 26443.30 161.08
83 8.2802 30888.00 30805.60 175.75
84 8.2987 34404.00 33378.70 185.48
85 8.3171 34369.00 33087.50 185.39
86 8.3355 30819.00 30105.40 175.55
87 8.3540 25261.00 25423.30 158.94
88 8.3724 19658.00 20280.70 140.21
89 8.3909 15183.00 15529.30 123.22
90 8.4093 11587.00 11702.00 107.64
91 8.4277 9069.00 8889.34 95.23
92 8.4462 7235.00 6971.54 85.06
93 8.4646 6122.00 5761.53 78.24
94 8.4831 5384.00 5034.96 73.38
95 8.5015 4922.00 4631.47 70.16
96 8.5199 4652.00 4425.86 68.21
97 8.5384 4486.00 4336.13 66.98
98 8.5568 4303.00 4308.85 65.60
99 8.5753 4063.00 4308.38 63.74
100 8.5937 4065.00 4313.40 63.76
101 8.6121 3937.00 4312.41 62.75
102 8.6306 3971.00 4300.50 63.02
103 8.6490 3878.00 4277.21 62.27
104 8.6675 3909.00 4243.99 62.52
105 8.6859 4008.00 4203.88 63.31
106 8.7043 3643.00 4159.48 60.36
107 8.7228 3665.00 4112.94 60.54
108 8.7412 3752.00 4066.65 61.25
109 8.7597 3787.00 4021.41 61.54
110 8.7781 3712.00 3978.52 60.93
111 8.7965 3642.00 3938.15 60.35
112 8.8150 3580.00 3900.26 59.83
113 8.8334 3644.00 3865.24 60.37
114 8.8519 3552.00 3832.57 59.60
115 8.8703 3677.00 3802.43 60.64
116 8.8887 3524.00 3774.43 59.36
117 8.9072 3600.00 3748.23 60.00
118 8.9256 3665.00 3723.93 60.54
119 8.9441 3464.00 3701.08 58.86
120 8.9625 3502.00 3679.78 59.18
121 8.9809 3366.00 3659.75 58.02
122 8.9994 3572.00 3640.78 59.77
123 9.0178 3514.00 3622.95 59.28
124 9.0363 3478.00 3605.97 58.97
125 9.0547 3490.00 3589.95 59.08
126 9.0731 3462.00 3574.70 58.84
127 9.0916 3464.00 3560.09 58.86
128 9.1100 3414.00 3546.21 58.43
129 9.1285 3420.00 3532.86 58.48
130 9.1469 3467.00 3520.12 58.88
131 9.1653 3449.00 3507.89 58.73
132 9.1838 3424.00 3496.06 58.51
133 9.2022 3527.00 3484.72 59.39
134 9.2206 3428.00 3473.77 58.55
135 9.2391 3418.00 3463.13 58.46
136 9.2575 3356.00 3452.88 57.93
137 9.2760 3412.00 3442.90 58.41
138 9.2944 3367.00 3433.26 58.03
139 9.3128 3305.00 3423.89 57.49
140 9.3313 3418.00 3414.72 58.46
141 9.3497 3364.00 3405.84 58.00
142 9.3682 3341.00 3397.12 57.80
143 9.3866 3298.00 3388.66 57.43
144 9.4050 3346.00 3380.39 57.84
145 9.4235 3206.00 3372.25 56.62
146 9.4419 3413.00 3364.33 58.42
147 9.4604 3315.00 3356.52 57.58
148 9.4788 3355.00 3348.90 57.92
149 9.4972 3310.00 3341.41 57.53
150 9.5157 3341.00 3334.02 57.80
151 9.5341 3233.00 3326.78 56.86
152 9.5526 3301.00 3319.62 57.45
153 9.5710 3204.00 3312.61 56.60
154 9.5894 3224.00 3305.70 56.78
155 9.6079 3283.00 3298.85 57.30
156 9.6263 3331.00 3292.12 57.71
157 9.6448 3182.00 3236.98 56.41
158 9.6632 3254.00 3207.65 57.04
159 9.6816 3111.00 3203.02 55.78
160 9.7001 3218.00 3198.37 56.73
161 9.7185 3125.00 3193.74 55.90
162 9.7370 3102.00 3189.08 55.70
163 9.7554 3225.00 3184.44 56.79
164 9.7738 3107.00 3179.81 55.74
165 9.7923 3151.00 3175.15 56.13
166 9.8107 3147.00 3170.50 56.10
167 9.8292 3187.00 3165.84 56.45
168 9.8476 3207.00 3161.19 56.63
169 9.8660 3135.00 3156.54 55.99
170 9.8845 3196.00 3151.86 56.53
171 9.9029 3138.00 3147.21 56.02
172 9.9214 3125.00 3142.52 55.90
173 9.9398 3183.00 3137.86 56.42
174 9.9582 3103.00 3133.19 55.70
175 9.9767 3237.00 3128.49 56.89
176 9.9951 3081.00 3123.82 55.51
177 10.0136 3114.00 3119.11 55.80
178 10.0320 3072.00 3114.43 55.43
179 10.0504 3091.00 3109.74 55.60
180 10.0689 3070.00 3105.03 55.41
181 10.0873 3102.00 3100.33 55.70
182 10.1058 3063.00 3095.60 55.34
183 10.1242 3167.00 3090.90 56.28
184 10.1426 3090.00 3086.19 55.59
185 10.1611 3025.00 3081.45 55.00
186 10.1795 3002.00 3076.73 54.79
187 10.1979 3038.00 3072.01 55.12
188 10.2164 3073.00 3067.25 55.43
189 10.2348 3048.00 3062.52 55.21
190 10.2533 3022.00 3057.76 54.97
191 10.2717 3006.00 3053.02 54.83
192 10.2901 2947.00 3048.28 54.29
193 10.3086 3141.00 3043.50 56.04
194 10.3270 3034.00 3038.75 55.08
195 10.3455 3013.00 3033.97 54.89
196 10.3639 3138.00 3029.21 56.02
197 10.3823 3032.00 3024.44 55.06
198 10.4008 2954.00 3019.65 54.35
199 10.4192 2927.00 3014.88 54.10
200 10.4377 2971.00 3010.08 54.51
201 10.4561 2975.00 3005.30 54.54
202 10.4745 3029.00 3000.52 55.04
203 10.4930 3026.00 2995.71 55.01
204 10.5114 2927.00 2990.92 54.10
205 10.5299 2941.00 2986.10 54.23
206 10.5483 2868.00 2981.31 53.55
207 10.5667 2993.00 2976.51 54.71
208 10.5852 2842.00 2971.69 53.31
209 10.6036 2920.00 2966.89 54.04
210 10.6221 2836.00 2962.06 53.25
211 10.6405 2923.00 2957.26 54.06
212 10.6589 3003.00 2952.46 54.80
213 10.6774 2903.00 2947.62 53.88
214 10.6958 2915.00 2942.82 53.99
215 10.7143 2918.00 2937.98 54.02
216 10.7327 2945.00 2933.17 54.27
217 10.7511 2883.00 2928.36 53.69
218 10.7696 2890.00 2923.53 53.76
219 10.7880 2807.00 2918.72 52.98
220 10.8065 2955.00 2913.88 54.36
221 10.8249 2967.00 2909.07 54.47
222 10.8433 2869.00 2904.26 53.56
223 10.8618 2885.00 2899.43 53.71
224 10.8802 2887.00 2894.62 53.73
225 10.8987 2905.00 2889.79 53.90
226 10.9171 2828.00 2884.98 53.18
227 10.9355 2830.00 2880.18 53.20
228 10.9540 2832.00 2875.35 53.22
229 10.9724 2752.00 2870.55 52.46
230 10.9909 2934.00 2865.73 54.17
231 11.0093 2784.00 2860.94 52.76
232 11.0277 2722.00 2856.15 52.17
233 11.0462 2790.00 2851.33 52.82
234 11.0646 2845.00 2846.55 53.34
235 11.0830 2757.00 2841.77 52.51
236 11.1015 2868.00 2836.97 53.55
237 11.1199 2742.00 2832.19 52.36
238 11.1384 2732.00 2827.40 52.27
239 11.1568 2851.00 2822.64 53.39
240 11.1752 2799.00 2817.88 52.91
241 11.1937 2772.00 2813.10 52.65
242 11.2121 2786.00 2808.36 52.78
243 11.2306 2710.00 2803.59 52.06
244 11.2490 2754.00 2798.86 52.48
245 11.2674 2786.00 2794.13 52.78
246 11.2859 2780.00 2789.38 52.73
247 11.3043 2776.00 2784.67 52.69
248 11.3228 2797.00 2779.93 52.89
249 11.3412 2776.00 2775.23 52.69
250 11.3596 2732.00 2770.54 52.27
251 11.3781 2727.00 2765.83 52.22
252 11.3965 2771.00 2761.16 52.64
253 11.4150 2812.00 2756.48 53.03
254 11.4334 2715.00 2751.82 52.11
255 11.4518 2705.00 2747.18 52.01
256 11.4703 2702.00 2742.52 51.98
257 11.4887 2773.00 2737.89 52.66
258 11.5072 2799.00 2733.25 52.91
259 11.5256 2692.00 2728.64 51.88
260 11.5440 2782.00 2724.04 52.74
261 11.5625 2716.00 2719.43 52.12
262 11.5809 2662.00 2714.86 51.59
263 11.5994 2749.00 2710.27 52.43
264 11.6178 2664.00 2705.72 51.61
265 11.6362 2800.00 2701.18 52.92
266 11.6547 2660.00 2696.63 51.58
267 11.6731 2752.00 2692.11 52.46
268 11.6916 2720.00 2687.59 52.15
269 11.7100 2706.00 2683.10 52.02
270 11.7284 2674.00 2678.63 51.71
271 11.7469 2526.00 2674.14 50.26
272 11.7653 2616.00 2669.69 51.15
273 11.7838 2781.00 2665.24 52.74
274 11.8022 2717.00 2660.82 52.12
275 11.8206 2647.00 2656.42 51.45
276 11.8391 2744.00 2652.01 52.38
277 11.8575 2648.00 2647.63 51.46
278 11.8760 2605.00 2643.25 51.04
279 11.8944 2706.00 2638.91 52.02
280 11.9128 2681.00 2634.59 51.78
281 11.9313 2736.00 2630.26 52.31
282 11.9497 2667.00 2625.96 51.64
283 11.9682 2645.00 2621.67 51.43
284 11.9866 2699.00 2617.41 51.95
285 12.0050 2663.00 2613.17 51.60
286 12.0235 2613.00 2608.93 51.12
287 12.0419 2613.00 2604.72 51.12
288 12.0603 2631.00 2600.54 51.29
289 12.0788 2713.00 2596.35 52.09
290 12.0972 2669.00 2592.20 51.66
291 12.1157 2643.00 2588.05 51.41
292 12.1341 2593.00 2583.94 50.92
293 12.1525 2491.00 2579.85 49.91
294 12.1710 2569.00 2575.76 50.69
295 12.1894 2517.00 2571.71 50.17
296 12.2079 2609.00 2567.66 51.08
297 12.2263 2635.00 2563.65 51.33
298 12.2447 2653.00 2559.66 51.51
299 12.2632 2605.00 2555.67 51.04
300 12.2816 2542.00 2551.73 50.42
301 12.3001 2584.00 2547.78 50.83
302 12.3185 2615.00 2543.88 51.14
303 12.3369 2624.00 2540.00 51.22
304 12.3554 2601.00 2536.12 51.00
305 12.3738 2574.00 2532.29 50.73
306 12.3923 2590.00 2528.45 50.89
307 12.4107 2593.00 2524.67 50.92
308 12.4291 2577.00 2520.90 50.76
309 12.4476 2528.00 2517.14 50.28
310 12.4660 2531.00 2513.43 50.31
311 12.4845 2483.00 2509.72 49.83
312 12.5029 2472.00 2506.05 49.72
313 12.5213 2548.00 2502.42 50.48
314 12.5398 2557.00 2498.79 50.57
315 12.5582 2584.00 2495.21 50.83
316 12.5767 2552.00 2491.64 50.52
317 12.5951 2657.00 2488.12 51.55
318 12.6135 2492.00 2484.63 49.92
319 12.6320 2569.00 2481.16 50.69
320 12.6504 2539.00 2477.74 50.39
321 12.6689 2458.00 2474.35 49.58
322 12.6873 2533.00 2471.04 50.33
323 12.7057 2557.00 2467.79 50.57
324 12.7242 2482.00 2464.61 49.82
325 12.7426 2511.00 2461.59 50.11
326 12.7611 2552.00 2458.73 50.52
327 12.7795 2484.00 2456.10 49.84
328 12.7979 2577.00 2453.75 50.76
329 12.8164 2556.00 2451.69 50.56
330 12.8348 2442.00 2449.94 49.42
331 12.8533 2433.00 2448.59 49.33
332 12.8717 2510.00 2447.44 50.10
333 12.8901 2514.00 2446.64 50.14
334 12.9086 2535.00 2446.07 50.35
335 12.9270 2464.00 2445.73 49.64
336 12.9454 2420.00 2445.40 49.19
337 12.9639 2479.00 2444.71 49.79
338 12.9823 2508.00 2443.20 50.08
339 13.0008 2501.00 2440.43 50.01
340 13.0192 2511.00 2436.30 50.11
341 13.0376 2529.00 2430.95 50.29
342 13.0561 2479.00 2424.75 49.79
343 13.0745 2434.00 2418.27 49.34
344 13.0930 2420.00 2411.92 49.19
345 13.1114 2476.00 2406.12 49.76
346 13.1298 2515.00 2401.02 50.15
347 13.1483 2429.00 2396.54 49.28
348 13.1667 2474.00 2392.66 49.74
349 13.1852 2473.00 2389.23 49.73
350 13.2036 2432.00 2386.13 49.32
351 13.2220 2455.00 2383.23 49.55
352 13.2405 2436.00 2380.47 49.36
353 13.2589 2469.00 2377.81 49.69
354 13.2774 2378.00 2375.21 48.76
355 13.2958 2463.00 2372.68 49.63
356 13.3142 2501.00 2370.18 50.01
357 13.3327 2420.00 2367.71 49.19
358 13.3511 2380.00 2365.29 48.79
359 13.3696 2472.00 2362.88 49.72
360 13.3880 2378.00 2360.52 48.76
361 13.4064 2372.00 2358.19 48.70
362 13.4249 2458.00 2355.87 49.58
363 13.4433 2554.00 2353.60 50.54
364 13.4618 2385.00 2351.35 48.84
365 13.4802 2428.00 2349.15 49.27
366 13.4986 2354.00 2346.97 48.52
367 13.5171 2402.00 2344.82 49.01
368 13.5355 2395.00 2342.71 48.94
369 13.5540 2366.00 2340.62 48.64
370 13.5724 2427.00 2338.58 49.26
371 13.5908 2372.00 2336.57 48.70
372 13.6093 2354.00 2334.58 48.52
373 13.6277 2460.00 2332.64 49.60
374 13.6462 2337.00 2330.72 48.34
375 13.6646 2408.00 2328.84 49.07
376 13.6830 2379.00 2327.00 48.78
377 13.7015 2389.00 2325.18 48.88
378 13.7199 2420.00 2323.41 49.19
379 13.7384 2327.00 2321.68 48.24
380 13.7568 2351.00 2319.98 48.49
381 13.7752 2313.00 2318.32 48.09
382 13.7937 2400.00 2316.69 48.99
383 13.8121 2369.00 2315.12 48.67
384 13.8305 2459.00 2313.58 49.59
385 13.8490 2404.00 2312.08 49.03
386 13.8674 2404.00 2310.64 49.03
387 13.8859 2337.00 2309.24 48.34
388 13.9043 2382.00 2307.91 48.81
389 13.9227 2316.00 2306.64 48.12
390 13.9412 2342.00 2305.44 48.39
391 13.9596 2321.00 2304.33 48.18
392 13.9781 2317.00 2303.31 48.14
393 13.9965 2366.00 2302.40 48.64
394 14.0149 2356.00 2301.62 48.54
395 14.0334 2380.00 2301.00 48.79
396 14.0518 2425.00 2300.62 49.24
397 14.0703 2289.00 2300.57 47.84
398 14.0887 2318.00 2301.06 48.15
399 14.1071 2374.00 2302.36 48.72
400 14.1256 2430.00 2304.89 49.29
401 14.1440 2292.00 2309.10 47.87
402 14.1625 2338.00 2315.49 48.35
403 14.1809 2411.00 2324.35 49.10
404 14.1993 2371.00 2335.86 48.69
405 14.2178 2391.00 2350.14 48.90
406 14.2362 2363.00 2366.94 48.61
407 14.2547 2342.00 2386.33 48.39
408 14.2731 2378.00 2407.72 48.76
409 14.2915 2460.00 2430.10 49.60
410 14.3100 2509.00 2451.21 50.09
411 14.3284 2575.00 2467.18 50.74
412 14.3469 2623.00 2474.32 51.22
413 14.3653 2580.00 2470.18 50.79
414 14.3837 2458.00 2455.02 49.58
415 14.4022 2443.00 2431.37 49.43
416 14.4206 2363.00 2403.72 48.61
417 14.4391 2320.00 2376.24 48.17
418 14.4575 2391.00 2352.73 48.90
419 14.4759 2253.00 2334.95 47.47
420 14.4944 2297.00 2323.31 47.93
421 14.5128 2301.00 2317.32 47.97
422 14.5313 2352.00 2315.75 48.50
423 14.5497 2286.00 2317.28 47.81
424 14.5681 2384.00 2320.40 48.83
425 14.5866 2305.00 2323.57 48.01
426 14.6050 2380.00 2325.23 48.79
427 14.6235 2385.00 2324.30 48.84
428 14.6419 2353.00 2320.44 48.51
429 14.6603 2324.00 2314.07 48.21
430 14.6788 2399.00 2306.13 48.98
431 14.6972 2387.00 2297.87 48.86
432 14.7157 2303.00 2290.21 47.99
433 14.7341 2344.00 2283.87 48.41
434 14.7525 2295.00 2279.02 47.91
435 14.7710 2235.00 2275.57 47.28
436 14.7894 2310.00 2273.27 48.06
437 14.8078 2297.00 2271.80 47.93
438 14.8263 2340.00 2270.89 48.37
439 14.8447 2273.00 2270.34 47.68
440 14.8632 2289.00 2270.02 47.84
441 14.8816 2330.00 2269.85 48.27
442 14.9000 2283.00 2269.78 47.78
443 14.9185 2357.00 2269.80 48.55
444 14.9369 2323.00 2269.90 48.20
445 14.9554 2306.00 2270.10 48.02
446 14.9738 2304.00 2270.42 48.00
447 14.9922 2323.00 2270.88 48.20
448 15.0107 2311.00 2271.52 48.07
449 15.0291 2263.00 2272.33 47.57
450 15.0476 2343.00 2273.35 48.40
451 15.0660 2332.00 2274.54 48.29
452 15.0844 2240.00 2275.91 47.33
453 15.1029 2359.00 2277.44 48.57
454 15.1213 2312.00 2279.05 48.08
455 15.1398 2286.00 2280.60 47.81
456 15.1582 2253.00 2281.87 47.47
457 15.1766 2386.00 2282.65 48.85
458 15.1951 2385.00 2282.80 48.84
459 15.2135 2231.00 2282.34 47.23
460 15.2320 2243.00 2281.42 47.36
461 15.2504 2312.00 2280.29 48.08
462 15.2688 2351.00 2279.19 48.49
463 15.2873 2394.00 2278.31 48.93
464 15.3057 2306.00 2277.74 48.02
465 15.3242 2286.00 2277.50 47.81
466 15.3426 2263.00 2277.55 47.57
467 15.3610 2368.00 2277.83 48.66
468 15.3795 2297.00 2278.27 47.93
469 15.3979 2321.00 2278.82 48.18
470 15.4164 2243.00 2282.83 47.36
471 15.4348 2216.00 2283.62 47.07
472 15.4532 2329.00 2284.45 48.26
473 15.4717 2222.00 2287.03 47.14
474 15.4901 2220.00 2287.98 47.12
475 15.5086 2299.00 2288.97 47.95
476 15.5270 2281.00 2289.99 47.76
477 15.5454 2213.00 2291.04 47.04
478 15.5639 2239.00 2292.13 47.32
479 15.5823 2371.00 2293.24 48.69
480 15.6008 2256.00 2294.40 47.50
481 15.6192 2360.00 2295.58 48.58
482 15.6376 2309.00 2296.80 48.05
483 15.6561 2255.00 2298.06 47.49
484 15.6745 2288.00 2299.35 47.83
485 15.6929 2222.00 2300.67 47.14
486 15.7114 2301.00 2302.05 47.97
487 15.7298 2319.00 2303.46 48.16
488 15.7483 2274.00 2304.91 47.69
489 15.7667 2228.00 2306.41 47.20
490 15.7851 2261.00 2307.95 47.55
491 15.8036 2283.00 2309.55 47.78
492 15.8220 2283.00 2311.08 47.78
493 15.8405 2257.00 2312.73 47.51
494 15.8589 2239.00 2314.48 47.32
495 15.8773 2318.00 2316.30 48.15
496 15.8958 2324.00 2318.19 48.21
497 15.9142 2277.00 2320.14 47.72
498 15.9327 2289.00 2322.17 47.84
499 15.9511 2319.00 2324.28 48.16
500 15.9695 2224.00 2326.47 47.16
501 15.9880 2313.00 2328.78 48.09
502 16.0064 2258.00 2331.17 47.52
503 16.0249 2142.00 2333.70 46.28
504 16.0433 2241.00 2336.34 47.34
505 16.0617 2355.00 2339.10 48.53
506 16.0802 2250.00 2342.07 47.43
507 16.0986 2245.00 2345.19 47.38
508 16.1171 2295.00 2348.56 47.91
509 16.1355 2278.00 2352.15 47.73
510 16.1539 2274.00 2356.04 47.69
511 16.1724 2258.00 2360.29 47.52
512 16.1908 2283.00 2364.94 47.78
513 16.2093 2310.00 2370.15 48.06
514 16.2277 2271.00 2376.01 47.65
515 16.2461 2394.00 2382.73 48.93
516 16.2646 2377.00 2390.63 48.75
517 16.2830 2274.00 2399.96 47.69
518 16.3015 2294.00 2411.22 47.90
519 16.3199 2326.00 2424.79 48.23
520 16.3383 2449.00 2441.25 49.49
521 16.3568 2322.00 2461.26 48.19
522 16.3752 2379.00 2485.16 48.78
523 16.3937 2341.00 2513.73 48.38
524 16.4121 2504.00 2547.20 50.04
525 16.4305 2347.00 2586.46 48.45
526 16.4490 2564.00 2632.88 50.64
527 16.4674 2469.00 2687.76 49.69
528 16.4859 2533.00 2754.66 50.33
529 16.5043 2606.00 2837.56 51.05
530 16.5227 2791.00 2943.85 52.83
531 16.5412 2892.00 3083.22 53.78
532 16.5596 3145.00 3259.10 56.08
533 16.5781 3433.00 3459.44 58.59
534 16.5965 3611.00 3633.86 60.09
535 16.6149 3707.00 3719.42 60.89
536 16.6334 3687.00 3686.11 60.72
537 16.6518 3529.00 3550.66 59.41
538 16.6702 3158.00 3352.76 56.20
539 16.6887 3086.00 3138.80 55.55
540 16.7071 2809.00 2947.95 53.00
541 16.7256 2810.00 2794.63 53.01
542 16.7440 2644.00 2681.89 51.42
543 16.7624 2661.00 2603.01 51.58
544 16.7809 2687.00 2549.96 51.84
545 16.7993 2480.00 2515.90 49.80
546 16.8178 2514.00 2494.34 50.14
547 16.8362 2497.00 2480.98 49.97
548 16.8546 2451.00 2472.50 49.51
549 16.8731 2421.00 2466.80 49.20
550 16.8915 2449.00 2462.62 49.49
551 16.9100 2406.00 2459.18 49.05
552 16.9284 2422.00 2456.15 49.21
553 16.9468 2339.00 2453.38 48.36
554 16.9653 2343.00 2450.81 48.40
555 16.9837 2461.00 2448.51 49.61
556 17.0022 2342.00 2446.48 48.39
557 17.0206 2303.00 2444.76 47.99
558 17.0390 2348.00 2443.36 48.46
559 17.0575 2288.00 2442.27 47.83
560 17.0759 2362.00 2441.47 48.60
561 17.0944 2407.00 2440.94 49.06
562 17.1128 2354.00 2440.66 48.52
563 17.1312 2415.00 2440.59 49.14
564 17.1497 2335.00 2440.72 48.32
565 17.1681 2468.00 2441.02 49.68
566 17.1866 2402.00 2441.47 49.01
567 17.2050 2309.00 2442.05 48.05
568 17.2234 2389.00 2442.75 48.88
569 17.2419 2392.00 2443.55 48.91
570 17.2603 2319.00 2444.45 48.16
571 17.2788 2420.00 2445.43 49.19
572 17.2972 2433.00 2446.49 49.33
573 17.3156 2364.00 2447.60 48.62
574 17.3341 2357.00 2448.79 48.55
575 17.3525 2322.00 2450.02 48.19
576 17.3710 2286.00 2451.31 47.81
577 17.3894 2304.00 2452.63 48.00
578 17.4078 2307.00 2454.00 48.03
579 17.4263 2333.00 2455.41 48.30
580 17.4447 2397.00 2456.84 48.96
581 17.4632 2335.00 2458.31 48.32
582 17.4816 2336.00 2459.80 48.33
583 17.5000 2449.00 2461.31 49.49
584 17.5185 2341.00 2462.86 48.38
585 17.5369 2388.00 2464.41 48.87
586 17.5553 2391.00 2465.99 48.90
587 17.5738 2400.00 2467.59 48.99
588 17.5922 2316.00 2469.19 48.12
589 17.6107 2383.00 2470.82 48.82
590 17.6291 2390.00 2472.45 48.89
591 17.6475 2374.00 2474.10 48.72
592 17.6660 2334.00 2475.76 48.31
593 17.6844 2395.00 2477.42 48.94
594 17.7029 2378.00 2479.10 48.76
595 17.7213 2371.00 2480.78 48.69
596 17.7397 2332.00 2482.46 48.29
597 17.7582 2377.00 2484.16 48.75
598 17.7766 2371.00 2485.85 48.69
599 17.7951 2395.00 2484.21 48.94
600 17.8135 2378.00 2486.01 48.76
601 17.8319 2352.00 2487.81 48.50
602 17.8504 2436.00 2488.00 49.36
603 17.8688 2497.00 2489.84 49.97
604 17.8873 2426.00 2491.69 49.25
605 17.9057 2337.00 2493.52 48.34
606 17.9241 2447.00 2495.35 49.47
607 17.9426 2451.00 2497.18 49.51
608 17.9610 2463.00 2499.00 49.63
609 17.9795 2502.00 2500.82 50.02
610 17.9979 2408.00 2502.63 49.07
611 18.0163 2450.00 2504.42 49.50
612 18.0348 2578.00 2506.23 50.77
613 18.0532 2385.00 2508.01 48.84
614 18.0717 2426.00 2510.20 49.25
615 18.0901 2407.00 2511.98 49.06
616 18.1085 2471.00 2513.76 49.71
617 18.1270 2415.00 2515.74 49.14
618 18.1454 2501.00 2517.52 50.01
619 18.1639 2586.00 2519.29 50.85
620 18.1823 2504.00 2521.05 50.04
621 18.2007 2568.00 2522.80 50.68
622 18.2192 2360.00 2524.56 48.58
623 18.2376 2616.00 2526.30 51.15
624 18.2561 2586.00 2528.04 50.85
625 18.2745 2479.00 2529.76 49.79
626 18.2929 2498.00 2531.48 49.98
627 18.3114 2464.00 2533.21 49.64
628 18.3298 2501.00 2534.91 50.01
629 18.3483 2418.00 2536.62 49.17
630 18.3667 2544.00 2538.31 50.44
631 18.3851 2552.00 2539.99 50.52
632 18.4036 2504.00 2541.68 50.04
633 18.4220 2518.00 2543.35 50.18
634 18.4404 2516.00 2545.02 50.16
635 18.4589 2487.00 2546.69 49.87
636 18.4773 2487.00 2548.81 49.87
637 18.4958 2524.00 2550.49 50.24
638 18.5142 2467.00 2552.15 49.67
639 18.5326 2500.00 2554.04 50.00
640 18.5511 2519.00 2555.71 50.19
641 18.5695 2504.00 2557.36 50.04
642 18.5880 2580.00 2559.02 50.79
643 18.6064 2524.00 2560.68 50.24
644 18.6248 2540.00 2562.33 50.40
645 18.6433 2541.00 2576.54 50.41
646 18.6617 2503.00 2578.61 50.03
647 18.6802 2600.00 2580.72 50.99
648 18.6986 2505.00 2589.12 50.05
649 18.7170 2579.00 2591.49 50.78
650 18.7355 2628.00 2593.92 51.26
651 18.7539 2518.00 2596.39 50.18
652 18.7724 2587.00 2598.94 50.86
653 18.7908 2626.00 2601.54 51.24
654 18.8092 2551.00 2604.22 50.51
655 18.8277 2623.00 2607.00 51.22
656 18.8461 2612.00 2609.88 51.11
657 18.8646 2623.00 2612.91 51.22
658 18.8830 2659.00 2616.08 51.57
659 18.9014 2538.00 2619.45 50.38
660 18.9199 2704.00 2623.08 52.00
661 18.9383 2575.00 2627.01 50.74
662 18.9568 2591.00 2631.34 50.90
663 18.9752 2657.00 2636.17 51.55
664 18.9936 2684.00 2641.54 51.81
665 19.0121 2630.00 2647.74 51.28
666 19.0305 2627.00 2655.10 51.25
667 19.0490 2671.00 2664.34 51.68
668 19.0674 2681.00 2676.61 51.78
669 19.0858 2777.00 2693.82 52.70
670 19.1043 2777.00 2718.47 52.70
671 19.1227 2772.00 2752.59 52.65
672 19.1412 2798.00 2798.26 52.90
673 19.1596 2705.00 2855.54 52.01
674 19.1780 2818.00 2923.59 53.08
675 19.1965 2931.00 2999.09 54.14
676 19.2149 3088.00 3072.69 55.57
677 19.2334 3249.00 3130.89 57.00
678 19.2518 3230.00 3158.64 56.83
679 19.2702 3143.00 3150.59 56.06
680 19.2887 3198.00 3110.62 56.55
681 19.3071 3110.00 3049.80 55.77
682 19.3256 2875.00 2982.01 53.62
683 19.3440 2838.00 2921.39 53.27
684 19.3624 2818.00 2875.93 53.08
685 19.3809 2847.00 2848.44 53.36
686 19.3993 2743.00 2838.45 52.37
687 19.4177 2879.00 2843.51 53.66
688 19.4362 2942.00 2861.93 54.24
689 19.4546 2988.00 2893.35 54.66
690 19.4731 2876.00 2939.96 53.63
691 19.4915 2952.00 3004.67 54.33
692 19.5099 3001.00 3091.63 54.78
693 19.5284 3166.00 3204.96 56.27
694 19.5468 3120.00 3345.49 55.86
695 19.5653 3343.00 3514.31 57.82
696 19.5837 3454.00 3704.59 58.77
697 19.6021 3819.00 3905.29 61.80
698 19.6206 4228.00 4101.82 65.02
699 19.6390 4204.00 4284.76 64.84
700 19.6575 4418.00 4466.62 66.47
701 19.6759 4581.00 4677.12 67.68
702 19.6943 4833.00 4949.49 69.52
703 19.7128 5153.00 5338.37 71.78
704 19.7312 5736.00 5868.77 75.74
705 19.7497 6602.00 6459.26 81.25
706 19.7681 7309.00 6906.92 85.49
707 19.7865 7667.00 7018.42 87.56
708 19.8050 7446.00 6777.26 86.29
709 19.8234 6833.00 6291.75 82.66
710 19.8419 5968.00 5655.57 77.25
711 19.8603 5064.00 4998.76 71.16
712 19.8787 4145.00 4424.75 64.38
713 19.8972 3653.00 3973.72 60.44
714 19.9156 3385.00 3646.32 58.18
715 19.9341 3301.00 3415.96 57.45
716 19.9525 3115.00 3260.29 55.81
717 19.9709 3078.00 3156.69 55.48
718 19.9894 3071.00 3088.48 55.42
719 20.0078 3125.00 3044.24 55.90
720 20.0263 3005.00 3014.85 54.82
721 20.0447 3004.00 2994.65 54.81
722 20.0631 2985.00 2979.06 54.64
723 20.0816 2937.00 2964.34 54.19
724 20.1000 3018.00 2948.62 54.94
725 20.1185 2967.00 2929.60 54.47
726 20.1369 3014.00 2909.01 54.90
727 20.1553 2915.00 2887.44 53.99
728 20.1738 2921.00 2866.69 54.05
729 20.1922 2932.00 2848.45 54.15
730 20.2107 2948.00 2833.27 54.30
731 20.2291 2887.00 2821.41 53.73
732 20.2475 2889.00 2812.44 53.75
733 20.2660 2964.00 2805.81 54.44
734 20.2844 2881.00 2801.11 53.67
735 20.3028 2915.00 2797.91 53.99
736 20.3213 2990.00 2795.95 54.68
737 20.3397 2966.00 2795.12 54.46
738 20.3582 2867.00 2795.34 53.54
739 20.3766 2929.00 2796.58 54.12
740 20.3950 2874.00 2798.87 53.61
741 20.4135 2886.00 2801.91 53.72
742 20.4319 2932.00 2806.56 54.15
743 20.4504 2931.00 2812.62 54.14
744 20.4688 2963.00 2820.07 54.43
745 20.4872 2944.00 2829.62 54.26
746 20.5057 2884.00 2841.55 53.70
747 20.5241 3068.00 2856.34 55.39
748 20.5426 2995.00 2874.96 54.73
749 20.5610 3046.00 2898.44 55.19
750 20.5794 2979.00 2928.61 54.58
751 20.5979 3070.00 2968.10 55.41
752 20.6163 3037.00 3019.41 55.11
753 20.6348 3103.00 3086.21 55.70
754 20.6532 3134.00 3170.55 55.98
755 20.6716 3319.00 3274.79 57.61
756 20.6901 3329.00 3400.56 57.70
757 20.7085 3422.00 3545.14 58.50
758 20.7270 3618.00 3705.85 60.15
759 20.7454 3756.00 3900.48 61.29
760 20.7638 3969.00 4089.55 63.00
761 20.7823 4229.00 4313.15 65.03
762 20.8007 4553.00 4598.26 67.48
763 20.8192 5026.00 4935.01 70.89
764 20.8376 5501.00 5312.17 74.17
765 20.8560 6001.00 5678.00 77.47
766 20.8745 6306.00 5990.00 79.41
767 20.8929 6714.00 6233.02 81.94
768 20.9114 6773.00 6357.84 82.30
769 20.9298 6721.00 6316.95 81.98
770 20.9482 6548.00 6091.75 80.92
771 20.9667 6111.00 5740.72 78.17
772 20.9851 5558.00 5340.50 74.55
773 21.0036 4986.00 4919.49 70.61
774 21.0220 4486.00 4519.27 66.98
775 21.0404 4063.00 4167.49 63.74
776 21.0589 3836.00 3876.19 61.94
777 21.0773 3639.00 3645.55 60.32
778 21.0958 3470.00 3464.76 58.91
779 21.1142 3358.00 3329.06 57.95
780 21.1326 3328.00 3230.72 57.69
781 21.1511 3265.00 3161.91 57.14
782 21.1695 3153.00 3116.27 56.15
783 21.1880 3266.00 3087.75 57.15
784 21.2064 3089.00 3072.99 55.58
785 21.2248 3177.00 3069.85 56.36
786 21.2433 3252.00 3077.06 57.03
787 21.2617 3207.00 3091.98 56.63
788 21.2801 3189.00 3108.22 56.47
789 21.2986 3381.00 3115.74 58.15
790 21.3170 3267.00 3107.83 57.16
791 21.3355 3174.00 3086.10 56.34
792 21.3539 3267.00 3055.48 57.16
793 21.3723 3280.00 3020.13 57.27
794 21.3908 3318.00 2985.11 57.60
795 21.4092 3285.00 2955.47 57.31
796 21.4277 3405.00 2933.07 58.35
797 21.4461 3428.00 2918.22 58.55
798 21.4645 3616.00 2909.91 60.13
799 21.4830 3394.00 2907.13 58.26
800 21.5014 3444.00 2909.03 58.69
801 21.5199 3302.00 2915.00 57.46
802 21.5383 3398.00 2924.67 58.29
803 21.5567 3327.00 2937.98 57.68
804 21.5752 3347.00 2955.28 57.85
805 21.5936 3337.00 2976.90 57.77
806 21.6121 3241.00 3003.95 56.93
807 21.6305 3207.00 3037.34 56.63
808 21.6489 3291.00 3078.80 57.37
809 21.6674 3182.00 3130.67 56.41
810 21.6858 3326.00 3194.86 57.67
811 21.7043 3370.00 3274.97 58.05
812 21.7227 3515.00 3373.39 59.29
813 21.7411 3663.00 3494.07 60.52
814 21.7596 3664.00 3641.86 60.53
815 21.7780 3826.00 3819.72 61.85
816 21.7965 3944.00 4035.37 62.80
817 21.8149 4242.00 4294.07 65.13
818 21.8333 4383.00 4608.50 66.20
819 21.8518 4762.00 4996.86 69.01
820 21.8702 5321.00 5478.74 72.95
821 21.8887 5885.00 6091.39 76.71
822 21.9071 6501.00 6866.06 80.63
823 21.9255 7743.00 7832.21 87.99
824 21.9440 8849.00 8963.29 94.07
825 21.9624 10157.00 10075.70 100.78
826 21.9809 11092.00 10860.70 105.32
827 21.9993 11432.00 11048.40 106.92
828 22.0177 11099.00 10656.40 105.35
829 22.0362 9950.00 9841.96 99.75
830 22.0546 8530.00 8757.53 92.36
831 22.0731 7154.00 7569.97 84.58
832 22.0915 6041.00 6466.08 77.72
833 22.1099 5095.00 5544.10 71.38
834 22.1284 4563.00 4823.31 67.55
835 22.1468 3971.00 4297.23 63.02
836 22.1652 3784.00 3919.58 61.51
837 22.1837 3501.00 3648.26 59.17
838 22.2021 3482.00 3459.84 59.01
839 22.2206 3422.00 3324.39 58.50
840 22.2390 3218.00 3226.70 56.73
841 22.2574 3178.00 3152.33 56.37
842 22.2759 3275.00 3092.01 57.23
843 22.2943 3148.00 3056.91 56.11
844 22.3128 3213.00 3013.02 56.68
845 22.3312 3062.00 2973.63 55.34
846 22.3496 3057.00 2944.90 55.29
847 22.3681 2999.00 2911.62 54.76
848 22.3865 3025.00 2881.16 55.00
849 22.4050 2991.00 2853.05 54.69
850 22.4234 2997.00 2827.50 54.74
851 22.4418 2998.00 2804.24 54.75
852 22.4603 3034.00 2783.00 55.08
853 22.4787 3010.00 2763.85 54.86
854 22.4972 2908.00 2746.40 53.93
855 22.5156 2959.00 2730.03 54.40
856 22.5340 2902.00 2715.75 53.87
857 22.5525 2925.00 2702.68 54.08
858 22.5709 2904.00 2690.53 53.89
859 22.5894 2881.00 2679.66 53.67
860 22.6078 2845.00 2669.76 53.34
861 22.6262 2805.00 2660.70 52.96
862 22.6447 2918.00 2665.82 54.02
863 22.6631 2862.00 2658.58 53.50
864 22.6816 2856.00 2651.94 53.44
865 22.7000 2863.00 2652.55 53.51
866 22.7184 2839.00 2647.28 53.28
867 22.7369 2989.00 2642.52 54.67
868 22.7553 2770.00 2638.29 52.63
869 22.7738 2758.00 2634.52 52.52
870 22.7922 2880.00 2631.24 53.67
871 22.8106 2757.00 2628.41 52.51
872 22.8291 2897.00 2626.03 53.82
873 22.8475 2711.00 2624.12 52.07
874 22.8660 2802.00 2625.09 52.93
875 22.8844 2815.00 2624.16 53.06
876 22.9028 2800.00 2623.72 52.92
877 22.9213 2808.00 2623.77 52.99
878 22.9397 2928.00 2625.57 54.11
879 22.9582 2792.00 2626.74 52.84
880 22.9766 2805.00 2628.50 52.96
881 22.9950 2768.00 2630.89 52.61
882 23.0135 2833.00 2633.98 53.23
883 23.0319 2798.00 2637.82 52.90
884 23.0503 2729.00 2642.48 52.24
885 23.0688 2844.00 2648.11 53.33
886 23.0872 2842.00 2654.76 53.31
887 23.1057 2844.00 2662.65 53.33
888 23.1241 2827.00 2671.88 53.17
889 23.1425 2841.00 2682.73 53.30
890 23.1610 2903.00 2695.58 53.88
891 23.1794 2881.00 2710.70 53.67
892 23.1979 2775.00 2728.77 52.68
893 23.2163 2920.00 2750.28 54.04
894 23.2347 3004.00 2753.54 54.81
895 23.2532 2946.00 2785.66 54.28
896 23.2716 2892.00 2824.30 53.78
897 23.2901 3076.00 2860.19 55.46
898 23.3085 2973.00 2917.30 54.53
899 23.3269 3136.00 2986.30 56.00
900 23.3454 3111.00 3069.96 55.78
901 23.3638 3208.00 3170.04 56.64
902 23.3823 3228.00 3291.00 56.82
903 23.4007 3379.00 3438.53 58.13
904 23.4191 3516.00 3613.96 59.30
905 23.4376 3678.00 3829.27 60.65
906 23.4560 4055.00 4094.50 63.68
907 23.4745 4338.00 4424.48 65.86
908 23.4929 4616.00 4834.76 67.94
909 23.5113 5345.00 5346.09 73.11
910 23.5298 5878.00 5973.85 76.67
911 23.5482 6630.00 6693.11 81.42
912 23.5667 7403.00 7425.54 86.04
913 23.5851 8245.00 7996.37 90.80
914 23.6035 8478.00 8244.05 92.08
915 23.6220 8224.00 8132.33 90.69
916 23.6404 7941.00 7746.81 89.11
917 23.6589 7482.00 7176.55 86.50
918 23.6773 6660.00 6507.21 81.61
919 23.6957 5706.00 5836.56 75.54
920 23.7142 5245.00 5253.57 72.42
921 23.7326 4724.00 4807.60 68.73
922 23.7511 4354.00 4499.08 65.98
923 23.7695 4062.00 4319.52 63.73
924 23.7879 4158.00 4250.46 64.48
925 23.8064 4182.00 4278.80 64.67
926 23.8248 4263.00 4396.56 65.29
927 23.8433 4441.00 4604.09 66.64
928 23.8617 4615.00 4904.47 67.93
929 23.8801 4949.00 5308.01 70.35
930 23.8986 5505.00 5823.53 74.20
931 23.9170 6032.00 6428.84 77.67
932 23.9355 6487.00 7059.44 80.54
933 23.9539 6875.00 7566.97 82.92
934 23.9723 7051.00 7802.32 83.97
935 23.9908 6990.00 7715.63 83.61
936 24.0092 6717.00 7374.06 81.96
937 24.0276 6311.00 6860.40 79.44
938 24.0461 6067.00 6240.04 77.89
939 24.0645 5559.00 5606.15 74.56
940 24.0830 5092.00 5036.98 71.36
941 24.1014 4718.00 4587.01 68.69
942 24.1198 4407.00 4263.87 66.39
943 24.1383 4135.00 4056.47 64.30
944 24.1567 3967.00 3945.17 62.98
945 24.1752 4003.00 3896.61 63.27
946 24.1936 3858.00 3869.33 62.11
947 24.2120 3765.00 3822.93 61.36
948 24.2305 3831.00 3738.91 61.90
949 24.2489 3713.00 3623.29 60.93
950 24.2674 3468.00 3484.77 58.89
951 24.2858 3405.00 3333.80 58.35
952 24.3042 3136.00 3182.68 56.00
953 24.3227 3092.00 3044.31 55.61
954 24.3411 2939.00 2927.92 54.21
955 24.3596 2864.00 2833.64 53.52
956 24.3780 2841.00 2760.31 53.30
957 24.3964 2700.00 2704.01 51.96
958 24.4149 2628.00 2661.21 51.26
959 24.4333 2674.00 2629.58 51.71
960 24.4518 2483.00 2606.54 49.83
961 24.4702 2534.00 2590.81 50.34
962 24.4886 2532.00 2581.23 50.32
963 24.5071 2606.00 2577.25 51.05
964 24.5255 2543.00 2578.76 50.43
965 24.5440 2521.00 2586.02 50.21
966 24.5624 2522.00 2599.62 50.22
967 24.5808 2576.00 2620.67 50.75
968 24.5993 2523.00 2650.99 50.23
969 24.6177 2643.00 2692.48 51.41
970 24.6362 2675.00 2748.59 51.72
971 24.6546 2653.00 2822.64 51.51
972 24.6730 2750.00 2919.57 52.44
973 24.6915 2923.00 3043.80 54.06
974 24.7099 3042.00 3191.65 55.15
975 24.7284 3164.00 3348.86 56.25
976 24.7468 3177.00 3479.28 56.36
977 24.7652 3155.00 3541.06 56.17
978 24.7837 3281.00 3523.59 57.28
979 24.8021 3183.00 3456.69 56.42
980 24.8206 3137.00 3362.14 56.01
981 24.8390 2971.00 3250.78 54.51
982 24.8574 3015.00 3142.94 54.91
983 24.8759 2774.00 3061.72 52.67
984 24.8943 2894.00 3021.15 53.80
985 24.9127 2873.00 3010.02 53.60
986 24.9312 2971.00 3057.97 54.51
987 24.9496 3065.00 3146.75 55.36
988 24.9681 3222.00 3270.13 56.76
989 24.9865 3255.00 3402.15 57.05
990 25.0049 3458.00 3526.09 58.80
991 25.0234 3518.00 3597.47 59.31
992 25.0418 3453.00 3593.49 58.76
993 25.0603 3448.00 3518.34 58.72
994 25.0787 3211.00 3390.64 56.67
995 25.0971 3124.00 3227.93 55.89
996 25.1156 2911.00 3047.45 53.95
997 25.1340 2805.00 2871.15 52.96
998 25.1525 2597.00 2713.30 50.96
999 25.1709 2596.00 2586.54 50.95
1000 25.1893 2532.00 2483.77 50.32
1001 25.2078 2400.00 2404.34 48.99
1002 25.2262 2312.00 2344.43 48.08
1003 25.2447 2320.00 2300.57 48.17
1004 25.2631 2286.00 2266.09 47.81
1005 25.2815 2249.00 2239.30 47.42
1006 25.3000 2142.00 2204.59 46.28
1007 25.3184 2255.00 2187.37 47.49
1008 25.3369 2076.00 2172.68 45.56
1009 25.3553 2125.00 2159.92 46.10
1010 25.3737 2129.00 2142.08 46.14
1011 25.3922 2099.00 2131.82 45.81
1012 25.4106 2071.00 2122.47 45.51
1013 25.4291 2086.00 2113.84 45.67
1014 25.4475 2032.00 2105.97 45.08
1015 25.4659 2047.00 2098.82 45.24
1016 25.4844 2079.00 2092.38 45.60
1017 25.5028 2059.00 2086.55 45.38
1018 25.5213 2123.00 2081.80 46.08
1019 25.5397 2139.00 2085.84 46.25
1020 25.5581 2026.00 2081.06 45.01
1021 25.5766 2068.00 2080.41 45.48
1022 25.5950 2118.00 2081.95 46.02
1023 25.6135 2107.00 2085.72 45.90
1024 25.6319 2093.00 2095.49 45.75
1025 25.6503 2106.00 2112.86 45.89
1026 25.6688 2219.00 2142.57 47.11
1027 25.6872 2333.00 2195.42 48.30
1028 25.7057 2323.00 2292.93 48.20
1029 25.7241 2490.00 2472.80 49.90
1030 25.7425 2760.00 2766.86 52.54
1031 25.7610 3137.00 3150.54 56.01
1032 25.7794 3306.00 3402.90 57.50
1033 25.7979 3376.00 3279.10 58.10
1034 25.8163 3193.00 3040.46 56.51
1035 25.8347 2993.00 2907.06 54.71
1036 25.8532 2843.00 2745.68 53.32
1037 25.8716 2606.00 2489.06 51.05
1038 25.8900 2323.00 2272.44 48.20
1039 25.9085 2222.00 2142.70 47.14
1040 25.9269 2101.00 2077.46 45.84
1041 25.9454 2007.00 2044.59 44.80
1042 25.9638 1910.00 2026.06 43.70
1043 25.9822 1930.00 2014.01 43.93
1044 26.0007 1911.00 2006.01 43.72
1045 26.0191 1970.00 2002.08 44.38
1046 26.0376 1957.00 2003.98 44.24
1047 26.0560 1894.00 2015.43 43.52
1048 26.0744 2005.00 2040.33 44.78
1049 26.0929 1935.00 2076.46 43.99
1050 26.1113 1996.00 2097.24 44.68
1051 26.1298 2002.00 2081.21 44.74
1052 26.1482 2132.00 2074.43 46.17
1053 26.1666 1985.00 2097.39 44.55
1054 26.1851 2005.00 2141.41 44.78
1055 26.2035 2095.00 2216.41 45.77
1056 26.2220 2142.00 2311.81 46.28
1057 26.2404 2107.00 2312.59 45.90
1058 26.2588 2093.00 2221.32 45.75
1059 26.2773 2117.00 2168.71 46.01
1060 26.2957 2063.00 2151.12 45.42
1061 26.3142 1939.00 2089.46 44.03
1062 26.3326 1947.00 2015.48 44.12
1063 26.3510 1964.00 1969.66 44.32
1064 26.3695 1852.00 1947.86 43.03
1065 26.3879 1889.00 1936.80 43.46
1066 26.4064 1839.00 1930.57 42.88
1067 26.4248 1908.00 1929.48 43.68
1068 26.4432 1824.00 1932.36 42.71
1069 26.4617 1908.00 1935.07 43.68
1070 26.4801 1917.00 1942.48 43.78
1071 26.4986 1989.00 1953.72 44.60
1072 26.5170 1858.00 1968.37 43.10
1073 26.5354 1937.00 1987.08 44.01
1074 26.5539 1944.00 2010.75 44.09
1075 26.5723 1979.00 2040.22 44.49
1076 26.5908 1998.00 2077.28 44.70
1077 26.6092 2058.00 2123.48 45.37
1078 26.6276 2053.00 2181.47 45.31
1079 26.6461 2206.00 2254.68 46.97
1080 26.6645 2178.00 2345.79 46.67
1081 26.6830 2319.00 2459.33 48.16
1082 26.7014 2491.00 2596.48 49.91
1083 26.7198 2636.00 2758.09 51.34
1084 26.7383 2775.00 2936.90 52.68
1085 26.7567 2947.00 3109.29 54.29
1086 26.7751 3096.00 3241.04 55.64
1087 26.7936 3156.00 3298.01 56.18
1088 26.8120 3015.00 3269.70 54.91
1089 26.8305 3043.00 3175.14 55.16
1090 26.8489 2904.00 3035.26 53.89
1091 26.8673 2832.00 2863.92 53.22
1092 26.8858 2573.00 2677.67 50.72
1093 26.9042 2432.00 2498.20 49.32
1094 26.9227 2335.00 2339.24 48.32
1095 26.9411 2179.00 2209.01 46.68
1096 26.9595 2065.00 2106.22 45.44
1097 26.9780 2039.00 2026.80 45.16
1098 26.9964 1958.00 1966.93 44.25
1099 27.0149 1909.00 1921.48 43.69
1100 27.0333 1979.00 1887.13 44.49
1101 27.0517 1884.00 1860.59 43.41
1102 27.0702 1825.00 1839.48 42.72
1103 27.0886 1825.00 1822.33 42.72
1104 27.1071 1819.00 1807.76 42.65
1105 27.1255 1767.00 1795.13 42.04
1106 27.1439 1661.00 1783.79 40.76
1107 27.1624 1726.00 1773.35 41.55
1108 27.1808 1691.00 1763.70 41.12
1109 27.1993 1743.00 1754.58 41.75
1110 27.2177 1711.00 1746.01 41.36
1111 27.2361 1697.00 1737.90 41.19
1112 27.2546 1701.00 1730.15 41.24
1113 27.2730 1748.00 1723.50 41.81
1114 27.2915 1656.00 1716.54 40.69
1115 27.3099 1695.00 1709.95 41.17
1116 27.3283 1643.00 1703.99 40.53
1117 27.3468 1651.00 1697.99 40.63
1118 27.3652 1600.00 1692.29 40.00
1119 27.3837 1713.00 1686.80 41.39
1120 27.4021 1668.00 1681.56 40.84
1121 27.4205 1639.00 1676.52 40.48
1122 27.4390 1692.00 1671.65 41.13
1123 27.4574 1728.00 1666.98 41.57
1124 27.4759 1572.00 1662.45 39.65
1125 27.4943 1609.00 1658.09 40.11
1126 27.5127 1665.00 1653.89 40.80
1127 27.5312 1613.00 1649.80 40.16
1128 27.5496 1673.00 1645.89 40.90
1129 27.5681 1631.00 1642.11 40.39
1130 27.5865 1647.00 1638.52 40.58
1131 27.6049 1654.00 1636.29 40.67
1132 27.6234 1614.00 1646.83 40.17
1133 27.6418 1673.00 1644.55 40.90
1134 27.6602 1635.00 1642.68 40.44
1135 27.6787 1694.00 1643.66 41.16
1136 27.6971 1727.00 1643.35 41.56
1137 27.7156 1662.00 1644.41 40.77
1138 27.7340 1701.00 1647.58 41.24
1139 27.7524 1622.00 1654.34 40.27
1140 27.7709 1684.00 1668.18 41.04
1141 27.7893 1702.00 1695.62 41.26
1142 27.8078 1728.00 1744.64 41.57
1143 27.8262 1846.00 1819.28 42.97
1144 27.8446 1856.00 1867.13 43.08
1145 27.8631 1872.00 1838.30 43.27
1146 27.8815 1882.00 1789.52 43.38
1147 27.9000 1750.00 1770.19 41.83
1148 27.9184 1688.00 1757.92 41.09
1149 27.9368 1652.00 1720.94 40.64
1150 27.9553 1729.00 1681.99 41.58
1151 27.9737 1628.00 1658.47 40.35
1152 27.9922 1684.00 1648.02 41.04
1153 28.0106 1620.00 1645.34 40.25
1154 28.0290 1675.00 1647.04 40.93
1155 28.0475 1644.00 1652.03 40.55
1156 28.0659 1614.00 1660.53 40.17
1157 28.0844 1681.00 1673.95 41.00
1158 28.1028 1770.00 1694.50 42.07
1159 28.1212 1767.00 1726.01 42.04
1160 28.1397 1874.00 1775.55 43.29
1161 28.1581 1975.00 1857.35 44.44
1162 28.1766 2244.00 2005.07 47.37
1163 28.1950 2354.00 2266.95 48.52
1164 28.2134 2734.00 2684.01 52.29
1165 28.2319 3042.00 3208.82 55.15
1166 28.2503 3444.00 3570.89 58.69
1167 28.2688 3375.00 3448.51 58.09
1168 28.2872 3197.00 3113.88 56.54
1169 28.3056 2897.00 2919.82 53.82
1170 28.3241 2812.00 2793.75 53.03
1171 28.3425 2624.00 2539.30 51.22
1172 28.3610 2366.00 2243.77 48.64
1173 28.3794 2099.00 2048.53 45.81
1174 28.3978 1981.00 1970.18 44.51
1175 28.4163 1967.00 1986.51 44.35
1176 28.4347 2062.00 2075.03 45.41
1177 28.4532 2230.00 2209.33 47.22
1178 28.4716 2269.00 2324.38 47.63
1179 28.4900 2260.00 2340.92 47.54
1180 28.5085 2251.00 2314.55 47.44
1181 28.5269 2231.00 2332.68 47.23
1182 28.5454 2286.00 2388.70 47.81
1183 28.5638 2376.00 2436.24 48.74
1184 28.5822 2370.00 2499.57 48.68
1185 28.6007 2417.00 2589.62 49.16
1186 28.6191 2544.00 2705.31 50.44
1187 28.6375 2748.00 2815.59 52.42
1188 28.6560 2702.00 2886.08 51.98
1189 28.6744 2649.00 2894.97 51.47
1190 28.6929 2719.00 2840.22 52.14
1191 28.7113 2629.00 2743.55 51.27
1192 28.7297 2523.00 2618.69 50.23
1193 28.7482 2372.00 2476.92 48.70
1194 28.7666 2275.00 2329.78 47.70
1195 28.7851 2243.00 2194.51 47.36
1196 28.8035 2114.00 2087.01 45.98
1197 28.8219 2202.00 2015.62 46.93
1198 28.8404 2036.00 1982.77 45.12
1199 28.8588 2004.00 1981.42 44.77
1200 28.8773 1993.00 1986.10 44.64
1201 28.8957 2001.00 1958.00 44.73
1202 28.9141 1944.00 1905.20 44.09
1203 28.9326 1749.00 1869.26 41.82
1204 28.9510 1903.00 1850.89 43.62
1205 28.9695 1871.00 1829.91 43.26
1206 28.9879 1697.00 1805.61 41.19
1207 29.0063 1762.00 1795.41 41.98
1208 29.0248 1769.00 1803.64 42.06
1209 29.0432 1770.00 1829.75 42.07
1210 29.0617 1881.00 1872.51 43.37
1211 29.0801 1890.00 1931.25 43.47
1212 29.0985 1883.00 2007.46 43.39
1213 29.1170 2026.00 2104.01 45.01
1214 29.1354 2175.00 2222.14 46.64
1215 29.1539 2278.00 2362.98 47.73
1216 29.1723 2351.00 2524.31 48.49
1217 29.1907 2532.00 2696.55 50.32
1218 29.2092 2678.00 2865.94 51.75
1219 29.2276 2817.00 3021.71 53.08
1220 29.2461 3025.00 3184.39 55.00
1221 29.2645 3283.00 3397.87 57.30
1222 29.2829 3608.00 3703.18 60.07
1223 29.3014 4032.00 4087.99 63.50
1224 29.3198 4225.00 4427.64 65.00
1225 29.3383 4576.00 4521.07 67.65
1226 29.3567 4347.00 4420.64 65.93
1227 29.3751 4403.00 4431.97 66.36
1228 29.3936 4618.00 4639.57 67.96
1229 29.4120 4696.00 4819.81 68.53
1230 29.4305 4553.00 4668.18 67.48
1231 29.4489 3989.00 4212.57 63.16
1232 29.4673 3770.00 3769.15 61.40
1233 29.4858 3419.00 3487.02 58.47
1234 29.5042 3110.00 3263.66 55.77
1235 29.5226 2939.00 2988.78 54.21
1236 29.5411 2597.00 2716.36 50.96
1237 29.5595 2428.00 2508.67 49.27
1238 29.5780 2267.00 2365.44 47.61
1239 29.5964 2219.00 2269.51 47.11
1240 29.6148 2227.00 2200.89 47.19
1241 29.6333 2126.00 2137.91 46.11
1242 29.6517 2109.00 2059.59 45.92
1243 29.6702 1984.00 1961.16 44.54
1244 29.6886 1928.00 1863.52 43.91
1245 29.7070 1961.00 1780.14 44.28
1246 29.7255 1759.00 1707.37 41.94
1247 29.7439 1766.00 1643.10 42.02
1248 29.7624 1678.00 1585.05 40.96
1249 29.7808 1632.00 1539.72 40.40
1250 29.7992 1586.00 1505.98 39.82
1251 29.8177 1500.00 1481.17 38.73
1252 29.8361 1571.00 1462.71 39.64
1253 29.8546 1480.00 1448.40 38.47
1254 29.8730 1406.00 1440.08 37.50
1255 29.8914 1444.00 1431.04 38.00
1256 29.9099 1394.00 1423.69 37.34
1257 29.9283 1418.00 1417.88 37.66
1258 29.9468 1436.00 1414.90 37.89
1259 29.9652 1422.00 1411.90 37.71
1260 29.9836 1374.00 1410.31 37.07
1261 30.0021 1361.00 1410.25 36.89
1262 30.0205 1361.00 1411.93 36.89
1263 30.0390 1343.00 1415.66 36.65
1264 30.0574 1472.00 1421.81 38.37
1265 30.0758 1414.00 1431.02 37.60
1266 30.0943 1488.00 1440.49 38.57
1267 30.1127 1434.00 1458.93 37.87
1268 30.1312 1430.00 1484.47 37.82
1269 30.1496 1413.00 1519.03 37.59
1270 30.1680 1486.00 1559.23 38.55
1271 30.1865 1512.00 1615.72 38.88
1272 30.2049 1553.00 1674.63 39.41
1273 30.2234 1569.00 1733.93 39.61
1274 30.2418 1601.00 1774.01 40.01
1275 30.2602 1547.00 1794.12 39.33
1276 30.2787 1569.00 1792.91 39.61
1277 30.2971 1606.00 1775.41 40.07
1278 30.3156 1555.00 1740.57 39.43
1279 30.3340 1530.00 1693.52 39.12
1280 30.3524 1457.00 1640.70 38.17
1281 30.3709 1457.00 1586.65 38.17
1282 30.3893 1437.00 1535.96 37.91
1283 30.4078 1392.00 1491.48 37.31
1284 30.4262 1363.00 1455.74 36.92
1285 30.4446 1392.00 1428.36 37.31
1286 30.4631 1423.00 1409.79 37.72
1287 30.4815 1412.00 1400.01 37.58
1288 30.4999 1432.00 1399.55 37.84
1289 30.5184 1420.00 1409.06 37.68
1290 30.5368 1451.00 1429.18 38.09
1291 30.5553 1552.00 1459.11 39.40
1292 30.5737 1591.00 1496.02 39.89
1293 30.5921 1569.00 1537.55 39.61
1294 30.6106 1739.00 1594.00 41.70
1295 30.6290 1935.00 1692.32 43.99
1296 30.6475 1962.00 1863.65 44.29
1297 30.6659 2203.00 2119.73 46.94
1298 30.6843 2376.00 2445.73 48.74
1299 30.7028 2855.00 2783.76 53.43
1300 30.7212 3119.00 3006.25 55.85
1301 30.7397 3269.00 3001.18 57.18
1302 30.7581 2999.00 2831.00 54.76
1303 30.7765 2833.00 2647.93 53.23
1304 30.7950 2529.00 2486.20 50.29
1305 30.8134 2397.00 2297.59 48.96
1306 30.8319 2173.00 2070.38 46.62
1307 30.8503 1942.00 1866.88 44.07
1308 30.8687 1751.00 1722.67 41.85
1309 30.8872 1529.00 1641.40 39.10
1310 30.9056 1466.00 1611.24 38.29
1311 30.9241 1520.00 1614.55 38.99
1312 30.9425 1551.00 1635.17 39.38
1313 30.9609 1557.00 1658.89 39.46
1314 30.9794 1625.00 1673.71 40.31
1315 30.9978 1574.00 1671.90 39.67
1316 31.0163 1632.00 1652.91 40.40
1317 31.0347 1611.00 1621.37 40.14
1318 31.0531 1509.00 1581.69 38.85
1319 31.0716 1531.00 1535.95 39.13
1320 31.0900 1466.00 1485.88 38.29
1321 31.1085 1504.00 1437.36 38.78
1322 31.1269 1455.00 1393.18 38.14
1323 31.1453 1433.00 1356.33 37.85
1324 31.1638 1385.00 1325.66 37.22
1325 31.1822 1336.00 1301.58 36.55
1326 31.2007 1319.00 1284.99 36.32
1327 31.2191 1375.00 1275.95 37.08
1328 31.2375 1297.00 1273.88 36.01
1329 31.2560 1315.00 1279.49 36.26
1330 31.2744 1299.00 1291.70 36.04
1331 31.2929 1382.00 1307.34 37.18
1332 31.3113 1352.00 1319.89 36.77
1333 31.3297 1383.00 1322.02 37.19
1334 31.3482 1390.00 1314.05 37.28
1335 31.3666 1422.00 1305.00 37.71
1336 31.3850 1384.00 1300.97 37.20
1337 31.4035 1334.00 1301.42 36.52
1338 31.4219 1327.00 1303.73 36.43
1339 31.4404 1234.00 1306.95 35.13
1340 31.4588 1404.00 1307.66 37.47
1341 31.4772 1334.00 1300.03 36.52
1342 31.4957 1337.00 1284.04 36.56
1343 31.5141 1346.00 1266.74 36.69
1344 31.5326 1296.00 1255.21 36.00
1345 31.5510 1288.00 1240.26 35.89
1346 31.5694 1279.00 1223.33 35.76
1347 31.5879 1268.00 1206.27 35.61
1348 31.6063 1224.00 1190.96 34.99
1349 31.6248 1199.00 1180.33 34.63
1350 31.6432 1227.00 1172.95 35.03
1351 31.6616 1217.00 1167.95 34.89
1352 31.6801 1240.00 1163.09 35.21
1353 31.6985 1198.00 1160.69 34.61
1354 31.7170 1190.00 1158.85 34.50
1355 31.7354 1164.00 1157.43 34.12
1356 31.7538 1210.00 1156.34 34.79
1357 31.7723 1221.00 1155.56 34.94
1358 31.7907 1243.00 1155.14 35.26
1359 31.8092 1188.00 1155.12 34.47
1360 31.8276 1193.00 1154.52 34.54
1361 31.8460 1135.00 1155.61 33.69
1362 31.8645 1182.00 1157.53 34.38
1363 31.8829 1184.00 1160.52 34.41
1364 31.9014 1198.00 1164.59 34.61
1365 31.9198 1211.00 1171.67 34.80
1366 31.9382 1215.00 1185.24 34.86
1367 31.9567 1315.00 1204.76 36.26
1368 31.9751 1270.00 1237.84 35.64
1369 31.9936 1384.00 1291.91 37.20
1370 32.0120 1463.00 1372.62 38.25
1371 32.0304 1534.00 1476.87 39.17
1372 32.0489 1739.00 1594.06 41.70
1373 32.0673 1991.00 1695.84 44.62
1374 32.0858 2007.00 1745.07 44.80
1375 32.1042 1924.00 1725.43 43.86
1376 32.1226 1806.00 1667.43 42.50
1377 32.1411 1644.00 1604.58 40.55
1378 32.1595 1621.00 1542.02 40.26
1379 32.1780 1579.00 1467.70 39.74
1380 32.1964 1503.00 1384.73 38.77
1381 32.2148 1318.00 1308.52 36.30
1382 32.2333 1259.00 1248.80 35.48
1383 32.2517 1198.00 1207.98 34.61
1384 32.2701 1210.00 1182.51 34.79
1385 32.2886 1231.00 1168.20 35.09
1386 32.3070 1262.00 1161.71 35.52
1387 32.3255 1216.00 1160.47 34.87
1388 32.3439 1166.00 1163.10 34.15
1389 32.3623 1271.00 1168.05 35.65
1390 32.3808 1198.00 1173.35 34.61
1391 32.3992 1259.00 1176.75 35.48
1392 32.4177 1215.00 1176.01 34.86
1393 32.4361 1226.00 1171.87 35.01
1394 32.4545 1213.00 1166.88 34.83
1395 32.4730 1217.00 1162.12 34.89
1396 32.4914 1190.00 1157.32 34.50
1397 32.5099 1194.00 1151.90 34.55
1398 32.5283 1167.00 1146.71 34.16
1399 32.5467 1159.00 1142.68 34.04
1400 32.5652 1173.00 1139.11 34.25
1401 32.5836 1169.00 1138.07 34.19
1402 32.6021 1120.00 1138.23 33.47
1403 32.6205 1268.00 1139.32 35.61
1404 32.6389 1136.00 1141.16 33.70
1405 32.6574 1145.00 1143.16 33.84
1406 32.6758 1211.00 1146.30 34.80
1407 32.6943 1152.00 1150.13 33.94
1408 32.7127 1181.00 1154.71 34.37
1409 32.7311 1159.00 1160.19 34.04
1410 32.7496 1245.00 1166.77 35.28
1411 32.7680 1202.00 1174.62 34.67
1412 32.7865 1198.00 1184.14 34.61
1413 32.8049 1179.00 1195.64 34.34
1414 32.8233 1189.00 1209.71 34.48
1415 32.8418 1194.00 1227.01 34.55
1416 32.8602 1242.00 1247.92 35.24
1417 32.8787 1298.00 1273.09 36.03
1418 32.8971 1302.00 1302.53 36.08
1419 32.9155 1343.00 1336.57 36.65
1420 32.9340 1344.00 1375.99 36.66
1421 32.9524 1401.00 1422.42 37.43
1422 32.9709 1426.00 1479.47 37.76
1423 32.9893 1548.00 1549.52 39.34
1424 33.0077 1523.00 1635.04 39.03
1425 33.0262 1600.00 1738.53 40.00
1426 33.0446 1754.00 1859.38 41.88
1427 33.0631 1907.00 2000.51 43.67
1428 33.0815 2162.00 2155.05 46.50
1429 33.0999 2300.00 2312.73 47.96
1430 33.1184 2336.00 2454.93 48.33
1431 33.1368 2468.00 2554.76 49.68
1432 33.1553 2459.00 2594.78 49.59
1433 33.1737 2325.00 2572.26 48.22
1434 33.1921 2407.00 2502.26 49.06
1435 33.2106 2130.00 2401.38 46.15
1436 33.2290 2110.00 2281.33 45.93
1437 33.2474 2095.00 2145.97 45.77
1438 33.2659 1826.00 2004.03 42.73
1439 33.2843 1750.00 1869.50 41.83
1440 33.3028 1745.00 1751.98 41.77
1441 33.3212 1714.00 1657.85 41.40
1442 33.3396 1644.00 1587.91 40.55
1443 33.3581 1629.00 1540.84 40.36
1444 33.3765 1604.00 1515.02 40.05
1445 33.3950 1649.00 1510.01 40.61
1446 33.4134 1652.00 1521.12 40.64
1447 33.4318 1678.00 1548.78 40.96
1448 33.4503 1790.00 1592.33 42.31
1449 33.4687 1917.00 1653.90 43.78
1450 33.4872 2184.00 1725.30 46.73
1451 33.5056 2409.00 1802.45 49.08
1452 33.5240 2499.00 1878.02 49.99
1453 33.5425 2550.00 1939.39 50.50
1454 33.5609 2426.00 1973.83 49.25
1455 33.5794 2259.00 1972.12 47.53
1456 33.5978 2299.00 1938.27 47.95
1457 33.6162 2216.00 1882.65 47.07
1458 33.6347 1943.00 1812.87 44.08
1459 33.6531 1768.00 1733.42 42.05
1460 33.6716 1649.00 1646.68 40.61
1461 33.6900 1542.00 1559.19 39.27
1462 33.7084 1494.00 1477.08 38.65
1463 33.7269 1404.00 1404.71 37.47
1464 33.7453 1392.00 1344.61 37.31
1465 33.7638 1397.00 1297.51 37.38
1466 33.7822 1388.00 1259.07 37.26
1467 33.8006 1354.00 1228.91 36.80
1468 33.8191 1340.00 1205.19 36.61
1469 33.8375 1342.00 1186.70 36.63
1470 33.8560 1269.00 1172.86 35.62
1471 33.8744 1241.00 1161.22 35.23
1472 33.8928 1316.00 1151.81 36.28
1473 33.9113 1227.00 1144.06 35.03
1474 33.9297 1205.00 1137.65 34.71
1475 33.9482 1244.00 1132.32 35.27
1476 33.9666 1188.00 1127.94 34.47
1477 33.9850 1180.00 1124.39 34.35
1478 34.0035 1199.00 1121.65 34.63
1479 34.0219 1196.00 1119.77 34.58
1480 34.0404 1162.00 1118.88 34.09
1481 34.0588 1211.00 1119.20 34.80
1482 34.0772 1183.00 1121.78 34.39
1483 34.0957 1123.00 1126.35 33.51
1484 34.1141 1196.00 1135.14 34.58
1485 34.1325 1173.00 1151.03 34.25
1486 34.1510 1211.00 1180.52 34.80
1487 34.1694 1204.00 1223.48 34.70
1488 34.1879 1306.00 1284.60 36.14
1489 34.2063 1347.00 1361.73 36.70
1490 34.2247 1375.00 1446.94 37.08
1491 34.2432 1515.00 1525.84 38.92
1492 34.2616 1528.00 1573.51 39.09
1493 34.2801 1558.00 1576.66 39.47
1494 34.2985 1613.00 1544.64 40.16
1495 34.3169 1535.00 1499.87 39.18
1496 34.3354 1474.00 1453.51 38.39
1497 34.3538 1412.00 1403.28 37.58
1498 34.3723 1380.00 1344.50 37.15
1499 34.3907 1304.00 1283.41 36.11
1500 34.4091 1268.00 1229.25 35.61
1501 34.4276 1195.00 1186.96 34.57
1502 34.4460 1138.00 1157.36 33.73
1503 34.4645 1159.00 1138.15 34.04
1504 34.4829 1195.00 1126.83 34.57
1505 34.5013 1108.00 1120.81 33.29
1506 34.5198 1098.00 1118.19 33.14
1507 34.5382 1100.00 1117.75 33.17
1508 34.5567 1143.00 1118.75 33.81
1509 34.5751 1109.00 1120.81 33.30
1510 34.5935 1045.00 1123.78 32.33
1511 34.6120 1139.00 1127.65 33.75
1512 34.6304 1096.00 1132.44 33.11
1513 34.6489 1090.00 1138.29 33.02
1514 34.6673 1079.00 1145.28 32.85
1515 34.6857 1096.00 1153.60 33.11
1516 34.7042 1188.00 1163.53 34.47
1517 34.7226 1116.00 1175.21 33.41
1518 34.7411 1105.00 1189.12 33.24
1519 34.7595 1106.00 1205.50 33.26
1520 34.7779 1168.00 1225.09 34.18
1521 34.7964 1215.00 1247.56 34.86
1522 34.8148 1235.00 1275.41 35.14
1523 34.8333 1211.00 1309.02 34.80
1524 34.8517 1227.00 1349.31 35.03
1525 34.8701 1276.00 1397.36 35.72
1526 34.8886 1284.00 1457.68 35.83
1527 34.9070 1391.00 1529.52 37.30
1528 34.9255 1488.00 1616.96 38.57
1529 34.9439 1673.00 1721.56 40.90
1530 34.9623 1710.00 1846.56 41.35
1531 34.9808 1898.00 1993.35 43.57
1532 34.9992 2094.00 2160.83 45.76
1533 35.0176 2310.00 2342.90 48.06
1534 35.0361 2527.00 2534.06 50.27
1535 35.0545 2860.00 2721.71 53.48
1536 35.0730 2985.00 2897.95 54.64
1537 35.0914 3229.00 3053.39 56.82
1538 35.1098 3261.00 3175.85 57.11
1539 35.1283 3264.00 3248.31 57.13
1540 35.1467 3388.00 3252.61 58.21
1541 35.1652 3231.00 3186.22 56.84
1542 35.1836 2938.00 3066.33 54.20
1543 35.2020 2813.00 2916.33 53.04
1544 35.2205 2668.00 2750.04 51.65
1545 35.2389 2423.00 2581.62 49.22
1546 35.2574 2201.00 2414.04 46.91
1547 35.2758 2104.00 2259.56 45.87
1548 35.2942 1942.00 2128.47 44.07
1549 35.3127 1899.00 2028.47 43.58
1550 35.3311 1918.00 1961.91 43.79
1551 35.3496 1863.00 1928.16 43.16
1552 35.3680 1959.00 1922.22 44.26
1553 35.3864 2064.00 1936.70 45.43
1554 35.4049 2254.00 1962.56 47.48
1555 35.4233 2254.00 1985.41 47.48
1556 35.4418 2327.00 1994.66 48.24
1557 35.4602 2323.00 1983.04 48.20
1558 35.4786 2275.00 1952.31 47.70
1559 35.4971 2160.00 1909.14 46.48
1560 35.5155 2046.00 1860.34 45.23
1561 35.5340 1906.00 1808.30 43.66
1562 35.5524 1830.00 1755.49 42.78
1563 35.5708 1747.00 1705.40 41.80
1564 35.5893 1703.00 1663.46 41.27
1565 35.6077 1478.00 1635.35 38.44
1566 35.6262 1542.00 1625.38 39.27
1567 35.6446 1522.00 1632.94 39.01
1568 35.6630 1649.00 1659.43 40.61
1569 35.6815 1633.00 1704.67 40.41
1570 35.6999 1673.00 1766.83 40.90
1571 35.7184 1815.00 1844.54 42.60
1572 35.7368 1900.00 1931.79 43.59
1573 35.7552 1983.00 2024.30 44.53
1574 35.7737 2126.00 2116.48 46.11
1575 35.7921 2155.00 2199.96 46.42
1576 35.8106 1998.00 2265.40 44.70
1577 35.8290 2067.00 2300.55 45.46
1578 35.8474 2121.00 2298.61 46.05
1579 35.8659 1975.00 2260.65 44.44
1580 35.8843 2033.00 2194.52 45.09
1581 35.9028 1951.00 2108.34 44.17
1582 35.9212 1824.00 2010.96 42.71
1583 35.9396 1775.00 1908.79 42.13
1584 35.9581 1693.00 1807.15 41.15
1585 35.9765 1659.00 1712.64 40.73
1586 35.9949 1609.00 1629.53 40.11
1587 36.0134 1559.00 1561.83 39.48
1588 36.0318 1569.00 1514.21 39.61
1589 36.0503 1532.00 1483.99 39.14
1590 36.0687 1509.00 1471.71 38.85
1591 36.0871 1563.00 1478.02 39.53
1592 36.1056 1513.00 1496.46 38.90
1593 36.1240 1632.00 1527.92 40.40
1594 36.1425 1606.00 1568.79 40.07
1595 36.1609 1666.00 1615.21 40.82
1596 36.1793 1699.00 1662.44 41.22
1597 36.1978 1705.00 1700.15 41.29
1598 36.2162 1836.00 1721.29 42.85
1599 36.2347 1699.00 1722.46 41.22
1600 36.2531 1657.00 1706.40 40.71
1601 36.2715 1623.00 1679.59 40.29
1602 36.2900 1717.00 1648.19 41.44
1603 36.3084 1561.00 1613.22 39.51
1604 36.3269 1538.00 1576.80 39.22
1605 36.3453 1530.00 1542.37 39.12
1606 36.3637 1510.00 1514.25 38.86
1607 36.3822 1524.00 1497.18 39.04
1608 36.4006 1546.00 1493.42 39.32
1609 36.4191 1471.00 1504.95 38.35
1610 36.4375 1497.00 1532.24 38.69
1611 36.4559 1544.00 1575.38 39.29
1612 36.4744 1683.00 1634.25 41.02
1613 36.4928 1843.00 1706.85 42.93
1614 36.5113 1927.00 1790.88 43.90
1615 36.5297 2183.00 1879.83 46.72
1616 36.5481 2321.00 1965.90 48.18
1617 36.5666 2360.00 2040.27 48.58
1618 36.5850 2500.00 2095.74 50.00
1619 36.6035 2462.00 2132.24 49.62
1620 36.6219 2316.00 2153.93 48.12
1621 36.6403 2406.00 2166.42 49.05
1622 36.6588 2326.00 2171.27 48.23
1623 36.6772 2228.00 2164.76 47.20
1624 36.6957 2303.00 2140.71 47.99
1625 36.7141 2198.00 2095.56 46.88
1626 36.7325 2098.00 2031.62 45.80
1627 36.7510 1924.00 1954.94 43.86
1628 36.7694 1824.00 1878.71 42.71
1629 36.7879 1759.00 1805.96 41.94
1630 36.8063 1643.00 1738.85 40.53
1631 36.8247 1608.00 1674.34 40.10
1632 36.8432 1487.00 1618.48 38.56
1633 36.8616 1515.00 1576.25 38.92
1634 36.8800 1521.00 1548.59 39.00
1635 36.8985 1509.00 1537.05 38.85
1636 36.9169 1553.00 1540.05 39.41
1637 36.9354 1514.00 1558.45 38.91
1638 36.9538 1543.00 1589.07 39.28
1639 36.9722 1637.00 1625.31 40.46
1640 36.9907 1654.00 1661.13 40.67
1641 37.0091 1611.00 1686.67 40.14
1642 37.0276 1618.00 1695.71 40.22
1643 37.0460 1646.00 1686.10 40.57
1644 37.0644 1666.00 1661.89 40.82
1645 37.0829 1523.00 1629.40 39.03
1646 37.1013 1465.00 1592.91 38.28
1647 37.1198 1429.00 1554.08 37.80
1648 37.1382 1381.00 1512.89 37.16
1649 37.1566 1416.00 1475.51 37.63
1650 37.1751 1375.00 1444.28 37.08
1651 37.1935 1300.00 1423.20 36.06
1652 37.2120 1359.00 1414.16 36.86
1653 37.2304 1419.00 1417.72 37.67
1654 37.2488 1389.00 1432.24 37.27
1655 37.2673 1401.00 1457.74 37.43
1656 37.2857 1564.00 1490.03 39.55
1657 37.3042 1639.00 1524.67 40.48
1658 37.3226 1702.00 1554.69 41.26
1659 37.3410 1693.00 1573.47 41.15
1660 37.3595 1722.00 1576.72 41.50
1661 37.3779 1624.00 1565.17 40.30
1662 37.3964 1600.00 1543.46 40.00
1663 37.4148 1587.00 1516.72 39.84
1664 37.4332 1466.00 1487.45 38.29
1665 37.4517 1504.00 1456.62 38.78
1666 37.4701 1393.00 1424.92 37.32
1667 37.4886 1320.00 1396.43 36.33
1668 37.5070 1263.00 1374.45 35.54
1669 37.5254 1272.00 1361.68 35.67
1670 37.5439 1317.00 1357.81 36.29
1671 37.5623 1350.00 1367.84 36.74
1672 37.5808 1250.00 1390.93 35.36
1673 37.5992 1323.00 1427.37 36.37
1674 37.6176 1442.00 1478.56 37.97
1675 37.6361 1439.00 1544.20 37.93
1676 37.6545 1526.00 1627.06 39.06
1677 37.6730 1691.00 1727.26 41.12
1678 37.6914 1880.00 1842.76 43.36
1679 37.7098 2126.00 1970.95 46.11
1680 37.7283 2253.00 2106.30 47.47
1681 37.7467 2375.00 2237.33 48.73
1682 37.7652 2546.00 2353.95 50.46
1683 37.7836 2701.00 2443.77 51.97
1684 37.8020 2746.00 2498.48 52.40
1685 37.8205 2781.00 2512.17 52.74
1686 37.8389 2684.00 2484.63 51.81
1687 37.8573 2696.00 2423.79 51.92
1688 37.8758 2512.00 2341.53 50.12
1689 37.8942 2354.00 2250.09 48.52
1690 37.9127 2256.00 2155.49 47.50
1691 37.9311 2087.00 2061.35 45.68
1692 37.9495 2049.00 1974.18 45.27
1693 37.9680 1857.00 1896.81 43.09
1694 37.9864 1927.00 1833.00 43.90
1695 38.0049 1854.00 1781.30 43.06
1696 38.0233 1784.00 1739.09 42.24
1697 38.0417 1621.00 1703.11 40.26
1698 38.0602 1674.00 1675.13 40.91
1699 38.0786 1674.00 1656.84 40.91
1700 38.0971 1612.00 1647.87 40.15
1701 38.1155 1665.00 1643.80 40.80
1702 38.1339 1722.00 1637.25 41.50
1703 38.1524 1661.00 1618.53 40.76
1704 38.1708 1536.00 1583.58 39.19
1705 38.1893 1533.00 1535.24 39.15
1706 38.2077 1516.00 1483.71 38.94
1707 38.2261 1365.00 1436.68 36.95
1708 38.2446 1431.00 1394.54 37.83
1709 38.2630 1409.00 1354.84 37.54
1710 38.2815 1279.00 1314.35 35.76
1711 38.2999 1302.00 1273.24 36.08
1712 38.3183 1195.00 1234.99 34.57
1713 38.3368 1172.00 1201.59 34.23
1714 38.3552 1067.00 1173.41 32.67
1715 38.3737 1174.00 1150.40 34.26
1716 38.3921 1166.00 1132.04 34.15
1717 38.4105 1076.00 1122.95 32.80
1718 38.4290 1019.00 1112.28 31.92
1719 38.4474 1077.00 1102.29 32.82
1720 38.4659 1047.00 1095.61 32.36
1721 38.4843 1065.00 1091.05 32.63
1722 38.5027 1038.00 1089.77 32.22
1723 38.5212 1086.00 1093.81 32.95
1724 38.5396 1083.00 1104.06 32.91
1725 38.5581 1104.00 1122.02 33.23
1726 38.5765 1148.00 1144.51 33.88
1727 38.5949 1196.00 1167.61 34.58
1728 38.6134 1174.00 1186.60 34.26
1729 38.6318 1124.00 1198.48 33.53
1730 38.6503 1177.00 1200.90 34.31
1731 38.6687 1162.00 1200.84 34.09
1732 38.6871 1168.00 1205.25 34.18
1733 38.7056 1213.00 1217.11 34.83
1734 38.7240 1226.00 1234.38 35.01
1735 38.7424 1246.00 1252.50 35.30
1736 38.7609 1276.00 1266.63 35.72
1737 38.7793 1156.00 1276.74 34.00
1738 38.7978 1229.00 1277.41 35.06
1739 38.8162 1169.00 1264.52 34.19
1740 38.8346 1164.00 1239.44 34.12
1741 38.8531 1214.00 1208.16 34.84
1742 38.8715 1093.00 1178.51 33.06
1743 38.8900 1099.00 1150.95 33.15
1744 38.9084 1125.00 1123.92 33.54
1745 38.9268 1045.00 1096.17 32.33
1746 38.9453 1014.00 1069.71 31.84
1747 38.9637 974.00 1048.17 31.21
1748 38.9822 1007.00 1032.88 31.73
1749 39.0006 973.00 1023.38 31.19
1750 39.0190 955.00 1017.53 30.90
1751 39.0375 1019.00 1012.87 31.92
1752 39.0559 1008.00 1007.91 31.75
1753 39.0744 920.00 1002.75 30.33
1754 39.0928 957.00 997.99 30.94
1755 39.1112 960.00 995.66 30.98
1756 39.1297 973.00 995.40 31.19
1757 39.1481 944.00 998.69 30.72
1758 39.1666 978.00 1005.14 31.27
1759 39.1850 942.00 1018.15 30.69
1760 39.2034 1025.00 1042.42 32.02
1761 39.2219 1034.00 1080.24 32.16
1762 39.2403 1073.00 1136.32 32.76
1763 39.2588 1128.00 1199.24 33.59
1764 39.2772 1333.00 1265.85 36.51
1765 39.2956 1386.00 1325.44 37.23
1766 39.3141 1535.00 1365.17 39.18
1767 39.3325 1558.00 1375.34 39.47
1768 39.3510 1456.00 1358.26 38.16
1769 39.3694 1343.00 1328.12 36.65
1770 39.3878 1288.00 1295.76 35.89
1771 39.4063 1280.00 1263.58 35.78
1772 39.4247 1284.00 1228.36 35.83
1773 39.4432 1207.00 1187.18 34.74
1774 39.4616 1167.00 1143.67 34.16
1775 39.4800 949.00 1104.49 30.81
1776 39.4985 1029.00 1073.83 32.08
1777 39.5169 990.00 1052.05 31.46
1778 39.5354 986.00 1040.81 31.40
1779 39.5538 968.00 1037.41 31.11
1780 39.5722 936.00 1037.64 30.59
1781 39.5907 981.00 1045.34 31.32
1782 39.6091 1021.00 1055.93 31.95
1783 39.6275 940.00 1070.81 30.66
1784 39.6460 949.00 1090.19 30.81
1785 39.6644 1020.00 1115.11 31.94
1786 39.6829 977.00 1146.02 31.26
1787 39.7013 1082.00 1186.69 32.89
1788 39.7197 1093.00 1237.38 33.06
1789 39.7382 1150.00 1299.87 33.91
1790 39.7566 1230.00 1374.29 35.07
1791 39.7751 1296.00 1460.81 36.00
1792 39.7935 1442.00 1554.89 37.97
1793 39.8119 1671.00 1653.87 40.88
1794 39.8304 1806.00 1749.38 42.50
1795 39.8488 1895.00 1831.65 43.53
1796 39.8673 2027.00 1892.22 45.02
1797 39.8857 2027.00 1923.15 45.02
1798 39.9041 2126.00 1923.97 46.11
1799 39.9226 1910.00 1899.10 43.70
1800 39.9410 1987.00 1857.64 44.58
1801 39.9595 1852.00 1807.33 43.03
1802 39.9779 1760.00 1751.64 41.95
1803 39.9963 1702.00 1690.88 41.26
1804 40.0148 1608.00 1625.64 40.10
1805 40.0332 1543.00 1561.44 39.28
1806 40.0517 1395.00 1503.12 37.35
1807 40.0701 1390.00 1455.64 37.28
1808 40.0885 1237.00 1419.95 35.17
1809 40.1070 1327.00 1394.92 36.43
1810 40.1254 1266.00 1377.11 35.58
1811 40.1439 1263.00 1362.77 35.54
1812 40.1623 1302.00 1348.90 36.08
1813 40.1807 1336.00 1334.29 36.55
1814 40.1992 1224.00 1320.31 34.99
1815 40.2176 1313.00 1309.69 36.24
1816 40.2361 1285.00 1305.27 35.85
1817 40.2545 1229.00 1308.79 35.06
1818 40.2729 1211.00 1320.86 34.80
1819 40.2914 1290.00 1340.83 35.92
1820 40.3098 1349.00 1366.42 36.73
1821 40.3283 1357.00 1394.73 36.84
1822 40.3467 1399.00 1421.21 37.40
1823 40.3651 1411.00 1442.44 37.56
1824 40.3836 1358.00 1458.25 36.85
1825 40.4020 1417.00 1474.61 37.64
1826 40.4205 1408.00 1488.45 37.52
1827 40.4389 1486.00 1499.17 38.55
1828 40.4573 1493.00 1500.52 38.64
1829 40.4758 1510.00 1487.98 38.86
1830 40.4942 1461.00 1463.21 38.22
1831 40.5127 1537.00 1432.41 39.20
1832 40.5311 1365.00 1402.85 36.95
1833 40.5495 1398.00 1377.89 37.39
1834 40.5680 1399.00 1359.99 37.40
1835 40.5864 1312.00 1349.36 36.22
1836 40.6048 1354.00 1347.23 36.80
1837 40.6233 1335.00 1356.04 36.54
1838 40.6417 1352.00 1378.17 36.77
1839 40.6602 1394.00 1416.66 37.34
1840 40.6786 1448.00 1471.81 38.05
1841 40.6970 1563.00 1543.22 39.53
1842 40.7155 1632.00 1629.95 40.40
1843 40.7339 1623.00 1722.59 40.29
1844 40.7524 1787.00 1813.46 42.27
1845 40.7708 1773.00 1887.24 42.11
1846 40.7892 1797.00 1931.25 42.39
1847 40.8077 1829.00 1937.65 42.77
1848 40.8261 1665.00 1908.42 40.80
1849 40.8446 1692.00 1853.45 41.13
1850 40.8630 1592.00 1786.05 39.90
1851 40.8814 1509.00 1712.76 38.85
1852 40.8999 1509.00 1634.07 38.85
1853 40.9183 1427.00 1549.75 37.78
1854 40.9368 1342.00 1465.52 36.63
1855 40.9552 1302.00 1378.28 36.08
1856 40.9736 1238.00 1297.15 35.19
1857 40.9921 1169.00 1227.59 34.19
1858 41.0105 1151.00 1172.14 33.93
1859 41.0290 1064.00 1129.61 32.62
1860 41.0474 1041.00 1099.61 32.26
1861 41.0658 1033.00 1079.05 32.14
1862 41.0843 945.00 1067.56 30.74
1863 41.1027 1036.00 1063.88 32.19
1864 41.1212 1045.00 1065.99 32.33
1865 41.1396 991.00 1071.05 31.48
1866 41.1580 1074.00 1075.51 32.77
1867 41.1765 1024.00 1075.71 32.00
1868 41.1949 1006.00 1069.78 31.72
1869 41.2134 1005.00 1058.94 31.70
1870 41.2318 1047.00 1046.70 32.36
1871 41.2502 985.00 1035.50 31.38
1872 41.2687 983.00 1025.67 31.35
1873 41.2871 961.00 1016.43 31.00
1874 41.3056 948.00 1007.34 30.79
1875 41.3240 911.00 999.87 30.18
1876 41.3424 947.00 996.32 30.77
1877 41.3609 950.00 998.62 30.82
1878 41.3793 940.00 1007.40 30.66
1879 41.3978 984.00 1022.11 31.37
1880 41.4162 1026.00 1040.74 32.03
1881 41.4346 1025.00 1060.56 32.02
1882 41.4531 1028.00 1078.33 32.06
1883 41.4715 1039.00 1091.39 32.23
1884 41.4899 1021.00 1099.82 31.95
1885 41.5084 1017.00 1106.10 31.89
1886 41.5268 1077.00 1113.36 32.82
1887 41.5453 1032.00 1123.61 32.12
1888 41.5637 1127.00 1136.48 33.57
1889 41.5821 1110.00 1150.53 33.32
1890 41.6006 1121.00 1163.92 33.48
1891 41.6190 1149.00 1175.86 33.90
1892 41.6375 1196.00 1185.15 34.58
1893 41.6559 1182.00 1191.27 34.38
1894 41.6743 1223.00 1195.24 34.97
1895 41.6928 1192.00 1196.79 34.53
1896 41.7112 1282.00 1202.20 35.81
1897 41.7297 1246.00 1209.85 35.30
1898 41.7481 1345.00 1218.76 36.67
1899 41.7665 1378.00 1227.63 37.12
1900 41.7850 1411.00 1235.44 37.56
1901 41.8034 1318.00 1246.37 36.30
1902 41.8219 1341.00 1263.33 36.62
1903 41.8403 1436.00 1290.93 37.89
1904 41.8587 1444.00 1332.21 38.00
1905 41.8772 1374.00 1387.78 37.07
1906 41.8956 1547.00 1454.06 39.33
1907 41.9141 1554.00 1525.56 39.42
1908 41.9325 1679.00 1592.94 40.98
1909 41.9509 1744.00 1648.13 41.76
1910 41.9694 1907.00 1675.71 43.67
1911 41.9878 1891.00 1674.71 43.49
1912 42.0063 1812.00 1653.28 42.57
1913 42.0247 1717.00 1614.28 41.44
1914 42.0431 1637.00 1571.54 40.46
1915 42.0616 1579.00 1529.56 39.74
1916 42.0800 1573.00 1489.39 39.66
1917 42.0985 1569.00 1450.12 39.61
1918 42.1169 1551.00 1413.49 39.38
1919 42.1353 1522.00 1381.24 39.01
1920 42.1538 1448.00 1354.72 38.05
1921 42.1722 1476.00 1333.00 38.42
1922 42.1907 1422.00 1314.08 37.71
1923 42.2091 1554.00 1298.46 39.42
1924 42.2275 1582.00 1288.85 39.77
1925 42.2460 1681.00 1287.30 41.00
1926 42.2644 1622.00 1292.54 40.27
1927 42.2829 1657.00 1301.41 40.71
1928 42.3013 1545.00 1309.60 39.31
1929 42.3197 1508.00 1316.73 38.83
1930 42.3382 1518.00 1324.83 38.96
1931 42.3566 1465.00 1337.39 38.28
1932 42.3751 1469.00 1357.08 38.33
1933 42.3935 1495.00 1384.48 38.67
1934 42.4119 1529.00 1418.33 39.10
1935 42.4304 1423.00 1457.13 37.72
1936 42.4488 1472.00 1499.01 38.37
1937 42.4672 1408.00 1543.02 37.52
1938 42.4857 1516.00 1588.29 38.94
1939 42.5041 1556.00 1632.56 39.45
1940 42.5226 1552.00 1673.08 39.40
1941 42.5410 1677.00 1706.71 40.95
1942 42.5594 1694.00 1731.60 41.16
1943 42.5779 1720.00 1746.15 41.47
1944 42.5963 1742.00 1749.25 41.74
1945 42.6148 1615.00 1739.06 40.19
1946 42.6332 1668.00 1722.10 40.84
1947 42.6516 1669.00 1700.24 40.85
1948 42.6701 1653.00 1677.64 40.66
1949 42.6885 1698.00 1657.18 41.21
1950 42.7070 1584.00 1638.00 39.80
1951 42.7254 1637.00 1618.44 40.46
1952 42.7438 1652.00 1593.51 40.64
1953 42.7623 1589.00 1560.46 39.86
1954 42.7807 1540.00 1518.58 39.24
1955 42.7992 1458.00 1469.66 38.18
1956 42.8176 1459.00 1418.43 38.20
1957 42.8360 1405.00 1369.86 37.48
1958 42.8545 1341.00 1322.90 36.62
1959 42.8729 1312.00 1278.63 36.22
1960 42.8914 1265.00 1235.19 35.57
1961 42.9098 1263.00 1192.94 35.54
1962 42.9282 1097.00 1152.91 33.12
1963 42.9467 1112.00 1116.98 33.35
1964 42.9651 1083.00 1087.54 32.91
1965 42.9836 1038.00 1063.01 32.22
1966 43.0020 1015.00 1044.46 31.86
1967 43.0204 1032.00 1031.34 32.12
1968 43.0389 1007.00 1023.17 31.73
1969 43.0573 971.00 1019.80 31.16
1970 43.0758 1014.00 1021.77 31.84
1971 43.0942 1011.00 1028.57 31.80
1972 43.1126 1050.00 1041.46 32.40
1973 43.1311 1036.00 1061.57 32.19
1974 43.1495 1058.00 1089.47 32.53
1975 43.1680 1098.00 1125.60 33.14
1976 43.1864 1123.00 1168.47 33.51
1977 43.2048 1128.00 1215.86 33.59
1978 43.2233 1157.00 1263.34 34.01
1979 43.2417 1268.00 1306.31 35.61
1980 43.2602 1264.00 1340.08 35.55
1981 43.2786 1344.00 1363.96 36.66
1982 43.2970 1358.00 1380.85 36.85
1983 43.3155 1401.00 1394.34 37.43
1984 43.3339 1437.00 1404.31 37.91
1985 43.3523 1477.00 1408.27 38.43
1986 43.3708 1382.00 1401.82 37.18
1987 43.3892 1440.00 1384.25 37.95
1988 43.4077 1386.00 1358.87 37.23
1989 43.4261 1288.00 1332.15 35.89
1990 43.4445 1319.00 1308.85 36.32
1991 43.4630 1348.00 1291.86 36.72
1992 43.4814 1277.00 1281.58 35.74
1993 43.4999 1279.00 1278.57 35.76
1994 43.5183 1291.00 1283.93 35.93
1995 43.5367 1254.00 1299.32 35.41
1996 43.5552 1194.00 1327.02 34.55
1997 43.5736 1321.00 1369.20 36.35
1998 43.5921 1376.00 1425.06 37.09
1999 43.6105 1413.00 1494.46 37.59
2000 43.6289 1459.00 1575.04 38.20
2001 43.6474 1477.00 1663.48 38.43
2002 43.6658 1605.00 1750.36 40.06
2003 43.6843 1633.00 1825.74 40.41
2004 43.7027 1636.00 1876.06 40.45
2005 43.7211 1595.00 1894.07 39.94
2006 43.7396 1650.00 1878.57 40.62
2007 43.7580 1592.00 1836.91 39.90
2008 43.7765 1519.00 1778.03 38.97
2009 43.7949 1571.00 1711.76 39.64
2010 43.8133 1515.00 1642.95 38.92
2011 43.8318 1356.00 1572.20 36.82
2012 43.8502 1453.00 1500.10 38.12
2013 43.8687 1355.00 1426.99 36.81
2014 43.8871 1388.00 1356.63 37.26
2015 43.9055 1273.00 1291.28 35.68
2016 43.9240 1277.00 1234.04 35.74
2017 43.9424 1207.00 1182.60 34.74
2018 43.9609 1136.00 1138.01 33.70
2019 43.9793 1187.00 1101.08 34.45
2020 43.9977 1186.00 1071.70 34.44
2021 44.0162 1157.00 1048.33 34.01
2022 44.0346 1109.00 1030.08 33.30
2023 44.0531 1095.00 1013.33 33.09
2024 44.0715 1062.00 998.23 32.59
2025 44.0899 1070.00 984.92 32.71
2026 44.1084 1099.00 973.91 33.15
2027 44.1268 1103.00 965.56 33.21
2028 44.1453 1060.00 959.72 32.56
2029 44.1637 1048.00 955.90 32.37
2030 44.1821 1027.00 954.63 32.05
2031 44.2006 1012.00 955.33 31.81
2032 44.2190 1025.00 957.81 32.02
2033 44.2375 1057.00 961.94 32.51
2034 44.2559 1062.00 967.59 32.59
2035 44.2743 1004.00 974.61 31.69
2036 44.2928 1028.00 983.42 32.06
2037 44.3112 1039.00 994.77 32.23
2038 44.3296 1076.00 1009.08 32.80
2039 44.3481 1108.00 1027.22 33.29
2040 44.3665 1092.00 1049.35 33.05
2041 44.3850 1098.00 1077.34 33.14
2042 44.4034 1198.00 1110.82 34.61
2043 44.4218 1144.00 1151.73 33.82
2044 44.4403 1245.00 1201.17 35.28
2045 44.4587 1271.00 1257.08 35.65
2046 44.4772 1382.00 1321.76 37.18
2047 44.4956 1482.00 1392.78 38.50
2048 44.5140 1547.00 1467.14 39.33
2049 44.5325 1506.00 1540.34 38.81
2050 44.5509 1609.00 1604.71 40.11
2051 44.5694 1592.00 1653.82 39.90
2052 44.5878 1634.00 1682.61 40.42
2053 44.6062 1583.00 1693.07 39.79
2054 44.6247 1613.00 1690.88 40.16
2055 44.6431 1557.00 1685.80 39.46
2056 44.6616 1662.00 1681.40 40.77
2057 44.6800 1613.00 1677.64 40.16
2058 44.6984 1603.00 1672.36 40.04
2059 44.7169 1572.00 1664.30 39.65
2060 44.7353 1642.00 1653.84 40.52
2061 44.7538 1671.00 1642.94 40.88
2062 44.7722 1651.00 1629.92 40.63
2063 44.7906 1790.00 1611.19 42.31
2064 44.8091 1751.00 1583.52 41.85
2065 44.8275 1639.00 1546.81 40.48
2066 44.8460 1749.00 1502.90 41.82
2067 44.8644 1620.00 1455.83 40.25
2068 44.8828 1548.00 1408.53 39.34
2069 44.9013 1540.00 1362.21 39.24
2070 44.9197 1422.00 1317.35 37.71
2071 44.9382 1435.00 1273.42 37.88
2072 44.9566 1383.00 1231.35 37.19
2073 44.9750 1331.00 1192.06 36.48
2074 44.9935 1243.00 1156.84 35.26
2075 45.0119 1215.00 1127.19 34.86
2076 45.0304 1168.00 1102.76 34.18
2077 45.0488 1128.00 1083.50 33.59
2078 45.0672 1127.00 1067.91 33.57
2079 45.0857 1120.00 1057.10 33.47
2080 45.1041 1070.00 1046.78 32.71
2081 45.1226 1132.00 1038.78 33.65
2082 45.1410 1145.00 1033.24 33.84
2083 45.1594 1059.00 1030.66 32.54
2084 45.1779 1140.00 1030.90 33.76
2085 45.1963 1138.00 1033.84 33.73
2086 45.2147 1103.00 1039.62 33.21
2087 45.2332 1079.00 1048.25 32.85
2088 45.2516 1020.00 1061.34 31.94
2089 45.2701 1085.00 1078.42 32.94
2090 45.2885 1147.00 1099.36 33.87
2091 45.3069 1193.00 1123.44 34.54
2092 45.3254 1171.00 1149.61 34.22
2093 45.3438 1225.00 1176.30 35.00
2094 45.3623 1257.00 1202.27 35.45
2095 45.3807 1227.00 1225.97 35.03
2096 45.3991 1383.00 1245.67 37.19
2097 45.4176 1364.00 1259.04 36.93
2098 45.4360 1322.00 1263.65 36.36
2099 45.4545 1347.00 1258.92 36.70
2100 45.4729 1286.00 1246.99 35.86
2101 45.4913 1277.00 1231.29 35.74
2102 45.5098 1284.00 1215.46 35.83
2103 45.5282 1239.00 1201.78 35.20
2104 45.5467 1265.00 1190.66 35.57
2105 45.5651 1237.00 1182.31 35.17
2106 45.5835 1211.00 1175.14 34.80
2107 45.6020 1198.00 1175.51 34.61
2108 45.6204 1143.00 1182.99 33.81
2109 45.6389 1102.00 1199.40 33.20
2110 45.6573 1203.00 1224.79 34.68
2111 45.6757 1210.00 1259.10 34.79
2112 45.6942 1219.00 1300.26 34.91
2113 45.7126 1270.00 1347.78 35.64
2114 45.7311 1353.00 1396.96 36.78
2115 45.7495 1395.00 1441.44 37.35
2116 45.7679 1345.00 1474.09 36.67
2117 45.7864 1346.00 1488.69 36.69
2118 45.8048 1313.00 1483.65 36.24
2119 45.8233 1318.00 1460.04 36.30
2120 45.8417 1287.00 1426.04 35.87
2121 45.8601 1323.00 1388.10 36.37
2122 45.8786 1308.00 1349.21 36.17
2123 45.8970 1269.00 1309.51 35.62
2124 45.9155 1177.00 1267.12 34.31
2125 45.9339 1151.00 1222.39 33.93
2126 45.9523 1165.00 1177.08 34.13
2127 45.9708 1114.00 1134.34 33.38
2128 45.9892 1088.00 1097.54 32.98
2129 46.0077 1086.00 1067.99 32.95
2130 46.0261 1078.00 1046.11 32.83
2131 46.0445 1068.00 1031.48 32.68
2132 46.0630 1064.00 1023.26 32.62
2133 46.0814 1066.00 1021.28 32.65
2134 46.0998 1026.00 1024.94 32.03
2135 46.1183 1082.00 1034.18 32.89
2136 46.1367 1069.00 1049.12 32.70
2137 46.1552 1097.00 1070.12 33.12
2138 46.1736 1146.00 1097.54 33.85
2139 46.1920 1161.00 1131.85 34.07
2140 46.2105 1210.00 1173.81 34.79
2141 46.2289 1206.00 1222.88 34.73
2142 46.2474 1296.00 1278.87 36.00
2143 46.2658 1425.00 1338.95 37.75
2144 46.2842 1517.00 1399.31 38.95
2145 46.3027 1633.00 1453.89 40.41
2146 46.3211 1628.00 1494.56 40.35
2147 46.3396 1705.00 1515.31 41.29
2148 46.3580 1709.00 1513.13 41.34
2149 46.3764 1628.00 1490.80 40.35
2150 46.3949 1581.00 1456.89 39.76
2151 46.4133 1531.00 1416.88 39.13
2152 46.4318 1523.00 1377.01 39.03
2153 46.4502 1493.00 1338.90 38.64
2154 46.4686 1521.00 1299.99 39.00
2155 46.4871 1385.00 1264.03 37.22
2156 46.5055 1288.00 1231.35 35.89
2157 46.5240 1248.00 1205.21 35.33
2158 46.5424 1219.00 1187.86 34.91
2159 46.5608 1255.00 1177.84 35.43
2160 46.5793 1244.00 1169.27 35.27
2161 46.5977 1183.00 1158.47 34.39
2162 46.6162 1182.00 1139.39 34.38
2163 46.6346 1177.00 1113.07 34.31
2164 46.6530 1161.00 1085.42 34.07
2165 46.6715 1119.00 1062.12 33.45
2166 46.6899 1057.00 1045.03 32.51
2167 46.7084 1060.00 1031.57 32.56
2168 46.7268 1005.00 1020.66 31.70
2169 46.7452 1060.00 1009.64 32.56
2170 46.7637 993.00 1000.08 31.51
2171 46.7821 1026.00 995.49 32.03
2172 46.8006 1038.00 997.80 32.22
2173 46.8190 1018.00 1006.07 31.91
2174 46.8374 992.00 1016.38 31.50
2175 46.8559 1102.00 1025.04 33.20
2176 46.8743 1057.00 1027.24 32.51
2177 46.8928 1035.00 1021.54 32.17
2178 46.9112 1013.00 1010.90 31.83
2179 46.9296 956.00 1000.79 30.92
2180 46.9481 956.00 995.40 30.92
2181 46.9665 972.00 995.39 31.18
2182 46.9850 1088.00 998.86 32.98
2183 47.0034 996.00 1002.20 31.56
2184 47.0218 986.00 1002.66 31.40
2185 47.0403 965.00 999.09 31.06
2186 47.0587 976.00 991.68 31.24
2187 47.0771 995.00 981.47 31.54
2188 47.0956 967.00 971.41 31.10
2189 47.1140 954.00 965.21 30.89
2190 47.1325 974.00 965.20 31.21
2191 47.1509 968.00 971.60 31.11
2192 47.1693 1009.00 982.87 31.76
2193 47.1878 970.00 996.77 31.14
2194 47.2062 964.00 1011.02 31.05
2195 47.2247 978.00 1024.34 31.27
2196 47.2431 1032.00 1035.00 32.12
2197 47.2615 984.00 1041.85 31.37
2198 47.2800 997.00 1043.71 31.58
2199 47.2984 974.00 1041.15 31.21
2200 47.3169 988.00 1035.19 31.43
2201 47.3353 986.00 1025.77 31.40
2202 47.3537 970.00 1014.85 31.14
2203 47.3722 1007.00 1001.82 31.73
2204 47.3906 1005.00 987.45 31.70
2205 47.4091 949.00 972.14 30.81
2206 47.4275 915.00 957.03 30.25
2207 47.4459 969.00 942.79 31.13
2208 47.4644 912.00 929.36 30.20
2209 47.4828 930.00 917.86 30.50
2210 47.5013 860.00 907.86 29.33
2211 47.5197 867.00 899.22 29.44
2212 47.5381 877.00 891.34 29.61
2213 47.5566 854.00 883.76 29.22
2214 47.5750 868.00 876.63 29.46
2215 47.5935 890.00 870.39 29.83
2216 47.6119 838.00 867.05 28.95
2217 47.6303 840.00 863.57 28.98
2218 47.6488 876.00 860.83 29.60
2219 47.6672 848.00 858.56 29.12
2220 47.6857 882.00 856.29 29.70
2221 47.7041 862.00 852.60 29.36
2222 47.7225 830.00 851.04 28.81
2223 47.7410 888.00 850.55 29.80
2224 47.7594 838.00 850.95 28.95
2225 47.7779 880.00 852.47 29.66
2226 47.7963 861.00 855.17 29.34
2227 47.8147 867.00 858.28 29.44
2228 47.8332 862.00 863.59 29.36
2229 47.8516 809.00 870.38 28.44
2230 47.8701 927.00 878.92 30.45
2231 47.8885 888.00 890.99 29.80
2232 47.9069 868.00 903.60 29.46
2233 47.9254 893.00 918.62 29.88
2234 47.9438 851.00 935.98 29.17
2235 47.9622 982.00 955.72 31.34
2236 47.9807 962.00 978.35 31.02
2237 47.9991 954.00 1001.55 30.89
2238 48.0176 974.00 1025.10 31.21
2239 48.0360 978.00 1046.61 31.27
2240 48.0544 989.00 1064.18 31.45
2241 48.0729 1056.00 1076.18 32.50
2242 48.0913 1012.00 1082.28 31.81
2243 48.1098 1053.00 1084.35 32.45
2244 48.1282 1051.00 1084.70 32.42
2245 48.1466 1077.00 1085.60 32.82
2246 48.1651 1137.00 1087.69 33.72
2247 48.1835 1114.00 1090.45 33.38
2248 48.2020 1124.00 1091.97 33.53
2249 48.2204 1079.00 1090.41 32.85
2250 48.2388 1103.00 1083.59 33.21
2251 48.2573 1054.00 1072.73 32.47
2252 48.2757 1119.00 1056.95 33.45
2253 48.2942 1062.00 1038.95 32.59
2254 48.3126 1104.00 1020.52 33.23
2255 48.3310 1000.00 1003.14 31.62
2256 48.3495 998.00 987.23 31.59
2257 48.3679 1050.00 972.34 32.40
2258 48.3864 1014.00 958.19 31.84
2259 48.4048 1002.00 943.47 31.65
2260 48.4232 991.00 928.92 31.48
2261 48.4417 996.00 914.83 31.56
2262 48.4601 967.00 902.14 31.10
2263 48.4786 843.00 891.18 29.03
2264 48.4970 928.00 882.36 30.46
2265 48.5154 903.00 875.44 30.05
2266 48.5339 843.00 870.02 29.03
2267 48.5523 909.00 866.15 30.15
2268 48.5708 904.00 863.49 30.07
2269 48.5892 913.00 861.98 30.22
2270 48.6076 829.00 861.59 28.79
2271 48.6261 860.00 862.47 29.33
2272 48.6445 837.00 864.78 28.93
2273 48.6630 905.00 869.04 30.08
2274 48.6814 940.00 876.14 30.66
2275 48.6998 916.00 887.25 30.27
2276 48.7183 949.00 903.97 30.81
2277 48.7367 943.00 927.46 30.71
2278 48.7552 968.00 958.46 31.11
2279 48.7736 1024.00 995.32 32.00
2280 48.7920 1095.00 1034.63 33.09
2281 48.8105 1150.00 1070.76 33.91
2282 48.8289 1124.00 1096.36 33.53
2283 48.8473 1159.00 1106.63 34.04
2284 48.8658 1066.00 1103.00 32.65
2285 48.8842 1054.00 1094.19 32.47
2286 48.9027 1064.00 1089.41 32.62
2287 48.9211 1100.00 1092.29 33.17
2288 48.9395 1194.00 1101.35 34.55
2289 48.9580 1229.00 1112.68 35.06
2290 48.9764 1204.00 1122.71 34.70
2291 48.9949 1157.00 1131.19 34.01
2292 49.0133 1196.00 1142.21 34.58
2293 49.0317 1214.00 1155.89 34.84
2294 49.0502 1227.00 1173.30 35.03
2295 49.0686 1184.00 1191.97 34.41
2296 49.0871 1280.00 1209.36 35.78
2297 49.1055 1218.00 1223.37 34.90
2298 49.1239 1311.00 1233.85 36.21
2299 49.1424 1249.00 1243.08 35.34
2300 49.1608 1386.00 1252.79 37.23
2301 49.1793 1314.00 1261.54 36.25
2302 49.1977 1353.00 1263.11 36.78
2303 49.2161 1248.00 1252.67 35.33
2304 49.2346 1183.00 1231.19 34.39
2305 49.2530 1149.00 1205.75 33.90
2306 49.2715 1111.00 1185.04 33.33
2307 49.2899 1166.00 1173.33 34.15
2308 49.3083 1225.00 1170.13 35.00
2309 49.3268 1182.00 1171.29 34.38
2310 49.3452 1119.00 1172.34 33.45
2311 49.3637 1132.00 1170.94 33.65
2312 49.3821 1103.00 1167.79 33.21
2313 49.4005 1121.00 1162.81 33.48
2314 49.4190 1175.00 1154.91 34.28
2315 49.4374 1046.00 1143.48 32.34
2316 49.4559 1117.00 1129.36 33.42
2317 49.4743 1042.00 1114.96 32.28
2318 49.4927 1039.00 1102.33 32.23
2319 49.5112 1052.00 1092.11 32.43
2320 49.5296 994.00 1083.49 31.53
2321 49.5481 1028.00 1074.52 32.06
2322 49.5665 1018.00 1064.56 31.91
2323 49.5849 1050.00 1051.09 32.40
2324 49.6034 960.00 1035.68 30.98
2325 49.6218 1033.00 1020.32 32.14
2326 49.6403 1002.00 1007.18 31.65
2327 49.6587 962.00 998.18 31.02
2328 49.6771 1051.00 993.88 32.42
2329 49.6956 1011.00 993.82 31.80
2330 49.7140 1005.00 997.01 31.70
2331 49.7325 1029.00 1002.29 32.08
2332 49.7509 1049.00 1008.45 32.39
2333 49.7693 1036.00 1014.38 32.19
2334 49.7878 1030.00 1018.65 32.09
2335 49.8062 1045.00 1019.44 32.33
2336 49.8246 1041.00 1015.42 32.26
2337 49.8431 1023.00 1006.46 31.98
2338 49.8615 1013.00 994.35 31.83
2339 49.8800 1002.00 981.60 31.65
2340 49.8984 975.00 970.23 31.23
2341 49.9168 1016.00 960.57 31.87
2342 49.9353 941.00 951.85 30.68
2343 49.9537 942.00 943.28 30.69
2344 49.9722 912.00 934.54 30.20
2345 49.9906 932.00 926.55 30.53
2346 50.0090 961.00 924.29 31.00
2347 50.0275 899.00 922.49 29.98
2348 50.0459 979.00 925.75 31.29
2349 50.0644 905.00 932.66 30.08
2350 50.0828 971.00 942.96 31.16
2351 50.1012 960.00 955.32 30.98
2352 50.1197 1024.00 969.81 32.00
2353 50.1381 964.00 985.89 31.05
2354 50.1566 1003.00 1005.11 31.67
2355 50.1750 982.00 1025.86 31.34
2356 50.1934 1004.00 1044.28 31.69
2357 50.2119 1006.00 1053.94 31.72
2358 50.2303 1053.00 1051.56 32.45
2359 50.2488 1034.00 1039.53 32.16
2360 50.2672 989.00 1026.12 31.45
2361 50.2856 1004.00 1019.03 31.69
2362 50.3041 1024.00 1021.13 32.00
2363 50.3225 1017.00 1029.83 31.89
2364 50.3410 1013.00 1038.91 31.83
2365 50.3594 1051.00 1041.90 32.42
2366 50.3778 1023.00 1034.33 31.98
2367 50.3963 919.00 1017.37 30.32
2368 50.4147 977.00 996.38 31.26
2369 50.4332 945.00 977.86 30.74
2370 50.4516 954.00 966.22 30.89
2371 50.4700 895.00 961.47 29.92
2372 50.4885 928.00 962.14 30.46
2373 50.5069 862.00 964.79 29.36
2374 50.5254 915.00 967.19 30.25
2375 50.5438 912.00 968.74 30.20
2376 50.5622 921.00 971.10 30.35
2377 50.5807 894.00 976.17 29.90
2378 50.5991 976.00 984.35 31.24
2379 50.6176 926.00 995.32 30.43
2380 50.6360 1001.00 1007.28 31.64
2381 50.6544 977.00 1018.49 31.26
2382 50.6729 1022.00 1027.37 31.97
2383 50.6913 1027.00 1032.97 32.05
2384 50.7097 949.00 1035.40 30.81
2385 50.7282 986.00 1035.29 31.40
2386 50.7466 971.00 1033.12 31.16
2387 50.7651 957.00 1028.83 30.94
2388 50.7835 990.00 1022.33 31.46
2389 50.8019 988.00 1013.90 31.43
2390 50.8204 973.00 1004.45 31.19
2391 50.8388 1008.00 995.20 31.75
2392 50.8573 998.00 986.99 31.59
2393 50.8757 936.00 980.53 30.59
2394 50.8941 985.00 975.92 31.38
2395 50.9126 900.00 973.23 30.00
2396 50.9310 902.00 972.83 30.03
2397 50.9495 1013.00 975.41 31.83
2398 50.9679 1025.00 981.60 32.02
2399 50.9863 1003.00 991.81 31.67
2400 51.0048 1025.00 1005.91 32.02
2401 51.0232 1025.00 1024.64 32.02
2402 51.0417 1074.00 1047.67 32.77
2403 51.0601 1028.00 1074.60 32.06
2404 51.0785 1106.00 1105.21 33.26
2405 51.0970 1067.00 1139.41 32.67
2406 51.1154 1123.00 1176.33 33.51
2407 51.1339 1182.00 1215.99 34.38
2408 51.1523 1266.00 1257.76 35.58
2409 51.1707 1332.00 1300.43 36.50
2410 51.1892 1469.00 1341.14 38.33
2411 51.2076 1621.00 1375.37 40.26
2412 51.2261 1714.00 1400.72 41.40
2413 51.2445 1719.00 1416.95 41.46
2414 51.2629 1688.00 1424.62 41.09
2415 51.2814 1663.00 1426.76 40.78
2416 51.2998 1542.00 1424.28 39.27
2417 51.3183 1514.00 1415.58 38.91
2418 51.3367 1486.00 1397.91 38.55
2419 51.3551 1492.00 1370.10 38.63
2420 51.3736 1526.00 1333.28 39.06
2421 51.3920 1456.00 1292.82 38.16
2422 51.4105 1409.00 1251.33 37.54
2423 51.4289 1313.00 1211.77 36.24
2424 51.4473 1229.00 1173.95 35.06
2425 51.4658 1167.00 1136.62 34.16
2426 51.4842 1094.00 1100.49 33.08
2427 51.5027 1010.00 1065.68 31.78
2428 51.5211 1040.00 1034.53 32.25
2429 51.5395 1092.00 1007.36 33.05
2430 51.5580 977.00 984.59 31.26
2431 51.5764 965.00 966.08 31.06
2432 51.5949 959.00 950.97 30.97
2433 51.6133 1030.00 939.31 32.09
2434 51.6317 939.00 930.62 30.64
2435 51.6502 990.00 925.11 31.46
2436 51.6686 989.00 922.40 31.45
2437 51.6870 974.00 922.14 31.21
2438 51.7055 989.00 923.90 31.45
2439 51.7239 973.00 927.32 31.19
2440 51.7424 921.00 931.68 30.35
2441 51.7608 1005.00 936.21 31.70
2442 51.7792 901.00 939.75 30.02
2443 51.7977 965.00 941.83 31.06
2444 51.8161 955.00 941.13 30.90
2445 51.8346 983.00 939.11 31.35
2446 51.8530 932.00 932.75 30.53
2447 51.8714 900.00 925.05 30.00
2448 51.8899 934.00 917.05 30.56
2449 51.9083 946.00 909.39 30.76
2450 51.9268 931.00 902.37 30.51
2451 51.9452 859.00 895.49 29.31
2452 51.9636 837.00 888.26 28.93
2453 51.9821 868.00 880.59 29.46
2454 52.0005 901.00 872.67 30.02
2455 52.0190 830.00 865.08 28.81
2456 52.0374 832.00 858.34 28.84
2457 52.0558 788.00 852.73 28.07
2458 52.0743 820.00 848.32 28.64
2459 52.0927 834.00 845.18 28.88
2460 52.1112 843.00 843.28 29.03
2461 52.1296 841.00 842.77 29.00
2462 52.1480 805.00 843.92 28.37
2463 52.1665 862.00 847.17 29.36
2464 52.1849 836.00 852.90 28.91
2465 52.2034 821.00 861.35 28.65
2466 52.2218 906.00 872.02 30.10
2467 52.2402 912.00 883.77 30.20
2468 52.2587 857.00 894.74 29.27
2469 52.2771 873.00 902.72 29.55
2470 52.2956 888.00 906.99 29.80
2471 52.3140 927.00 909.80 30.45
2472 52.3324 918.00 915.33 30.30
2473 52.3509 900.00 925.97 30.00
2474 52.3693 930.00 940.27 30.50
2475 52.3878 960.00 954.00 30.98
2476 52.4062 911.00 961.61 30.18
2477 52.4246 953.00 959.36 30.87
2478 52.4431 969.00 947.76 31.13
2479 52.4615 879.00 931.30 29.65
2480 52.4800 872.00 916.45 29.53
2481 52.4984 881.00 906.93 29.68
2482 52.5168 848.00 903.55 29.12
2483 52.5353 877.00 901.65 29.61
2484 52.5537 845.00 899.42 29.07
2485 52.5721 834.00 895.51 28.88
2486 52.5906 876.00 890.26 29.60
2487 52.6090 850.00 884.90 29.15
2488 52.6275 865.00 881.46 29.41
2489 52.6459 850.00 880.58 29.15
2490 52.6643 841.00 882.82 29.00
2491 52.6828 904.00 887.27 30.07
2492 52.7012 849.00 893.10 29.14
2493 52.7197 856.00 899.64 29.26
2494 52.7381 894.00 906.02 29.90
2495 52.7565 897.00 912.55 29.95
2496 52.7750 856.00 919.21 29.26
2497 52.7934 870.00 925.53 29.50
2498 52.8119 862.00 932.47 29.36
2499 52.8303 878.00 939.70 29.63
2500 52.8487 885.00 946.73 29.75
2501 52.8672 902.00 954.64 30.03
2502 52.8856 881.00 962.02 29.68
2503 52.9041 866.00 966.11 29.43
2504 52.9225 923.00 971.90 30.38
2505 52.9409 919.00 978.18 30.32
2506 52.9594 886.00 981.71 29.77
2507 52.9778 886.00 979.18 29.77
2508 52.9963 914.00 970.91 30.23
2509 53.0147 882.00 961.13 29.70
2510 53.0331 868.00 954.46 29.46
2511 53.0516 836.00 953.14 28.91
2512 53.0700 858.00 957.59 29.29
2513 53.0885 901.00 965.60 30.02
2514 53.1069 973.00 975.21 31.19
2515 53.1253 880.00 984.18 29.66
2516 53.1438 939.00 992.99 30.64
2517 53.1622 906.00 1003.12 30.10
2518 53.1807 978.00 1015.08 31.27
2519 53.1991 984.00 1027.29 31.37
2520 53.2175 933.00 1037.21 30.55
2521 53.2360 961.00 1041.73 31.00
2522 53.2544 992.00 1040.13 31.50
2523 53.2729 971.00 1032.29 31.16
2524 53.2913 907.00 1020.44 30.12
2525 53.3097 926.00 1006.49 30.43
2526 53.3282 1026.00 994.04 32.03
2527 53.3466 954.00 982.85 30.89
2528 53.3651 977.00 972.46 31.26
2529 53.3835 884.00 961.91 29.73
2530 53.4019 915.00 950.21 30.25
2531 53.4204 916.00 937.42 30.27
2532 53.4388 868.00 924.24 29.46
2533 53.4573 896.00 912.65 29.93
2534 53.4757 852.00 903.28 29.19
2535 53.4941 848.00 896.83 29.12
2536 53.5126 933.00 893.67 30.55
2537 53.5310 918.00 893.96 30.30
2538 53.5494 880.00 898.05 29.66
2539 53.5679 910.00 906.64 30.17
2540 53.5863 887.00 920.54 29.78
2541 53.6048 962.00 941.00 31.02
2542 53.6232 928.00 968.14 30.46
2543 53.6416 1030.00 1001.20 32.09
2544 53.6601 1023.00 1037.20 31.98
2545 53.6785 982.00 1069.97 31.34
2546 53.6970 1059.00 1092.42 32.54
2547 53.7154 1011.00 1099.54 31.80
2548 53.7338 1065.00 1096.25 32.63
2549 53.7523 1045.00 1094.33 32.33
2550 53.7707 982.00 1102.97 31.34
2551 53.7892 1060.00 1124.53 32.56
2552 53.8076 1132.00 1155.93 33.65
2553 53.8260 1100.00 1196.38 33.17
2554 53.8445 1146.00 1231.96 33.85
2555 53.8629 1221.00 1253.47 34.94
2556 53.8814 1144.00 1260.32 33.82
2557 53.8998 1237.00 1257.44 35.17
2558 53.9182 1190.00 1255.57 34.50
2559 53.9367 1187.00 1260.53 34.45
2560 53.9551 1192.00 1267.51 34.53
2561 53.9736 1201.00 1266.10 34.66
2562 53.9920 1173.00 1252.99 34.25
2563 54.0104 1184.00 1235.10 34.41
2564 54.0289 1104.00 1220.36 33.23
2565 54.0473 1134.00 1212.79 33.67
2566 54.0658 1175.00 1214.48 34.28
2567 54.0842 1159.00 1223.57 34.04
2568 54.1026 1154.00 1233.24 33.97
2569 54.1211 1136.00 1236.37 33.70
2570 54.1395 1211.00 1231.33 34.80
2571 54.1580 1122.00 1223.51 33.50
2572 54.1764 1140.00 1218.28 33.76
2573 54.1948 1118.00 1217.97 33.44
2574 54.2133 1183.00 1222.47 34.39
2575 54.2317 1207.00 1230.57 34.74
2576 54.2502 1178.00 1240.11 34.32
2577 54.2686 1205.00 1248.09 34.71
2578 54.2870 1208.00 1251.50 34.76
2579 54.3055 1185.00 1247.68 34.42
2580 54.3239 1204.00 1235.79 34.70
2581 54.3424 1147.00 1217.07 33.87
2582 54.3608 1156.00 1194.76 34.00
2583 54.3792 1211.00 1172.23 34.80
2584 54.3977 1153.00 1152.07 33.96
2585 54.4161 1166.00 1135.73 34.15
2586 54.4345 1041.00 1122.76 32.26
2587 54.4530 1162.00 1111.98 34.09
2588 54.4714 1070.00 1103.04 32.71
2589 54.4899 1099.00 1095.32 33.15
2590 54.5083 1081.00 1089.80 32.88
2591 54.5267 1040.00 1087.90 32.25
2592 54.5452 1121.00 1089.25 33.48
2593 54.5636 1132.00 1094.30 33.65
2594 54.5821 1130.00 1102.37 33.62
2595 54.6005 1056.00 1112.33 32.50
2596 54.6189 1070.00 1120.68 32.71
2597 54.6374 1098.00 1126.49 33.14
2598 54.6558 1111.00 1128.62 33.33
2599 54.6743 1096.00 1127.32 33.11
2600 54.6927 1075.00 1123.51 32.79
2601 54.7111 1127.00 1118.28 33.57
2602 54.7296 1093.00 1113.31 33.06
2603 54.7480 1129.00 1111.10 33.60
2604 54.7665 1096.00 1114.55 33.11
2605 54.7849 1143.00 1124.64 33.81
2606 54.8033 1146.00 1141.44 33.85
2607 54.8218 1168.00 1164.31 34.18
2608 54.8402 1195.00 1190.49 34.57
2609 54.8587 1222.00 1216.89 34.96
2610 54.8771 1238.00 1238.18 35.19
2611 54.8955 1202.00 1252.89 34.67
2612 54.9140 1313.00 1265.10 36.24
2613 54.9324 1417.00 1281.10 37.64
2614 54.9509 1402.00 1303.42 37.44
2615 54.9693 1425.00 1329.47 37.75
2616 54.9877 1483.00 1354.10 38.51
2617 55.0062 1421.00 1372.84 37.70
2618 55.0246 1520.00 1383.19 38.99
2619 55.0431 1418.00 1385.72 37.66
2620 55.0615 1431.00 1385.06 37.83
2621 55.0799 1492.00 1385.74 38.63
2622 55.0984 1418.00 1386.94 37.66
2623 55.1168 1438.00 1383.95 37.92
2624 55.1353 1524.00 1371.24 39.04
2625 55.1537 1441.00 1349.08 37.96
2626 55.1721 1384.00 1320.42 37.20
2627 55.1906 1301.00 1288.88 36.07
2628 55.2090 1301.00 1257.27 36.07
2629 55.2275 1190.00 1226.56 34.50
2630 55.2459 1176.00 1196.97 34.29
2631 55.2643 1153.00 1168.32 33.96
2632 55.2828 1045.00 1139.26 32.33
2633 55.3012 1147.00 1111.93 33.87
2634 55.3196 1101.00 1092.63 33.18
2635 55.3381 1117.00 1075.69 33.42
2636 55.3565 1076.00 1066.33 32.80
2637 55.3750 1068.00 1064.99 32.68
2638 55.3934 1064.00 1070.72 32.62
2639 55.4118 1073.00 1081.42 32.76
2640 55.4303 1115.00 1091.46 33.39
2641 55.4487 1006.00 1094.80 31.72
2642 55.4672 1055.00 1089.81 32.48
2643 55.4856 1057.00 1078.74 32.51
2644 55.5040 1099.00 1063.35 33.15
2645 55.5225 1075.00 1047.10 32.79
2646 55.5409 1027.00 1035.98 32.05
2647 55.5594 1026.00 1032.53 32.03
2648 55.5778 1061.00 1035.02 32.57
2649 55.5962 1061.00 1039.08 32.57
2650 55.6147 1047.00 1041.15 32.36
2651 55.6331 1040.00 1039.65 32.25
2652 55.6516 1044.00 1032.94 32.31
2653 55.6700 1031.00 1021.01 32.11
2654 55.6884 1024.00 1005.53 32.00
2655 55.7069 979.00 989.76 31.29
2656 55.7253 962.00 975.40 31.02
2657 55.7438 921.00 962.49 30.35
2658 55.7622 1005.00 951.24 31.70
2659 55.7806 969.00 941.77 31.13
2660 55.7991 930.00 933.58 30.50
2661 55.8175 982.00 927.08 31.34
2662 55.8360 920.00 921.93 30.33
2663 55.8544 964.00 918.59 31.05
2664 55.8728 919.00 919.97 30.32
2665 55.8913 907.00 922.93 30.12
2666 55.9097 960.00 928.81 30.98
2667 55.9282 939.00 937.70 30.64
2668 55.9466 909.00 941.69 30.15
2669 55.9650 921.00 938.75 30.35
2670 55.9835 956.00 929.97 30.92
2671 56.0019 930.00 922.88 30.50
2672 56.0204 974.00 924.20 31.21
2673 56.0388 979.00 935.99 31.29
2674 56.0572 946.00 956.32 30.76
2675 56.0757 997.00 981.32 31.58
2676 56.0941 989.00 1004.75 31.45
2677 56.1126 978.00 1019.75 31.27
2678 56.1310 986.00 1019.18 31.40
2679 56.1494 1082.00 1009.02 32.89
2680 56.1679 947.00 1002.63 30.77
2681 56.1863 950.00 1009.12 30.82
2682 56.2048 1055.00 1029.33 32.48
2683 56.2232 1115.00 1057.04 33.39
2684 56.2416 1107.00 1085.14 33.27
2685 56.2601 1100.00 1105.61 33.17
2686 56.2785 1024.00 1109.59 32.00
2687 56.2969 1009.00 1097.78 31.76
2688 56.3154 1060.00 1081.45 32.56
2689 56.3338 1089.00 1072.01 33.00
2690 56.3523 993.00 1069.95 31.51
2691 56.3707 1028.00 1071.72 32.06
2692 56.3891 1026.00 1073.09 32.03
2693 56.4076 1037.00 1071.67 32.20
2694 56.4260 1014.00 1065.97 31.84
2695 56.4445 1057.00 1056.77 32.51
2696 56.4629 1028.00 1049.73 32.06
2697 56.4813 1064.00 1049.08 32.62
2698 56.4998 1041.00 1061.28 32.26
2699 56.5182 1028.00 1077.24 32.06
2700 56.5367 1203.00 1101.56 34.68
2701 56.5551 1219.00 1133.87 34.91
2702 56.5735 1316.00 1170.66 36.28
2703 56.5920 1242.00 1207.56 35.24
2704 56.6104 1272.00 1222.55 35.67
2705 56.6289 1271.00 1209.49 35.65
2706 56.6473 1231.00 1177.37 35.09
2707 56.6657 1287.00 1149.43 35.87
2708 56.6842 1232.00 1132.79 35.10
2709 56.7026 1203.00 1133.35 34.68
2710 56.7211 1230.00 1150.90 35.07
2711 56.7395 1264.00 1181.44 35.55
2712 56.7579 1278.00 1216.15 35.75
2713 56.7764 1335.00 1241.81 36.54
2714 56.7948 1322.00 1247.85 36.36
2715 56.8133 1252.00 1235.45 35.38
2716 56.8317 1229.00 1212.69 35.06
2717 56.8501 1198.00 1183.62 34.61
2718 56.8686 1149.00 1151.76 33.90
2719 56.8870 1218.00 1128.06 34.90
2720 56.9055 1175.00 1118.57 34.28
2721 56.9239 1173.00 1120.15 34.25
2722 56.9423 1168.00 1124.69 34.18
2723 56.9608 1213.00 1125.10 34.83
2724 56.9792 1119.00 1119.57 33.45
2725 56.9977 1089.00 1109.63 33.00
2726 57.0161 1100.00 1093.79 33.17
2727 57.0345 1139.00 1076.81 33.75
2728 57.0530 1053.00 1062.90 32.45
2729 57.0714 1182.00 1054.60 34.38
2730 57.0899 1133.00 1050.95 33.66
2731 57.1083 1116.00 1050.61 33.41
2732 57.1267 1124.00 1052.42 33.53
2733 57.1452 1184.00 1056.66 34.41
2734 57.1636 1190.00 1063.35 34.50
2735 57.1820 1127.00 1072.43 33.57
2736 57.2005 1214.00 1082.93 34.84
2737 57.2189 1169.00 1095.89 34.19
2738 57.2374 1204.00 1112.05 34.70
2739 57.2558 1291.00 1132.20 35.93
2740 57.2742 1265.00 1157.11 35.57
2741 57.2927 1273.00 1189.25 35.68
2742 57.3111 1359.00 1228.89 36.86
2743 57.3296 1372.00 1274.81 37.04
2744 57.3480 1379.00 1318.49 37.13
2745 57.3664 1262.00 1346.31 35.52
2746 57.3849 1425.00 1349.38 37.75
2747 57.4033 1417.00 1341.93 37.64
2748 57.4218 1423.00 1344.30 37.72
2749 57.4402 1587.00 1361.75 39.84
2750 57.4586 1546.00 1389.93 39.32
2751 57.4771 1539.00 1422.36 39.23
2752 57.4955 1554.00 1450.47 39.42
2753 57.5140 1522.00 1462.37 39.01
2754 57.5324 1487.00 1444.64 38.56
2755 57.5508 1409.00 1401.15 37.54
2756 57.5693 1375.00 1354.54 37.08
2757 57.5877 1351.00 1318.30 36.76
2758 57.6062 1342.00 1291.50 36.63
2759 57.6246 1343.00 1269.05 36.65
2760 57.6430 1333.00 1247.31 36.51
2761 57.6615 1283.00 1224.43 35.82
2762 57.6799 1218.00 1197.88 34.90
2763 57.6984 1228.00 1166.07 35.04
2764 57.7168 1205.00 1134.25 34.71
2765 57.7352 1107.00 1107.33 33.27
2766 57.7537 1086.00 1086.42 32.95
2767 57.7721 1057.00 1070.31 32.51
2768 57.7906 1071.00 1057.23 32.73
2769 57.8090 1053.00 1046.16 32.45
2770 57.8274 1039.00 1036.68 32.23
2771 57.8459 969.00 1028.22 31.13
2772 57.8643 987.00 1019.58 31.42
2773 57.8828 1001.00 1010.11 31.64
2774 57.9012 943.00 999.95 30.71
2775 57.9196 943.00 989.91 30.71
2776 57.9381 981.00 980.72 31.32
2777 57.9565 908.00 973.57 30.13
2778 57.9750 934.00 968.66 30.56
2779 57.9934 929.00 965.79 30.48
2780 58.0118 939.00 964.42 30.64
2781 58.0303 936.00 964.07 30.59
2782 58.0487 995.00 964.55 31.54
2783 58.0671 907.00 966.16 30.12
2784 58.0856 921.00 969.55 30.35
2785 58.1040 970.00 975.30 31.14
2786 58.1225 976.00 983.83 31.24
2787 58.1409 1007.00 995.14 31.73
2788 58.1593 1006.00 1009.67 31.72
2789 58.1778 1043.00 1027.76 32.30
2790 58.1962 1138.00 1048.79 33.73
2791 58.2147 1182.00 1071.99 34.38
2792 58.2331 1206.00 1095.54 34.73
2793 58.2515 1178.00 1119.77 34.32
2794 58.2700 1243.00 1136.63 35.26
2795 58.2884 1258.00 1146.61 35.47
2796 58.3069 1224.00 1149.61 34.99
2797 58.3253 1154.00 1147.55 33.97
2798 58.3437 1197.00 1146.50 34.60
2799 58.3622 1193.00 1152.21 34.54
2800 58.3806 1234.00 1165.57 35.13
2801 58.3991 1207.00 1175.61 34.74
2802 58.4175 1266.00 1159.29 35.58
2803 58.4359 1182.00 1115.47 34.38
2804 58.4544 1136.00 1072.51 33.70
2805 58.4728 1120.00 1043.01 33.47
2806 58.4913 1118.00 1023.74 33.44
2807 58.5097 1120.00 1011.94 33.47
2808 58.5281 1085.00 1006.49 32.94
2809 58.5466 1019.00 1005.30 31.92
2810 58.5650 1019.00 1000.28 31.92
2811 58.5835 998.00 980.56 31.59
2812 58.6019 1019.00 954.40 31.92
2813 58.6203 991.00 936.16 31.48
2814 58.6388 956.00 926.72 30.92
2815 58.6572 923.00 921.67 30.38
2816 58.6757 1001.00 919.12 31.64
2817 58.6941 937.00 916.96 30.61
2818 58.7125 943.00 914.81 30.71
2819 58.7310 966.00 913.01 31.08
2820 58.7494 999.00 911.85 31.61
2821 58.7679 988.00 916.62 31.43
2822 58.7863 960.00 917.11 30.98
2823 58.8047 981.00 917.88 31.32
2824 58.8232 998.00 919.49 31.59
2825 58.8416 953.00 921.99 30.87
2826 58.8601 987.00 926.41 31.42
2827 58.8785 944.00 934.28 30.72
2828 58.8969 1040.00 947.37 32.25
2829 58.9154 1029.00 965.55 32.08
2830 58.9338 971.00 982.31 31.16
2831 58.9523 1032.00 988.96 32.12
2832 58.9707 1040.00 993.84 32.25
2833 58.9891 1064.00 1015.74 32.62
2834 59.0076 1039.00 1046.25 32.23
2835 59.0260 1012.00 1059.91 31.81
2836 59.0444 994.00 1035.92 31.53
2837 59.0629 1041.00 1004.29 32.26
2838 59.0813 990.00 990.96 31.46
2839 59.0998 1002.00 988.89 31.65
2840 59.1182 968.00 988.01 31.11
2841 59.1366 990.00 991.35 31.46
2842 59.1551 1009.00 1002.75 31.76
2843 59.1735 1029.00 1016.49 32.08
2844 59.1920 1009.00 1018.77 31.76
2845 59.2104 1025.00 1006.98 32.02
2846 59.2288 971.00 996.44 31.16
2847 59.2473 1112.00 994.33 33.35
2848 59.2657 958.00 999.67 30.95
2849 59.2842 951.00 1004.08 30.84
2850 59.3026 1010.00 1007.17 31.78
2851 59.3210 1009.00 1007.85 31.76
2852 59.3395 1018.00 1005.77 31.91
2853 59.3579 985.00 1002.75 31.38
2854 59.3764 936.00 999.74 30.59
2855 59.3948 988.00 998.76 31.43
2856 59.4132 1017.00 1000.46 31.89
2857 59.4317 970.00 1005.25 31.14
2858 59.4501 1009.00 1012.93 31.76
2859 59.4686 992.00 1023.12 31.50
2860 59.4870 1060.00 1035.17 32.56
2861 59.5054 1083.00 1048.46 32.91
2862 59.5239 1013.00 1064.65 31.83
2863 59.5423 1048.00 1082.81 32.37
2864 59.5608 1140.00 1106.87 33.76
2865 59.5792 1111.00 1120.65 33.33
2866 59.5976 1135.00 1131.04 33.69
2867 59.6161 1096.00 1139.68 33.11
2868 59.6345 1093.00 1145.18 33.06
2869 59.6530 1101.00 1145.33 33.18
2870 59.6714 1138.00 1139.13 33.73
2871 59.6898 1089.00 1129.73 33.00
2872 59.7083 1053.00 1120.69 32.45
2873 59.7267 1084.00 1114.87 32.92
2874 59.7452 1139.00 1113.09 33.75
2875 59.7636 1122.00 1115.89 33.50
2876 59.7820 1147.00 1123.24 33.87
2877 59.8005 1086.00 1128.59 32.95
2878 59.8189 1068.00 1127.51 32.68
2879 59.8374 1094.00 1116.59 33.08
2880 59.8558 1126.00 1099.22 33.56
2881 59.8742 1064.00 1083.47 32.62
2882 59.8927 1125.00 1073.62 33.54
2883 59.9111 1063.00 1070.13 32.60
2884 59.9295 1072.00 1071.05 32.74
2885 59.9480 1064.00 1073.92 32.62
2886 59.9664 1046.00 1076.16 32.34
2887 59.9849 1049.00 1076.41 32.39
2888 60.0033 1080.00 1073.64 32.86
2889 60.0217 1043.00 1069.30 32.30
2890 60.0402 1111.00 1068.21 33.33
2891 60.0586 1115.00 1073.23 33.39
2892 60.0771 1102.00 1085.64 33.20
2893 60.0955 1144.00 1103.77 33.82
2894 60.1139 1171.00 1123.24 34.22
2895 60.1324 1084.00 1141.59 32.92
2896 60.1508 1150.00 1135.21 33.91
2897 60.1693 1100.00 1109.80 33.17
2898 60.1877 1008.00 1080.28 31.75
2899 60.2061 1080.00 1058.15 32.86
2900 60.2246 1073.00 1045.86 32.76
2901 60.2430 1094.00 1042.19 33.08
2902 60.2615 1102.00 1044.94 33.20
2903 60.2799 1106.00 1051.15 33.26
2904 60.2983 1082.00 1055.74 32.89
2905 60.3168 1058.00 1052.79 32.53
2906 60.3352 1015.00 1044.51 31.86
2907 60.3537 1048.00 1036.41 32.37
2908 60.3721 1067.00 1033.52 32.67
2909 60.3905 1026.00 1036.57 32.03
2910 60.4090 1016.00 1045.41 31.87
2911 60.4274 1072.00 1059.08 32.74
2912 60.4459 1151.00 1078.38 33.93
2913 60.4643 1085.00 1104.06 32.94
2914 60.4827 1162.00 1138.64 34.09
2915 60.5012 1187.00 1181.36 34.45
2916 60.5196 1260.00 1232.20 35.50
2917 60.5381 1292.00 1287.78 35.94
2918 60.5565 1307.00 1337.97 36.15
2919 60.5749 1326.00 1369.48 36.41
2920 60.5934 1406.00 1377.31 37.50
2921 60.6118 1437.00 1374.96 37.91
2922 60.6303 1493.00 1378.01 38.64
2923 60.6487 1508.00 1390.44 38.83
2924 60.6671 1465.00 1409.89 38.28
2925 60.6856 1434.00 1433.57 37.87
2926 60.7040 1454.00 1457.82 38.13
2927 60.7225 1493.00 1477.75 38.64
2928 60.7409 1517.00 1485.19 38.95
2929 60.7593 1518.00 1475.30 38.96
2930 60.7778 1459.00 1457.28 38.20
2931 60.7962 1417.00 1438.12 37.64
2932 60.8147 1453.00 1426.03 38.12
2933 60.8331 1352.00 1404.40 36.77
2934 60.8515 1285.00 1368.73 35.85
2935 60.8700 1322.00 1327.58 36.36
2936 60.8884 1281.00 1295.55 35.79
2937 60.9068 1255.00 1276.61 35.43
2938 60.9253 1306.00 1268.30 36.14
2939 60.9437 1280.00 1266.06 35.78
2940 60.9622 1289.00 1271.35 35.90
2941 60.9806 1257.00 1283.76 35.45
2942 60.9990 1260.00 1298.83 35.50
2943 61.0175 1262.00 1312.38 35.52
2944 61.0359 1307.00 1326.00 36.15
2945 61.0544 1277.00 1344.11 35.74
2946 61.0728 1397.00 1368.45 37.38
2947 61.0912 1388.00 1399.73 37.26
2948 61.1097 1382.00 1433.22 37.18
2949 61.1281 1450.00 1457.45 38.08
2950 61.1466 1453.00 1460.30 38.12
2951 61.1650 1363.00 1439.43 36.92
2952 61.1834 1349.00 1405.87 36.73
2953 61.2019 1321.00 1371.55 36.35
2954 61.2203 1305.00 1342.11 36.12
2955 61.2388 1320.00 1318.97 36.33
2956 61.2572 1304.00 1303.43 36.11
2957 61.2756 1381.00 1294.55 37.16
2958 61.2941 1283.00 1287.69 35.82
2959 61.3125 1283.00 1276.79 35.82
2960 61.3310 1221.00 1259.04 34.94
2961 61.3494 1305.00 1237.54 36.12
2962 61.3678 1213.00 1215.77 34.83
2963 61.3863 1158.00 1193.74 34.03
2964 61.4047 1156.00 1171.75 34.00
2965 61.4232 1116.00 1151.30 33.41
2966 61.4416 1159.00 1134.99 34.04
2967 61.4600 1158.00 1122.59 34.03
2968 61.4785 1045.00 1113.12 32.33
2969 61.4969 1085.00 1107.29 32.94
2970 61.5154 1112.00 1105.88 33.35
2971 61.5338 1053.00 1108.40 32.45
2972 61.5522 1144.00 1112.61 33.82
2973 61.5707 1108.00 1117.84 33.29
2974 61.5891 1060.00 1123.19 32.56
2975 61.6076 1086.00 1128.87 32.95
2976 61.6260 1111.00 1134.11 33.33
2977 61.6444 1148.00 1138.25 33.88
2978 61.6629 1093.00 1141.26 33.06
2979 61.6813 1093.00 1141.60 33.06
2980 61.6998 1124.00 1140.91 33.53
2981 61.7182 1102.00 1139.32 33.20
2982 61.7366 1005.00 1139.42 31.70
2983 61.7551 1099.00 1142.04 33.15
2984 61.7735 1113.00 1148.40 33.36
2985 61.7919 1138.00 1158.84 33.73
2986 61.8104 1159.00 1173.53 34.04
2987 61.8288 1164.00 1191.87 34.12
2988 61.8473 1182.00 1213.37 34.38
2989 61.8657 1253.00 1236.87 35.40
2990 61.8841 1332.00 1261.89 36.50
2991 61.9026 1313.00 1288.24 36.24
2992 61.9210 1342.00 1316.79 36.63
2993 61.9395 1409.00 1347.46 37.54
2994 61.9579 1499.00 1379.01 38.72
2995 61.9763 1514.00 1409.20 38.91
2996 61.9948 1492.00 1434.89 38.63
2997 62.0132 1520.00 1452.08 38.99
2998 62.0317 1455.00 1457.38 38.14
2999 62.0501 1457.00 1450.14 38.17
3000 62.0685 1358.00 1431.75 36.85
3001 62.0870 1350.00 1406.08 36.74
3002 62.1054 1396.00 1378.03 37.36
3003 62.1239 1342.00 1351.00 36.63
3004 62.1423 1340.00 1327.21 36.61
3005 62.1607 1342.00 1306.81 36.63
3006 62.1792 1281.00 1288.60 35.79
3007 62.1976 1236.00 1270.59 35.16
3008 62.2161 1253.00 1253.87 35.40
3009 62.2345 1122.00 1233.64 33.50
3010 62.2529 1134.00 1212.42 33.67
3011 62.2714 1141.00 1190.83 33.78
3012 62.2898 1118.00 1170.79 33.44
3013 62.3083 1141.00 1152.69 33.78
3014 62.3267 1136.00 1137.56 33.70
3015 62.3451 1095.00 1125.46 33.09
3016 62.3636 1115.00 1115.76 33.39
3017 62.3820 1056.00 1107.35 32.50
3018 62.4005 1080.00 1099.33 32.86
3019 62.4189 1068.00 1090.88 32.68
3020 62.4373 1125.00 1081.58 33.54
3021 62.4558 1098.00 1071.82 33.14
3022 62.4742 1083.00 1062.06 32.91
3023 62.4927 1061.00 1053.06 32.57
3024 62.5111 1034.00 1045.33 32.16
3025 62.5295 1051.00 1038.95 32.42
3026 62.5480 1008.00 1033.64 31.75
3027 62.5664 996.00 1029.31 31.56
3028 62.5849 1052.00 1025.65 32.43
3029 62.6033 979.00 1022.60 31.29
3030 62.6217 1006.00 1019.96 31.72
3031 62.6402 1022.00 1017.48 31.97
3032 62.6586 992.00 1014.60 31.50
3033 62.6771 1017.00 1010.42 31.89
3034 62.6955 957.00 1006.98 30.94
3035 62.7139 964.00 1001.32 31.05
3036 62.7324 904.00 997.13 30.07
3037 62.7508 966.00 996.05 31.08
3038 62.7692 997.00 998.15 31.58
3039 62.7877 1001.00 1002.92 31.64
3040 62.8061 987.00 1008.87 31.42
3041 62.8246 1004.00 1016.47 31.69
3042 62.8430 987.00 1021.08 31.42
3043 62.8614 921.00 1022.26 30.35
3044 62.8799 992.00 1019.35 31.50
3045 62.8983 1012.00 1014.95 31.81
3046 62.9168 993.00 1010.97 31.51
3047 62.9352 951.00 1008.56 30.84
3048 62.9536 960.00 1007.72 30.98
3049 62.9721 998.00 1007.76 31.59
3050 62.9905 1007.00 1008.39 31.73
3051 63.0090 947.00 1008.74 30.77
3052 63.0274 938.00 1008.65 30.63
3053 63.0458 934.00 1007.56 30.56
3054 63.0643 972.00 1006.34 31.18
3055 63.0827 975.00 1005.58 31.23
3056 63.1012 978.00 1005.97 31.27
3057 63.1196 997.00 1007.75 31.58
3058 63.1380 971.00 1010.90 31.16
3059 63.1565 998.00 1015.38 31.59
3060 63.1749 982.00 1021.14 31.34
3061 63.1934 979.00 1028.27 31.29
3062 63.2118 971.00 1036.86 31.16
3063 63.2302 1027.00 1046.92 32.05
3064 63.2487 1007.00 1058.45 31.73
3065 63.2671 1049.00 1071.08 32.39
3066 63.2856 1101.00 1084.53 33.18
3067 63.3040 1077.00 1097.34 32.82
3068 63.3224 1137.00 1110.00 33.72
3069 63.3409 1046.00 1120.44 32.34
3070 63.3593 1080.00 1128.31 32.86
3071 63.3778 1126.00 1132.58 33.56
3072 63.3962 1183.00 1133.32 34.39
3073 63.4146 1137.00 1131.50 33.72
3074 63.4331 1129.00 1128.70 33.60
3075 63.4515 1139.00 1126.59 33.75
3076 63.4700 1129.00 1126.34 33.60
3077 63.4884 1062.00 1128.12 32.59
3078 63.5068 1107.00 1132.32 33.27
3079 63.5253 1070.00 1137.78 32.71
3080 63.5437 1127.00 1143.99 33.57
3081 63.5622 1183.00 1150.05 34.39
3082 63.5806 1155.00 1155.50 33.99
3083 63.5990 1107.00 1160.44 33.27
3084 63.6175 1059.00 1165.39 32.54
3085 63.6359 1127.00 1171.06 33.57
3086 63.6543 1130.00 1178.21 33.62
3087 63.6728 1140.00 1187.69 33.76
3088 63.6912 1143.00 1199.58 33.81
3089 63.7097 1129.00 1213.67 33.60
3090 63.7281 1154.00 1228.89 33.97
3091 63.7465 1212.00 1243.46 34.81
3092 63.7650 1151.00 1255.35 33.93
3093 63.7834 1131.00 1262.24 33.63
3094 63.8019 1068.00 1262.64 32.68
3095 63.8203 1099.00 1256.38 33.15
3096 63.8387 1141.00 1245.01 33.78
3097 63.8572 1050.00 1231.41 32.40
3098 63.8756 1119.00 1219.24 33.45
3099 63.8941 1120.00 1210.05 33.47
3100 63.9125 1142.00 1204.84 33.79
3101 63.9309 1096.00 1202.63 33.11
3102 63.9494 1174.00 1200.87 34.26
3103 63.9678 1192.00 1196.53 34.53
3104 63.9863 1158.00 1187.15 34.03
3105 64.0047 1055.00 1172.81 32.48
3106 64.0231 1076.00 1156.45 32.80
3107 64.0416 1072.00 1142.30 32.74
3108 64.0600 1059.00 1134.14 32.54
3109 64.0785 1161.00 1132.32 34.07
3110 64.0969 1122.00 1136.06 33.50
3111 64.1153 1146.00 1142.61 33.85
3112 64.1338 1174.00 1148.36 34.26
3113 64.1522 1076.00 1149.60 32.80
3114 64.1707 1158.00 1145.93 34.03
3115 64.1891 1159.00 1136.78 34.04
3116 64.2075 1144.00 1126.32 33.82
3117 64.2260 1120.00 1118.53 33.47
3118 64.2444 1137.00 1115.87 33.72
3119 64.2629 1149.00 1116.99 33.90
3120 64.2813 1113.00 1119.11 33.36
3121 64.2997 1120.00 1121.61 33.47
3122 64.3182 1156.00 1121.78 34.00
3123 64.3366 1152.00 1118.74 33.94
3124 64.3551 1127.00 1112.65 33.57
3125 64.3735 1067.00 1105.19 32.67
3126 64.3919 1015.00 1098.09 31.86
3127 64.4104 1145.00 1092.99 33.84
3128 64.4288 1086.00 1092.49 32.95
3129 64.4473 1051.00 1090.87 32.42
3130 64.4657 1080.00 1089.74 32.86
3131 64.4841 1085.00 1089.91 32.94
3132 64.5026 1101.00 1090.36 33.18
3133 64.5210 1103.00 1091.82 33.21
3134 64.5394 1079.00 1094.85 32.85
3135 64.5579 1084.00 1100.00 32.92
3136 64.5763 1149.00 1107.55 33.90
3137 64.5948 1122.00 1117.71 33.50
3138 64.6132 1123.00 1130.51 33.51
3139 64.6316 1197.00 1145.92 34.60
3140 64.6501 1144.00 1163.78 33.82
3141 64.6685 1184.00 1184.07 34.41
3142 64.6870 1205.00 1206.44 34.71
3143 64.7054 1271.00 1230.06 35.65
3144 64.7238 1365.00 1254.13 36.95
3145 64.7423 1363.00 1277.57 36.92
3146 64.7607 1381.00 1298.76 37.16
3147 64.7792 1377.00 1317.00 37.11
3148 64.7976 1463.00 1331.72 38.25
3149 64.8160 1366.00 1343.53 36.96
3150 64.8345 1468.00 1353.81 38.31
3151 64.8529 1444.00 1363.60 38.00
3152 64.8714 1544.00 1373.63 39.29
3153 64.8898 1535.00 1383.54 39.18
3154 64.9082 1557.00 1392.35 39.46
3155 64.9267 1609.00 1398.60 40.11
3156 64.9451 1508.00 1401.15 38.83
3157 64.9636 1507.00 1397.98 38.82
3158 64.9820 1451.00 1389.48 38.09
3159 65.0004 1482.00 1376.65 38.50
3160 65.0189 1341.00 1361.16 36.62
3161 65.0373 1457.00 1345.08 38.17
3162 65.0558 1336.00 1329.64 36.55
3163 65.0742 1369.00 1315.59 37.00
3164 65.0926 1374.00 1302.76 37.07
3165 65.1111 1329.00 1290.54 36.46
3166 65.1295 1332.00 1278.09 36.50
3167 65.1480 1222.00 1264.19 34.96
3168 65.1664 1324.00 1247.90 36.39
3169 65.1848 1177.00 1229.08 34.31
3170 65.2033 1222.00 1208.80 34.96
3171 65.2217 1202.00 1189.63 34.67
3172 65.2402 1169.00 1173.32 34.19
3173 65.2586 1170.00 1160.97 34.21
3174 65.2770 1154.00 1152.57 33.97
3175 65.2955 1098.00 1147.40 33.14
3176 65.3139 1192.00 1144.63 34.53
3177 65.3324 1171.00 1143.18 34.22
3178 65.3508 1100.00 1142.10 33.17
3179 65.3692 1136.00 1141.27 33.70
3180 65.3877 1191.00 1140.96 34.51
3181 65.4061 1176.00 1142.17 34.29
3182 65.4246 1142.00 1145.74 33.79
3183 65.4430 1155.00 1151.95 33.99
3184 65.4614 1149.00 1160.84 33.90
3185 65.4799 1165.00 1171.58 34.13
3186 65.4983 1162.00 1183.63 34.09
3187 65.5167 1227.00 1196.53 35.03
3188 65.5352 1227.00 1209.92 35.03
3189 65.5536 1223.00 1223.87 34.97
3190 65.5721 1200.00 1238.68 34.64
3191 65.5905 1284.00 1254.05 35.83
3192 65.6089 1271.00 1269.29 35.65
3193 65.6274 1307.00 1283.03 36.15
3194 65.6458 1338.00 1293.75 36.58
3195 65.6643 1422.00 1300.53 37.71
3196 65.6827 1328.00 1304.67 36.44
3197 65.7011 1364.00 1307.03 36.93
3198 65.7196 1331.00 1308.94 36.48
3199 65.7380 1382.00 1311.03 37.18
3200 65.7565 1376.00 1313.55 37.09
3201 65.7749 1346.00 1316.23 36.69
3202 65.7933 1429.00 1318.95 37.80
3203 65.8118 1303.00 1321.97 36.10
3204 65.8302 1414.00 1325.96 37.60
3205 65.8487 1333.00 1331.75 36.51
3206 65.8671 1354.00 1340.77 36.80
3207 65.8855 1392.00 1353.52 37.31
3208 65.9040 1446.00 1370.00 38.03
3209 65.9224 1476.00 1388.86 38.42
3210 65.9409 1498.00 1408.53 38.70
3211 65.9593 1450.00 1426.62 38.08
3212 65.9777 1497.00 1441.52 38.69
3213 65.9962 1445.00 1452.12 38.01
3214 66.0146 1444.00 1457.88 38.00
3215 66.0331 1448.00 1459.71 38.05
3216 66.0515 1396.00 1458.45 37.36
3217 66.0699 1430.00 1456.03 37.82
3218 66.0884 1369.00 1453.31 37.00
3219 66.1068 1419.00 1449.61 37.67
3220 66.1253 1350.00 1443.11 36.74
3221 66.1437 1319.00 1433.00 36.32
3222 66.1621 1344.00 1417.13 36.66
3223 66.1806 1325.00 1395.21 36.40
3224 66.1990 1338.00 1368.45 36.58
3225 66.2175 1301.00 1338.64 36.07
3226 66.2359 1304.00 1308.91 36.11
3227 66.2543 1251.00 1281.50 35.37
3228 66.2728 1294.00 1257.38 35.97
3229 66.2912 1218.00 1236.61 34.90
3230 66.3097 1228.00 1217.45 35.04
3231 66.3281 1163.00 1199.38 34.10
3232 66.3465 1125.00 1180.89 33.54
3233 66.3650 1179.00 1161.44 34.34
3234 66.3834 1139.00 1141.64 33.75
3235 66.4018 1126.00 1122.38 33.56
3236 66.4203 1041.00 1104.86 32.26
3237 66.4387 1128.00 1090.28 33.59
3238 66.4572 1028.00 1079.07 32.06
3239 66.4756 1038.00 1071.39 32.22
3240 66.4940 1097.00 1066.81 33.12
3241 66.5125 1062.00 1064.76 32.59
3242 66.5309 1069.00 1064.66 32.70
3243 66.5494 1112.00 1066.01 33.35
3244 66.5678 1109.00 1068.11 33.30
3245 66.5862 1037.00 1070.62 32.20
3246 66.6047 1103.00 1072.69 33.21
3247 66.6231 1069.00 1073.86 32.70
3248 66.6416 1018.00 1073.57 31.91
3249 66.6600 1032.00 1072.09 32.12
3250 66.6784 1088.00 1069.62 32.98
3251 66.6969 1093.00 1066.44 33.06
3252 66.7153 1076.00 1063.31 32.80
3253 66.7338 1018.00 1059.20 31.91
3254 66.7522 1086.00 1054.47 32.95
3255 66.7706 1000.00 1049.27 31.62
3256 66.7891 983.00 1043.84 31.35
3257 66.8075 1001.00 1038.52 31.64
3258 66.8260 1047.00 1033.06 32.36
3259 66.8444 980.00 1027.23 31.31
3260 66.8628 1037.00 1020.43 32.20
3261 66.8813 998.00 1012.54 31.59
3262 66.8997 994.00 1003.80 31.53
3263 66.9182 988.00 994.51 31.43
3264 66.9366 977.00 985.29 31.26
3265 66.9550 959.00 976.67 30.97
3266 66.9735 1031.00 969.09 32.11
3267 66.9919 895.00 962.80 29.92
3268 67.0104 937.00 957.80 30.61
3269 67.0288 968.00 953.82 31.11
3270 67.0472 889.00 950.45 29.82
3271 67.0657 926.00 947.37 30.43
3272 67.0841 1000.00 944.64 31.62
3273 67.1026 979.00 942.32 31.29
3274 67.1210 986.00 940.63 31.40
3275 67.1394 943.00 939.74 30.71
3276 67.1579 949.00 939.04 30.81
3277 67.1763 937.00 939.64 30.61
3278 67.1948 950.00 940.61 30.82
3279 67.2132 923.00 941.75 30.38
3280 67.2316 991.00 942.71 31.48
3281 67.2501 881.00 943.18 29.68
3282 67.2685 947.00 942.92 30.77
3283 67.2870 1001.00 942.38 31.64
3284 67.3054 938.00 941.53 30.63
3285 67.3238 937.00 941.16 30.61
3286 67.3423 947.00 939.71 30.77
3287 67.3607 972.00 939.58 31.18
3288 67.3791 983.00 940.32 31.35
3289 67.3976 983.00 942.20 31.35
3290 67.4160 1023.00 945.56 31.98
3291 67.4345 1001.00 950.42 31.64
3292 67.4529 993.00 957.16 31.51
3293 67.4713 1023.00 965.92 31.98
3294 67.4898 1050.00 976.40 32.40
3295 67.5082 976.00 988.00 31.24
3296 67.5267 988.00 999.71 31.43
3297 67.5451 1042.00 1010.80 32.28
3298 67.5635 1053.00 1020.06 32.45
3299 67.5820 1028.00 1026.30 32.06
3300 67.6004 1062.00 1029.34 32.59
3301 67.6189 1065.00 1029.82 32.63
3302 67.6373 996.00 1029.24 31.56
3303 67.6557 1046.00 1029.86 32.34
3304 67.6742 993.00 1032.53 31.51
3305 67.6926 969.00 1037.41 31.13
3306 67.7111 1061.00 1043.81 32.57
3307 67.7295 1010.00 1050.43 31.78
3308 67.7479 1069.00 1056.17 32.70
3309 67.7664 1045.00 1059.91 32.33
3310 67.7848 1017.00 1061.11 31.89
3311 67.8033 1034.00 1058.93 32.16
3312 67.8217 1030.00 1053.39 32.09
3313 67.8401 1017.00 1044.98 31.89
3314 67.8586 1036.00 1034.56 32.19
3315 67.8770 1009.00 1023.32 31.76
3316 67.8955 951.00 1011.91 30.84
3317 67.9139 962.00 1001.70 31.02
3318 67.9323 963.00 992.47 31.03
3319 67.9508 1007.00 984.68 31.73
3320 67.9692 1015.00 978.34 31.86
3321 67.9877 1025.00 973.17 32.02
3322 68.0061 978.00 968.66 31.27
3323 68.0245 952.00 964.36 30.85
3324 68.0430 879.00 960.05 29.65
3325 68.0614 961.00 955.81 31.00
3326 68.0799 966.00 952.30 31.08
3327 68.0983 986.00 949.86 31.40
3328 68.1167 984.00 948.99 31.37
3329 68.1352 1006.00 949.96 31.72
3330 68.1536 951.00 952.81 30.84
3331 68.1721 987.00 957.50 31.42
3332 68.1905 984.00 963.31 31.37
3333 68.2089 1000.00 969.46 31.62
3334 68.2274 1004.00 975.46 31.69
3335 68.2458 1029.00 980.23 32.08
3336 68.2642 946.00 983.01 30.76
3337 68.2827 1017.00 983.61 31.89
3338 68.3011 1046.00 982.42 32.34
3339 68.3196 980.00 979.81 31.31
3340 68.3380 1032.00 977.28 32.12
3341 68.3564 945.00 975.90 30.74
3342 68.3749 996.00 976.17 31.56
3343 68.3933 1005.00 977.92 31.70
3344 68.4118 1017.00 981.58 31.89
3345 68.4302 971.00 984.31 31.16
3346 68.4486 948.00 986.36 30.79
3347 68.4671 1052.00 986.76 32.43
3348 68.4855 974.00 985.06 31.21
3349 68.5040 1003.00 982.19 31.67
3350 68.5224 942.00 978.88 30.69
3351 68.5408 1024.00 976.15 32.00
3352 68.5593 967.00 974.76 31.10
3353 68.5777 980.00 974.39 31.31
3354 68.5962 986.00 976.25 31.40
3355 68.6146 990.00 978.96 31.46
3356 68.6330 938.00 982.24 30.63
3357 68.6515 960.00 985.16 30.98
3358 68.6699 1016.00 987.17 31.87
3359 68.6884 980.00 987.74 31.31
3360 68.7068 1006.00 986.97 31.72
3361 68.7252 1004.00 984.76 31.69
3362 68.7437 977.00 981.25 31.26
3363 68.7621 1013.00 976.80 31.83
3364 68.7806 957.00 971.51 30.94
3365 68.7990 931.00 966.50 30.51
3366 68.8174 945.00 961.78 30.74
3367 68.8359 1015.00 957.65 31.86
3368 68.8543 983.00 954.16 31.35
3369 68.8728 1015.00 951.30 31.86
3370 68.8912 959.00 948.85 30.97
3371 68.9096 997.00 946.73 31.58
3372 68.9281 935.00 944.81 30.58
3373 68.9465 969.00 943.06 31.13
3374 68.9650 977.00 941.46 31.26
3375 68.9834 986.00 940.14 31.40
3376 69.0018 1019.00 939.18 31.92
3377 69.0203 979.00 938.81 31.29
3378 69.0387 970.00 939.08 31.14
3379 69.0572 965.00 940.11 31.06
3380 69.0756 1030.00 941.92 32.09
3381 69.0940 922.00 944.48 30.36
3382 69.1125 973.00 947.60 31.19
3383 69.1309 1011.00 951.41 31.80
3384 69.1493 1016.00 955.48 31.87
3385 69.1678 997.00 959.51 31.58
3386 69.1862 1028.00 963.04 32.06
3387 69.2047 1018.00 965.78 31.91
3388 69.2231 1030.00 967.42 32.09
3389 69.2415 1019.00 967.86 31.92
3390 69.2600 978.00 967.18 31.27
3391 69.2784 948.00 965.62 30.79
3392 69.2969 986.00 963.46 31.40
3393 69.3153 1017.00 960.84 31.89
3394 69.3337 993.00 958.47 31.51
3395 69.3522 977.00 956.46 31.26
3396 69.3706 955.00 954.61 30.90
3397 69.3891 976.00 953.09 31.24
3398 69.4075 1006.00 951.85 31.72
3399 69.4259 957.00 950.85 30.94
3400 69.4444 998.00 949.96 31.59
3401 69.4628 951.00 949.29 30.84
3402 69.4813 929.00 948.83 30.48
3403 69.4997 994.00 948.62 31.53
3404 69.5181 965.00 948.64 31.06
3405 69.5366 974.00 949.08 31.21
3406 69.5550 983.00 949.87 31.35
3407 69.5735 941.00 950.91 30.68
3408 69.5919 973.00 952.16 31.19
3409 69.6103 940.00 953.39 30.66
3410 69.6288 1007.00 954.37 31.73
3411 69.6472 969.00 954.91 31.13
3412 69.6657 908.00 955.07 30.13
3413 69.6841 973.00 955.71 31.19
3414 69.7025 973.00 955.68 31.19
3415 69.7210 960.00 955.99 30.98
3416 69.7394 903.00 956.88 30.05
3417 69.7579 961.00 958.48 31.00
3418 69.7763 994.00 960.81 31.53
3419 69.7947 934.00 963.91 30.56
3420 69.8132 981.00 967.77 31.32
3421 69.8316 1011.00 972.25 31.80
3422 69.8501 982.00 977.51 31.34
3423 69.8685 1016.00 983.43 31.87
3424 69.8869 996.00 990.05 31.56
3425 69.9054 992.00 997.39 31.50
3426 69.9238 1069.00 1005.33 32.70
3427 69.9423 1022.00 1013.85 31.97
3428 69.9607 977.00 1022.74 31.26
3429 69.9791 1050.00 1031.94 32.40
3430 69.9976 1032.00 1041.48 32.12
3431 70.0160 1035.00 1051.25 32.17
3432 70.0345 1011.00 1061.23 31.80
3433 70.0529 1028.00 1071.19 32.06
3434 70.0713 1035.00 1080.76 32.17
3435 70.0898 1085.00 1089.86 32.94
3436 70.1082 1107.00 1098.15 33.27
3437 70.1266 1119.00 1105.78 33.45
3438 70.1451 1096.00 1113.08 33.11
3439 70.1635 1065.00 1120.31 32.63
3440 70.1820 1093.00 1127.71 33.06
3441 70.2004 1183.00 1135.09 34.39
3442 70.2188 1145.00 1141.94 33.84
3443 70.2373 1157.00 1147.66 34.01
3444 70.2557 1175.00 1151.43 34.28
3445 70.2742 1157.00 1152.73 34.01
3446 70.2926 1107.00 1151.16 33.27
3447 70.3110 1078.00 1147.12 32.83
3448 70.3295 1149.00 1141.40 33.90
3449 70.3479 1192.00 1135.28 34.53
3450 70.3664 1159.00 1129.80 34.04
3451 70.3848 1226.00 1125.95 35.01
3452 70.4032 1257.00 1124.00 35.45
3453 70.4217 1217.00 1123.55 34.89
3454 70.4401 1179.00 1123.82 34.34
3455 70.4586 1152.00 1123.85 33.94
3456 70.4770 1203.00 1122.59 34.68
3457 70.4954 1124.00 1119.29 33.53
3458 70.5139 1081.00 1113.47 32.88
3459 70.5323 1120.00 1105.24 33.47
3460 70.5508 1068.00 1094.93 32.68
3461 70.5692 1087.00 1083.47 32.97
3462 70.5876 1062.00 1071.73 32.59
3463 70.6061 1142.00 1060.70 33.79
3464 70.6245 1112.00 1051.25 33.35
3465 70.6430 1011.00 1043.76 31.80
3466 70.6614 1023.00 1038.51 31.98
3467 70.6798 1006.00 1035.26 31.72
3468 70.6983 1043.00 1033.64 32.30
3469 70.7167 1045.00 1033.09 32.33
3470 70.7352 1006.00 1032.98 31.72
3471 70.7536 976.00 1032.68 31.24
3472 70.7720 1027.00 1031.66 32.05
3473 70.7905 1074.00 1029.49 32.77
3474 70.8089 987.00 1026.00 31.42
3475 70.8274 1008.00 1021.07 31.75
3476 70.8458 916.00 1015.03 30.27
3477 70.8642 954.00 1008.22 30.89
3478 70.8827 931.00 1001.21 30.51
3479 70.9011 974.00 994.80 31.21
3480 70.9196 989.00 989.61 31.45
3481 70.9380 956.00 986.03 30.92
3482 70.9564 1023.00 984.08 31.98
3483 70.9749 948.00 983.22 30.79
3484 70.9933 980.00 982.95 31.31
3485 71.0117 953.00 982.60 30.87
3486 71.0302 992.00 981.54 31.50
3487 71.0486 954.00 979.39 30.89
3488 71.0671 1056.00 976.09 32.50
3489 71.0855 1028.00 971.80 32.06
3490 71.1039 947.00 966.95 30.77
3491 71.1224 926.00 962.09 30.43
3492 71.1408 965.00 957.83 31.06
3493 71.1593 927.00 954.52 30.45
3494 71.1777 909.00 952.39 30.15
3495 71.1961 922.00 951.41 30.36
3496 71.2146 904.00 951.51 30.07
3497 71.2330 980.00 952.49 31.31
3498 71.2515 918.00 954.11 30.30
3499 71.2699 922.00 956.22 30.36
3500 71.2883 981.00 958.62 31.32
3501 71.3068 950.00 961.12 30.82
3502 71.3252 987.00 963.52 31.42
3503 71.3437 904.00 965.51 30.07
3504 71.3621 958.00 967.21 30.95
3505 71.3805 957.00 968.34 30.94
3506 71.3990 968.00 968.82 31.11
3507 71.4174 894.00 968.66 29.90
3508 71.4359 984.00 968.03 31.37
3509 71.4543 986.00 967.08 31.40
3510 71.4727 940.00 966.00 30.66
3511 71.4912 982.00 965.00 31.34
3512 71.5096 925.00 964.24 30.41
3513 71.5281 943.00 963.86 30.71
3514 71.5465 944.00 963.77 30.72
3515 71.5649 939.00 964.47 30.64
3516 71.5834 967.00 965.10 31.10
3517 71.6018 956.00 966.07 30.92
3518 71.6203 958.00 966.76 30.95
3519 71.6387 942.00 967.35 30.69
3520 71.6571 934.00 967.83 30.56
3521 71.6756 925.00 968.27 30.41
3522 71.6940 928.00 968.84 30.46
3523 71.7125 920.00 969.74 30.33
3524 71.7309 979.00 971.23 31.29
3525 71.7493 986.00 973.59 31.40
3526 71.7678 943.00 977.04 30.71
3527 71.7862 907.00 981.58 30.12
3528 71.8047 997.00 987.24 31.58
3529 71.8231 927.00 993.82 30.45
3530 71.8415 923.00 1001.17 30.38
3531 71.8600 1004.00 1009.02 31.69
3532 71.8784 960.00 1017.31 30.98
3533 71.8969 1009.00 1025.80 31.76
3534 71.9153 1001.00 1034.08 31.64
3535 71.9337 1061.00 1042.08 32.57
3536 71.9522 992.00 1049.35 31.50
3537 71.9706 1040.00 1055.36 32.25
3538 71.9890 989.00 1059.78 31.45
3539 72.0075 983.00 1062.23 31.35
3540 72.0259 959.00 1062.51 30.97
3541 72.0444 1021.00 1060.67 31.95
3542 72.0628 1006.00 1057.02 31.72
3543 72.0812 1011.00 1052.23 31.80
3544 72.0997 1010.00 1046.86 31.78
3545 72.1181 1003.00 1041.52 31.67
3546 72.1366 1027.00 1036.64 32.05
3547 72.1550 1030.00 1032.45 32.09
3548 72.1734 1016.00 1028.84 31.87
3549 72.1919 987.00 1025.64 31.42
3550 72.2103 1038.00 1022.74 32.22
3551 72.2288 1014.00 1019.92 31.84
3552 72.2472 1017.00 1017.08 31.89
3553 72.2656 978.00 1014.18 31.27
3554 72.2841 991.00 1011.37 31.48
3555 72.3025 1020.00 1008.59 31.94
3556 72.3210 1025.00 1005.72 32.02
3557 72.3394 997.00 1002.75 31.58
3558 72.3578 1001.00 999.49 31.64
3559 72.3763 1018.00 996.35 31.91
3560 72.3947 981.00 992.21 31.32
3561 72.4132 955.00 987.79 30.90
3562 72.4316 975.00 983.43 31.23
3563 72.4500 997.00 979.60 31.58
3564 72.4685 963.00 976.59 31.03
3565 72.4869 946.00 974.65 30.76
3566 72.5054 944.00 973.94 30.72
3567 72.5238 967.00 974.35 31.10
3568 72.5422 992.00 975.70 31.50
3569 72.5607 927.00 977.78 30.45
3570 72.5791 925.00 980.26 30.41
3571 72.5976 1000.00 982.83 31.62
3572 72.6160 1012.00 985.14 31.81
3573 72.6344 933.00 987.02 30.55
3574 72.6529 972.00 988.21 31.18
3575 72.6713 967.00 988.49 31.10
3576 72.6898 999.00 987.74 31.61
3577 72.7082 976.00 985.92 31.24
3578 72.7266 982.00 983.16 31.34
3579 72.7451 919.00 979.72 30.32
3580 72.7635 942.00 975.96 30.69
3581 72.7820 953.00 972.65 30.87
3582 72.8004 938.00 969.73 30.63
3583 72.8188 933.00 967.31 30.55
3584 72.8373 957.00 965.70 30.94
3585 72.8557 940.00 964.61 30.66
3586 72.8741 986.00 963.72 31.40
3587 72.8926 977.00 962.93 31.26
3588 72.9110 941.00 961.98 30.68
3589 72.9295 977.00 960.70 31.26
3590 72.9479 990.00 959.02 31.46
3591 72.9663 990.00 956.90 31.46
3592 72.9848 940.00 954.65 30.66
3593 73.0032 912.00 952.15 30.20
3594 73.0217 964.00 949.57 31.05
3595 73.0401 944.00 947.21 30.72
3596 73.0585 877.00 945.35 29.61
3597 73.0770 989.00 943.60 31.45
3598 73.0954 890.00 942.21 29.83
3599 73.1139 858.00 941.17 29.29
3600 73.1323 924.00 940.42 30.40
3601 73.1507 952.00 939.70 30.85
3602 73.1692 927.00 939.00 30.45
3603 73.1876 945.00 938.12 30.74
3604 73.2061 925.00 937.04 30.41
3605 73.2245 968.00 935.72 31.11
3606 73.2429 910.00 933.93 30.17
3607 73.2614 915.00 932.19 30.25
3608 73.2798 952.00 930.35 30.85
3609 73.2983 911.00 928.42 30.18
3610 73.3167 909.00 926.45 30.15
3611 73.3351 913.00 924.55 30.22
3612 73.3536 933.00 922.70 30.55
3613 73.3720 965.00 920.96 31.06
3614 73.3905 888.00 919.41 29.80
3615 73.4089 912.00 918.05 30.20
3616 73.4273 890.00 916.92 29.83
3617 73.4458 888.00 916.04 29.80
3618 73.4642 928.00 915.33 30.46
3619 73.4827 891.00 915.09 29.85
3620 73.5011 893.00 915.23 29.88
3621 73.5195 937.00 915.76 30.61
3622 73.5380 914.00 916.85 30.23
3623 73.5564 891.00 918.51 29.85
3624 73.5749 943.00 920.86 30.71
3625 73.5933 964.00 923.91 31.05
3626 73.6117 913.00 927.70 30.22
3627 73.6302 991.00 932.33 31.48
3628 73.6486 961.00 937.39 31.00
3629 73.6671 969.00 942.92 31.13
3630 73.6855 1012.00 948.64 31.81
3631 73.7039 1070.00 954.36 32.71
3632 73.7224 1056.00 959.86 32.50
3633 73.7408 1089.00 964.82 33.00
3634 73.7592 1043.00 969.14 32.30
3635 73.7777 1011.00 972.77 31.80
3636 73.7961 983.00 975.69 31.35
3637 73.8146 958.00 978.10 30.95
3638 73.8330 1072.00 980.12 32.74
3639 73.8514 1046.00 981.87 32.34
3640 73.8699 1046.00 983.42 32.34
3641 73.8883 1037.00 984.72 32.20
3642 73.9068 991.00 985.66 31.48
3643 73.9252 1088.00 986.21 32.98
3644 73.9436 1022.00 986.34 31.97
3645 73.9621 1005.00 986.09 31.70
3646 73.9805 1008.00 985.79 31.75
3647 73.9990 980.00 985.25 31.31
3648 74.0174 1062.00 984.67 32.59
3649 74.0358 1014.00 984.28 31.84
3650 74.0543 1023.00 984.17 31.98
3651 74.0727 1123.00 984.38 33.51
3652 74.0912 1006.00 984.94 31.72
3653 74.1096 1029.00 985.83 32.08
3654 74.1280 1013.00 987.02 31.83
3655 74.1465 1046.00 988.53 32.34
3656 74.1649 1026.00 990.30 32.03
3657 74.1834 1064.00 992.31 32.62
3658 74.2018 1036.00 994.49 32.19
3659 74.2202 1087.00 996.75 32.97
3660 74.2387 1078.00 999.01 32.83
3661 74.2571 1036.00 1001.13 32.19
3662 74.2756 1065.00 1003.19 32.63
3663 74.2940 1110.00 1005.13 33.32
3664 74.3124 1031.00 1006.98 32.11
3665 74.3309 1067.00 1008.82 32.67
3666 74.3493 1028.00 1010.65 32.06
3667 74.3678 1051.00 1012.53 32.42
3668 74.3862 1113.00 1014.37 33.36
3669 74.4046 1113.00 1016.11 33.36
3670 74.4231 1080.00 1017.75 32.86
3671 74.4415 1015.00 1019.13 31.86
3672 74.4600 1019.00 1020.38 31.92
3673 74.4784 1035.00 1021.72 32.17
3674 74.4968 1039.00 1023.47 32.23
3675 74.5153 1016.00 1025.97 31.87
3676 74.5337 1040.00 1029.56 32.25
3677 74.5522 996.00 1034.52 31.56
3678 74.5706 1011.00 1041.00 31.80
3679 74.5890 995.00 1048.85 31.54
3680 74.6075 1081.00 1057.90 32.88
3681 74.6259 1081.00 1067.43 32.88
3682 74.6444 997.00 1077.07 31.58
3683 74.6628 1082.00 1085.91 32.89
3684 74.6812 1119.00 1093.41 33.45
3685 74.6997 1076.00 1098.99 32.80
3686 74.7181 1066.00 1102.14 32.65
3687 74.7365 1094.00 1102.64 33.08
3688 74.7550 1073.00 1100.51 32.76
3689 74.7734 1042.00 1096.11 32.28
3690 74.7919 1064.00 1089.92 32.62
3691 74.8103 1033.00 1082.68 32.14
3692 74.8287 1011.00 1075.42 31.80
3693 74.8472 976.00 1068.62 31.24
3694 74.8656 1007.00 1062.61 31.73
3695 74.8841 1065.00 1057.90 32.63
3696 74.9025 1070.00 1054.24 32.71
3697 74.9209 1031.00 1051.26 32.11
3698 74.9394 1030.00 1048.65 32.09
3699 74.9578 969.00 1046.18 31.13
3700 74.9763 998.00 1043.33 31.59
3701 74.9947 949.00 1040.34 30.81
3702 75.0131 969.00 1036.99 31.13
3703 75.0316 980.00 1033.55 31.31
3704 75.0500 981.00 1030.43 31.32
loop_
_pd_proc_info_excluded_regions
'from 5 to 6.700'
