#------------------------------------------------------------------------------
#$Date: 2016-03-26 19:27:03 +0200 (Sat, 26 Mar 2016) $
#$Revision: 180435 $
#$URL: svn://www.crystallography.net/cod/cif/7/21/04/7210491.cif $
#------------------------------------------------------------------------------
#
# This file is available in the Crystallography Open Database (COD),
# http://www.crystallography.net/
#
# All data on this site have been placed in the public domain by the
# contributors.
#
data_7210491
loop_
_publ_author_name
'Miller, Stuart R.'
'Horcajada, Patricia'
'Serre, Christian'
_publ_section_title
;
 Small chemical causes drastic structural effects: the case of calcium
 glutarate
;
_journal_issue                   6
_journal_name_full               CrystEngComm
_journal_page_first              1894
_journal_paper_doi               10.1039/c0ce00450b
_journal_volume                  13
_journal_year                    2011
_chemical_formula_sum            'C5 Ca O5'
_chemical_formula_weight         180.13
_space_group_IT_number           19
_symmetry_cell_setting           orthorhombic
_symmetry_Int_Tables_number      19
_symmetry_space_group_name_Hall  'P 2ac 2ab'
_symmetry_space_group_name_H-M   'P 21 21 21'
_cell_angle_alpha                90.0
_cell_angle_beta                 90.0
_cell_angle_gamma                90.0
_cell_formula_units_Z            4
_cell_length_a                   6.78048(6)
_cell_length_b                   18.42351(23)
_cell_length_c                   5.86807(6)
_cell_measurement_temperature    293
_cell_volume                     733.041(13)
_computing_structure_refinement  GSAS
_diffrn_ambient_temperature      293
_diffrn_measurement_device_type  'Bruker D8'
_diffrn_radiation_polarisn_ratio 0.55
_diffrn_radiation_probe          x-ray
_diffrn_radiation_type           'Cu K\a'
_diffrn_radiation_wavelength     1.54056
_exptl_absorpt_correction_T_max  1.00000
_exptl_absorpt_correction_T_min  1.00000
_exptl_absorpt_process_details
; GSAS Absorption/surface roughness correction: function number 0
No correction is applied.
;
_exptl_crystal_colour            'white powder'
_exptl_crystal_density_diffrn    1.632
_pd_calc_method                  'Rietveld Refinement'
_pd_instr_location               ' ?'
_pd_meas_2theta_range_inc        0.0159
_pd_meas_2theta_range_max        90.2064
_pd_meas_2theta_range_min        6.0
_pd_meas_number_of_points        5297
_pd_phase_name
'from C:/Documents and Settings/Stu/Bureau/hydrated Calcium glutara'
_pd_proc_2theta_range_inc        0.0159
_pd_proc_2theta_range_max        90.11684
_pd_proc_2theta_range_min        5.91044
_pd_proc_info_datetime           2009-09-29T17:15:09
_pd_proc_info_excluded_regions   ' ?'
_pd_proc_ls_background_function
; GSAS Background function number 7 with 36 terms.
Linear interpolation
1: 11421.3 2: 10014.3 3: 9492.19 4: 9789.68
5: 10649.7 6: 13040.2 7: 15799.3 8: 19514.5
9: 23884.8 10: 26627.8 11: 26288.5 12: 23049.4
13: 19718.8 14: 18518.2 15: 17226.2 16: 16418.0
17: 15356.2 18: 13306.7 19: 11722.6 20: 10233.2
21: 9839.15 22: 9447.89 23: 9119.54 24: 9095.03
25: 8908.06 26: 8689.10 27: 8335.21 28: 8049.42
29: 8001.17 30: 7792.79 31: 7660.23 32: 7553.22
33: 7344.52 34: 7302.52 35: 7262.87 36: 7357.42
;
_pd_proc_ls_peak_cutoff          0.00250
_pd_proc_ls_profile_function
;
CW Profile function number 3 with 19 terms
Pseudovoigt profile coefficients as parameterized in
P. Thompson, D.E. Cox & J.B. Hastings (1987). J. Appl. Cryst.,20,79-83.
Asymmetry correction of L.W. Finger, D.E. Cox & A. P. Jephcoat (1994).
J. Appl. Cryst.,27,892-900.
Peak tails are ignored where the intensity is below 0.0025 times the peak
Aniso. broadening axis 0.0 0.0 1.0
;
_pd_proc_ls_prof_R_factor        0.0204
_pd_proc_ls_prof_wR_expected     0.0079
_pd_proc_ls_prof_wR_factor       0.0286
_pd_proc_number_of_points        5297
_pd_spec_mounting                ' ?'
_refine_ls_goodness_of_fit_all   3.66
_refine_ls_matrix_type           full
_refine_ls_number_parameters     75
_refine_ls_number_restraints     10
_refine_ls_R_Fsqd_factor         0.06356
_refine_ls_shift/su_max          0.04
_refine_ls_shift/su_mean         0.01
_reflns_d_resolution_high        1.089
_reflns_d_resolution_low         9.212
_reflns_limit_h_max              6
_reflns_limit_h_min              0
_reflns_limit_k_max              16
_reflns_limit_k_min              0
_reflns_limit_l_max              5
_reflns_limit_l_min              0
_reflns_number_total             383
_cod_data_source_file            c0ce00450b.txt
_cod_data_source_block           XYZPROF3_publ
_cod_depositor_comments
;
The following automatic conversions were performed:

'_geom_bond_publ_flag' value 'N' changed to 'n' according to the
built-in table from CIF Core dictionary named 'cif_core.dic' version
2.4.1 from 2010-06-29 (34 times).

'_geom_angle_publ_flag' value 'N'
changed to 'n' according to the built-in table from CIF Core
dictionary named 'cif_core.dic' version 2.4.1 from 2010-06-29 (38
times).

Automatic conversion script
Id: cif_fix_values 1891 2012-01-12 08:04:46Z andrius 
;
_cod_original_cell_volume        733.041(16)
_cod_database_code               7210491
#BEGIN Tags that were not found in dictionaries:
_gsas_exptl_extinct_corr_t_min   1.00000
_gsas_exptl_extinct_corr_t_max   1.00000
#END Tags that were not found in dictionaries
loop_
_symmetry_equiv_pos_site_id
_symmetry_equiv_pos_as_xyz
1 +x,+y,+z
2 +x+1/2,-y+1/2,-z
3 -x,+y+1/2,-z+1/2
4 -x+1/2,-y,+z+1/2
loop_
_atom_site_type_symbol
_atom_site_label
_atom_site_fract_x
_atom_site_fract_y
_atom_site_fract_z
_atom_site_occupancy
_atom_site_thermal_displace_type
_atom_site_U_iso_or_equiv
_atom_site_symmetry_multiplicity
Ca CA1 -0.11707(30) 0.20243(8) 0.4140(4) 1.0 Uiso 0.0060(4) 4
O O5 -0.1182(8) 0.10773(25) 1.1273(8) 1.0 Uiso 0.0120(4) 4
O O1 -0.1536(8) 0.16482(29) 0.8015(7) 1.0 Uiso 0.0120(4) 4
C C5 -0.0940(13) 0.1098(4) 0.9170(15) 1.0 Uiso 0.0167(4) 4
O O2 0.2783(6) -0.18108(30) 0.9551(9) 1.0 Uiso 0.0120(4) 4
O O3 -0.0395(5) -0.18475(29) 0.8915(14) 1.0 Uiso 0.0120(4) 4
O O4 -0.0329(6) 0.27532(25) 0.0998(10) 1.0 Uiso 0.0120(4) 4
C C1 0.1195(14) -0.1480(4) 0.8966(17) 1.0 Uiso 0.0167(4) 4
C C2 0.1250(15) -0.0699(4) 0.7807(14) 1.0 Uiso 0.0167(4) 4
C C3 -0.0005(12) -0.0249(4) 0.9239(13) 1.0 Uiso 0.0167(4) 4
C C4 0.0042(14) 0.0443(4) 0.7932(12) 1.0 Uiso 0.0167(4) 4
loop_
_atom_type_symbol
_atom_type_number_in_cell
_atom_type_scat_dispersion_real
_atom_type_scat_dispersion_imag
_atom_type_scat_Cromer_Mann_a1
_atom_type_scat_Cromer_Mann_a2
_atom_type_scat_Cromer_Mann_a3
_atom_type_scat_Cromer_Mann_a4
_atom_type_scat_Cromer_Mann_b1
_atom_type_scat_Cromer_Mann_b2
_atom_type_scat_Cromer_Mann_b3
_atom_type_scat_Cromer_Mann_b4
_atom_type_scat_Cromer_Mann_c
_atom_type_scat_source
Ca 4.0 0.000 0.000 8.62660 10.4421 7.38730 0.65990 1.58990 85.7484 1.02110
178.437 1.37510 International_Tables_Vol_C
O 20.0 0.000 0.000 3.04850 13.2771 2.28680 5.70110 1.54630 0.32390 0.86700
32.9089 0.25080 International_Tables_Vol_C
C 20.0 0.000 0.000 2.31000 20.8439 1.02000 10.2075 1.58860 0.56870 0.86500
51.6512 0.21560 International_Tables_Vol_C
loop_
_geom_angle_atom_site_label_1
_geom_angle_atom_site_label_2
_geom_angle_atom_site_label_3
_geom_angle
_geom_angle_site_symmetry_1
_geom_angle_site_symmetry_3
_geom_angle_publ_flag
O5 CA1 O1 116.83(18) 1_554 1_555 n
O5 CA1 O2 145.16(18) 1_554 3_556 n
O5 CA1 O2 87.35(20) 1_554 4_554 n
O5 CA1 O3 151.90(21) 1_554 3_556 n
O5 CA1 O3 81.87(22) 1_554 4_454 n
O5 CA1 O4 82.40(14) 1_554 1_555 n
O1 CA1 O2 84.96(16) 1_555 3_556 n
O1 CA1 O2 87.42(21) 1_555 4_554 n
O1 CA1 O3 81.74(18) 1_555 3_556 n
O1 CA1 O3 84.87(23) 1_555 4_454 n
O1 CA1 O4 159.52(18) 1_555 1_555 n
O2 CA1 O2 122.35(15) 3_556 4_554 n
O2 CA1 O3 50.51(8) 3_556 3_556 n
O2 CA1 O3 72.95(16) 3_556 4_454 n
O2 CA1 O4 81.86(18) 3_556 1_555 n
O2 CA1 O3 71.85(17) 4_554 3_556 n
O2 CA1 O3 162.17(18) 4_554 4_454 n
O2 CA1 O4 86.48(18) 4_554 1_555 n
O3 CA1 O3 122.63(15) 3_556 4_454 n
O3 CA1 O4 77.78(18) 3_556 1_555 n
O3 CA1 O4 105.97(22) 4_454 1_555 n
CA1 O5 C5 131.7(5) 1_556 1_555 n
CA1 O1 C5 134.3(6) 1_555 1_555 n
O5 C5 O1 120.4(8) 1_555 1_555 n
O5 C5 C4 119.6(8) 1_555 1_555 n
O1 C5 C4 120.0(9) 1_555 1_555 n
CA1 O2 CA1 108.22(21) 3_546 4_555 n
CA1 O2 C1 97.0(5) 3_546 1_555 n
CA1 O2 C1 151.0(6) 4_555 1_555 n
CA1 O3 CA1 105.59(24) 3_546 4_455 n
CA1 O3 C1 94.0(5) 3_546 1_555 n
CA1 O3 C1 155.4(5) 4_455 1_555 n
O2 C1 O3 117.6(7) 1_555 1_555 n
O2 C1 C2 121.6(10) 1_555 1_555 n
O3 C1 C2 119.4(9) 1_555 1_555 n
C1 C2 C3 104.7(8) 1_555 1_555 n
C2 C3 C4 100.3(8) 1_555 1_555 n
C5 C4 C3 114.5(9) 1_555 1_555 n
loop_
_geom_bond_atom_site_label_1
_geom_bond_atom_site_label_2
_geom_bond_distance
_geom_bond_site_symmetry_2
_geom_bond_publ_flag
CA1 CA1 3.9478(17) 2_456 n
CA1 CA1 3.9478(17) 2_556 n
CA1 O5 2.424(5) 1_554 n
CA1 O1 2.390(4) 1_555 n
CA1 O2 2.528(6) 3_556 n
CA1 O2 2.343(5) 4_554 n
CA1 O3 2.598(6) 3_556 n
CA1 O3 2.355(5) 4_454 n
CA1 O4 2.351(6) 1_555 n
CA1 C1 2.972(8) 3_556 n
O5 CA1 2.424(5) 1_556 n
O5 C5 1.246(9) 1_555 n
O1 CA1 2.390(4) 1_555 n
O1 C5 1.284(8) 1_555 n
C5 O5 1.246(9) 1_555 n
C5 O1 1.284(8) 1_555 n
C5 C4 1.559(10) 1_555 n
O2 CA1 2.528(6) 3_546 n
O2 CA1 2.343(5) 4_555 n
O2 C1 1.284(8) 1_555 n
O3 CA1 2.598(6) 3_546 n
O3 CA1 2.355(5) 4_455 n
O3 C1 1.274(9) 1_555 n
O4 CA1 2.351(6) 1_555 n
C1 CA1 2.972(8) 3_546 n
C1 O2 1.284(8) 1_555 n
C1 O3 1.274(9) 1_555 n
C1 C2 1.591(9) 1_555 n
C2 C1 1.591(9) 1_555 n
C2 C3 1.456(11) 1_555 n
C3 C2 1.456(11) 1_555 n
C3 C4 1.487(9) 1_555 n
C4 C5 1.559(10) 1_555 n
C4 C3 1.487(9) 1_555 n
loop_
_pd_meas_counts_total
_pd_proc_ls_weight
_pd_proc_intensity_bkg_calc
_pd_calc_intensity_total
0.0 0.0 12014.27246 .
0.0 0.0 12004.86035 .
0.0 0.0 11995.44824 .
2.0 0.0 11986.03613 .
0.0 0.0 11976.62402 .
0.0 0.0 11967.21094 .
0.0 0.0 11957.79883 .
0.0 0.0 11948.38672 .
0.0 0.0 11938.97461 .
0.0 0.0 11929.56152 .
12125.0 0.0 11920.14941 .
12070.0 0.0 11910.73828 .
12092.0 0.0 11901.32520 .
12114.0 0.0 11891.91309 .
12003.0 0.0 11882.50098 .
11850.0 0.0 11873.08887 .
12027.0 0.0 11863.67578 .
12045.0 0.0 11854.26367 .
11877.0 0.0 11844.85156 .
12120.0 0.0 11835.43945 .
11912.0 0.0 11826.02734 .
12059.0 0.0 11816.61523 .
11862.0 0.0 11807.20313 .
11904.0 0.0 11797.79004 .
11773.0 0.0 11788.37793 .
11920.0 0.0 11778.96582 .
11863.0 0.0 11769.55371 .
11995.0 0.0 11760.14160 .
11844.0 0.0 11750.72949 .
11812.0 0.0 11741.31738 .
11953.0 0.0 11731.90430 .
11795.0 0.0 11722.49219 .
11803.0 0.0 11713.08008 .
11875.0 0.0 11703.66797 .
11508.0 0.0 11694.25488 .
11499.0 0.0 11684.84277 .
11544.0 0.0 11675.43066 .
11695.0 0.0 11666.01855 .
11669.0 0.0 11656.60645 .
11659.0 0.0 11647.19434 .
11458.0 0.0 11637.78223 .
11736.0 0.0 11628.36914 .
11596.0 0.0 11618.95703 .
11852.0 0.0 11609.54492 .
11497.0 0.0 11600.13281 .
11492.0 0.0 11590.72070 .
11677.0 0.0 11581.30859 .
11500.0 0.0 11571.89648 .
11522.0 0.0 11562.48340 .
11546.0 0.0 11553.07129 .
11333.0 0.0 11543.65918 .
11655.0 0.0 11534.24707 .
11524.0 0.0 11524.83496 .
11649.0 0.0 11515.42285 .
11493.0 0.0 11506.01074 .
11567.0 0.0 11496.59766 .
11334.0 0.0 11487.18555 .
11413.0 0.0 11477.77344 .
11521.0 0.0 11468.36133 .
11588.0 0.0 11458.94824 .
11395.0 0.0 11449.53613 .
11381.0 0.0 11440.12402 .
11467.0 0.0 11430.71191 .
11555.0 0.0000865 11421.29980 11421.29980
11378.0 0.0000879 11411.88770 11411.88770
11418.0 0.0000876 11402.47559 11402.47559
11294.0 0.0000885 11393.06250 11393.06250
11358.0 0.0000880 11383.65039 11383.65039
11274.0 0.0000887 11374.23828 11374.23828
11308.0 0.0000884 11364.82617 11364.82617
11279.0 0.0000887 11355.41406 11355.41406
11404.0 0.0000877 11346.00195 11346.00195
11265.0 0.0000888 11336.58984 11336.58984
11276.0 0.0000887 11327.17676 11327.17676
11437.0 0.0000874 11317.76465 11317.76465
11242.0 0.0000890 11308.35254 11308.35254
11269.0 0.0000887 11298.94043 11298.94043
11245.0 0.0000889 11289.52734 11289.52734
11167.0 0.0000895 11280.11523 11280.11523
11430.0 0.0000875 11270.70313 11270.70313
11197.0 0.0000893 11261.29102 11261.29102
11280.0 0.0000887 11251.87891 11251.87891
11156.0 0.0000896 11242.46680 11242.46680
11104.0 0.0000901 11233.05469 11233.05469
11192.0 0.0000893 11223.64160 11223.64160
11174.0 0.0000895 11214.22949 11214.22949
11097.0 0.0000901 11204.81738 11204.81738
11089.0 0.0000902 11195.40527 11195.40527
11204.0 0.0000893 11185.99316 11185.99316
11092.0 0.0000902 11176.58105 11176.58105
11175.0 0.0000895 11167.16895 11167.16895
11196.0 0.0000893 11157.75586 11157.75586
11163.0 0.0000896 11148.34375 11148.34375
11060.0 0.0000904 11138.93164 11138.93164
11109.0 0.0000900 11129.51953 11129.51953
10865.0 0.0000920 11120.10645 11120.10645
11039.0 0.0000906 11110.69434 11110.69434
11207.0 0.0000892 11101.28223 11101.28223
10924.0 0.0000915 11091.87012 11091.87012
10961.0 0.0000912 11082.45801 11082.45801
10931.0 0.0000915 11073.04590 11073.04590
10961.0 0.0000912 11063.63281 11063.63281
11071.0 0.0000903 11054.22070 11054.22070
10796.0 0.0000926 11044.80859 11044.80859
10893.0 0.0000918 11035.39648 11035.39648
10773.0 0.0000928 11025.98438 11025.98438
10879.0 0.0000919 11016.57227 11016.57227
11023.0 0.0000907 11007.16016 11007.16016
10929.0 0.0000915 10997.74805 10997.74805
11084.0 0.0000902 10988.33496 10988.33496
10890.0 0.0000918 10978.92285 10978.92285
11062.0 0.0000904 10969.51074 10969.51074
10888.0 0.0000918 10960.09863 10960.09863
10987.0 0.0000910 10950.68555 10950.68555
10930.0 0.0000915 10941.27344 10941.27344
10753.0 0.0000930 10931.86133 10931.86133
10782.0 0.0000927 10922.44922 10922.44922
10799.0 0.0000926 10913.03711 10913.03711
10741.0 0.0000931 10903.62500 10903.62500
10820.0 0.0000924 10894.21191 10894.21191
10879.0 0.0000919 10884.79980 10884.79980
10910.0 0.0000917 10875.38770 10875.38770
10888.0 0.0000918 10865.97559 10865.97559
10876.0 0.0000919 10856.56348 10856.56348
10703.0 0.0000934 10847.15137 10847.15137
10817.0 0.0000924 10837.73926 10837.73926
10595.0 0.0000944 10828.32715 10828.32715
10786.0 0.0000927 10818.91406 10818.91406
10637.0 0.0000940 10809.50195 10809.50195
10793.0 0.0000927 10800.08984 10800.08984
10729.0 0.0000932 10790.67773 10790.67773
10770.0 0.0000929 10781.26563 10781.26563
10736.0 0.0000931 10771.85352 10771.85352
10688.0 0.0000936 10762.44141 10762.44141
10747.0 0.0000930 10753.02832 10753.02832
10812.0 0.0000925 10743.61621 10743.61621
10599.0 0.0000943 10734.20410 10734.20410
10777.0 0.0000928 10724.79199 10724.79199
10670.0 0.0000937 10715.37891 10715.37891
10650.0 0.0000939 10705.96680 10705.96680
10652.0 0.0000939 10696.55469 10696.55469
10707.0 0.0000934 10687.14258 10687.14258
10601.0 0.0000943 10677.73047 10677.73047
10650.0 0.0000939 10668.31836 10668.31836
10694.0 0.0000935 10658.90527 10658.90527
10623.0 0.0000941 10649.49316 10649.49316
10736.0 0.0000931 10640.08105 10640.08105
10582.0 0.0000945 10630.66895 10630.66895
10488.0 0.0000953 10621.25684 10621.25684
10515.0 0.0000951 10611.84375 10611.84375
10623.0 0.0000941 10602.43164 10602.43164
10691.0 0.0000935 10593.01953 10593.01953
10768.0 0.0000929 10583.60742 10583.60742
10790.0 0.0000927 10574.19531 10574.19531
10566.0 0.0000946 10564.78320 10564.78320
10624.0 0.0000941 10555.37012 10555.37012
10401.0 0.0000961 10545.95801 10545.95801
10598.0 0.0000944 10536.54688 10536.54688
10629.0 0.0000941 10527.13477 10527.13477
10465.0 0.0000956 10517.72070 10517.72070
10553.0 0.0000948 10508.30859 10508.30859
10615.0 0.0000942 10498.89746 10498.89746
10450.0 0.0000957 10489.48535 10489.48535
10542.0 0.0000949 10480.07227 10480.07227
10668.0 0.0000937 10470.66016 10470.66016
10481.0 0.0000954 10461.24805 10461.24805
10497.0 0.0000953 10451.83594 10451.83594
10637.0 0.0000940 10442.42383 10442.42383
10729.0 0.0000932 10433.01172 10433.01172
10321.0 0.0000969 10423.59863 10423.59863
10618.0 0.0000942 10414.18652 10414.18652
10659.0 0.0000938 10404.77441 10404.77441
10489.0 0.0000953 10395.36230 10395.36230
10581.0 0.0000945 10385.95020 10385.95020
10546.0 0.0000948 10376.53711 10376.53711
10585.0 0.0000945 10367.12500 10367.12500
10640.0 0.0000940 10357.71289 10357.71289
10679.0 0.0000936 10348.30078 10348.30078
10531.0 0.0000950 10338.88867 10338.88867
10388.0 0.0000963 10329.47656 10329.47656
10528.0 0.0000950 10320.06348 10320.06348
10526.0 0.0000950 10310.65137 10310.65137
10552.0 0.0000948 10301.23926 10301.23926
10732.0 0.0000932 10291.82715 10291.82715
10500.0 0.0000952 10282.41406 10282.41406
10681.0 0.0000936 10273.00195 10273.00195
10595.0 0.0000944 10263.58984 10263.58984
10621.0 0.0000942 10254.17773 10254.17773
10677.0 0.0000937 10244.76563 10244.76563
10725.0 0.0000932 10235.35352 10732.12012
10758.0 0.0000930 10225.94141 10751.29688
10916.0 0.0000916 10216.52832 10773.19531
10774.0 0.0000928 10207.11621 10798.20117
11185.0 0.0000894 10197.70508 10826.78809
11198.0 0.0000893 10188.29199 10859.52930
11177.0 0.0000895 10178.87988 10897.13574
11697.0 0.0000855 10169.46777 10940.50098
11797.0 0.0000848 10160.05566 10990.77344
12004.0 0.0000833 10150.64355 11049.46289
12332.0 0.0000811 10141.23047 11118.60449
12789.0 0.0000782 10131.81836 11201.05566
13131.0 0.0000762 10122.40625 11301.02344
13644.0 0.0000733 10112.99414 11425.13574
14048.0 0.0000712 10103.58203 11585.79395
14808.0 0.0000675 10094.16992 11815.91895
15588.0 0.0000642 10084.75684 12209.81738
16276.0 0.0000614 10075.34473 12944.87891
16971.0 0.0000589 10065.93262 14114.61426
18054.0 0.0000554 10056.52051 15709.35938
19170.0 0.0000522 10047.10742 17518.77734
20728.0 0.0000482 10037.69531 19541.92578
22170.0 0.0000451 10028.28320 21760.11523
23630.0 0.0000423 10018.87109 24068.07031
25239.0 0.0000396 10012.50293 26592.24609
27621.0 0.0000362 10009.01074 29399.55859
29892.0 0.00003345 10005.51855 32346.88867
32471.0 0.00003080 10002.02539 35502.83594
35916.0 0.00002784 9998.53223 39051.28906
39255.0 0.00002547 9995.04004 42951.02344
43209.0 0.00002314 9991.54688 47138.81250
47183.0 0.00002119 9988.05469 51756.82813
52306.0 0.00001912 9984.56152 56978.24609
58287.0 0.00001716 9981.06934 62879.11328
65194.0 0.00001534 9977.57617 69539.97656
72433.0 0.00001381 9974.08398 77141.64844
82692.0 0.00001209 9970.59082 85965.29688
93580.0 0.00001069 9967.09863 96392.42188
107866.0 9.27e-6 9963.60547 108962.90625
125317.0 7.98e-6 9960.11328 124509.00781
149067.0 6.71e-6 9956.62012 144436.43750
180195.0 5.55e-6 9953.12695 171475.34375
224986.0 4.44e-6 9949.63477 211336.07813
281006.0 3.56e-6 9946.14258 269867.90625
317756.0 3.147e-6 9942.64941 324901.15625
277398.0 3.60e-6 9939.15625 291328.37500
173299.0 5.77e-6 9935.66406 163980.34375
83578.0 0.00001196 9932.17188 75760.90625
41076.0 0.00002435 9928.67871 41368.72266
25770.0 0.0000388 9925.18555 29318.43945
19947.0 0.0000501 9921.69336 23637.48828
16980.0 0.0000589 9918.20020 20220.86914
15213.0 0.0000657 9914.70801 17960.35352
14206.0 0.0000704 9911.21484 16381.91895
13298.0 0.0000752 9907.72266 15233.55762
12720.0 0.0000786 9904.22949 14370.24316
12226.0 0.0000818 9900.73730 13703.65527
11940.0 0.0000838 9897.24414 13177.40039
11664.0 0.0000857 9893.75195 12754.03320
11414.0 0.0000876 9890.25879 12407.89941
11264.0 0.0000888 9886.76563 12120.94727
10874.0 0.0000920 9883.27344 11880.14746
10843.0 0.0000922 9879.78027 11675.86914
10609.0 0.0000943 9876.28809 11500.90918
10909.0 0.0000917 9872.79492 11349.76660
10653.0 0.0000939 9869.30273 11218.17773
10549.0 0.0000948 9865.80957 11102.79297
10514.0 0.0000951 9862.31738 11000.96875
10663.0 0.0000938 9858.82422 10910.57910
10483.0 0.0000954 9855.33203 10829.89941
10186.0 0.0000982 9851.83887 10757.51367
10543.0 0.0000948 9848.34668 10692.27637
10439.0 0.0000958 9844.85352 10633.21582
10205.0 0.0000980 9841.36133 10579.52832
10232.0 0.0000977 9837.86816 10530.53613
10308.0 0.0000970 9834.37598 10485.67090
10163.0 0.0000984 9830.88281 10444.44043
10204.0 0.0000980 9827.38965 10406.42676
9991.0 0.0001001 9823.89746 9823.89746
9964.0 0.0001004 9820.40527 9820.40527
10070.0 0.0000993 9816.91211 9816.91211
10213.0 0.0000979 9813.41895 9813.41895
10022.0 0.0000998 9809.92676 9809.92676
9960.0 0.0001004 9806.43359 9806.43359
10006.0 0.0000999 9802.94141 9802.94141
9872.0 0.0001013 9799.44922 9799.44922
10073.0 0.0000993 9795.95605 9795.95605
10053.0 0.0000995 9792.46289 9792.46289
9909.0 0.0001009 9788.97070 9788.97070
10233.0 0.0000977 9785.47754 9785.47754
10105.0 0.0000990 9781.98535 9781.98535
9905.0 0.0001010 9778.49219 9778.49219
9896.0 0.0001011 9775.00000 9775.00000
9946.0 0.0001005 9771.50684 9771.50684
9925.0 0.0001008 9768.01465 9768.01465
9879.0 0.0001012 9764.52148 9764.52148
9950.0 0.0001005 9761.02930 9761.02930
9763.0 0.0001024 9757.53613 9757.53613
9671.0 0.0001034 9754.04395 9754.04395
9687.0 0.0001032 9750.55078 9750.55078
9671.0 0.0001034 9747.05762 9747.05762
9601.0 0.0001042 9743.56543 9743.56543
9867.0 0.0001013 9740.07227 9740.07227
9814.0 0.0001019 9736.58008 9736.58008
9977.0 0.0001002 9733.08691 9733.08691
9633.0 0.0001038 9729.59473 9729.59473
9915.0 0.0001009 9726.10156 9726.10156
9778.0 0.0001023 9722.60938 9722.60938
9842.0 0.0001016 9719.11621 9719.11621
9871.0 0.0001013 9715.62402 9715.62402
9887.0 0.0001011 9712.13086 9712.13086
9660.0 0.0001035 9708.63770 9708.63770
9709.0 0.0001030 9705.14551 9705.14551
9835.0 0.0001017 9701.65332 9701.65332
9778.0 0.0001023 9698.16016 9698.16016
9708.0 0.0001030 9694.66797 9694.66797
9686.0 0.0001032 9691.17480 9691.17480
9708.0 0.0001030 9687.68164 9687.68164
9680.0 0.0001033 9684.18945 9684.18945
9858.0 0.0001014 9680.69629 9680.69629
9562.0 0.0001046 9677.20410 9677.20410
9843.0 0.0001016 9673.71094 9673.71094
9498.0 0.0001053 9670.21875 9670.21875
9697.0 0.0001031 9666.72559 9666.72559
9850.0 0.0001015 9663.23340 9663.23340
9646.0 0.0001037 9659.74023 9659.74023
9675.0 0.0001034 9656.24805 9656.24805
9642.0 0.0001037 9652.75488 9652.75488
9652.0 0.0001036 9649.26172 9649.26172
9696.0 0.0001031 9645.76953 9645.76953
9708.0 0.0001030 9642.27734 9642.27734
9544.0 0.0001048 9638.78418 9638.78418
9737.0 0.0001027 9635.29199 9635.29199
9688.0 0.0001032 9631.79883 9631.79883
9605.0 0.0001041 9628.30664 9628.30664
9694.0 0.0001032 9624.81348 9624.81348
9543.0 0.0001048 9621.32031 9621.32031
9556.0 0.0001046 9617.82813 9617.82813
9577.0 0.0001044 9614.33594 9614.33594
9681.0 0.0001033 9610.84277 9610.84277
9643.0 0.0001037 9607.35059 9607.35059
9602.0 0.0001041 9603.85742 9603.85742
9723.0 0.0001028 9600.36426 9600.36426
9555.0 0.0001047 9596.87207 9596.87207
9686.0 0.0001032 9593.37891 9593.37891
9627.0 0.0001039 9589.88574 9589.88574
9781.0 0.0001022 9586.39355 9586.39355
9790.0 0.0001021 9582.90137 9582.90137
9687.0 0.0001032 9579.40820 9579.40820
9689.0 0.0001032 9575.91602 9575.91602
9753.0 0.0001025 9572.42285 9572.42285
9549.0 0.0001047 9568.93066 9568.93066
9576.0 0.0001044 9565.43750 9565.43750
9597.0 0.0001042 9561.94434 9561.94434
9570.0 0.0001045 9558.45215 9558.45215
9607.0 0.0001041 9554.95898 9554.95898
9597.0 0.0001042 9551.46680 9551.46680
9626.0 0.0001039 9547.97363 9547.97363
9558.0 0.0001046 9544.48145 9544.48145
9723.0 0.0001028 9540.98828 9540.98828
9604.0 0.0001041 9537.49609 9537.49609
9591.0 0.0001043 9534.00293 9534.00293
9529.0 0.0001049 9530.51074 9530.51074
9510.0 0.0001052 9527.01758 9527.01758
9529.0 0.0001049 9523.52441 9523.52441
9677.0 0.0001033 9520.03223 9520.03223
9678.0 0.0001033 9516.53906 9516.53906
9401.0 0.0001064 9513.04688 9513.04688
9628.0 0.0001039 9509.55469 9509.55469
9656.0 0.0001036 9506.06152 9506.06152
9594.0 0.0001042 9502.56836 9502.56836
9531.0 0.0001049 9499.07617 9499.07617
9543.0 0.0001048 9495.58301 9495.58301
9538.0 0.0001048 9492.24707 9492.24707
9563.0 0.0001046 9494.23730 9494.23730
9490.0 0.0001054 9496.22754 9496.22754
9679.0 0.0001033 9498.21777 9498.21777
9529.0 0.0001049 9500.20801 9500.20801
9725.0 0.0001028 9502.19824 9502.19824
9629.0 0.0001039 9504.18750 9504.18848
9569.0 0.0001045 9506.17773 9506.17871
9764.0 0.0001024 9508.16797 9508.16895
9591.0 0.0001043 9510.15820 9510.15820
9478.0 0.0001055 9512.14844 9512.14844
9484.0 0.0001054 9514.13867 9514.13867
9476.0 0.0001055 9516.12793 9516.12891
9659.0 0.0001035 9518.11816 9518.11914
9583.0 0.0001044 9520.10840 9520.10938
9526.0 0.0001050 9522.09863 9522.09961
9587.0 0.0001043 9524.08887 9524.08984
9475.0 0.0001055 9526.07813 9526.08008
9714.0 0.0001029 9528.06836 9528.07031
9536.0 0.0001049 9530.05859 9530.06055
9418.0 0.0001062 9532.04883 9532.05078
9528.0 0.0001050 9534.03906 9534.04102
9594.0 0.0001042 9536.02930 9536.03125
9663.0 0.0001035 9538.01953 9538.02051
9593.0 0.0001042 9540.00977 9540.01074
9831.0 0.0001017 9541.99902 9542.00098
9419.0 0.0001062 9543.98926 9543.99121
9591.0 0.0001043 9545.97949 9545.98145
9520.0 0.0001050 9547.96973 9547.97168
9514.0 0.0001051 9549.95996 9549.96191
9671.0 0.0001034 9551.95020 9551.95215
9565.0 0.0001045 9553.93945 9553.94238
9384.0 0.0001066 9555.92969 9555.93262
9587.0 0.0001043 9557.91992 9557.92285
9605.0 0.0001041 9559.91016 9559.91211
9419.0 0.0001062 9561.90039 9561.90234
9585.0 0.0001043 9563.89063 9563.89258
9382.0 0.0001066 9565.87988 9565.88281
9591.0 0.0001043 9567.87012 9567.87305
9527.0 0.0001050 9569.86035 9569.86328
9485.0 0.0001054 9571.85059 9571.85352
9641.0 0.0001037 9573.84082 9573.84375
9717.0 0.0001029 9575.83105 9575.83398
9585.0 0.0001043 9577.82129 9577.82422
9581.0 0.0001044 9579.81152 9579.81445
9498.0 0.0001053 9581.80078 9581.80469
9422.0 0.0001061 9583.79102 9583.79492
9486.0 0.0001054 9585.78125 9585.78516
9603.0 0.0001041 9587.77148 9587.77441
9492.0 0.0001054 9589.76172 9589.76465
9768.0 0.0001024 9591.75195 9591.75488
9574.0 0.0001044 9593.74121 9593.74512
9591.0 0.0001043 9595.73145 9595.73535
9634.0 0.0001038 9597.72168 9597.72559
9628.0 0.0001039 9599.71191 9599.71582
9711.0 0.0001030 9601.70215 9601.70605
9591.0 0.0001043 9603.69141 9603.69629
9641.0 0.0001037 9605.68262 9605.68652
9633.0 0.0001038 9607.67188 9607.67676
9731.0 0.0001028 9609.66211 9609.66602
9626.0 0.0001039 9611.65234 9611.65625
9655.0 0.0001036 9613.64258 9613.64648
9529.0 0.0001049 9615.63281 9615.63672
9541.0 0.0001048 9617.62305 9617.62695
9541.0 0.0001048 9619.61230 9619.61719
9604.0 0.0001041 9621.60254 9621.60742
9775.0 0.0001023 9623.59277 9623.59766
9652.0 0.0001036 9625.58301 9625.58789
9403.0 0.0001063 9627.57324 9627.57813
9598.0 0.0001042 9629.56348 9629.56836
9544.0 0.0001048 9631.55273 9631.55859
9736.0 0.0001027 9633.54297 9633.54883
9633.0 0.0001038 9635.53320 9635.53906
9650.0 0.0001036 9637.52344 9637.52832
9751.0 0.0001026 9639.51367 9639.51855
9589.0 0.0001043 9641.50391 9641.50879
9701.0 0.0001031 9643.49414 9643.49902
9672.0 0.0001034 9645.48340 9645.48926
9612.0 0.0001040 9647.47363 9647.47949
9591.0 0.0001043 9649.46387 9649.46973
9692.0 0.0001032 9651.45410 9651.45996
9614.0 0.0001040 9653.44434 9653.45020
9559.0 0.0001046 9655.43457 9655.44043
9513.0 0.0001051 9657.42480 9657.43066
9641.0 0.0001037 9659.41406 9659.42090
9855.0 0.0001015 9661.40430 9661.41113
9723.0 0.0001028 9663.39453 9663.40039
9438.0 0.0001060 9665.38477 9665.39063
9707.0 0.0001030 9667.37500 9667.38086
9693.0 0.0001032 9669.36523 9669.37109
9627.0 0.0001039 9671.35449 9671.36133
9690.0 0.0001032 9673.34473 9673.35156
9712.0 0.0001030 9675.33496 9675.34180
9683.0 0.0001033 9677.32520 9677.33203
9757.0 0.0001025 9679.31543 9679.32227
9808.0 0.0001020 9681.30566 9681.31250
9682.0 0.0001033 9683.29590 9683.30273
9730.0 0.0001028 9685.28516 9685.29297
9736.0 0.0001027 9687.27539 9687.28223
9612.0 0.0001040 9689.26563 9689.27246
9525.0 0.0001050 9691.25586 9691.26270
9670.0 0.0001034 9693.24609 9693.25293
9660.0 0.0001035 9695.23633 9695.24316
9683.0 0.0001033 9697.22559 9697.23340
9671.0 0.0001034 9699.21582 9699.22363
9619.0 0.0001040 9701.20605 9701.21387
9811.0 0.0001019 9703.19629 9703.20410
9622.0 0.0001039 9705.18652 9705.19434
9799.0 0.0001021 9707.17676 9707.18457
9773.0 0.0001023 9709.16602 9745.02539
9760.0 0.0001025 9711.15625 9749.64746
10058.0 0.0000994 9713.14648 9754.58398
10040.0 0.0000996 9715.13672 9759.89160
9798.0 0.0001021 9717.12695 9765.63867
9841.0 0.0001016 9719.11719 9771.91309
9569.0 0.0001045 9721.10742 9778.82910
9877.0 0.0001012 9723.09766 9786.53613
9762.0 0.0001024 9725.08691 9795.23535
9861.0 0.0001014 9727.07715 9805.21191
9777.0 0.0001023 9729.06738 9816.87891
9862.0 0.0001014 9731.05762 9830.87109
9951.0 0.0001005 9733.04785 9848.27930
10112.0 0.0000989 9735.03809 9871.44727
9978.0 0.0001002 9737.02734 9907.15039
10301.0 0.0000971 9739.01758 9971.58887
10206.0 0.0000980 9741.00781 10079.19922
9965.0 0.0001004 9742.99805 10230.20508
10434.0 0.0000958 9744.98828 10408.39648
10621.0 0.0000942 9746.97754 10620.73438
10879.0 0.0000919 9748.96777 10852.20117
10951.0 0.0000913 9750.95801 11104.44043
11189.0 0.0000894 9752.94824 11403.07617
11258.0 0.0000888 9754.93848 11741.69727
11820.0 0.0000846 9756.92871 12115.23047
11969.0 0.0000835 9758.91895 12551.55957
12523.0 0.0000799 9760.90918 13075.99316
13065.0 0.0000765 9762.89844 13705.06445
13867.0 0.0000721 9764.88867 14472.61328
14568.0 0.0000686 9766.87891 15443.73730
15902.0 0.0000629 9768.86914 16732.99023
18457.0 0.0000542 9770.85938 18573.42383
21097.0 0.0000474 9772.84961 21358.56445
23407.0 0.0000427 9774.83887 24663.78125
22145.0 0.0000452 9776.82910 24307.94336
17802.0 0.0000562 9778.81934 17831.81055
13390.0 0.0000747 9780.80957 13177.38184
11235.0 0.0000890 9782.79980 11433.75586
10416.0 0.0000960 9784.79004 10806.39160
10096.0 0.0000990 9786.78027 10499.48926
10169.0 0.0000983 9788.76953 10316.80371
10338.0 0.0000967 9792.80273 10200.60059
10019.0 0.0000998 9798.55566 10123.53223
10138.0 0.0000986 9804.30957 10069.71387
10110.0 0.0000989 9810.06250 10031.13379
9999.0 0.0001000 9815.81543 10002.95508
9831.0 0.0001017 9821.56934 9982.13672
10016.0 0.0000998 9827.32129 9966.67676
10087.0 0.0000991 9833.07520 9955.21191
9853.0 0.0001015 9838.82910 9946.79004
9805.0 0.0001020 9844.58203 9940.73047
9987.0 0.0001001 9850.33496 9936.52832
9982.0 0.0001002 9856.08789 9933.81348
9967.0 0.0001003 9861.84082 9932.30078
9895.0 0.0001011 9867.59473 9931.77148
10073.0 0.0000993 9873.34766 9932.05371
9927.0 0.0001007 9879.10059 9933.01270
10006.0 0.0000999 9884.85449 9934.54102
10143.0 0.0000986 9890.60645 9936.55176
10125.0 0.0000988 9896.36035 9938.97363
9994.0 0.0001001 9902.11426 9941.74609
10149.0 0.0000985 9907.86621 9944.82422
9915.0 0.0001009 9913.62012 9948.16602
10189.0 0.0000981 9919.37402 9951.73828
9803.0 0.0001020 9925.12598 9955.51172
9944.0 0.0001006 9930.87988 9959.46191
9992.0 0.0001001 9936.63281 9963.56934
10036.0 0.0000996 9942.38574 9942.39453
10116.0 0.0000989 9948.13965 9948.14844
10085.0 0.0000992 9953.89160 9953.90039
10215.0 0.0000979 9959.64551 9959.65430
10192.0 0.0000981 9965.39941 9965.40723
10173.0 0.0000983 9971.15137 9971.16016
10216.0 0.0000979 9976.90527 9976.91406
10101.0 0.0000990 9982.65918 9982.66699
10029.0 0.0000997 9988.41113 9988.41992
9982.0 0.0001002 9994.16504 9994.17285
10290.0 0.0000972 9999.91797 9999.92578
10212.0 0.0000979 10005.67090 10005.67871
10140.0 0.0000986 10011.42480 10011.43262
10077.0 0.0000992 10017.17773 10017.18555
10215.0 0.0000979 10022.93066 10022.93848
10206.0 0.0000980 10028.68359 10028.69141
10109.0 0.0000989 10034.43652 10034.44434
10273.0 0.0000973 10040.19043 10040.19727
10242.0 0.0000976 10045.94434 10045.95117
10303.0 0.0000971 10051.69629 10051.70410
10125.0 0.0000988 10057.45020 10057.45703
10340.0 0.0000967 10063.20313 10063.21094
10194.0 0.0000981 10068.95605 10068.96387
10271.0 0.0000974 10074.70996 10074.71680
10132.0 0.0000987 10080.46289 10080.46973
10271.0 0.0000974 10086.21582 10086.22266
10319.0 0.0000969 10091.96875 10091.97656
10272.0 0.0000974 10097.72168 10097.72852
10102.0 0.0000990 10103.47559 10103.48242
10251.0 0.0000976 10109.22949 10109.23633
10307.0 0.0000970 10114.98145 10114.98828
10227.0 0.0000978 10120.73535 10120.74219
10337.0 0.0000967 10126.48828 10126.49512
10355.0 0.0000966 10132.24121 10132.24805
10345.0 0.0000967 10137.99414 10138.00098
10423.0 0.0000959 10143.74805 10143.75391
10396.0 0.0000962 10149.50098 10149.50684
10519.0 0.0000951 10155.25488 10155.26074
10253.0 0.0000975 10161.00781 10161.01367
10335.0 0.0000968 10166.76074 10166.76660
10402.0 0.0000961 10172.51367 10172.51953
10663.0 0.0000938 10178.26660 10178.27246
10374.0 0.0000964 10184.01953 10184.02539
10430.0 0.0000959 10189.77344 10370.33301
10434.0 0.0000958 10195.52637 10385.04492
10471.0 0.0000955 10201.27930 10400.45117
10672.0 0.0000937 10207.03320 10416.62207
10368.0 0.0000965 10212.78613 10433.63965
10489.0 0.0000953 10218.54004 10451.60645
10489.0 0.0000953 10224.29297 10470.62793
10510.0 0.0000951 10230.04590 10490.83398
10352.0 0.0000966 10235.79883 10512.37402
10565.0 0.0000947 10241.55176 10535.41504
10773.0 0.0000928 10247.30469 10560.16699
10628.0 0.0000941 10253.05859 10586.86328
10692.0 0.0000935 10258.81152 10615.78320
10553.0 0.0000948 10264.56543 10647.27051
10674.0 0.0000937 10270.31836 10681.73047
10757.0 0.0000930 10276.07129 10719.64941
10797.0 0.0000926 10281.82520 10761.64355
10892.0 0.0000918 10287.57813 10808.45801
10784.0 0.0000927 10293.33105 10861.03809
10810.0 0.0000925 10299.08398 10920.59570
11124.0 0.0000899 10304.83691 10988.68750
11273.0 0.0000887 10310.58984 11067.39258
11522.0 0.0000868 10316.34375 11159.54102
11632.0 0.0000860 10322.09668 11269.07422
11996.0 0.0000834 10327.85059 11457.12793
12501.0 0.0000800 10333.60352 11625.19434
12927.0 0.0000774 10339.35645 11844.92871
13582.0 0.0000736 10345.11035 12165.15625
14352.0 0.0000697 10350.86328 12699.81445
15325.0 0.0000653 10356.61621 13630.13965
16369.0 0.0000611 10362.36914 15069.41699
17935.0 0.0000558 10368.12207 17035.83594
19355.0 0.0000517 10373.87500 19442.92578
21683.0 0.0000461 10379.62891 22271.69727
24359.0 0.0000411 10385.38184 25429.11914
27038.0 0.0000370 10391.13574 29170.11523
31052.0 0.00003220 10396.88867 33400.74609
35470.0 0.00002819 10402.64160 38384.55078
41134.0 0.00002431 10408.39453 44407.87109
48674.0 0.00002054 10414.14844 51661.79688
58663.0 0.00001705 10419.90039 60814.82813
71107.0 0.00001406 10425.65430 72976.28125
91107.0 0.00001098 10431.40723 90145.49219
118495.0 8.44e-6 10437.16016 114554.89844
143558.0 6.97e-6 10442.91406 142038.90625
142968.0 6.99e-6 10448.66699 151160.07813
114256.0 8.75e-6 10454.42090 116823.00000
71460.0 0.00001399 10460.17383 67445.15625
36972.0 0.00002705 10465.92676 37020.82422
22187.0 0.0000451 10471.68066 24224.03906
17170.0 0.0000582 10477.43359 19346.49609
15171.0 0.0000659 10483.18652 17066.32813
14340.0 0.0000697 10488.93945 15764.80078
14097.0 0.0000709 10494.69336 15024.48145
13727.0 0.0000728 10500.44531 14701.69824
13775.0 0.0000726 10506.19922 14696.83008
14262.0 0.0000701 10511.95215 14976.68262
14712.0 0.0000680 10517.70605 15437.90723
15213.0 0.0000657 10523.45898 16116.21973
15645.0 0.0000639 10529.21191 16933.78711
16692.0 0.0000599 10534.96582 17999.02344
18029.0 0.0000555 10540.71875 19252.46484
19560.0 0.0000511 10546.47168 20831.29492
21600.0 0.0000463 10552.22461 22789.79492
24402.0 0.0000410 10557.97852 25279.51563
28313.0 0.0000353 10563.73047 28646.77930
33548.0 0.00002981 10569.48438 33361.67578
39907.0 0.00002506 10575.23730 39722.39453
45653.0 0.00002190 10580.99121 46213.75781
45384.0 0.00002203 10586.74414 47644.82813
38162.0 0.00002620 10592.49707 38988.77734
27999.0 0.0000357 10598.25000 26861.50977
19095.0 0.0000524 10604.00391 18850.48242
14662.0 0.0000682 10609.75586 15094.94043
12958.0 0.0000772 10615.50977 13531.81738
12066.0 0.0000829 10621.26367 12782.18555
11717.0 0.0000853 10627.01563 12331.92090
11478.0 0.0000871 10632.76953 12025.66895
11543.0 0.0000866 10638.52246 11540.55078
11431.0 0.0000875 10644.27637 11391.11621
11477.0 0.0000871 10650.61426 11279.44434
11280.0 0.0000887 10666.60547 11203.58203
11275.0 0.0000887 10682.59668 11146.64160
11374.0 0.0000879 10698.58984 11103.73438
11150.0 0.0000897 10714.57910 11071.46387
11485.0 0.0000871 10730.57227 11047.39648
11285.0 0.0000886 10746.56543 11029.76660
11233.0 0.0000890 10762.55469 11017.25781
11264.0 0.0000888 10778.54688 11008.87402
11218.0 0.0000891 10794.53809 11003.85156
11239.0 0.0000890 10810.52930 11001.60156
11315.0 0.0000884 10826.52051 11001.64746
11298.0 0.0000885 10842.51172 11003.62305
11092.0 0.0000902 10858.50293 11007.22559
11196.0 0.0000893 10874.49609 11012.21289
11197.0 0.0000893 10890.48730 11018.38379
11290.0 0.0000886 10906.47852 11025.57324
11252.0 0.0000889 10922.47168 11033.64746
11227.0 0.0000891 10938.46094 11042.48633
11256.0 0.0000888 10954.45410 11052.00000
11411.0 0.0000876 10970.44531 11062.10156
11330.0 0.0000883 10986.43652 11072.72363
11379.0 0.0000879 11002.42773 11002.42773
11390.0 0.0000878 11018.41992 11018.41992
11313.0 0.0000884 11034.40918 11034.40918
11287.0 0.0000886 11050.40234 11050.40234
11250.0 0.0000889 11066.39355 11066.39355
11260.0 0.0000888 11082.38477 11082.38477
11437.0 0.0000874 11098.37793 11098.37793
11476.0 0.0000871 11114.36719 11114.36719
11477.0 0.0000871 11130.36035 11130.36035
11380.0 0.0000879 11146.35156 11146.35156
11428.0 0.0000875 11162.34277 11162.34277
11621.0 0.0000861 11178.33398 11178.33398
11442.0 0.0000874 11194.32715 11194.32715
11308.0 0.0000884 11210.31641 11210.31641
11408.0 0.0000877 11226.30957 11226.30957
11553.0 0.0000866 11242.30078 11242.30078
11444.0 0.0000874 11258.29102 11258.29102
11491.0 0.0000870 11274.28223 11274.28223
11467.0 0.0000872 11290.27344 11290.27344
11638.0 0.0000859 11306.26465 11306.26465
11639.0 0.0000859 11322.25781 11322.25781
11567.0 0.0000865 11338.24707 11338.24707
11526.0 0.0000868 11354.24023 11354.24023
11356.0 0.0000881 11370.23340 11370.23340
11630.0 0.0000860 11386.22266 11386.22266
11582.0 0.0000863 11402.21582 11402.21582
11702.0 0.0000855 11418.20703 11418.20703
11543.0 0.0000866 11434.19824 11434.19824
11646.0 0.0000859 11450.18945 11503.08203
11647.0 0.0000859 11466.18066 11521.64648
11574.0 0.0000864 11482.17188 11540.40430
11676.0 0.0000856 11498.16406 11559.37695
11711.0 0.0000854 11514.15332 11578.58301
11730.0 0.0000853 11530.14648 11598.05664
11577.0 0.0000864 11546.13965 11617.82227
11649.0 0.0000858 11562.12891 11637.91016
12017.0 0.0000832 11578.12207 11658.36816
11830.0 0.0000845 11594.11328 11679.23535
11697.0 0.0000855 11610.10449 11700.56543
11794.0 0.0000848 11626.09570 11722.42188
11836.0 0.0000845 11642.08691 11744.87695
11889.0 0.0000841 11658.07813 11768.01563
11767.0 0.0000850 11674.07129 11791.94238
11806.0 0.0000847 11690.06250 11816.77539
11837.0 0.0000845 11706.05371 11842.66406
11727.0 0.0000853 11722.04688 11869.79102
11931.0 0.0000838 11738.03516 11898.36914
11693.0 0.0000855 11754.02832 11928.68750
11908.0 0.0000840 11770.01953 11961.08398
11950.0 0.0000837 11786.01074 11996.00098
12109.0 0.0000826 11802.00195 12034.01953
11909.0 0.0000840 11817.99512 12075.89941
12242.0 0.0000817 11833.98438 12122.66211
12189.0 0.0000820 11849.97754 12175.76660
12419.0 0.0000805 11865.96875 12237.34668
12631.0 0.0000792 11881.95996 12311.14258
12895.0 0.0000775 11897.95117 12405.30469
13126.0 0.0000762 11913.94238 12538.90820
13457.0 0.0000743 11929.93359 12750.11914
13655.0 0.0000732 11945.92676 13095.42578
14015.0 0.0000714 11961.91602 13622.95996
14853.0 0.0000673 11977.90820 14349.02246
15487.0 0.0000646 11993.90137 15271.76074
16207.0 0.0000617 12009.89063 16371.68262
17014.0 0.0000588 12025.88379 17663.25391
18951.0 0.0000528 12041.87500 19191.07813
20279.0 0.0000493 12057.86621 21004.14844
22671.0 0.0000441 12073.85742 23231.81641
25112.0 0.0000398 12089.84863 26053.32617
29219.0 0.00003422 12105.83984 29813.17578
34914.0 0.00002864 12121.83301 35037.37109
41876.0 0.00002388 12137.82227 41921.82031
48590.0 0.00002058 12153.81543 48939.14453
49142.0 0.00002035 12169.80859 51605.48828
43667.0 0.00002290 12185.79785 45101.55469
33630.0 0.00002974 12201.79102 32974.83984
23201.0 0.0000431 12217.78125 23076.61523
17253.0 0.0000580 12233.77246 17628.66992
14827.0 0.0000674 12249.76367 15258.09082
13784.0 0.0000725 12265.75488 14268.89648
13378.0 0.0000747 12281.74609 13773.64844
13157.0 0.0000760 12297.73926 13467.72070
12867.0 0.0000777 12313.72852 13258.21875
12596.0 0.0000794 12329.72168 13108.57324
12594.0 0.0000794 12345.71484 12999.19824
12720.0 0.0000786 12361.70410 12918.00781
12699.0 0.0000787 12377.69727 12857.10840
12638.0 0.0000791 12393.68848 12811.20996
12736.0 0.0000785 12409.67969 12776.64453
12405.0 0.0000806 12425.67090 12750.78418
12499.0 0.0000800 12441.66211 12731.74023
12438.0 0.0000804 12457.65234 12718.09863
12576.0 0.0000795 12473.64551 12708.80273
12478.0 0.0000801 12489.63672 12703.03711
12660.0 0.0000790 12505.62793 12700.17285
12645.0 0.0000791 12521.62109 12699.71387
12514.0 0.0000799 12537.61035 12701.26465
12636.0 0.0000791 12553.60352 12704.51270
12675.0 0.0000789 12569.59473 12709.19824
12617.0 0.0000793 12585.58594 12715.11523
12539.0 0.0000798 12601.57715 12722.08691
12718.0 0.0000786 12617.57031 12729.97461
12602.0 0.0000794 12633.55957 12738.65332
12753.0 0.0000784 12649.55273 12748.02832
12697.0 0.0000788 12665.54395 12758.01074
12698.0 0.0000788 12681.53516 12768.52734
12469.0 0.0000802 12697.52539 12697.52539
12541.0 0.0000797 12713.51660 12713.51660
12933.0 0.0000773 12729.50781 12729.50781
12575.0 0.0000795 12745.50098 12745.50098
12814.0 0.0000780 12761.49023 12761.49023
12810.0 0.0000781 12777.48340 12777.48340
12833.0 0.0000779 12793.47656 12793.47656
12888.0 0.0000776 12809.46582 12809.46582
12621.0 0.0000792 12825.45898 12825.45898
12666.0 0.0000790 12841.45020 12841.45020
13042.0 0.0000767 12857.44141 12857.44141
12829.0 0.0000779 12873.43262 12873.43262
13161.0 0.0000760 12889.42383 12889.42383
12950.0 0.0000772 12905.41504 12905.41504
13028.0 0.0000768 12921.40820 12921.40820
12786.0 0.0000782 12937.39648 12937.39648
12805.0 0.0000781 12953.38965 12953.38965
12971.0 0.0000771 12969.38281 12969.38281
13070.0 0.0000765 12985.37207 12988.58105
13081.0 0.0000764 13001.36523 13004.78906
13037.0 0.0000767 13017.35645 13021.01758
13011.0 0.0000769 13033.34766 13089.85059
12956.0 0.0000772 13050.74805 13110.06641
13077.0 0.0000765 13069.20508 13131.55957
13403.0 0.0000746 13087.66211 13153.29785
13261.0 0.0000754 13106.12109 13175.31543
13228.0 0.0000756 13124.57520 13197.63477
13083.0 0.0000764 13143.03418 13220.30664
13233.0 0.0000756 13161.49414 13243.37207
13404.0 0.0000746 13179.94824 13266.87793
13118.0 0.0000762 13198.40723 13290.90234
13413.0 0.0000746 13216.86426 13315.51855
13197.0 0.0000758 13235.32129 13340.82617
13389.0 0.0000747 13253.77832 13366.95410
13396.0 0.0000746 13272.23535 13394.07227
13217.0 0.0000757 13290.69141 13422.46582
13544.0 0.0000738 13309.15137 13452.73535
13466.0 0.0000743 13327.60742 13486.24023
13292.0 0.0000752 13346.06445 13525.64355
13591.0 0.0000736 13364.52148 13574.68164
13584.0 0.0000736 13382.97852 13636.46289
13705.0 0.0000730 13401.43555 13711.93262
13652.0 0.0000732 13419.89453 13800.69727
13782.0 0.0000726 13438.34961 13903.09863
13915.0 0.0000719 13456.80859 14021.38867
14070.0 0.0000711 13475.26758 14160.06445
14200.0 0.0000704 13493.72168 14326.95020
14495.0 0.0000690 13512.18066 14536.40723
14749.0 0.0000678 13530.63770 14814.73633
15280.0 0.0000654 13549.09473 15198.03223
15746.0 0.0000635 13567.55176 15689.83691
16106.0 0.0000621 13586.00879 16174.19922
16538.0 0.0000605 13604.46582 16406.48828
16446.0 0.0000608 13622.92480 16277.49316
16617.0 0.0000602 13641.37891 16138.97852
16756.0 0.0000597 13659.83887 16367.45117
17416.0 0.0000574 13678.29785 17047.85352
18084.0 0.0000553 13696.75195 18091.77344
19479.0 0.0000513 13715.21094 19421.19727
20941.0 0.0000478 13733.66797 21054.90625
22836.0 0.0000438 13752.12500 23061.45313
25524.0 0.0000392 13770.58203 25615.69141
29129.0 0.00003433 13789.03906 28988.04883
33754.0 0.00002963 13807.49609 33473.48828
39812.0 0.00002512 13825.95508 39054.74219
44545.0 0.00002245 13844.40918 44454.67188
46246.0 0.00002162 13862.86816 46967.75000
43152.0 0.00002317 13881.32813 43530.01563
36124.0 0.00002768 13899.78223 35128.01563
28091.0 0.0000356 13918.24121 26671.09570
21364.0 0.0000468 13936.69824 20905.09180
17649.0 0.0000567 13955.15527 17816.78320
16118.0 0.0000620 13973.61230 16386.02734
15251.0 0.0000656 13992.06934 15723.41016
15118.0 0.0000661 14010.52539 15368.46387
14818.0 0.0000675 14028.98535 15145.59570
14770.0 0.0000677 14047.43945 14994.00781
14555.0 0.0000687 14065.89844 14888.71289
14736.0 0.0000679 14084.35742 14816.47852
14805.0 0.0000675 14102.81250 14769.28516
14430.0 0.0000693 14121.27148 14742.22949
14643.0 0.0000683 14139.72852 14732.82617
14915.0 0.0000670 14158.18555 14741.33887
14585.0 0.0000686 14176.64258 14772.83984
15010.0 0.0000666 14195.09961 14840.91602
15049.0 0.0000664 14213.55566 14967.70898
15485.0 0.0000646 14232.01465 15191.50098
15973.0 0.0000626 14250.47168 15535.55273
16176.0 0.0000618 14268.92871 16012.68164
16896.0 0.0000592 14287.38574 16623.17773
17727.0 0.0000564 14305.84277 17490.09375
18521.0 0.0000540 14324.29980 18407.04883
19318.0 0.0000518 14342.75879 19541.09961
21226.0 0.0000471 14361.21289 20991.54883
22961.0 0.0000436 14379.67285 22933.95508
26105.0 0.0000383 14398.13184 25585.36719
29928.0 0.00003341 14416.58594 28945.64258
33242.0 0.00003008 14435.04492 32287.09180
34047.0 0.00002937 14453.50195 33857.10547
32683.0 0.00003060 14471.95898 31775.69336
28213.0 0.0000354 14490.41602 26714.39844
22638.0 0.0000442 14508.87305 21681.47266
18455.0 0.0000542 14527.33008 18349.78320
16184.0 0.0000618 14545.78906 16670.39453
15741.0 0.0000635 14564.24316 15962.53809
15523.0 0.0000644 14582.70215 15671.20996
15256.0 0.0000655 14601.16211 15533.65332
15195.0 0.0000658 14619.61621 15459.50977
15185.0 0.0000659 14638.07520 15420.41895
15422.0 0.0000648 14656.53223 15405.45215
15087.0 0.0000663 14674.98926 15409.03418
15323.0 0.0000653 14693.44629 15381.53906
14975.0 0.0000668 14711.90332 15476.10645
15198.0 0.0000658 14730.35938 15527.25000
15460.0 0.0000647 14748.81934 15592.58008
15436.0 0.0000648 14767.27344 15673.70215
15749.0 0.0000635 14785.73242 15773.56641
15863.0 0.0000630 14804.19141 15897.21582
16092.0 0.0000621 14822.64648 16054.33398
16568.0 0.0000604 14841.10547 16265.53906
17281.0 0.0000579 14859.56250 16573.12891
17842.0 0.0000560 14878.01953 17052.42773
18863.0 0.0000530 14896.47656 17813.48633
20070.0 0.0000498 14914.93555 18977.47266
21520.0 0.0000465 14933.38965 20622.19336
23457.0 0.0000426 14951.84668 22811.72266
25776.0 0.0000388 14970.30566 25593.52734
28981.0 0.00003451 14988.76270 28993.90820
32997.0 0.00003031 15007.21777 33230.83203
38433.0 0.00002602 15025.67871 38564.91797
45554.0 0.00002195 15044.13379 45579.41406
55243.0 0.00001810 15062.59277 54804.50000
67930.0 0.00001472 15081.04492 66170.78125
81790.0 0.00001223 15099.50684 77800.10156
87655.0 0.00001141 15117.96582 84943.86719
83457.0 0.00001198 15136.41797 81591.20313
71568.0 0.00001397 15154.87891 66877.88281
52649.0 0.00001899 15173.33594 48839.26953
35065.0 0.00002852 15191.78809 34682.25391
25266.0 0.0000396 15210.25000 26123.97461
21270.0 0.0000470 15228.70898 21831.39648
19178.0 0.0000521 15247.16113 19886.34766
18918.0 0.0000529 15265.62305 19009.13867
18523.0 0.0000540 15284.07715 18640.93945
19020.0 0.0000526 15302.53418 18625.10742
19335.0 0.0000517 15320.99609 18961.50000
19669.0 0.0000508 15339.45020 19676.89648
20602.0 0.0000485 15357.90527 20788.45313
22255.0 0.0000449 15376.36621 22297.87109
23669.0 0.0000422 15394.82324 24236.34180
26277.0 0.0000381 15413.27734 26692.24023
29028.0 0.00003445 15431.73926 29876.73633
33518.0 0.00002983 15450.19336 34137.74219
39307.0 0.00002544 15468.65039 39900.72656
46295.0 0.00002160 15487.11230 47191.97656
54344.0 0.00001840 15505.56641 54716.11719
57492.0 0.00001739 15524.02539 59271.40625
54717.0 0.00001828 15542.47852 56880.61719
46600.0 0.00002146 15560.93945 47205.67578
35730.0 0.00002799 15579.39648 35617.49609
26365.0 0.0000379 15597.84863 26729.07031
20863.0 0.0000479 15616.31055 21542.81641
18535.0 0.0000540 15634.76953 19053.31055
17493.0 0.0000572 15653.22168 17951.38086
17078.0 0.0000586 15671.68262 17417.61719
16654.0 0.0000600 15690.14258 17103.28711
16686.0 0.0000599 15708.59473 16888.58008
16520.0 0.0000605 15727.05566 16731.63672
16436.0 0.0000608 15745.51074 16613.69531
16231.0 0.0000616 15763.96484 16523.61719
16182.0 0.0000618 15782.42676 16454.08984
16206.0 0.0000617 15801.43262 16400.67383
16343.0 0.0000612 15826.28223 16365.07227
16154.0 0.0000619 15851.14063 16338.84668
16185.0 0.0000618 15875.99023 16320.09961
16252.0 0.0000615 15900.84277 16307.38086
16348.0 0.0000612 15925.69824 16299.57813
16130.0 0.0000620 15950.55176 16295.84863
16436.0 0.0000608 15975.40137 16295.50391
16366.0 0.0000611 16000.25977 16195.79297
16436.0 0.0000608 16025.10938 16205.05078
16534.0 0.0000605 16049.96484 16216.11035
16311.0 0.0000613 16074.81152 16228.69531
16238.0 0.0000616 16099.66992 16242.59961
16282.0 0.0000614 16124.52637 16257.63477
16450.0 0.0000608 16149.37305 16273.64355
16533.0 0.0000605 16174.23145 16290.51367
16399.0 0.0000610 16199.08398 16308.12695
16496.0 0.0000606 16223.93066 16326.39355
16566.0 0.0000604 16248.78906 16345.24805
16438.0 0.0000608 16273.64551 16273.64551
16572.0 0.0000603 16298.49219 16298.49219
16685.0 0.0000599 16323.35059 16323.35059
16615.0 0.0000602 16348.20020 16512.74219
16908.0 0.0000591 16373.05273 16545.41992
16732.0 0.0000598 16397.91211 16578.68164
16749.0 0.0000597 16422.76172 16612.56250
16684.0 0.0000599 16447.61133 16647.13867
16527.0 0.0000605 16472.46875 16682.49609
16602.0 0.0000602 16497.32227 16718.69922
16643.0 0.0000601 16522.17188 16755.84961
16881.0 0.0000592 16547.03125 16794.07227
16645.0 0.0000601 16571.88086 16833.46484
16795.0 0.0000595 16596.73242 16874.18945
17038.0 0.0000587 16621.59180 16916.42578
17010.0 0.0000588 16646.44141 16960.34180
16992.0 0.0000589 16671.29688 17006.18945
16763.0 0.0000597 16696.14453 17054.21484
17068.0 0.0000586 16721.00195 17104.77344
16947.0 0.0000590 16745.85547 17158.21680
17133.0 0.0000584 16770.70117 17214.98828
17052.0 0.0000586 16795.56055 17275.68945
17403.0 0.0000575 16820.41602 17340.94727
17138.0 0.0000583 16845.26172 17411.57031
17374.0 0.0000576 16870.12109 17488.63672
17174.0 0.0000582 16894.97461 17573.37695
17471.0 0.0000572 16919.82422 17667.39258
17476.0 0.0000572 16944.67969 17772.83203
17623.0 0.0000567 16969.53125 17892.34375
17789.0 0.0000562 16994.38086 18029.58789
18169.0 0.0000550 17019.24023 18189.72852
18430.0 0.0000543 17044.08984 18380.50391
18774.0 0.0000533 17068.94336 18615.70898
19260.0 0.0000519 17093.80078 18921.92969
20006.0 0.0000500 17118.65039 19349.75586
21307.0 0.0000469 17143.50000 19987.70508
22253.0 0.0000449 17168.35938 20969.78320
23756.0 0.0000421 17193.21289 22464.47070
26017.0 0.0000384 17218.06250 24633.47852
29051.0 0.00003442 17242.91992 27598.96484
32570.0 0.00003070 17267.76953 31510.75781
37099.0 0.00002695 17292.62500 36501.70313
42793.0 0.00002337 17317.47266 42873.26563
50329.0 0.00001987 17342.33203 51116.59766
61719.0 0.00001620 17367.18750 61734.06641
75648.0 0.00001322 17392.03320 74755.26563
92098.0 0.00001086 17416.89258 88739.49219
105175.0 9.51e-6 17441.74414 99966.44531
106225.0 9.41e-6 17466.59180 102809.16406
96681.0 0.00001034 17491.45117 93092.73438
79360.0 0.00001260 17516.30664 74224.93750
57381.0 0.00001743 17541.15234 54734.23828
38840.0 0.00002575 17566.01172 39875.36719
28611.0 0.00003495 17590.86133 30581.13281
24311.0 0.0000411 17615.71289 25535.31250
22008.0 0.0000454 17640.57227 22981.03320
20326.0 0.0000492 17665.42188 21642.77344
20006.0 0.0000500 17690.27148 20848.47266
19209.0 0.0000521 17715.13086 20311.60742
19144.0 0.0000522 17739.98242 19918.99023
18658.0 0.0000536 17764.83203 19620.51758
18612.0 0.0000537 17789.69141 19388.96875
18773.0 0.0000533 17814.54102 19207.10156
18308.0 0.0000546 17839.39453 19062.84180
18360.0 0.0000545 17864.25195 18947.57227
18247.0 0.0000548 17889.10156 18855.09570
18247.0 0.0000548 17913.95703 18780.69531
18258.0 0.0000548 17938.80469 18720.86914
18434.0 0.0000542 17963.66211 18672.85742
18220.0 0.0000549 17988.51563 18634.58984
18393.0 0.0000544 18013.36328 18604.40820
18617.0 0.0000537 18038.22070 18580.96484
18483.0 0.0000541 18063.07617 18563.21875
18531.0 0.0000540 18087.92383 18551.69336
18310.0 0.0000546 18112.78125 18542.96875
18213.0 0.0000549 18137.63477 18537.79492
18445.0 0.0000542 18162.48438 18535.69727
18578.0 0.0000538 18187.33984 18536.25977
18393.0 0.0000544 18212.19336 18539.15820
18397.0 0.0000544 18237.04297 18544.09961
18236.0 0.0000548 18261.90039 18550.83984
18843.0 0.0000531 18286.75000 18559.17383
18464.0 0.0000542 18311.60352 18568.92773
18414.0 0.0000543 18336.46289 18579.94727
18759.0 0.0000533 18361.31250 18592.09180
18460.0 0.0000542 18386.16211 18605.25195
18794.0 0.0000532 18411.01953 18619.33203
18489.0 0.0000541 18435.87305 18634.24219
18644.0 0.0000536 18460.72266 18649.90430
18656.0 0.0000536 18485.58203 18666.26172
18865.0 0.0000530 18510.43164 18683.24219
18490.0 0.0000541 18535.28711 18700.81055
18779.0 0.0000533 18560.13281 18564.53320
18477.0 0.0000541 18584.99219 18589.78125
18545.0 0.0000539 18609.84766 18615.07813
18732.0 0.0000534 18634.69531 18640.43359
18540.0 0.0000539 18659.55273 18665.87891
18706.0 0.0000535 18684.40625 18691.41406
18878.0 0.0000530 18709.25195 18717.06250
18860.0 0.0000530 18734.11133 18742.87305
19044.0 0.0000525 18758.96680 18768.87305
18953.0 0.0000528 18783.81250 18795.12109
18811.0 0.0000532 18808.67188 18821.75195
19056.0 0.0000525 18833.52148 18848.96875
19006.0 0.0000526 18858.37500 18877.23438
18897.0 0.0000529 18883.23242 18907.37109
19084.0 0.0000524 18908.08203 18940.67383
19233.0 0.0000520 18932.93164 18978.92773
19062.0 0.0000525 18957.79102 19024.07813
18977.0 0.0000527 18982.64453 19077.74609
19173.0 0.0000522 19007.49414 19141.70703
19405.0 0.0000515 19032.35156 19218.04492
19101.0 0.0000524 19057.20117 19310.17773
19509.0 0.0000513 19082.05469 19423.50391
19243.0 0.0000520 19106.91016 19562.37109
19513.0 0.0000512 19131.76367 19723.34180
19434.0 0.0000515 19156.61523 19885.14453
19501.0 0.0000513 19181.46484 20003.84766
19777.0 0.0000506 19206.32031 20024.65039
19707.0 0.0000507 19231.17578 19924.66797
19557.0 0.0000511 19256.02344 19756.73438
19515.0 0.0000512 19280.88281 19598.54492
19205.0 0.0000521 19305.73828 19490.36133
19687.0 0.0000508 19330.58398 19435.25195
19574.0 0.0000511 19355.44336 19418.28516
19538.0 0.0000512 19380.29492 19422.58594
19463.0 0.0000514 19405.14258 19436.78906
19503.0 0.0000513 19430.00000 19455.26758
19629.0 0.0000509 19454.85352 19475.72461
19380.0 0.0000516 19479.70313 19497.28516
19513.0 0.0000512 19504.56250 19519.58203
19804.0 0.0000505 19532.04102 19545.01953
19893.0 0.0000503 19561.27539 19572.60156
19896.0 0.0000503 19590.51758 19600.48828
19799.0 0.0000505 19619.75000 19628.59375
19867.0 0.0000503 19648.98047 19656.87891
19750.0 0.0000506 19678.22266 19685.31836
19952.0 0.0000501 19707.45703 19713.86719
19997.0 0.0000500 19736.68945 19742.50977
20097.0 0.0000498 19765.93164 19771.23828
19941.0 0.0000501 19795.16211 19800.02148
19932.0 0.0000502 19824.40039 19828.86523
20061.0 0.0000498 19853.62891 19857.74805
19940.0 0.0000502 19882.87109 19886.68164
20032.0 0.0000499 19912.10938 19915.64453
19711.0 0.0000507 19941.33789 19944.62695
19955.0 0.0000501 19970.58008 19973.64648
19898.0 0.0000503 19999.81445 20002.68164
20063.0 0.0000498 20029.04297 20031.73047
20200.0 0.0000495 20058.28320 20060.80664
20138.0 0.0000497 20087.52344 20095.93945
20383.0 0.0000491 20116.75000 20125.31836
20367.0 0.0000491 20145.99219 20154.74414
20273.0 0.0000493 20175.22461 20184.19531
20183.0 0.0000495 20204.45898 20213.68164
20196.0 0.0000495 20233.70117 20243.21289
20255.0 0.0000494 20262.93164 20272.77344
20389.0 0.0000490 20292.16406 20302.37500
20272.0 0.0000493 20321.40625 20332.03125
20362.0 0.0000491 20350.64063 20361.73047
20418.0 0.0000490 20379.87305 20391.48242
20780.0 0.0000481 20409.11328 20462.41016
20535.0 0.0000487 20438.34570 20492.94336
20504.0 0.0000488 20467.58008 20525.03125
20552.0 0.0000487 20496.81836 20557.35547
20534.0 0.0000487 20526.05469 20589.94141
20438.0 0.0000489 20555.28906 20622.82031
20583.0 0.0000486 20584.51953 20656.02734
20582.0 0.0000486 20613.75781 20689.61719
20647.0 0.0000484 20642.99805 20723.63281
20884.0 0.0000479 20672.22461 20758.11914
20981.0 0.0000477 20701.46680 20793.17969
20948.0 0.0000477 20730.70508 20828.87891
20957.0 0.0000477 20759.93359 20865.31445
20852.0 0.0000480 20789.17578 20902.64648
20933.0 0.0000478 20818.41016 20941.00391
21111.0 0.0000474 20847.63867 20980.59766
21085.0 0.0000474 20876.88086 21021.71289
20972.0 0.0000477 20906.11523 21064.69922
20846.0 0.0000480 20935.34570 21110.14844
21017.0 0.0000476 20964.58789 21159.16406
21175.0 0.0000472 20993.82031 21213.86328
21275.0 0.0000470 21023.05469 21278.38867
21432.0 0.0000467 21052.29688 21359.83398
21532.0 0.0000464 21081.52930 21468.56836
21604.0 0.0000463 21110.75977 21617.42188
21778.0 0.0000459 21140.00195 21819.50977
22241.0 0.0000450 21169.23633 22087.55273
22121.0 0.0000452 21198.46875 22437.27344
22621.0 0.0000442 21227.71094 22893.54297
23522.0 0.0000425 21256.94141 23490.36133
23936.0 0.0000418 21286.17969 24254.09961
25393.0 0.0000394 21315.40820 25156.75586
25958.0 0.0000385 21344.65039 26064.81250
26724.0 0.0000374 21373.88867 26731.84570
26887.0 0.0000372 21403.11719 26905.04297
26585.0 0.0000376 21432.35742 26579.39648
26567.0 0.0000376 21461.59375 26142.79297
26215.0 0.0000381 21490.82031 26049.28320
27017.0 0.0000370 21520.06250 26560.39648
27906.0 0.0000358 21549.30078 27769.70703
30083.0 0.00003324 21578.52930 29658.15820
32623.0 0.00003065 21607.77148 32189.42773
36016.0 0.00002777 21637.00195 35201.01953
39868.0 0.00002508 21666.23828 38256.17578
42503.0 0.00002353 21695.47656 40592.39844
43115.0 0.00002319 21724.71094 41197.70703
41344.0 0.00002419 21753.94336 39400.72266
37987.0 0.00002632 21783.18555 35726.17578
33013.0 0.00003029 21812.41602 31616.81250
28483.0 0.0000351 21841.65039 28164.74023
25298.0 0.0000395 21870.89258 25750.59766
24089.0 0.0000415 21900.12500 24285.72461
23482.0 0.0000426 21929.35547 23484.78320
22986.0 0.0000435 21958.59766 23067.64063
22349.0 0.0000447 21987.83203 22844.62695
22431.0 0.0000446 22017.06836 22714.29688
22386.0 0.0000447 22046.29492 22630.70117
22521.0 0.0000444 22075.53711 22574.11719
22486.0 0.0000445 22104.77539 22535.54102
22204.0 0.0000450 22134.00391 22510.00977
22396.0 0.0000447 22163.24609 22494.32031
22196.0 0.0000451 22192.48438 22486.25195
22500.0 0.0000444 22221.71289 22484.17578
22439.0 0.0000446 22250.95508 22486.86719
22306.0 0.0000448 22280.18945 22493.40820
22138.0 0.0000452 22309.41797 22503.08594
22568.0 0.0000443 22338.66016 22515.35352
22539.0 0.0000444 22367.89453 22520.07813
22547.0 0.0000444 22397.12500 22536.82617
22618.0 0.0000442 22426.36719 22555.05664
22414.0 0.0000446 22455.59961 22574.53125
22649.0 0.0000442 22484.83398 22595.07813
22312.0 0.0000448 22514.07617 22616.54688
22510.0 0.0000444 22543.30664 22638.80078
22577.0 0.0000443 22572.53906 22661.74609
22490.0 0.0000445 22601.78125 22685.29883
22357.0 0.0000447 22631.01563 22709.37500
22516.0 0.0000444 22660.24805 22733.91016
22443.0 0.0000446 22689.48828 22758.86328
22579.0 0.0000443 22718.72070 22784.17383
22788.0 0.0000439 22747.95898 22809.81250
22881.0 0.0000437 22777.18750 22835.73242
22440.0 0.0000446 22806.42969 22861.92188
22836.0 0.0000438 22835.66797 22888.34180
22646.0 0.0000442 22864.89453 22914.95898
22775.0 0.0000439 22894.13672 22941.77930
22610.0 0.0000442 22923.37305 22968.76758
22953.0 0.0000436 22952.59961 22995.90234
22716.0 0.0000440 22981.84180 23023.19141
22909.0 0.0000437 23011.08008 23011.08008
22601.0 0.0000442 23040.30859 23040.30859
22998.0 0.0000435 23069.55078 23069.55078
23107.0 0.0000433 23098.78125 23098.78125
22918.0 0.0000436 23128.01758 23128.01758
23256.0 0.0000430 23157.25586 23157.25586
23017.0 0.0000434 23186.49023 23186.49023
23152.0 0.0000432 23215.72070 23215.72070
23274.0 0.0000430 23244.96289 23244.96289
23094.0 0.0000433 23274.19531 23274.19531
23144.0 0.0000432 23303.42969 23303.42969
23270.0 0.0000430 23332.67188 23332.67188
23484.0 0.0000426 23361.90430 23361.90430
23333.0 0.0000429 23391.13477 23391.13477
23304.0 0.0000429 23420.37695 23420.37695
23307.0 0.0000429 23449.61133 23449.61133
23556.0 0.0000425 23478.84766 23478.84766
23218.0 0.0000431 23508.07422 23508.07422
23239.0 0.0000430 23537.31641 23537.31641
23180.0 0.0000431 23566.55469 23566.55469
23279.0 0.0000430 23595.78320 23595.78320
23174.0 0.0000432 23625.02539 23625.02539
23414.0 0.0000427 23654.26367 23654.26367
23618.0 0.0000423 23683.49219 23683.49219
23266.0 0.0000430 23712.73242 23712.73242
23280.0 0.0000430 23741.96875 23741.96875
23298.0 0.0000429 23771.19531 23771.19531
23222.0 0.0000431 23800.43750 23800.43750
23542.0 0.0000425 23829.67383 23871.66406
23388.0 0.0000428 23858.90430 23904.73633
23322.0 0.0000429 23886.90039 23937.13281
23282.0 0.0000430 23905.24805 23960.55273
23448.0 0.0000426 23923.59766 23984.78906
23680.0 0.0000422 23941.95117 24010.03711
23500.0 0.0000426 23960.29688 24036.52539
23514.0 0.0000425 23978.64453 24064.59961
23674.0 0.0000422 23996.99805 24094.75781
23790.0 0.0000420 24015.34766 24127.84375
23796.0 0.0000420 24033.69336 24165.80469
23930.0 0.0000418 24052.04688 24213.70117
24226.0 0.0000413 24070.39453 24284.01172
24546.0 0.0000407 24088.74609 24403.62305
25122.0 0.0000398 24107.09180 24620.12109
25680.0 0.0000389 24125.44531 25002.60352
26232.0 0.0000381 24143.79297 25632.47266
27850.0 0.0000359 24162.14063 26594.05078
28810.0 0.00003471 24180.49219 27985.89063
30042.0 0.00003329 24198.84375 30188.23633
33052.0 0.00003026 24217.18750 32960.93750
37220.0 0.00002687 24235.54102 36694.42969
42402.0 0.00002358 24253.89258 41189.60156
46666.0 0.00002143 24272.23828 45503.13281
47332.0 0.00002113 24290.59180 47983.79297
46934.0 0.00002131 24308.93945 47099.04297
43572.0 0.00002295 24327.28516 42819.80469
39502.0 0.00002532 24345.63867 37002.89063
32442.0 0.00003082 24363.98828 31808.83789
27112.0 0.0000369 24382.33594 28323.04492
25490.0 0.0000392 24400.68945 26492.16406
25244.0 0.0000396 24419.03516 25731.35156
25220.0 0.0000397 24437.38477 25489.67578
24916.0 0.0000401 24455.73828 25453.45508
25108.0 0.0000398 24474.08594 25494.72656
25182.0 0.0000397 24492.43359 25574.38477
25518.0 0.0000392 24510.78711 25684.98242
25580.0 0.0000391 24529.13477 25830.18164
26366.0 0.0000379 24547.48438 26023.24805
26744.0 0.0000374 24565.83008 26296.61328
28330.0 0.0000353 24584.18359 26725.27734
29790.0 0.00003357 24602.53516 27462.47461
31872.0 0.00003138 24620.87891 28778.90039
34610.0 0.00002889 24639.23242 31083.09961
39066.0 0.00002560 24657.58398 34896.64844
44720.0 0.00002236 24675.92969 40812.14844
52798.0 0.00001894 24694.28320 49515.74609
63576.0 0.00001573 24712.63086 61883.68359
78664.0 0.00001271 24730.97656 78945.96875
101002.0 9.90e-6 24749.33008 101457.48438
131399.0 7.61e-6 24767.67969 128098.83594
157911.0 6.33e-6 24786.02539 154003.70313
170209.0 5.88e-6 24804.37891 170672.45313
166217.0 6.02e-6 24822.72656 169297.46875
150629.0 6.64e-6 24841.07617 147590.57813
122347.0 8.17e-6 24859.42969 114048.86719
85592.0 0.00001168 24877.77734 81020.00000
52574.0 0.00001902 24896.12305 56161.94922
35974.0 0.00002780 24914.47656 40997.10156
30590.0 0.00003269 24932.82617 33246.37891
28342.0 0.0000353 24951.17383 29752.66211
27214.0 0.0000367 24969.52734 28228.79492
26400.0 0.0000379 24987.87305 27488.03320
26216.0 0.0000381 25006.22461 27047.43555
25876.0 0.0000386 25024.57031 26740.00195
26216.0 0.0000381 25042.92383 26508.13477
25900.0 0.0000386 25061.27344 26327.83789
25796.0 0.0000388 25079.61914 26185.52930
25602.0 0.0000391 25097.97070 26072.02539
25670.0 0.0000390 25116.32227 25980.94141
24898.0 0.0000402 25134.66797 25907.51367
25320.0 0.0000395 25153.02148 25848.13086
25480.0 0.0000392 25171.37305 25800.13281
25694.0 0.0000389 25189.71680 25761.43359
25392.0 0.0000394 25208.07031 25730.38672
25758.0 0.0000388 25226.41797 25705.73828
25474.0 0.0000393 25244.76563 25686.45703
25568.0 0.0000391 25263.11914 25671.72656
25706.0 0.0000389 25281.46680 25660.89648
26164.0 0.0000382 25299.81445 25653.42188
25664.0 0.0000390 25318.16797 25648.86914
25326.0 0.0000395 25336.51563 25646.88477
25644.0 0.0000390 25354.86328 25669.05664
25542.0 0.0000392 25373.21875 25672.42773
26012.0 0.0000384 25391.56445 25677.73633
25686.0 0.0000389 25409.91211 25684.86328
25880.0 0.0000386 25428.26563 25477.64258
25814.0 0.0000387 25446.61523 25500.37305
25862.0 0.0000387 25464.96289 25523.90039
25902.0 0.0000386 25483.30859 25548.56250
25770.0 0.0000388 25501.66211 25575.01953
25938.0 0.0000386 25520.01367 25604.51172
25742.0 0.0000388 25538.35742 25639.29688
26154.0 0.0000382 25556.71094 25683.16602
26078.0 0.0000383 25575.06250 25741.69531
26006.0 0.0000385 25593.40820 25822.41992
26458.0 0.0000378 25611.76172 25934.66992
26836.0 0.0000373 25630.11133 26089.05469
26828.0 0.0000373 25648.45508 26297.24609
27668.0 0.0000361 25666.80859 26568.58984
27222.0 0.0000367 25685.15820 26901.73242
27880.0 0.0000359 25703.50586 27272.97461
28224.0 0.0000354 25721.85938 27620.19727
28610.0 0.00003495 25740.20508 27852.93555
28180.0 0.0000355 25758.55469 27876.91992
28930.0 0.00003457 25776.90625 27659.77539
28104.0 0.0000356 25795.25586 27285.19531
27758.0 0.0000360 25813.60352 26889.92969
26832.0 0.0000373 25831.95703 26569.52148
26870.0 0.0000372 25850.30273 26358.36133
26652.0 0.0000375 25868.65234 26247.07813
26082.0 0.0000383 25887.00586 26207.75781
26226.0 0.0000381 25905.35352 26213.69141
26738.0 0.0000374 25923.70508 26248.73438
26504.0 0.0000377 25942.04883 26308.57617
26048.0 0.0000384 25960.40234 26399.31836
26626.0 0.0000376 25978.75195 26536.25977
26962.0 0.0000371 25997.09766 26744.06641
27194.0 0.0000368 26015.45117 27057.39258
27896.0 0.0000358 26033.80078 27519.10938
27974.0 0.0000357 26052.14648 28176.35547
28886.0 0.00003462 26070.50000 29077.87695
30076.0 0.00003325 26088.85156 30259.56836
30936.0 0.00003232 26107.19531 31697.94922
32962.0 0.00003034 26125.55078 33277.89844
34832.0 0.00002871 26143.89648 34762.16016
35538.0 0.00002814 26162.24414 35786.07422
35884.0 0.00002787 26180.59766 35962.76172
35380.0 0.00002826 26198.94727 35107.33984
33960.0 0.00002945 26217.29297 33491.35547
32094.0 0.00003116 26235.64648 31673.23633
30038.0 0.00003329 26253.99414 30095.63867
29054.0 0.00003442 26272.34375 28948.03906
27622.0 0.0000362 26290.69727 28222.75195
27906.0 0.0000358 26309.04297 27801.87305
27402.0 0.0000365 26327.39063 27540.04297
27166.0 0.0000368 26345.74414 27338.75195
26858.0 0.0000372 26364.09375 27144.21484
26766.0 0.0000374 26382.44336 26972.89258
26524.0 0.0000377 26400.78711 26840.25781
26332.0 0.0000380 26419.14063 26750.90234
26206.0 0.0000382 26437.49219 26698.61523
25936.0 0.0000386 26455.83789 26672.16602
26358.0 0.0000379 26474.19141 26661.23633
26704.0 0.0000374 26492.54297 26658.96289
26210.0 0.0000382 26510.88672 26661.64844
26748.0 0.0000374 26529.24023 26667.52148
25996.0 0.0000385 26547.58984 26675.72656
26302.0 0.0000380 26565.93555 26682.57813
26128.0 0.0000383 26584.28906 26694.42969
26626.0 0.0000376 26602.63672 26707.69922
26326.0 0.0000380 26620.98438 26722.28516
26938.0 0.0000371 26626.37305 26725.17969
26530.0 0.0000377 26624.10352 26721.69531
26458.0 0.0000378 26621.83398 26719.61133
26772.0 0.0000374 26619.56445 26719.19727
26644.0 0.0000375 26617.29492 26721.09766
26744.0 0.0000374 26615.02539 26726.72070
26842.0 0.0000373 26612.75586 26738.97461
26520.0 0.0000377 26610.48633 26763.22656
27016.0 0.0000370 26608.21484 26808.36719
27086.0 0.0000369 26605.94531 26887.57227
26976.0 0.0000371 26603.67578 27018.41211
26946.0 0.0000371 26601.40625 27222.59180
27178.0 0.0000368 26599.13672 27524.57422
27576.0 0.0000363 26596.86719 27947.69336
27794.0 0.0000360 26594.59766 28511.27930
27894.0 0.0000359 26592.32813 29161.81836
28340.0 0.0000353 26590.05664 29813.14844
29182.0 0.00003427 26587.78711 30299.64258
29050.0 0.00003442 26585.51758 30432.88867
28720.0 0.00003482 26583.24805 30083.80859
28470.0 0.0000351 26580.97852 29391.28516
28106.0 0.0000356 26578.70898 28577.04688
27482.0 0.0000364 26576.43750 27855.94727
26768.0 0.0000374 26574.16797 27331.35742
26734.0 0.0000374 26571.89844 27006.16406
26892.0 0.0000372 26569.62891 26829.61328
27096.0 0.0000369 26567.35938 26742.18750
26850.0 0.0000372 26565.08984 26699.79883
26624.0 0.0000376 26562.82031 26677.79883
26744.0 0.0000374 26560.55078 26664.97266
26902.0 0.0000372 26558.28125 26656.91992
26942.0 0.0000371 26556.00977 26652.08008
26894.0 0.0000372 26553.74023 26649.98438
26622.0 0.0000376 26551.47070 26650.75391
26636.0 0.0000375 26549.20117 26655.30859
26936.0 0.0000371 26546.93164 26666.27148
26928.0 0.0000371 26544.66211 26689.84375
26946.0 0.0000371 26542.39258 26738.65430
27208.0 0.0000368 26540.12109 26835.05273
27826.0 0.0000359 26537.85156 27013.27734
28054.0 0.0000356 26535.58203 27320.15234
28022.0 0.0000357 26533.31250 27815.30859
28934.0 0.00003456 26531.04297 28569.55664
29544.0 0.00003385 26528.77344 29656.72461
30536.0 0.00003275 26526.50391 31117.35156
31976.0 0.00003127 26524.23242 32873.88281
32968.0 0.00003033 26521.96484 34642.27344
34054.0 0.00002937 26519.69336 35930.13281
33998.0 0.00002941 26517.42383 36201.44922
33596.0 0.00002977 26515.15430 35210.57813
32276.0 0.00003098 26512.88477 33276.14063
30892.0 0.00003237 26510.61523 31079.96680
29570.0 0.00003382 26508.34570 29222.42383
28334.0 0.0000353 26506.07422 27948.53906
27418.0 0.0000365 26503.80469 27220.95117
27154.0 0.0000368 26501.53516 26864.54688
26994.0 0.0000370 26499.26563 26707.38672
26794.0 0.0000373 26496.99609 26638.69727
27208.0 0.0000368 26494.72656 26604.26367
26782.0 0.0000373 26492.45703 26582.68945
26982.0 0.0000371 26490.18750 26566.66797
26802.0 0.0000373 26487.91602 26553.73633
26928.0 0.0000371 26485.64648 26542.91211
27062.0 0.0000370 26483.37695 26533.64648
27222.0 0.0000367 26481.10742 26525.58398
26770.0 0.0000374 26478.83789 26518.46484
27442.0 0.0000364 26476.56836 26512.09375
27076.0 0.0000369 26474.29883 26506.32617
27268.0 0.0000367 26472.02930 26503.40430
27178.0 0.0000368 26469.75781 26498.63867
26872.0 0.0000372 26467.48828 26494.21875
27258.0 0.0000367 26465.21875 26490.08984
27532.0 0.0000363 26462.94922 26465.79688
27402.0 0.0000365 26460.67969 26463.67578
27404.0 0.0000365 26458.41016 26461.56641
26794.0 0.0000373 26456.14063 26459.47070
27182.0 0.0000368 26453.86914 26457.38672
26922.0 0.0000371 26451.59961 26455.32227
27106.0 0.0000369 26449.33008 26453.27539
27136.0 0.0000369 26447.06055 26451.24805
26954.0 0.0000371 26444.79102 26449.24414
26960.0 0.0000371 26442.52148 26447.26758
26964.0 0.0000371 26440.25195 26445.32031
27222.0 0.0000367 26437.98242 26443.40820
26914.0 0.0000372 26435.71094 26441.53125
26716.0 0.0000374 26433.44141 26439.70313
26670.0 0.0000375 26431.17188 26437.92578
27124.0 0.0000369 26428.90234 26436.20898
26628.0 0.0000376 26426.63281 26434.56250
26352.0 0.0000379 26424.36328 26432.99805
26674.0 0.0000375 26422.09375 26431.53516
26354.0 0.0000379 26419.82227 26430.18750
26604.0 0.0000376 26417.55273 26428.98242
26588.0 0.0000376 26415.28320 26427.95313
26294.0 0.0000380 26413.01367 26427.13672
26436.0 0.0000378 26410.74414 26426.58789
26394.0 0.0000379 26408.47461 26426.38672
26492.0 0.0000377 26406.20508 26426.66016
26628.0 0.0000376 26403.93555 26427.63867
27008.0 0.0000370 26401.66602 26429.78320
26688.0 0.0000375 26399.39453 26434.75195
26722.0 0.0000374 26397.12500 26451.79102
26696.0 0.0000375 26394.85547 26466.97461
26622.0 0.0000376 26392.58594 26493.42188
26488.0 0.0000378 26390.31641 26537.72852
26530.0 0.0000377 26388.04688 26608.59961
26662.0 0.0000375 26385.77539 26716.04688
26574.0 0.0000376 26383.50586 26869.13477
27026.0 0.0000370 26381.23633 27071.53711
26958.0 0.0000371 26378.96680 27314.30469
27048.0 0.0000370 26376.69727 27568.35938
27848.0 0.0000359 26374.42773 27783.00586
27624.0 0.0000362 26372.15820 27894.60742
27622.0 0.0000362 26369.88867 27851.81641
27558.0 0.0000363 26367.61719 27669.68555
27582.0 0.0000363 26365.34961 27425.65430
27324.0 0.0000366 26363.07813 27136.15625
26940.0 0.0000371 26360.80859 26896.90430
26548.0 0.0000377 26358.53906 26728.96875
26750.0 0.0000374 26356.26953 26627.33398
26342.0 0.0000380 26353.99805 26574.88477
26264.0 0.0000381 26351.73047 26553.96289
25966.0 0.0000385 26349.45898 26552.88477
26744.0 0.0000374 26347.18945 26567.69141
26416.0 0.0000379 26344.91992 26601.86914
27122.0 0.0000369 26342.65039 26666.25781
27076.0 0.0000369 26340.38086 26779.33984
26944.0 0.0000371 26338.11133 26967.76367
27046.0 0.0000370 26335.84180 27265.32227
27774.0 0.0000360 26333.57227 27707.91211
28388.0 0.0000352 26331.30078 28321.91992
29254.0 0.00003418 26329.03125 29101.23438
29760.0 0.00003360 26326.76172 29976.34766
30368.0 0.00003293 26324.49219 30796.97070
30664.0 0.00003261 26322.22266 31349.22070
30570.0 0.00003271 26319.95313 31427.06250
30540.0 0.00003274 26317.68359 30955.41992
29726.0 0.00003364 26315.41406 30081.77930
28902.0 0.00003460 26313.14258 29088.16602
28092.0 0.0000356 26310.87305 28215.07422
27234.0 0.0000367 26308.60352 27580.73242
26748.0 0.0000374 26306.33398 27192.76953
26210.0 0.0000382 26304.06445 26996.91211
26520.0 0.0000377 26301.79492 26925.25781
26792.0 0.0000373 26299.52539 26926.48438
26780.0 0.0000373 26297.25391 26974.21094
27064.0 0.0000369 26294.98438 27113.05078
27226.0 0.0000367 26292.71484 27266.78516
28248.0 0.0000354 26290.44531 27526.25195
28468.0 0.0000351 26285.40430 27969.88672
29612.0 0.00003377 26263.73242 28715.28906
30890.0 0.00003237 26242.06641 29970.84570
32788.0 0.00003050 26220.40234 31989.96484
35212.0 0.00002840 26198.72852 35061.93359
39524.0 0.00002530 26177.06055 39434.18750
44806.0 0.00002232 26155.39453 45174.66797
52018.0 0.00001922 26133.72266 51968.62891
59150.0 0.00001691 26112.05664 58927.74609
64138.0 0.00001559 26090.38867 64606.14063
65622.0 0.00001524 26068.71680 67301.94531
64360.0 0.00001554 26047.05078 65798.71094
60824.0 0.00001644 26025.38086 60272.87109
53030.0 0.00001886 26003.71875 52441.84375
45086.0 0.00002218 25982.04492 44449.62500
37076.0 0.00002697 25960.37695 37795.81641
31508.0 0.00003174 25938.71484 33055.03516
29512.0 0.00003388 25917.04102 30091.30664
28050.0 0.0000357 25895.37109 28428.25195
27460.0 0.0000364 25873.70898 27550.00195
26564.0 0.0000376 25852.03516 27098.27734
26836.0 0.0000373 25830.36523 26844.68945
26730.0 0.0000374 25808.70313 26681.69922
26432.0 0.0000378 25787.02930 26562.86328
25902.0 0.0000386 25765.36328 26469.41016
25948.0 0.0000385 25743.69922 26393.17969
26202.0 0.0000382 25722.02539 26330.00781
25982.0 0.0000385 25700.35742 26277.43555
25866.0 0.0000387 25678.69336 26233.75781
25830.0 0.0000387 25657.01953 26197.81445
25830.0 0.0000387 25635.35547 26168.87695
26476.0 0.0000378 25613.68750 26146.48828
25848.0 0.0000387 25592.01563 26130.48438
25964.0 0.0000385 25570.34766 26120.96484
25526.0 0.0000392 25548.68359 26118.27539
25600.0 0.0000391 25527.00977 26123.05469
25822.0 0.0000387 25505.34570 26136.30078
25910.0 0.0000386 25483.67383 26177.82813
26212.0 0.0000382 25462.01172 26235.33594
26226.0 0.0000381 25440.33984 26288.81641
26134.0 0.0000383 25418.66797 26365.30859
26392.0 0.0000379 25397.00586 26477.31836
26526.0 0.0000377 25375.33203 26647.95898
27750.0 0.0000360 25353.66602 26917.83594
27924.0 0.0000358 25332.00195 27354.58203
28344.0 0.0000353 25310.33008 28063.88281
29754.0 0.00003361 25288.65820 29196.03711
31504.0 0.00003174 25266.99609 30943.42578
33780.0 0.00002960 25245.32422 33515.06641
36876.0 0.00002712 25223.65820 37067.94531
40236.0 0.00002485 25201.99023 41619.46875
45470.0 0.00002199 25180.31641 46923.70313
50692.0 0.00001973 25158.65234 52366.85156
55634.0 0.00001797 25136.98633 56991.40625
57614.0 0.00001736 25115.31445 59608.23438
57402.0 0.00001742 25093.64648 59204.01563
54818.0 0.00001824 25071.98047 55685.49219
50402.0 0.00001984 25050.30859 50038.32031
43992.0 0.00002273 25028.64258 43811.05469
38098.0 0.00002625 25006.97461 38195.27344
32662.0 0.00003062 24985.30078 33785.87891
29360.0 0.00003406 24963.63672 30691.66992
28180.0 0.0000355 24941.96680 28713.09961
27468.0 0.0000364 24920.30273 27535.40430
26282.0 0.0000380 24898.63086 26860.23633
26000.0 0.0000385 24876.96289 26471.20703
25844.0 0.0000387 24855.30078 26236.38086
25708.0 0.0000389 24833.62695 26086.53125
25642.0 0.0000390 24811.95703 25990.73828
25906.0 0.0000386 24790.29297 25939.40039
26446.0 0.0000378 24768.62109 25937.49219
26130.0 0.0000383 24746.95313 26005.02539
26526.0 0.0000377 24725.28711 26182.22852
27108.0 0.0000369 24703.61719 26537.90625
28288.0 0.0000354 24681.94922 27176.22461
29196.0 0.00003425 24660.28516 28238.93359
30748.0 0.00003252 24638.61133 29891.39258
32980.0 0.00003032 24616.94531 32279.61523
36576.0 0.00002734 24595.27734 35458.75781
41010.0 0.00002438 24573.60547 39291.53516
45716.0 0.00002187 24551.93750 43354.73828
49748.0 0.00002010 24530.27539 46927.05469
50658.0 0.00001974 24508.60156 49102.47266
50982.0 0.00001961 24486.93359 49100.48828
49010.0 0.00002040 24465.26563 46734.80078
45438.0 0.00002201 24443.59375 42654.78516
40780.0 0.00002452 24421.92969 37986.48047
34610.0 0.00002889 24400.25781 33704.79297
30084.0 0.00003324 24378.59570 30361.83594
27696.0 0.0000361 24356.92188 28045.28516
27058.0 0.0000370 24335.25391 26610.14844
26168.0 0.0000382 24313.59180 25790.20117
25550.0 0.0000391 24291.91797 25338.35156
24772.0 0.0000404 24270.25000 25082.04297
25314.0 0.0000395 24248.58789 24921.43164
24684.0 0.0000405 24226.91406 24806.89648
24456.0 0.0000409 24205.24609 24716.36328
24884.0 0.0000402 24183.58008 24640.23633
24854.0 0.0000402 24161.91211 24574.01758
24544.0 0.0000407 24140.24414 24437.56641
24636.0 0.0000406 24118.57617 24388.11328
24002.0 0.0000417 24096.90234 24343.22656
24260.0 0.0000412 24075.24023 24302.11133
23870.0 0.0000419 24053.57227 24264.10938
24462.0 0.0000409 24031.89844 24228.73242
24014.0 0.0000416 24010.23047 24195.62305
23974.0 0.0000417 23988.56836 24168.66602
24072.0 0.0000415 23966.89648 24139.53906
24372.0 0.0000410 23945.22852 24112.04492
24462.0 0.0000409 23923.56055 24086.07422
24160.0 0.0000414 23901.88672 24061.55078
24122.0 0.0000415 23880.22461 24038.49414
23856.0 0.0000419 23858.55078 24016.90234
23726.0 0.0000421 23836.88867 23996.88477
23752.0 0.0000421 23815.21484 23978.56641
24100.0 0.0000415 23793.54883 23962.19336
23494.0 0.0000426 23771.88477 23948.13477
24386.0 0.0000410 23750.21289 23938.52930
23812.0 0.0000420 23728.54492 23931.59961
24428.0 0.0000409 23706.88086 23931.05469
23732.0 0.0000421 23685.20898 23941.28320
24218.0 0.0000413 23663.53516 23970.42773
23896.0 0.0000418 23641.87305 24032.72266
23884.0 0.0000419 23620.19922 24151.29297
24440.0 0.0000409 23598.53711 24360.24414
24878.0 0.0000402 23576.86914 24704.76758
25346.0 0.0000395 23555.19727 25234.75977
26186.0 0.0000382 23533.52930 25974.82422
27254.0 0.0000367 23511.86523 26945.31445
28076.0 0.0000356 23490.19336 28114.34180
29232.0 0.00003421 23468.52539 29320.93750
29836.0 0.00003352 23446.85742 30349.65039
30728.0 0.00003254 23425.18359 30950.06641
30332.0 0.00003297 23403.52148 30929.56836
30232.0 0.00003308 23381.85352 30290.52344
29062.0 0.00003441 23360.18164 29276.85156
27648.0 0.0000362 23338.51367 28218.04883
27214.0 0.0000367 23316.84570 27345.25586
25664.0 0.0000390 23295.18359 26734.66797
25288.0 0.0000395 23273.50977 26328.74414
24666.0 0.0000405 23251.84180 26001.06250
24502.0 0.0000408 23230.17969 25631.78516
23852.0 0.0000419 23208.50586 25180.32617
23686.0 0.0000422 23186.83398 24692.47656
24008.0 0.0000417 23165.16992 24238.56250
23910.0 0.0000418 23143.49805 23868.66211
23088.0 0.0000433 23121.83008 23599.99609
23564.0 0.0000424 23100.16797 23421.74414
23258.0 0.0000430 23078.49414 23309.46289
23536.0 0.0000425 23056.82617 23238.70703
23616.0 0.0000423 23034.76172 23191.33594
22970.0 0.0000435 23012.47656 23157.88281
23476.0 0.0000426 22990.19727 23135.36719
23026.0 0.0000434 22967.91602 23125.12305
23756.0 0.0000421 22945.63086 23196.38281
23068.0 0.0000434 22923.35742 23229.65430
23144.0 0.0000432 22901.07617 23294.25000
23348.0 0.0000428 22878.79102 23395.32617
23340.0 0.0000428 22856.51172 23531.13867
23392.0 0.0000427 22834.23633 23688.63867
23266.0 0.0000430 22811.95117 23841.17773
23710.0 0.0000422 22789.67188 23951.20117
23714.0 0.0000422 22767.39258 23980.25586
23354.0 0.0000428 22745.11719 23906.18945
23502.0 0.0000425 22722.83203 23741.53711
23518.0 0.0000425 22700.54688 23529.85742
23068.0 0.0000434 22678.27148 23318.53516
23186.0 0.0000431 22655.98633 23139.35742
22934.0 0.0000436 22633.70703 23005.47266
22926.0 0.0000436 22611.43164 22915.02148
22728.0 0.0000440 22589.14648 22858.23828
22892.0 0.0000437 22566.86719 22824.12500
22922.0 0.0000436 22544.59375 22804.13672
22342.0 0.0000448 22522.30664 22793.40820
22378.0 0.0000447 22500.02734 22790.41797
22484.0 0.0000445 22477.74805 22796.21484
22750.0 0.0000440 22455.46289 22814.00195
23022.0 0.0000434 22433.18750 22832.43750
22974.0 0.0000435 22410.90820 22891.22852
23288.0 0.0000429 22388.62305 22979.47070
23392.0 0.0000427 22366.34375 23100.69727
23564.0 0.0000424 22344.06836 23252.73828
24104.0 0.0000415 22321.78320 23424.91016
24344.0 0.0000411 22299.50391 23597.60156
24756.0 0.0000404 22277.22266 23746.57227
24590.0 0.0000407 22254.94336 23852.87109
25094.0 0.0000399 22232.66406 23920.92969
24866.0 0.0000402 22210.38281 23999.47461
25296.0 0.0000395 22188.10352 24187.24609
25980.0 0.0000385 22165.82422 24629.16797
26390.0 0.0000379 22143.53906 25520.67383
28550.0 0.00003503 22121.26367 27115.41016
30608.0 0.00003267 22098.97852 29714.54102
34402.0 0.00002907 22076.69922 33601.51172
39122.0 0.00002556 22054.42383 38919.20313
45972.0 0.00002175 22032.13867 45504.06641
54498.0 0.00001835 22009.85938 52713.73438
60840.0 0.00001644 21987.58398 59398.23047
63942.0 0.00001564 21965.29883 64066.60156
64934.0 0.00001540 21943.01953 65293.88672
62350.0 0.00001604 21920.74023 62431.77734
58326.0 0.00001715 21898.45313 56200.33203
51128.0 0.00001956 21876.17969 48358.97266
41966.0 0.00002383 21853.90039 40662.78516
33892.0 0.00002951 21831.61523 34247.36719
28402.0 0.0000352 21809.33398 29553.32617
25302.0 0.0000395 21787.06055 26478.92969
24148.0 0.0000414 21764.77539 24641.62109
23242.0 0.0000430 21742.49414 23630.78125
23052.0 0.0000434 21720.21484 23068.11719
22880.0 0.0000437 21697.92969 22745.41406
22400.0 0.0000446 21675.65430 22540.06445
22180.0 0.0000451 21653.36914 22392.34961
22634.0 0.0000442 21631.09570 22275.69922
21548.0 0.0000464 21608.81055 22178.23047
22316.0 0.0000448 21586.52930 22094.31836
21922.0 0.0000456 21564.25586 22020.73438
21660.0 0.0000462 21541.97070 21955.28320
21646.0 0.0000462 21519.68945 21896.45508
21964.0 0.0000455 21497.41602 21843.07031
21600.0 0.0000463 21475.13086 21794.16992
21608.0 0.0000463 21452.84570 21749.07422
21436.0 0.0000467 21430.57031 21707.22266
21398.0 0.0000467 21408.28516 21668.13477
21522.0 0.0000465 21386.01172 21631.49414
21608.0 0.0000463 21363.73047 21596.99219
21448.0 0.0000466 21341.44531 21564.42188
21752.0 0.0000460 21319.16602 21533.63477
21852.0 0.0000458 21296.89063 21504.50781
21470.0 0.0000466 21274.60547 21475.39063
21162.0 0.0000473 21252.32617 21449.45898
21696.0 0.0000461 21230.04688 21425.08789
21570.0 0.0000464 21207.76172 21402.32422
21526.0 0.0000465 21185.48633 21381.30078
21752.0 0.0000460 21163.20703 21362.17969
21320.0 0.0000469 21140.92188 21345.25977
21692.0 0.0000461 21118.64063 21331.02539
21312.0 0.0000469 21096.36133 21320.32617
21414.0 0.0000467 21074.08594 21314.74805
21224.0 0.0000471 21051.80078 21317.31445
21586.0 0.0000463 21029.52148 21333.72266
21472.0 0.0000466 21007.24609 21374.15234
21312.0 0.0000469 20984.96094 21455.79883
21388.0 0.0000468 20962.67578 21537.65820
21920.0 0.0000456 20940.40234 21794.76172
22048.0 0.0000454 20918.11719 22201.81445
22566.0 0.0000443 20895.83594 22802.39453
23308.0 0.0000429 20873.56250 23620.49609
24066.0 0.0000416 20851.27734 24672.47266
24794.0 0.0000403 20828.99609 25806.21289
25992.0 0.0000385 20806.72266 26899.20898
26704.0 0.0000374 20784.43750 27739.09570
26270.0 0.0000381 20762.15820 28102.69531
26224.0 0.0000381 20739.87695 27845.98633
25712.0 0.0000389 20717.59180 27008.01367
25642.0 0.0000390 20695.31836 25814.87109
23970.0 0.0000417 20673.03711 24541.50977
23302.0 0.0000429 20650.75195 23393.76563
21464.0 0.0000466 20628.47266 22479.45508
21254.0 0.0000470 20606.19727 21820.45508
21426.0 0.0000467 20583.91211 21383.02734
21056.0 0.0000475 20561.63281 21109.62891
20612.0 0.0000485 20539.35352 20942.76172
20850.0 0.0000480 20517.07813 20838.37500
20568.0 0.0000486 20494.79297 20767.90234
20646.0 0.0000484 20472.50781 20715.30469
20618.0 0.0000485 20450.23242 20672.39258
20370.0 0.0000491 20427.94727 20635.21289
20682.0 0.0000484 20405.66797 20601.92383
20748.0 0.0000482 20383.39258 20571.56445
21034.0 0.0000475 20361.10742 20543.55859
20760.0 0.0000482 20338.82813 20517.57031
20428.0 0.0000490 20316.55273 20493.35742
20670.0 0.0000484 20294.26758 20470.73242
20660.0 0.0000484 20271.98828 20449.60742
20586.0 0.0000486 20249.70898 20429.91211
20618.0 0.0000485 20227.42969 20411.63086
20880.0 0.0000479 20205.14844 20394.77930
20386.0 0.0000491 20182.86914 20379.42188
20374.0 0.0000491 20160.58398 20365.64844
20374.0 0.0000491 20138.30859 20353.60938
20466.0 0.0000489 20116.02930 20343.47656
20334.0 0.0000492 20093.74414 20335.50195
20410.0 0.0000490 20071.46484 20329.99609
20528.0 0.0000487 20049.18945 20327.35547
20628.0 0.0000485 20026.90430 20328.08203
20390.0 0.0000490 20004.62500 20332.82617
20680.0 0.0000484 19982.34375 20342.46484
20480.0 0.0000488 19960.07031 20358.20313
20660.0 0.0000484 19937.78516 20382.99414
20456.0 0.0000489 19915.50000 20417.79297
21098.0 0.0000474 19893.22461 20469.19727
20698.0 0.0000483 19870.93945 20547.60547
21046.0 0.0000475 19848.66016 20672.01758
21096.0 0.0000474 19826.38477 20892.39844
21522.0 0.0000465 19804.09961 21232.36328
22112.0 0.0000452 19781.82031 21792.79297
23100.0 0.0000433 19759.54492 22675.95898
24726.0 0.0000404 19737.25977 24054.88867
25760.0 0.0000388 19717.42383 26051.66211
28552.0 0.00003502 19709.39258 28752.07422
31480.0 0.00003177 19701.35938 32090.06445
35272.0 0.00002835 19693.33008 35816.63672
38450.0 0.00002601 19685.29883 39472.56641
39962.0 0.00002502 19677.26563 42395.67578
42402.0 0.00002358 19669.23242 43893.16797
41656.0 0.00002401 19661.20313 43466.96875
39992.0 0.00002501 19653.16992 41137.14453
38286.0 0.00002612 19645.13867 37525.39063
33880.0 0.00002952 19637.10742 33479.04688
30172.0 0.00003314 19629.07422 29691.14648
25920.0 0.0000386 19621.04492 26565.14258
23904.0 0.0000418 19613.01172 24233.80859
22264.0 0.0000449 19604.98242 22641.16992
21352.0 0.0000468 19596.94922 21628.46484
20854.0 0.0000480 19588.91797 21017.18164
20440.0 0.0000489 19580.88867 20655.38281
20758.0 0.0000482 19572.85547 20436.21094
20262.0 0.0000494 19564.82422 20294.81641
20304.0 0.0000493 19556.79492 20195.69922
20158.0 0.0000496 19548.76172 20120.99219
19836.0 0.0000504 19540.72656 20062.33203
19930.0 0.0000502 19532.69727 20016.00781
20254.0 0.0000494 19524.66406 19980.75000
19890.0 0.0000503 19516.63477 19956.99805
20006.0 0.0000500 19508.60352 19946.38281
20048.0 0.0000499 19500.57031 19951.44336
20318.0 0.0000492 19492.53906 19974.79688
20780.0 0.0000481 19484.50977 20019.68555
20730.0 0.0000482 19476.47656 20080.75391
21314.0 0.0000469 19468.44531 20153.58594
21012.0 0.0000476 19460.41406 20226.98242
21326.0 0.0000469 19452.38086 20285.98633
21282.0 0.0000470 19444.35156 20315.18750
21416.0 0.0000467 19436.32031 20304.86523
21304.0 0.0000469 19428.28711 20257.90039
21078.0 0.0000474 19420.25586 20190.56055
20990.0 0.0000476 19412.22266 20124.30078
20736.0 0.0000482 19404.19336 20078.75586
20694.0 0.0000483 19396.16016 20070.79102
20274.0 0.0000493 19388.12891 20117.74023
20804.0 0.0000481 19380.09961 20242.38477
20896.0 0.0000479 19372.06641 20478.69141
21372.0 0.0000468 19364.03320 20874.85352
21962.0 0.0000455 19356.00391 21491.26758
22926.0 0.0000436 19347.97070 22390.16797
24356.0 0.0000411 19339.93945 23611.43359
25602.0 0.0000391 19331.91016 25142.76953
27174.0 0.0000368 19323.87695 26893.20313
29702.0 0.00003367 19315.84570 28674.48242
31620.0 0.00003163 19307.81641 30215.23633
32312.0 0.00003095 19299.78320 31209.83594
32340.0 0.00003092 19291.75195 31417.17773
32210.0 0.00003105 19283.71875 30802.33984
31172.0 0.00003208 19275.68555 29601.87109
29778.0 0.00003358 19267.65625 28201.12305
27452.0 0.0000364 19259.62500 26936.71484
25604.0 0.0000391 19251.59180 25996.06250
24106.0 0.0000415 19243.56055 25406.15234
23824.0 0.0000420 19235.53125 25062.21289
23018.0 0.0000434 19227.49805 24787.03516
23050.0 0.0000434 19219.46680 24407.81250
22556.0 0.0000443 19211.43555 23837.50195
22086.0 0.0000453 19203.40625 23079.14453
21612.0 0.0000463 19195.37305 22312.07617
20856.0 0.0000479 19187.34180 21614.31836
20238.0 0.0000494 19179.31055 21062.85156
19394.0 0.0000516 19171.27930 20691.90039
19312.0 0.0000518 19163.24609 20498.00781
19528.0 0.0000512 19155.21484 20447.60352
19430.0 0.0000515 19147.18164 20488.01563
19316.0 0.0000518 19139.15039 20558.05273
19358.0 0.0000517 19131.12109 20598.53125
19544.0 0.0000512 19123.08789 20564.28320
19484.0 0.0000513 19115.05664 20438.44531
19240.0 0.0000520 19107.02734 20239.45117
19236.0 0.0000520 19098.99414 20007.32617
19238.0 0.0000520 19090.96289 19781.58789
19358.0 0.0000517 19082.93164 19587.46875
18984.0 0.0000527 19074.89844 19438.24219
18966.0 0.0000527 19066.86914 19331.78906
18998.0 0.0000526 19058.83789 19259.75195
18646.0 0.0000536 19050.80469 19211.75195
18776.0 0.0000533 19042.77344 19178.76367
19024.0 0.0000526 19034.74219 19154.34766
19026.0 0.0000526 19026.70898 19134.61328
19044.0 0.0000525 19018.67773 19117.47461
19094.0 0.0000524 19010.64648 19101.87695
19154.0 0.0000522 19002.61719 19087.31836
18920.0 0.0000529 18994.58398 19073.53320
18722.0 0.0000534 18986.55078 19060.37109
18434.0 0.0000542 18978.52148 19127.57617
18836.0 0.0000531 18970.48828 19120.36133
18792.0 0.0000532 18962.45703 19114.01367
18958.0 0.0000527 18954.42773 19108.54883
18912.0 0.0000529 18946.39453 19103.98828
19022.0 0.0000526 18938.36328 19100.39063
18798.0 0.0000532 18930.33398 19097.83008
18954.0 0.0000528 18922.30078 19096.39453
18824.0 0.0000531 18914.26953 19096.21680
18920.0 0.0000529 18906.23633 19097.44922
18842.0 0.0000531 18898.20313 19100.28906
18562.0 0.0000539 18890.17383 19104.98242
18792.0 0.0000532 18882.14258 19111.83398
18960.0 0.0000527 18874.10938 19121.23047
18826.0 0.0000531 18866.07813 19133.66406
19244.0 0.0000520 18858.04883 19149.78125
19222.0 0.0000520 18850.01563 19170.48047
19456.0 0.0000514 18841.98438 19197.11719
19176.0 0.0000521 18833.95313 19215.88672
19278.0 0.0000519 18825.91992 19264.50781
19796.0 0.0000505 18817.89063 19336.17383
19760.0 0.0000506 18809.85742 19451.97656
20600.0 0.0000485 18801.82813 19654.22852
21432.0 0.0000467 18793.79492 20022.56250
22662.0 0.0000441 18785.76367 20693.10156
23612.0 0.0000424 18777.73242 21875.45313
26350.0 0.0000380 18769.69922 23853.83008
29494.0 0.00003391 18761.66797 26934.43359
34094.0 0.00002933 18753.63867 31382.26367
39906.0 0.00002506 18745.60547 37212.77734
46852.0 0.00002134 18737.57227 44046.80078
53674.0 0.00001863 18729.54297 51020.89063
58092.0 0.00001721 18721.50977 56875.69531
60144.0 0.00001663 18713.48047 60231.86328
59968.0 0.00001668 18705.44922 60086.68750
58168.0 0.00001719 18697.41602 56343.11719
52858.0 0.00001892 18689.38477 49986.63672
45810.0 0.00002183 18681.35547 42561.85547
38030.0 0.00002630 18673.32227 35477.77734
30314.0 0.00003299 18665.29102 29643.33398
25436.0 0.0000393 18657.25977 25389.99609
22068.0 0.0000453 18649.22656 22606.58984
21058.0 0.0000475 18641.19531 20951.19922
19720.0 0.0000507 18633.16406 20038.71094
19606.0 0.0000510 18625.13086 19557.70508
19534.0 0.0000512 18617.09961 19302.48633
18920.0 0.0000529 18609.06836 19156.34766
18796.0 0.0000532 18601.03906 19061.33789
19066.0 0.0000524 18593.00586 18991.21289
18738.0 0.0000534 18584.97461 18934.83203
18702.0 0.0000535 18576.94531 18887.31055
18700.0 0.0000535 18568.91211 18846.19922
18488.0 0.0000541 18560.87891 18810.09961
18586.0 0.0000538 18552.84961 18778.03516
18312.0 0.0000546 18544.81641 18749.24805
18422.0 0.0000543 18536.78516 18723.18555
18922.0 0.0000528 18528.75586 18699.39844
18344.0 0.0000545 18520.72070 18682.38086
18310.0 0.0000546 18512.27148 18661.86523
18654.0 0.0000536 18503.63086 18642.53711
18522.0 0.0000540 18494.98633 18624.39063
18166.0 0.0000550 18486.34180 18607.26953
18592.0 0.0000538 18477.69922 18591.03906
17802.0 0.0000562 18469.05664 18575.58398
18082.0 0.0000553 18460.41406 18560.81250
18172.0 0.0000550 18451.77148 18546.64258
18206.0 0.0000549 18443.12695 18533.00000
18760.0 0.0000533 18434.48633 18441.64258
18166.0 0.0000550 18425.84375 18433.31250
18456.0 0.0000542 18417.19922 18425.00000
18044.0 0.0000554 18408.55469 18416.71094
18422.0 0.0000543 18399.91211 18408.44922
18012.0 0.0000555 18391.27148 18400.21680
18150.0 0.0000551 18382.62695 18392.00977
17620.0 0.0000568 18373.98438 18383.83594
17826.0 0.0000561 18365.34375 18375.70117
17994.0 0.0000556 18356.69922 18367.60352
17946.0 0.0000557 18348.05469 18359.55078
18478.0 0.0000541 18339.41406 18351.54883
17572.0 0.0000569 18330.76758 18343.59570
17854.0 0.0000560 18322.12500 18335.70898
17984.0 0.0000556 18313.48438 18327.89258
18242.0 0.0000548 18304.83984 18320.14844
17988.0 0.0000556 18296.19727 18312.49414
17798.0 0.0000562 18287.55664 18304.93945
18086.0 0.0000553 18278.91211 18297.49219
18020.0 0.0000555 18270.26953 18290.17383
18116.0 0.0000552 18261.62695 18283.00195
17634.0 0.0000567 18252.98047 18276.68164
17848.0 0.0000560 18244.33984 18269.90039
17842.0 0.0000560 18235.69727 18263.34180
17908.0 0.0000558 18227.05273 18257.04883
18066.0 0.0000554 18218.41016 18251.07031
17794.0 0.0000562 18209.76953 18245.46680
17504.0 0.0000571 18201.12500 18240.30273
18200.0 0.0000549 18192.48242 18235.68164
17706.0 0.0000565 18183.83984 18231.72656
17558.0 0.0000570 18175.19922 18228.63086
17984.0 0.0000556 18166.55273 18226.69336
17692.0 0.0000565 18157.90820 18226.44922
18112.0 0.0000552 18149.26758 18228.86133
18028.0 0.0000555 18140.62305 18235.68945
18008.0 0.0000555 18131.98047 18321.65039
17724.0 0.0000564 18123.33984 18352.10742
17890.0 0.0000559 18114.69531 18403.80469
18242.0 0.0000548 18106.05273 18488.41992
18208.0 0.0000549 18097.41211 18620.69531
18448.0 0.0000542 18088.76563 18816.59375
19182.0 0.0000521 18080.12305 19088.59180
18998.0 0.0000526 18071.48047 19439.65625
20018.0 0.0000500 18062.83594 19856.04492
20448.0 0.0000489 18054.19531 20301.91797
21326.0 0.0000469 18045.55273 20719.99219
21400.0 0.0000467 18036.90820 21037.65820
21616.0 0.0000463 18028.26563 21196.99805
21780.0 0.0000459 18019.62500 21126.93750
21322.0 0.0000469 18010.97852 20852.51563
20698.0 0.0000483 18002.33594 20441.11328
20594.0 0.0000486 17993.69336 19979.06836
19566.0 0.0000511 17985.04883 19538.01172
19074.0 0.0000524 17976.40820 19163.44141
18590.0 0.0000538 17967.76367 18874.82031
18610.0 0.0000537 17959.12305 18672.14063
18394.0 0.0000544 17950.47852 18543.08789
18502.0 0.0000540 17941.83398 18473.30859
18506.0 0.0000540 17933.19336 18474.05273
18476.0 0.0000541 17924.54883 18482.64258
19084.0 0.0000524 17915.90820 18530.59766
18802.0 0.0000532 17907.26758 18636.18164
19294.0 0.0000518 17898.62109 18837.89453
19696.0 0.0000508 17889.97656 19198.44141
20690.0 0.0000483 17881.33594 19803.51953
21762.0 0.0000460 17872.69141 20749.40234
23320.0 0.0000429 17864.05078 22110.90625
25176.0 0.0000397 17855.40820 23900.94141
27872.0 0.0000359 17846.76367 26034.58594
29902.0 0.00003344 17838.12109 28328.68555
31184.0 0.00003207 17829.48047 30568.76758
33412.0 0.00002993 17820.83398 32623.49805
35784.0 0.00002795 17812.19141 34567.47266
38298.0 0.00002611 17803.54883 36737.19922
41600.0 0.00002404 17794.90430 39617.25391
46138.0 0.00002167 17786.26367 43569.06641
50984.0 0.00001961 17777.62109 48559.86719
56214.0 0.00001779 17768.97656 54017.74219
60200.0 0.00001661 17760.33398 58882.19141
61490.0 0.00001626 17751.69141 61879.69531
61932.0 0.00001615 17743.05078 61954.52344
59384.0 0.00001684 17734.40430 58785.12500
55678.0 0.00001796 17725.76172 53024.74609
49270.0 0.00002030 17717.12109 45941.91406
40800.0 0.00002451 17708.47656 38804.32813
32830.0 0.00003046 17699.83398 32534.74414
26228.0 0.0000381 17691.19141 27601.62891
23164.0 0.0000432 17682.54883 24072.68555
21460.0 0.0000466 17673.90430 21756.65234
20434.0 0.0000489 17665.26367 20345.01367
19694.0 0.0000508 17656.61719 19532.81836
18814.0 0.0000532 17647.97656 19083.54102
19096.0 0.0000524 17639.33398 18840.37500
18504.0 0.0000540 17630.68945 18713.88281
18574.0 0.0000538 17622.04688 18659.56641
18406.0 0.0000543 17613.40625 18657.78906
19012.0 0.0000526 17604.76172 18699.72656
18994.0 0.0000526 17596.11914 18778.20703
19078.0 0.0000524 17587.47656 18882.77930
19408.0 0.0000515 17578.83008 18998.07422
19126.0 0.0000523 17570.18945 19105.16602
19598.0 0.0000510 17561.54688 19186.83008
19448.0 0.0000514 17552.90234 19236.47461
19574.0 0.0000511 17544.25977 19269.92383
19792.0 0.0000505 17535.61719 19328.20313
19716.0 0.0000507 17526.97656 19495.02344
20528.0 0.0000487 17518.33203 19861.18750
20916.0 0.0000478 17509.68945 20538.29492
21862.0 0.0000457 17501.04883 21642.13477
23662.0 0.0000423 17492.40234 23270.01563
25928.0 0.0000386 17483.75781 25459.17969
28614.0 0.00003495 17475.11719 28142.38281
31450.0 0.00003180 17466.47266 31113.53516
34094.0 0.00002933 17457.83008 34013.28516
36310.0 0.00002754 17449.18945 36369.31641
37184.0 0.00002689 17440.54492 37694.73438
37518.0 0.00002665 17431.90234 37618.82813
36510.0 0.00002739 17423.26172 36117.85938
34316.0 0.00002914 17414.61523 33543.79297
31832.0 0.00003141 17405.97266 30451.49219
28130.0 0.0000355 17397.33008 27354.75391
24784.0 0.0000403 17388.68555 24610.76758
21852.0 0.0000458 17380.04492 22405.26953
20456.0 0.0000489 17371.40234 20773.66797
19434.0 0.0000515 17362.75781 19651.14063
18708.0 0.0000535 17354.11523 18925.14258
18692.0 0.0000535 17345.47461 18476.70313
18322.0 0.0000546 17336.82813 18208.19141
17882.0 0.0000559 17328.18555 18053.35352
18306.0 0.0000546 17319.54297 17976.53711
18090.0 0.0000553 17310.90234 17968.56641
18188.0 0.0000550 17302.25781 18041.20117
18304.0 0.0000546 17293.61328 18220.79688
18672.0 0.0000536 17284.97266 18538.48242
19236.0 0.0000520 17276.32813 19015.31055
19946.0 0.0000501 17267.68359 19641.61133
20676.0 0.0000484 17259.04297 20312.88672
21092.0 0.0000474 17250.39844 21017.08203
21824.0 0.0000458 17241.75586 21562.69727
21576.0 0.0000463 17233.11523 21814.62891
21678.0 0.0000461 17225.11719 21696.05859
21288.0 0.0000470 17219.71094 21227.35156
21070.0 0.0000475 17214.30469 20516.29297
19942.0 0.0000501 17208.89648 19722.65625
19114.0 0.0000523 17203.49219 18972.39648
18500.0 0.0000541 17198.08594 18360.85547
17314.0 0.0000578 17192.67773 17916.63672
17732.0 0.0000564 17187.27148 17629.04883
17812.0 0.0000561 17181.86719 17458.25391
17636.0 0.0000567 17176.45898 17363.54297
17416.0 0.0000574 17171.05273 17312.54492
17372.0 0.0000576 17165.64648 17284.01172
17392.0 0.0000575 17160.23828 17266.05859
17204.0 0.0000581 17154.83398 17252.86133
17144.0 0.0000583 17149.42578 17241.83203
16952.0 0.0000590 17144.01953 17231.94922
17438.0 0.0000573 17138.61328 17222.79883
17122.0 0.0000584 17133.20703 17214.21484
17152.0 0.0000583 17127.80078 17206.12891
17284.0 0.0000579 17122.39258 17198.49609
17332.0 0.0000577 17116.98633 17191.29297
17126.0 0.0000584 17111.58203 17184.52148
17192.0 0.0000582 17106.17383 17178.18164
17238.0 0.0000580 17100.76563 17172.27344
17248.0 0.0000580 17095.36133 17183.55273
16968.0 0.0000589 17089.95313 17179.57813
17004.0 0.0000588 17084.54883 17177.11328
17294.0 0.0000578 17079.14258 17174.22852
17182.0 0.0000582 17073.73438 17171.88086
17326.0 0.0000577 17068.32813 17170.13477
17324.0 0.0000577 17062.92188 17172.09961
17010.0 0.0000588 17057.51563 17172.20313
17260.0 0.0000579 17052.10938 17173.75195
17344.0 0.0000577 17046.70313 17145.41406
17334.0 0.0000577 17041.29492 17153.95313
17336.0 0.0000577 17035.88867 17168.62109
17426.0 0.0000574 17030.48242 17194.01172
17244.0 0.0000580 17025.07617 17237.84961
17354.0 0.0000576 17019.66992 17312.00977
17406.0 0.0000575 17014.26172 17433.09961
17534.0 0.0000570 17008.85742 17621.22461
17650.0 0.0000567 17003.44922 17896.74023
17536.0 0.0000570 16998.04492 18273.19141
18446.0 0.0000542 16992.63672 18749.62891
18340.0 0.0000545 16987.23047 19302.25391
18756.0 0.0000533 16981.82422 19883.41016
19262.0 0.0000519 16976.41602 20428.50195
19872.0 0.0000503 16971.01172 20873.81836
20074.0 0.0000498 16965.60547 21196.80078
20178.0 0.0000496 16960.19727 21412.32031
20718.0 0.0000483 16954.79102 21643.97852
21182.0 0.0000472 16949.38477 22052.95313
22540.0 0.0000444 16943.97852 22774.66406
23676.0 0.0000422 16938.57227 23849.99023
24668.0 0.0000405 16933.16797 25185.57031
26410.0 0.0000379 16927.75781 26554.54102
26452.0 0.0000378 16922.35156 27638.01563
27004.0 0.0000370 16916.94531 28123.20898
26640.0 0.0000375 16911.53906 27814.96680
26316.0 0.0000380 16906.13086 26730.76758
25266.0 0.0000396 16900.72656 25099.40625
24158.0 0.0000414 16895.32227 23248.43555
22360.0 0.0000447 16889.91211 21478.12500
19940.0 0.0000502 16884.50586 19996.96680
18764.0 0.0000533 16879.10156 18893.38281
17790.0 0.0000562 16873.69336 18160.93945
17856.0 0.0000560 16868.28711 17738.88867
17680.0 0.0000566 16862.88281 17551.36133
17224.0 0.0000581 16857.47266 17533.93750
17400.0 0.0000575 16852.06836 17641.43750
17474.0 0.0000572 16846.66016 17842.27539
17652.0 0.0000567 16841.25391 18107.95703
17950.0 0.0000557 16835.84766 18403.33203
18470.0 0.0000541 16830.44336 18683.65625
17978.0 0.0000556 16825.03320 18898.91016
18128.0 0.0000552 16819.62695 19004.10938
17870.0 0.0000560 16814.22070 18977.01172
18266.0 0.0000547 16808.81445 18830.55664
17888.0 0.0000559 16803.40820 18608.45508
17844.0 0.0000560 16798.00391 18363.07617
17478.0 0.0000572 16792.59375 18135.41016
17794.0 0.0000562 16787.18750 17947.43164
17546.0 0.0000570 16781.78320 17800.76758
17404.0 0.0000575 16776.37695 17683.12891
17268.0 0.0000579 16770.96875 17578.11719
17562.0 0.0000569 16765.56250 17475.03906
17352.0 0.0000576 16760.15820 17372.35938
17288.0 0.0000578 16754.75000 17274.47852
17220.0 0.0000581 16749.34375 17192.22266
16934.0 0.0000591 16743.93750 17121.69141
17266.0 0.0000579 16738.52930 17070.82031
16944.0 0.0000590 16733.12305 17042.19727
16732.0 0.0000598 16727.71875 17016.55273
16948.0 0.0000590 16722.31055 17048.10547
17406.0 0.0000575 16716.90234 17118.43750
17474.0 0.0000572 16711.49805 17248.31445
17396.0 0.0000575 16706.08984 17463.38281
17788.0 0.0000562 16700.68359 17794.44922
17846.0 0.0000560 16695.27930 18271.42773
18488.0 0.0000541 16689.86914 18913.69141
19628.0 0.0000509 16684.46484 19714.15430
19964.0 0.0000501 16679.05859 20629.47656
20846.0 0.0000480 16673.65039 21572.28125
21566.0 0.0000464 16668.24414 22414.91211
21538.0 0.0000464 16662.83984 23009.92383
22076.0 0.0000453 16657.43164 23226.29688
22142.0 0.0000452 16652.02539 23000.91211
21634.0 0.0000462 16646.61914 22399.26367
21098.0 0.0000474 16641.21289 21521.27539
20250.0 0.0000494 16635.80469 20548.39453
19160.0 0.0000522 16630.39844 19619.34570
18550.0 0.0000539 16624.99609 18827.81250
18190.0 0.0000550 16619.58594 18222.91016
18060.0 0.0000554 16614.17969 17821.08594
18038.0 0.0000554 16608.77344 17615.85352
17800.0 0.0000562 16603.36523 17591.29492
17730.0 0.0000564 16597.95898 17727.28906
18318.0 0.0000546 16592.55469 17997.72266
18680.0 0.0000535 16587.14648 18364.87891
19184.0 0.0000521 16581.74023 18772.25391
19068.0 0.0000524 16576.33398 19147.25586
19856.0 0.0000504 16570.92773 19410.84375
19696.0 0.0000508 16565.52148 19496.81641
19596.0 0.0000510 16560.11523 19376.16406
19320.0 0.0000518 16554.70703 19071.60352
18972.0 0.0000527 16549.30078 18649.27148
18816.0 0.0000531 16543.89453 18188.71289
18020.0 0.0000555 16538.48828 17757.94141
17728.0 0.0000564 16533.08203 17400.79297
17402.0 0.0000575 16527.67773 17133.95898
17118.0 0.0000584 16522.26758 16952.62891
17166.0 0.0000583 16516.86133 16840.47656
16866.0 0.0000593 16511.45508 16777.47070
16808.0 0.0000595 16506.05078 16746.34961
16984.0 0.0000589 16500.64258 16735.36914
16840.0 0.0000594 16495.23633 16736.65234
16974.0 0.0000589 16489.83203 16748.08203
16998.0 0.0000588 16484.42188 16771.22656
17150.0 0.0000583 16479.01758 16812.34766
17234.0 0.0000580 16473.61133 16884.69531
17396.0 0.0000575 16468.20313 17009.89453
17472.0 0.0000572 16462.79688 17236.22461
18010.0 0.0000555 16457.39258 17612.90820
18792.0 0.0000532 16451.98438 18223.78320
19850.0 0.0000504 16446.57813 19159.44141
21144.0 0.0000473 16441.16992 20502.68750
22522.0 0.0000444 16435.76367 22293.59961
25362.0 0.0000394 16430.35742 24486.17188
27576.0 0.0000363 16424.95313 26917.04688
29402.0 0.00003401 16419.54297 29300.61523
31012.0 0.00003225 16412.92578 31252.95313
31786.0 0.00003146 16405.82422 32390.33789
31574.0 0.00003167 16398.71875 32453.14844
31220.0 0.00003203 16391.61719 31382.98047
30352.0 0.00003295 16384.51758 29426.15430
28194.0 0.0000355 16377.40918 26980.08984
25128.0 0.0000398 16370.30859 24459.39648
22122.0 0.0000452 16363.20508 22180.65039
19516.0 0.0000512 16356.10254 20329.01758
18794.0 0.0000532 16348.99805 18960.93555
18484.0 0.0000541 16341.89648 18038.92969
17410.0 0.0000574 16334.79590 17473.79102
17104.0 0.0000585 16327.68945 17151.66406
16950.0 0.0000590 16320.58594 17010.83398
16880.0 0.0000592 16313.48535 16969.17383
16826.0 0.0000594 16306.38086 16976.75391
16952.0 0.0000590 16299.27734 16997.55859
16872.0 0.0000593 16292.17871 17006.27539
16806.0 0.0000595 16285.07031 16987.58789
17088.0 0.0000585 16277.96875 16937.13281
16838.0 0.0000594 16270.86621 16861.05273
17030.0 0.0000587 16263.76172 16772.48633
16686.0 0.0000599 16256.65918 16686.88086
16524.0 0.0000605 16249.55957 16618.62109
16812.0 0.0000595 16242.45313 16580.51367
17082.0 0.0000585 16235.35059 16586.04883
17046.0 0.0000587 16228.24707 16652.87695
16840.0 0.0000594 16221.14258 16806.45117
17230.0 0.0000580 16214.04199 17080.28320
17748.0 0.0000563 16206.94043 17511.13672
18110.0 0.0000552 16199.83398 18128.21289
18824.0 0.0000531 16192.73145 18933.55469
19614.0 0.0000510 16185.62988 19887.07227
20756.0 0.0000482 16178.52734 20894.98633
21540.0 0.0000464 16171.42285 21816.34570
21840.0 0.0000458 16164.32031 22487.88086
22156.0 0.0000451 16157.22070 22769.69336
21538.0 0.0000464 16150.11426 22597.12695
21636.0 0.0000462 16143.01172 22018.16016
21264.0 0.0000470 16135.90820 21178.34180
20292.0 0.0000493 16128.80371 20260.86133
19168.0 0.0000522 16121.70313 19429.71094
18568.0 0.0000539 16114.60156 18794.44141
18374.0 0.0000544 16107.49512 18398.82031
18256.0 0.0000548 16100.39258 18228.03125
18442.0 0.0000542 16093.29102 18222.99805
18266.0 0.0000547 16086.18652 18304.65039
18874.0 0.0000530 16079.08398 18384.35742
18732.0 0.0000534 16071.98438 18393.85156
18500.0 0.0000541 16064.87598 18293.40039
18352.0 0.0000545 16057.77539 18083.75977
18136.0 0.0000551 16050.67285 17805.47461
18064.0 0.0000554 16043.56738 17488.71484
17322.0 0.0000577 16036.46484 17180.63086
17454.0 0.0000573 16029.36523 16908.59766
16688.0 0.0000599 16022.25879 16686.37500
16872.0 0.0000593 16015.15625 16516.73438
16496.0 0.0000606 16008.05371 16393.58398
16708.0 0.0000599 16000.95215 16291.43164
16126.0 0.0000620 15993.84766 16229.82813
16358.0 0.0000611 15986.74512 16183.84082
16430.0 0.0000609 15979.64551 16147.19629
16406.0 0.0000610 15972.53906 16116.35742
16128.0 0.0000620 15965.43652 16089.70605
16204.0 0.0000617 15958.33301 16066.51367
16228.0 0.0000616 15951.22852 16046.45605
16052.0 0.0000623 15944.12793 16029.27051
15952.0 0.0000627 15937.02637 16014.60156
16348.0 0.0000612 15929.91992 16002.01758
15868.0 0.0000630 15922.81738 15991.10547
15842.0 0.0000631 15915.71582 15981.47559
15972.0 0.0000626 15908.61133 15972.83398
15830.0 0.0000632 15901.50879 15964.98828
16264.0 0.0000615 15894.40723 15957.83105
15832.0 0.0000632 15887.30176 15951.34570
15896.0 0.0000629 15880.20020 15945.62988
15886.0 0.0000629 15873.09766 15940.93359
16048.0 0.0000623 15865.99316 15937.80469
16242.0 0.0000616 15858.88965 15937.29590
16046.0 0.0000623 15851.79004 15943.19727
16006.0 0.0000625 15844.68457 15954.87793
16072.0 0.0000622 15837.58105 15978.81543
16290.0 0.0000614 15830.47852 16021.26367
16430.0 0.0000609 15823.37695 16089.45117
16282.0 0.0000614 15816.27246 16190.13086
16708.0 0.0000599 15809.16992 16352.73242
16374.0 0.0000611 15802.07031 16524.64258
16798.0 0.0000595 15794.96191 16719.92383
17310.0 0.0000578 15787.86133 16917.97852
17180.0 0.0000582 15780.75879 17091.00586
16900.0 0.0000592 15773.65332 17208.67383
17204.0 0.0000581 15766.55078 17246.49609
17270.0 0.0000579 15759.45117 17196.15039
17116.0 0.0000584 15752.34473 17071.06250
17078.0 0.0000586 15745.24219 16902.48828
17242.0 0.0000580 15738.13965 16728.10156
16728.0 0.0000598 15731.03516 16584.00391
16550.0 0.0000604 15723.93359 16501.61328
16262.0 0.0000615 15716.83301 16507.13477
16838.0 0.0000594 15709.72656 16622.67383
16938.0 0.0000590 15702.62305 16865.71094
17628.0 0.0000567 15695.52246 17246.88086
18184.0 0.0000550 15688.41797 17764.30078
18238.0 0.0000548 15681.31445 18395.50977
19158.0 0.0000522 15674.21582 19091.92578
19646.0 0.0000509 15667.10742 19774.27344
20186.0 0.0000495 15660.00586 20351.76563
20894.0 0.0000479 15652.90332 20718.31836
21058.0 0.0000475 15645.80078 20794.17773
20696.0 0.0000483 15638.69629 20556.66211
20610.0 0.0000485 15631.59473 20056.39453
20054.0 0.0000499 15624.49316 19394.31250
18898.0 0.0000529 15617.38770 18679.21289
18296.0 0.0000547 15610.28418 18002.44336
17576.0 0.0000569 15603.18359 17424.49023
16786.0 0.0000596 15596.07910 16977.57031
16620.0 0.0000602 15588.97559 16670.61914
16926.0 0.0000591 15581.87598 16530.53320
16508.0 0.0000606 15574.76855 16515.97070
16678.0 0.0000600 15567.66699 16665.88672
17202.0 0.0000581 15560.56445 17019.16797
17896.0 0.0000559 15553.45996 17635.29883
18500.0 0.0000541 15546.35742 18582.65234
20258.0 0.0000494 15539.25781 19921.83984
21492.0 0.0000465 15532.15137 21658.85352
23888.0 0.0000419 15525.04883 23733.59961
25616.0 0.0000390 15517.94531 25987.50977
27708.0 0.0000361 15510.84082 28164.78906
29186.0 0.00003426 15503.74023 29942.67188
29540.0 0.00003385 15496.63867 31002.04688
30012.0 0.00003332 15489.53223 31123.27930
29880.0 0.00003347 15482.42969 30282.90820
28568.0 0.00003500 15475.32813 28677.05859
27358.0 0.0000366 15468.22559 26628.88672
24932.0 0.0000401 15461.12109 24464.31445
22674.0 0.0000441 15454.01758 22434.72461
20564.0 0.0000486 15446.91895 20695.56641
18708.0 0.0000535 15439.81250 19299.95313
17748.0 0.0000563 15432.70898 18239.68359
17138.0 0.0000583 15425.60645 17465.40625
16588.0 0.0000603 15418.50195 16914.62891
16208.0 0.0000617 15411.40039 16527.77539
15874.0 0.0000630 15404.29980 16256.20020
16208.0 0.0000617 15397.19336 16064.49414
15490.0 0.0000646 15390.09082 15928.94727
15744.0 0.0000635 15382.98926 15833.09766
15360.0 0.0000651 15375.88477 15765.49707
15498.0 0.0000645 15368.78223 15717.93555
15378.0 0.0000650 15361.68262 15684.40820
15826.0 0.0000632 15353.06543 15659.14551
15268.0 0.0000655 15339.35547 15635.76074
15108.0 0.0000662 15325.64551 15617.55273
14960.0 0.0000668 15311.93164 15603.49609
15216.0 0.0000657 15298.22559 15593.11328
15260.0 0.0000655 15284.51855 15586.28516
15372.0 0.0000651 15270.80176 15583.22754
15348.0 0.0000652 15257.09180 15584.53711
15434.0 0.0000648 15243.38477 15591.38965
15508.0 0.0000645 15229.67480 15605.95703
15412.0 0.0000649 15215.96191 15632.16406
15760.0 0.0000635 15202.25195 15676.77539
15598.0 0.0000641 15188.54785 15750.97656
15718.0 0.0000636 15174.83203 15872.32617
15562.0 0.0000643 15161.12109 16065.86914
16170.0 0.0000618 15147.41113 16365.10938
16384.0 0.0000610 15133.69824 16802.79492
17210.0 0.0000581 15119.99121 17434.77734
17908.0 0.0000558 15106.28418 18287.08984
19238.0 0.0000520 15092.56836 19375.46484
20412.0 0.0000490 15078.85840 20680.53320
22184.0 0.0000451 15065.15137 22141.79297
24236.0 0.0000413 15051.43750 23650.13867
25392.0 0.0000394 15037.72754 25052.95703
26228.0 0.0000381 15024.02441 26178.48438
26900.0 0.0000372 15010.30469 26871.38086
27688.0 0.0000361 14996.59766 27039.95117
27802.0 0.0000360 14982.88770 26706.09375
27198.0 0.0000368 14969.17383 25999.35352
26088.0 0.0000383 14955.46387 25046.39258
24690.0 0.0000405 14941.76074 23969.72070
23072.0 0.0000433 14928.04395 22833.60547
21420.0 0.0000467 14914.33398 21676.59375
20360.0 0.0000491 14900.62402 20532.29102
19204.0 0.0000521 14886.91699 19444.41211
18372.0 0.0000544 14873.20410 18457.08594
17474.0 0.0000572 14859.49414 17603.24609
16684.0 0.0000599 14845.79004 16898.35156
15858.0 0.0000631 14832.07031 16341.67188
15416.0 0.0000649 14818.36328 15921.64063
15676.0 0.0000638 14804.65332 15616.91699
15376.0 0.0000650 14790.94043 15406.54492
14972.0 0.0000668 14777.23047 15266.77930
15022.0 0.0000666 14763.52734 15164.96484
15030.0 0.0000665 14749.81055 15078.05664
14818.0 0.0000675 14736.10059 15024.66016
14898.0 0.0000671 14722.39063 14982.51953
14666.0 0.0000682 14708.67676 14947.32813
14716.0 0.0000680 14694.96973 14916.66113
14600.0 0.0000685 14681.26367 14889.13770
14926.0 0.0000670 14667.54688 14863.96582
14606.0 0.0000685 14653.83691 14840.72949
14782.0 0.0000676 14640.12988 14819.12695
14500.0 0.0000690 14626.41699 14798.94922
14326.0 0.0000698 14612.70605 14780.06836
14602.0 0.0000685 14599.00293 14762.38379
14664.0 0.0000682 14585.28320 14745.79590
14472.0 0.0000691 14571.57617 14730.29297
14674.0 0.0000681 14557.86621 14715.83105
14580.0 0.0000686 14544.15625 14702.41309
14512.0 0.0000689 14530.44336 14690.06250
14750.0 0.0000678 14516.73633 14678.83105
14462.0 0.0000691 14503.02930 14668.78711
14474.0 0.0000691 14489.31250 14660.03418
14530.0 0.0000688 14475.60254 14654.55469
14654.0 0.0000682 14461.89551 14648.99707
14484.0 0.0000690 14448.18262 14645.41309
14828.0 0.0000674 14434.47266 14644.30078
14820.0 0.0000675 14420.76953 14646.49414
14560.0 0.0000687 14407.04883 14653.47949
14652.0 0.0000683 14393.34277 14667.95508
14712.0 0.0000680 14379.63281 14694.77246
14640.0 0.0000683 14365.91895 14742.42969
14872.0 0.0000672 14352.20898 14824.99902
15070.0 0.0000664 14338.50586 14964.49316
15334.0 0.0000652 14324.78906 15193.16211
15618.0 0.0000640 14311.07910 15553.10938
16612.0 0.0000602 14297.36914 16094.45117
17076.0 0.0000586 14283.65527 16867.40820
17954.0 0.0000557 14269.94922 17908.04688
19658.0 0.0000509 14256.24219 19221.39648
21228.0 0.0000471 14242.52539 20764.59961
23338.0 0.0000428 14228.81543 22399.28711
24858.0 0.0000402 14215.10840 24009.81641
25988.0 0.0000385 14201.39844 25348.11328
27196.0 0.0000368 14187.68555 26189.00195
27420.0 0.0000365 14173.97559 26361.61133
26812.0 0.0000373 14160.27148 25818.61328
26020.0 0.0000384 14146.55469 24661.73633
25174.0 0.0000397 14132.84473 23103.43945
23312.0 0.0000429 14119.13477 21382.84375
20908.0 0.0000478 14105.42480 19706.95117
19060.0 0.0000525 14091.71484 18223.20898
17504.0 0.0000571 14078.00781 17009.99805
15822.0 0.0000632 14064.29102 16091.52637
15076.0 0.0000663 14050.58496 15439.37109
15142.0 0.0000660 14036.87500 15022.86426
14994.0 0.0000667 14023.16113 14741.24414
14900.0 0.0000671 14009.45117 14575.58789
14572.0 0.0000686 13995.74805 14491.90430
14336.0 0.0000698 13982.03125 14469.22363
14688.0 0.0000681 13968.32129 14496.77344
14700.0 0.0000680 13954.61133 14569.23926
15018.0 0.0000666 13940.89746 14681.98535
14880.0 0.0000672 13927.19141 14826.57422
15252.0 0.0000656 13913.48438 14988.13281
15356.0 0.0000651 13899.76758 15145.08398
15618.0 0.0000640 13886.05762 15270.77246
15688.0 0.0000637 13872.35059 15339.37891
15316.0 0.0000653 13858.64063 15332.78320
15180.0 0.0000659 13844.92773 15251.41016
15494.0 0.0000645 13831.21777 15102.34766
15384.0 0.0000650 13817.51367 14914.58789
14888.0 0.0000672 13803.79688 14716.12402
14682.0 0.0000681 13790.08691 14532.10938
14292.0 0.0000700 13776.37695 14381.44434
14478.0 0.0000691 13762.66406 14292.32422
14416.0 0.0000694 13748.95703 14248.12305
14414.0 0.0000694 13735.25000 14275.55664
14390.0 0.0000695 13721.53418 14393.00195
14686.0 0.0000681 13707.82324 14624.25293
14978.0 0.0000668 13694.11719 14995.27637
15814.0 0.0000632 13680.40332 15525.42773
16516.0 0.0000605 13666.69336 16214.45996
17560.0 0.0000569 13652.99023 17031.04883
18262.0 0.0000548 13639.27051 17907.22656
18888.0 0.0000529 13625.56348 18739.08203
19122.0 0.0000523 13611.85352 19408.72461
19320.0 0.0000518 13598.13965 19811.45898
19958.0 0.0000501 13584.42969 19890.95117
19350.0 0.0000517 13570.72656 19666.54297
19558.0 0.0000511 13557.00977 19229.82031
19342.0 0.0000517 13543.29980 18712.09570
18908.0 0.0000529 13529.58984 18238.33594
18488.0 0.0000541 13515.88281 17894.58594
18322.0 0.0000546 13502.16992 17710.60352
17954.0 0.0000557 13488.45996 17660.14453
17882.0 0.0000559 13474.75586 17676.24609
17948.0 0.0000557 13461.03613 17678.59961
18300.0 0.0000546 13447.32910 17606.45117
17978.0 0.0000556 13433.61914 17447.39844
18102.0 0.0000552 13419.90625 17246.86523
18038.0 0.0000554 13406.19629 17094.82422
17538.0 0.0000570 13392.49219 17086.05469
17626.0 0.0000567 13378.77637 17370.87695
18050.0 0.0000554 13365.06641 18033.41406
19078.0 0.0000524 13351.35547 19145.41602
20760.0 0.0000482 13337.64258 20730.34180
22208.0 0.0000450 13323.93555 22744.73633
24724.0 0.0000404 13310.22949 25069.80664
27228.0 0.0000367 13298.82617 27516.67383
28606.0 0.00003496 13288.22949 29826.18164
30166.0 0.00003315 13277.63477 31721.92969
31640.0 0.00003161 13267.03516 32963.85156
32202.0 0.00003105 13256.43848 33436.47656
32970.0 0.00003033 13245.84668 33199.04297
33180.0 0.00003014 13235.24219 32425.89063
31992.0 0.00003126 13224.64844 31336.68164
30212.0 0.00003310 13214.05176 30079.05273
28250.0 0.0000354 13203.45508 28710.07031
25918.0 0.0000386 13192.85547 27219.60547
24582.0 0.0000407 13182.26172 25585.68555
23344.0 0.0000428 13171.66699 23826.03320
21938.0 0.0000456 13161.06543 22012.71680
20680.0 0.0000484 13150.46875 20253.27734
18938.0 0.0000528 13139.87402 18647.06445
17248.0 0.0000580 13129.27539 17268.42578
15624.0 0.0000640 13118.67773 16158.12207
14908.0 0.0000671 13108.08691 15320.88574
14704.0 0.0000680 13097.48242 14733.24316
14342.0 0.0000697 13086.88770 14357.69531
13892.0 0.0000720 13076.29102 14151.47656
14386.0 0.0000695 13065.69141 14077.12207
14036.0 0.0000712 13055.09473 14111.84570
14346.0 0.0000697 13044.50293 14223.21484
14682.0 0.0000681 13033.90137 14401.17480
14424.0 0.0000693 13023.30469 14629.73730
15102.0 0.0000662 13012.70801 14889.22852
15332.0 0.0000652 13002.11133 15153.05566
15578.0 0.0000642 12991.51465 15387.13086
15628.0 0.0000640 12980.91992 15553.72559
15660.0 0.0000639 12970.31836 15618.73145
15846.0 0.0000631 12959.72363 15562.05859
15476.0 0.0000646 12949.12695 15377.57617
15318.0 0.0000653 12938.53027 15113.98340
14892.0 0.0000672 12927.93066 14799.61816
14600.0 0.0000685 12917.33691 14472.31641
14220.0 0.0000703 12906.74219 14161.45898
13800.0 0.0000725 12896.14063 13886.15332
13710.0 0.0000729 12885.54395 13656.85352
13124.0 0.0000762 12874.95020 13488.98633
12914.0 0.0000774 12864.35059 13352.46094
13036.0 0.0000767 12853.75391 13253.35059
12956.0 0.0000772 12843.15918 13183.56445
13110.0 0.0000763 12832.55762 13135.50293
13048.0 0.0000766 12821.96289 13103.17480
12890.0 0.0000776 12811.36621 13086.61621
12846.0 0.0000778 12800.76758 13075.32422
12986.0 0.0000770 12790.17090 13073.24121
12864.0 0.0000777 12779.57910 13082.31738
13150.0 0.0000760 12768.97656 13107.10938
13310.0 0.0000751 12758.37988 13154.18945
13192.0 0.0000758 12747.78320 13233.59766
13066.0 0.0000765 12737.18359 13357.84473
13346.0 0.0000749 12726.58984 13541.03027
13686.0 0.0000731 12715.99512 13797.25098
14294.0 0.0000700 12705.39355 14138.54980
14288.0 0.0000700 12694.79688 14570.51953
15192.0 0.0000658 12684.20313 15090.65820
15516.0 0.0000644 12673.60547 15684.49121
16270.0 0.0000615 12663.00684 16295.29297
16630.0 0.0000601 12652.41016 16938.16992
17226.0 0.0000581 12641.81836 17531.06836
17552.0 0.0000570 12631.21582 18020.69727
17920.0 0.0000558 12620.61914 18363.19336
18214.0 0.0000549 12610.02246 18533.43359
18244.0 0.0000548 12599.42383 18518.22070
17904.0 0.0000559 12588.82910 18310.25781
17374.0 0.0000576 12578.23535 17913.57422
16886.0 0.0000592 12567.63281 17355.50586
16280.0 0.0000614 12557.03613 16693.71484
15604.0 0.0000641 12546.44238 16002.31348
15000.0 0.0000667 12535.84277 15356.00586
14474.0 0.0000691 12525.24609 14819.54492
14352.0 0.0000697 12514.65430 14442.74023
13852.0 0.0000722 12504.04980 14260.59668
13742.0 0.0000728 12493.45605 14294.96777
14478.0 0.0000691 12482.85840 14561.33203
14900.0 0.0000671 12472.25977 15035.34082
15604.0 0.0000641 12461.66309 15695.32617
16162.0 0.0000619 12451.07129 16486.57227
17698.0 0.0000565 12440.46875 17327.90820
17722.0 0.0000564 12429.87207 18111.62500
18456.0 0.0000542 12419.27539 18719.38477
18758.0 0.0000533 12408.68164 19041.98633
18430.0 0.0000543 12398.08203 19011.06641
18556.0 0.0000539 12387.48535 18627.27930
18112.0 0.0000552 12376.89355 17962.29883
17376.0 0.0000576 12366.28906 17128.06250
16264.0 0.0000615 12355.69531 16243.70508
15514.0 0.0000645 12345.09863 15407.74707
14562.0 0.0000687 12334.49902 14689.77148
13726.0 0.0000729 12323.90234 14129.23047
13140.0 0.0000761 12313.31055 13738.68066
13322.0 0.0000751 12302.70898 13512.26172
13012.0 0.0000769 12292.11133 13435.17480
13400.0 0.0000746 12281.51465 13488.66309
13214.0 0.0000757 12270.91602 13667.16992
13604.0 0.0000735 12260.32129 13921.17383
13822.0 0.0000723 12249.72754 14236.34473
13914.0 0.0000719 12239.12500 14576.78516
14258.0 0.0000701 12228.52832 14896.73828
14094.0 0.0000710 12217.93457 15145.80566
14588.0 0.0000685 12207.33496 15269.52344
14272.0 0.0000701 12196.73828 15250.01758
14050.0 0.0000712 12186.14648 15077.50586
14238.0 0.0000702 12175.54199 14779.52148
13954.0 0.0000717 12164.94824 14403.27539
13610.0 0.0000735 12154.35156 13998.35938
13440.0 0.0000744 12143.75488 13606.81445
13078.0 0.0000765 12133.15527 13258.22070
12760.0 0.0000784 12122.56055 12969.12012
12406.0 0.0000806 12111.96680 12743.83789
12636.0 0.0000791 12101.36523 12577.66016
12240.0 0.0000817 12090.76758 12461.21094
12034.0 0.0000831 12080.17383 12383.03223
12034.0 0.0000831 12069.57422 12336.60547
11852.0 0.0000844 12058.97754 12307.59863
12216.0 0.0000819 12048.38574 12292.71875
12264.0 0.0000815 12037.78418 12291.99609
12588.0 0.0000794 12027.18750 12298.15430
12584.0 0.0000795 12016.59082 12342.14551
12584.0 0.0000795 12005.99121 12429.18359
12534.0 0.0000798 11995.39746 12584.10547
12936.0 0.0000773 11984.80273 12840.29297
13434.0 0.0000744 11974.20117 13237.38184
14162.0 0.0000706 11963.60449 13812.61230
14256.0 0.0000701 11953.00977 14591.03125
15652.0 0.0000639 11942.41016 15570.71582
17052.0 0.0000586 11931.81348 16695.69141
17818.0 0.0000561 11921.21973 17905.88672
18942.0 0.0000528 11910.61816 19068.58398
19794.0 0.0000505 11900.02344 20019.07422
20530.0 0.0000487 11889.42676 20622.64258
20554.0 0.0000487 11878.83008 20776.91406
20474.0 0.0000488 11868.23047 20450.53711
20188.0 0.0000495 11857.63672 19700.04492
19124.0 0.0000523 11847.04199 18655.36719
18574.0 0.0000538 11836.44043 17476.35938
16980.0 0.0000589 11825.84375 16314.42578
15666.0 0.0000638 11815.24902 15281.60156
14370.0 0.0000696 11804.65039 14447.28906
13440.0 0.0000744 11794.05273 13844.35547
13528.0 0.0000739 11783.46191 13487.92090
13326.0 0.0000750 11772.85742 13354.05664
13444.0 0.0000744 11762.26270 13440.83105
13536.0 0.0000739 11751.66602 13736.75781
14480.0 0.0000691 11741.06641 14229.19336
15270.0 0.0000655 11730.46973 14897.17969
16126.0 0.0000620 11720.04102 15704.92578
17060.0 0.0000586 11710.07324 16596.40430
17942.0 0.0000557 11700.10938 17487.87109
18626.0 0.0000537 11690.14648 18276.66016
19320.0 0.0000518 11680.18066 18850.66602
19704.0 0.0000508 11670.21973 19111.03516
19758.0 0.0000506 11660.25879 19003.94336
19634.0 0.0000509 11650.29102 18543.92188
19304.0 0.0000518 11640.32715 17812.28906
18260.0 0.0000548 11630.36621 16922.94531
17002.0 0.0000588 11620.40332 15991.33496
15820.0 0.0000632 11610.43750 15104.93848
14782.0 0.0000676 11600.47461 14328.73926
14044.0 0.0000712 11590.51563 13711.40234
13492.0 0.0000741 11580.54785 13265.10742
13436.0 0.0000744 11570.58496 12990.74707
12952.0 0.0000772 11560.62109 12876.80371
12844.0 0.0000779 11550.65527 12922.22559
13248.0 0.0000755 11540.69434 13070.47852
13822.0 0.0000723 11530.73438 13309.64160
13720.0 0.0000729 11520.76563 13605.81445
14052.0 0.0000712 11510.80273 13917.70215
14326.0 0.0000698 11500.84180 14199.43066
14634.0 0.0000683 11490.87598 14404.46777
14796.0 0.0000676 11480.91309 14494.36816
14410.0 0.0000694 11470.95410 14451.09082
14476.0 0.0000691 11460.98340 14285.11914
14488.0 0.0000690 11451.02246 14033.62695
14058.0 0.0000711 11441.05957 13747.44043
13572.0 0.0000737 11431.09375 13478.49219
13476.0 0.0000742 11421.13086 13271.88477
13384.0 0.0000747 11411.17188 13160.85547
13412.0 0.0000746 11401.20410 13164.40625
13380.0 0.0000747 11391.24121 13286.05957
13896.0 0.0000720 11381.27734 13513.57227
14040.0 0.0000712 11371.31641 13819.93262
14640.0 0.0000683 11361.35059 14167.17480
14878.0 0.0000672 11351.38770 14500.82227
15712.0 0.0000636 11341.42969 14767.71289
15780.0 0.0000634 11331.45898 14917.02051
15448.0 0.0000647 11321.49805 14914.20996
15766.0 0.0000634 11311.53516 14754.14844
14988.0 0.0000667 11301.56934 14462.92188
14996.0 0.0000667 11291.60547 14078.91797
14214.0 0.0000704 11281.64746 13668.97461
13484.0 0.0000742 11271.67871 13268.55664
13142.0 0.0000761 11261.71582 12912.94336
12930.0 0.0000773 11251.75293 12627.18652
12768.0 0.0000783 11241.78711 12429.71680
12342.0 0.0000810 11231.82617 12336.30078
12582.0 0.0000795 11221.86523 12364.22070
12636.0 0.0000791 11211.89746 12536.59375
12800.0 0.0000781 11201.93359 12899.25488
13550.0 0.0000738 11191.97266 13455.13184
13932.0 0.0000718 11182.00684 14252.04785
15122.0 0.0000661 11172.04395 15308.63867
16578.0 0.0000603 11162.08594 16618.34375
17912.0 0.0000558 11152.11719 18140.08594
19526.0 0.0000512 11142.15430 19785.81836
20646.0 0.0000484 11132.19141 21429.31445
22102.0 0.0000452 11122.22754 22914.38281
23484.0 0.0000426 11112.26465 24081.03125
23690.0 0.0000422 11102.30078 24785.77930
24476.0 0.0000409 11092.33984 24992.69922
24262.0 0.0000412 11082.37207 24691.33203
23526.0 0.0000425 11072.41113 23937.63477
22184.0 0.0000451 11062.44824 22820.58398
20272.0 0.0000493 11052.48242 21454.17188
19266.0 0.0000519 11042.51953 19968.10352
17510.0 0.0000571 11032.56055 18486.42773
16362.0 0.0000611 11022.59277 17109.52930
15312.0 0.0000653 11012.62891 15911.75098
14580.0 0.0000686 11002.66602 14933.94141
13706.0 0.0000730 10992.70020 14190.94727
13180.0 0.0000759 10982.73926 13676.18457
13080.0 0.0000765 10972.77832 13364.30957
13220.0 0.0000756 10962.81055 13215.42578
12980.0 0.0000770 10952.84668 13179.75781
12958.0 0.0000772 10942.88672 13202.11914
12736.0 0.0000785 10932.92090 13229.37500
12712.0 0.0000787 10922.95703 13218.49609
13232.0 0.0000756 10912.99902 13141.03516
12854.0 0.0000778 10903.02832 13005.13379
12878.0 0.0000777 10893.06738 12830.32813
12656.0 0.0000790 10883.10449 12657.37988
12832.0 0.0000779 10873.14063 12536.69629
12646.0 0.0000791 10863.17480 12521.92871
12810.0 0.0000781 10853.21484 12670.64258
12892.0 0.0000776 10843.25391 13013.58398
13550.0 0.0000738 10833.28516 13585.03809
13968.0 0.0000716 10823.32227 14387.91504
15162.0 0.0000660 10813.36133 15393.65723
15934.0 0.0000628 10803.39551 16535.24414
16984.0 0.0000589 10793.43262 17705.56250
17574.0 0.0000569 10783.47363 18767.10742
18058.0 0.0000554 10773.50293 19570.39063
18776.0 0.0000533 10763.54297 19980.08008
18716.0 0.0000534 10753.57910 19910.19727
18654.0 0.0000536 10743.61328 19382.73047
17772.0 0.0000563 10733.65039 18474.88867
17088.0 0.0000585 10723.69141 17329.12305
16344.0 0.0000612 10713.72363 16092.55371
14612.0 0.0000684 10703.76074 14904.37598
13826.0 0.0000723 10693.79688 13838.19043
12682.0 0.0000789 10683.83105 12954.12695
12430.0 0.0000805 10673.87109 12266.99902
11782.0 0.0000849 10663.91016 11762.81836
11552.0 0.0000866 10653.94141 11410.86426
11562.0 0.0000865 10643.97852 11175.72168
11270.0 0.0000887 10634.01758 11023.12207
10986.0 0.0000910 10624.05469 10925.20313
10816.0 0.0000925 10614.08887 10861.71973
11160.0 0.0000896 10604.12500 10836.79688
11064.0 0.0000904 10594.16699 10806.00391
10976.0 0.0000911 10584.19922 10782.08594
10858.0 0.0000921 10574.23535 10762.31152
10710.0 0.0000934 10564.27246 10745.18359
10814.0 0.0000925 10554.30664 10729.92285
10994.0 0.0000910 10544.34570 10716.13281
10776.0 0.0000928 10534.38477 10703.57910
10728.0 0.0000932 10524.41699 10692.13574
10870.0 0.0000920 10514.45313 10681.75293
10950.0 0.0000913 10504.49219 10672.40625
10802.0 0.0000926 10494.52734 10667.54883
10878.0 0.0000919 10484.56348 10660.50098
10736.0 0.0000931 10474.60547 10654.74414
10938.0 0.0000914 10464.63477 10650.56152
10912.0 0.0000916 10454.67383 10648.52832
10898.0 0.0000918 10444.71094 10649.65625
10676.0 0.0000937 10434.74512 10655.76172
11378.0 0.0000879 10424.78125 10669.91504
11132.0 0.0000898 10414.82324 10697.02832
10778.0 0.0000928 10404.85547 10744.58496
11006.0 0.0000909 10394.89160 10822.90625
11092.0 0.0000902 10384.92871 10945.36914
11388.0 0.0000878 10374.96777 11127.32617
11576.0 0.0000864 10365.00195 11384.09668
11798.0 0.0000848 10355.03906 11709.72949
12274.0 0.0000815 10345.08008 12143.04980
12446.0 0.0000803 10335.10938 12657.87695
13216.0 0.0000757 10325.14844 13228.85547
13756.0 0.0000727 10315.18555 13799.20020
13998.0 0.0000714 10305.21973 14346.85742
14212.0 0.0000704 10295.25684 14793.38184
14650.0 0.0000683 10285.29785 15083.54102
15056.0 0.0000664 10275.33008 15185.48242
14740.0 0.0000678 10265.36719 15105.77246
14480.0 0.0000691 10255.40332 14892.47754
14480.0 0.0000691 10245.44043 14619.97168
14438.0 0.0000693 10235.47656 14367.77539
14052.0 0.0000712 10231.16699 14209.41602
13762.0 0.0000727 10228.53027 14186.45801
13972.0 0.0000716 10225.89453 14315.09277
14078.0 0.0000710 10223.25879 14583.58594
14698.0 0.0000680 10220.62207 14953.85645
15010.0 0.0000666 10217.98633 15368.29590
15720.0 0.0000636 10215.35156 15760.73926
15596.0 0.0000641 10212.71387 16066.42773
16104.0 0.0000621 10210.07813 16227.29297
16060.0 0.0000623 10207.44238 16200.15430
16076.0 0.0000622 10204.80664 15966.07227
15504.0 0.0000645 10202.16992 15540.47754
15246.0 0.0000656 10199.53418 14972.41016
14680.0 0.0000681 10196.89844 14328.39648
14062.0 0.0000711 10194.26172 13673.54883
13058.0 0.0000766 10191.62598 13063.64941
12770.0 0.0000783 10188.99023 12538.86133
12186.0 0.0000821 10186.35352 12138.37793
11826.0 0.0000846 10183.71777 11856.81250
11532.0 0.0000867 10181.08301 11717.70020
11900.0 0.0000840 10178.44531 11732.61816
11786.0 0.0000848 10175.80957 11916.43945
12140.0 0.0000824 10173.17383 12288.79102
12666.0 0.0000790 10170.53711 12872.91504
13294.0 0.0000752 10167.90137 13689.86133
14426.0 0.0000693 10165.26660 14751.11816
15700.0 0.0000637 10162.62891 16051.94629
17434.0 0.0000574 10159.99316 17549.95313
19000.0 0.0000526 10157.35742 19173.68164
20422.0 0.0000490 10154.72168 20811.62305
22152.0 0.0000451 10152.08496 22318.02344
23402.0 0.0000427 10149.45020 23529.88672
24086.0 0.0000415 10146.81250 24290.15430
24468.0 0.0000409 10144.17773 24477.27344
24616.0 0.0000406 10141.54102 24048.01367
24246.0 0.0000412 10138.90527 23059.15234
23340.0 0.0000428 10136.26855 21652.98242
21872.0 0.0000457 10133.63379 20011.24805
19652.0 0.0000509 10130.99805 18306.44336
17550.0 0.0000570 10128.36035 16674.95508
15358.0 0.0000651 10125.72461 15215.43848
14360.0 0.0000696 10123.08984 13980.89941
13244.0 0.0000755 10120.45313 12988.28613
12012.0 0.0000833 10117.81738 12227.06348
11664.0 0.0000857 10115.18262 11667.60059
11294.0 0.0000885 10112.54395 11271.35449
11192.0 0.0000893 10109.90918 11000.20020
10734.0 0.0000932 10107.27344 10819.35938
10806.0 0.0000925 10104.63672 10701.02246
10666.0 0.0000938 10102.00000 10624.56445
10894.0 0.0000918 10099.36523 10577.11523
10580.0 0.0000945 10096.72852 10545.51563
10682.0 0.0000936 10094.09277 10518.77930
10562.0 0.0000947 10091.45605 10505.28906
10926.0 0.0000915 10088.82031 10502.26074
10642.0 0.0000940 10086.18457 10495.39160
10394.0 0.0000962 10083.54883 10490.54980
10668.0 0.0000937 10080.91211 10488.94141
10544.0 0.0000948 10078.27637 10493.73730
10662.0 0.0000938 10075.64063 10510.39453
10816.0 0.0000925 10073.00488 10547.05469
10472.0 0.0000955 10070.36816 10614.99219
10718.0 0.0000933 10067.73242 10726.12402
11016.0 0.0000908 10065.09766 10903.11719
11404.0 0.0000877 10062.45996 11162.51465
11580.0 0.0000864 10059.82422 11521.60938
11902.0 0.0000840 10057.18848 11992.84863
12612.0 0.0000793 10054.55176 12569.40918
13536.0 0.0000739 10051.91602 13256.57520
14142.0 0.0000707 10049.28125 14013.38477
14970.0 0.0000668 10046.64355 14789.56836
15354.0 0.0000651 10044.00781 15515.02051
16104.0 0.0000621 10041.37207 16110.48633
16004.0 0.0000625 10038.73535 16498.80469
16774.0 0.0000596 10036.09961 16624.77344
16594.0 0.0000603 10033.46484 16475.86914
16530.0 0.0000605 10030.82715 16087.78711
16198.0 0.0000617 10028.19141 15531.67090
15640.0 0.0000639 10025.55566 14887.75098
14668.0 0.0000682 10022.91895 14226.62598
13710.0 0.0000729 10020.28320 13600.37305
13150.0 0.0000760 10017.64844 13038.90430
12422.0 0.0000805 10015.01074 12552.45313
12214.0 0.0000819 10012.37500 12137.19629
11668.0 0.0000857 10009.73926 11783.27637
11528.0 0.0000867 10007.10352 11481.58398
11028.0 0.0000907 10004.46680 11221.93848
11120.0 0.0000899 10001.83105 11000.22070
10738.0 0.0000931 9999.19629 10814.43652
10874.0 0.0000920 9996.55957 10658.36621
10490.0 0.0000953 9993.92285 10531.73242
10392.0 0.0000962 9991.28711 10432.07910
10378.0 0.0000964 9988.65039 10356.65234
10578.0 0.0000945 9986.01563 10302.50195
10492.0 0.0000953 9983.37988 10266.83008
10244.0 0.0000976 9980.74316 10247.70898
10098.0 0.0000990 9978.10645 10244.86328
10322.0 0.0000969 9975.47168 10260.26367
10576.0 0.0000946 9972.83496 10298.77734
10534.0 0.0000949 9970.19922 10368.40430
10738.0 0.0000931 9967.56348 10480.15234
10782.0 0.0000927 9964.92578 10647.30859
11038.0 0.0000906 9962.29102 10882.89160
11262.0 0.0000888 9959.65527 11197.34766
11668.0 0.0000857 9957.01855 11594.55176
12010.0 0.0000833 9954.38281 12047.58691
12408.0 0.0000806 9951.74805 12576.43555
13020.0 0.0000768 9949.11035 13126.41895
13004.0 0.0000769 9946.47461 13638.25684
13462.0 0.0000743 9943.83887 14076.19043
13926.0 0.0000718 9941.20313 14375.44922
13820.0 0.0000724 9938.56641 14496.26465
14032.0 0.0000713 9935.93066 14426.75293
13842.0 0.0000722 9933.29590 14194.53223
13686.0 0.0000731 9930.65820 13853.31641
13226.0 0.0000756 9928.02246 13473.75391
12746.0 0.0000785 9925.38672 13123.48828
12658.0 0.0000790 9922.75000 12857.57617
12320.0 0.0000812 9920.11426 12711.70801
12530.0 0.0000798 9917.47949 12696.11035
12822.0 0.0000780 9914.84180 12794.13574
12674.0 0.0000789 9912.20605 12964.48438
12870.0 0.0000777 9909.57031 13149.95508
12766.0 0.0000783 9906.93359 13290.47852
12666.0 0.0000790 9904.29785 13336.48242
13038.0 0.0000767 9901.66309 13260.49707
12960.0 0.0000772 9899.02539 13056.05371
12794.0 0.0000782 9896.38965 12739.01563
12418.0 0.0000805 9893.75391 12343.21973
11852.0 0.0000844 9891.11719 11914.51465
11756.0 0.0000851 9888.48145 11501.22656
11322.0 0.0000883 9885.84668 11132.05469
10748.0 0.0000930 9883.20898 10856.33008
10862.0 0.0000921 9880.57324 10673.84375
10172.0 0.0000983 9877.93750 10582.58203
10370.0 0.0000964 9875.30176 10571.16406
10302.0 0.0000971 9872.66504 10622.06152
10594.0 0.0000944 9870.02930 10714.21289
10832.0 0.0000923 9867.39453 10825.10742
10604.0 0.0000943 9864.75684 10932.75195
10600.0 0.0000943 9862.12109 11015.41113
10588.0 0.0000944 9859.48535 11060.61523
10654.0 0.0000939 9856.84961 11057.24414
10678.0 0.0000937 9854.21289 11004.22266
10412.0 0.0000960 9851.57813 10909.42480
10552.0 0.0000948 9848.94043 10787.30957
10430.0 0.0000959 9846.30566 10655.51367
10268.0 0.0000974 9843.66895 10530.63477
10002.0 0.0001000 9841.03223 10426.40137
10446.0 0.0000957 9838.40234 10352.89258
10174.0 0.0000983 9835.78613 10316.26953
10158.0 0.0000984 9833.16699 10319.14844
10276.0 0.0000973 9830.54980 10360.97852
10364.0 0.0000965 9827.93262 10438.21289
10402.0 0.0000961 9825.31445 10544.47559
10662.0 0.0000938 9822.69824 10670.46289
10922.0 0.0000916 9820.08105 10804.24316
10896.0 0.0000918 9817.46289 10931.83691
11144.0 0.0000897 9814.84570 11037.78223
11208.0 0.0000892 9812.22852 11108.05762
10948.0 0.0000913 9809.61133 11133.07227
11032.0 0.0000906 9806.99316 11111.09766
11192.0 0.0000893 9804.37598 11050.24609
11070.0 0.0000903 9801.75977 10963.20215
11050.0 0.0000905 9799.14160 10862.67676
10816.0 0.0000925 9796.52441 10763.17383
10658.0 0.0000938 9793.90723 10673.75195
10622.0 0.0000941 9791.28906 10599.05957
10266.0 0.0000974 9788.67188 10539.51855
10334.0 0.0000968 9786.05566 10496.42773
10418.0 0.0000960 9783.43652 10456.31641
10592.0 0.0000944 9780.81934 10418.96191
10232.0 0.0000977 9778.20313 10382.35742
10410.0 0.0000961 9775.58496 10348.03809
10516.0 0.0000951 9772.96777 10320.68848
10272.0 0.0000974 9770.35156 10306.78320
10492.0 0.0000953 9767.73340 10313.40430
10444.0 0.0000957 9765.11621 10347.20313
10424.0 0.0000959 9762.49805 10413.31152
10964.0 0.0000912 9759.88086 10514.09863
10786.0 0.0000927 9757.26367 10647.58203
11324.0 0.0000883 9754.64746 10806.39941
11434.0 0.0000875 9752.02832 10977.69629
11608.0 0.0000861 9749.41113 11143.49023
11710.0 0.0000854 9746.79492 11283.96387
11714.0 0.0000854 9744.17676 11380.11035
11652.0 0.0000858 9741.55957 11416.89160
11544.0 0.0000866 9738.94141 11386.05371
11512.0 0.0000869 9736.32617 11288.41406
11468.0 0.0000872 9733.70703 11133.94336
11078.0 0.0000903 9731.08984 10940.38477
10670.0 0.0000937 9728.47266 10728.72949
10616.0 0.0000942 9725.85449 10519.31250
10162.0 0.0000984 9723.23828 10329.19434
10394.0 0.0000962 9720.62109 10167.75000
10074.0 0.0000993 9718.00293 10039.31543
9888.0 0.0001011 9715.38574 9943.17871
9802.0 0.0001020 9712.76855 9874.98145
9844.0 0.0001016 9710.15039 9828.92090
9998.0 0.0001000 9707.53320 9797.97266
9814.0 0.0001019 9704.91699 9779.42676
9638.0 0.0001038 9702.29785 9768.13867
9628.0 0.0001039 9699.68164 9761.40625
9800.0 0.0001020 9697.06445 9757.45020
9976.0 0.0001002 9694.44629 9755.23145
9626.0 0.0001039 9691.82910 9754.20508
9688.0 0.0001032 9689.21289 9754.16699
9610.0 0.0001041 9686.59375 9755.17285
9662.0 0.0001035 9683.97656 9757.55762
9948.0 0.0001005 9681.35938 9762.01660
9838.0 0.0001016 9678.74316 9769.81055
9722.0 0.0001029 9676.12500 9783.04102
9754.0 0.0001025 9673.50781 9805.00391
9934.0 0.0001007 9670.89160 9840.56738
9958.0 0.0001004 9668.27246 9896.52148
9914.0 0.0001009 9665.65527 9981.36719
10084.0 0.0000992 9663.03809 10110.10352
10382.0 0.0000963 9660.41992 10282.89160
10248.0 0.0000976 9657.80273 10512.79004
10890.0 0.0000918 9655.18652 10803.70313
11142.0 0.0000898 9652.56836 11153.07422
11820.0 0.0000846 9649.95117 11548.34766
12286.0 0.0000814 9647.33398 11967.62793
12502.0 0.0000800 9644.71582 12379.64648
12702.0 0.0000787 9642.09863 12746.18359
13092.0 0.0000764 9639.48242 13028.05371
13352.0 0.0000749 9636.86426 13192.96973
13704.0 0.0000730 9634.24609 13224.15234
13482.0 0.0000742 9631.62988 13127.35645
13512.0 0.0000740 9629.01172 12927.97168
13424.0 0.0000745 9626.39453 12661.70801
12650.0 0.0000791 9623.77832 12363.10840
12390.0 0.0000807 9621.15918 12063.67188
11916.0 0.0000839 9618.54297 11780.97168
11368.0 0.0000880 9615.92480 11522.70996
11434.0 0.0000875 9613.30762 11288.58203
11240.0 0.0000890 9610.68945 11074.37891
11248.0 0.0000889 9608.07324 10876.60645
10820.0 0.0000924 9605.45605 10693.39355
11082.0 0.0000902 9602.83789 10525.06348
10766.0 0.0000929 9600.22070 10373.12500
10470.0 0.0000955 9597.60352 10238.86523
10250.0 0.0000976 9594.98633 10123.44727
10308.0 0.0000970 9592.36914 10027.42676
10128.0 0.0000987 9589.75293 9950.69922
9986.0 0.0001001 9587.13379 9892.32227
10006.0 0.0000999 9584.51660 9851.08008
9868.0 0.0001013 9581.89941 9826.74121
9882.0 0.0001012 9579.28125 9816.31641
9878.0 0.0001012 9576.66406 9821.30859
9802.0 0.0001020 9574.04785 9843.78613
9876.0 0.0001013 9571.42969 9887.98535
10026.0 0.0000997 9568.81250 9960.30371
10080.0 0.0000992 9566.19434 10069.37012
10254.0 0.0000975 9563.57715 10223.96289
10684.0 0.0000936 9560.95996 10436.75293
10422.0 0.0000960 9558.34375 10715.91699
10830.0 0.0000923 9555.72461 11065.23047
11378.0 0.0000879 9553.10742 11481.16016
11718.0 0.0000853 9550.49121 11954.74805
12606.0 0.0000793 9547.87402 12466.45508
13224.0 0.0000756 9545.25586 12987.65820
13358.0 0.0000749 9542.63867 13481.56445
13248.0 0.0000755 9540.02246 13907.85059
14070.0 0.0000711 9537.40332 14229.67676
14436.0 0.0000693 9534.78613 14422.18457
14478.0 0.0000691 9532.16895 14484.56250
14512.0 0.0000689 9529.55176 14432.29883
14822.0 0.0000675 9526.93457 14298.89258
14848.0 0.0000673 9524.31738 14115.85352
13938.0 0.0000717 9521.69922 13905.08789
13580.0 0.0000736 9519.08203 13676.37988
13180.0 0.0000759 9516.46484 13427.83398
12762.0 0.0000784 9513.84668 13151.76660
12784.0 0.0000782 9511.22949 12842.71582
12392.0 0.0000807 9508.61328 12503.37598
12312.0 0.0000812 9505.99512 12145.24512
12128.0 0.0000825 9503.37793 11786.23145
11510.0 0.0000869 9500.76074 11444.32715
11178.0 0.0000895 9498.14258 11137.31348
10796.0 0.0000926 9495.52539 10875.70703
10394.0 0.0000962 9492.90918 10670.78613
10712.0 0.0000934 9490.29102 10528.45313
10350.0 0.0000966 9487.67285 10451.13672
10348.0 0.0000966 9485.05664 10436.70020
10174.0 0.0000983 9482.43945 10478.41699
10552.0 0.0000948 9479.82129 10565.36621
10612.0 0.0000942 9477.20410 10679.02832
10648.0 0.0000939 9474.58789 10799.57031
10720.0 0.0000933 9471.96973 10904.83789
10640.0 0.0000940 9469.35156 10973.87598
11204.0 0.0000893 9466.73438 10992.38477
10966.0 0.0000912 9464.11719 10950.67871
10706.0 0.0000934 9461.50000 10852.57715
10526.0 0.0000950 9458.88379 10709.46387
10530.0 0.0000950 9456.26465 10537.98633
10534.0 0.0000949 9453.64746 10356.91113
10242.0 0.0000976 9451.03027 10182.91895
9860.0 0.0001014 9448.41309 10029.77441
9812.0 0.0001019 9446.13184 9903.70020
9854.0 0.0001015 9443.93652 9808.69434
9904.0 0.0001010 9441.73828 9744.46289
9908.0 0.0001009 9439.54297 9709.12402
9806.0 0.0001020 9437.34668 9700.05859
9668.0 0.0001034 9435.14941 9715.04004
9840.0 0.0001016 9432.95313 9752.57422
9814.0 0.0001019 9430.75781 9808.11816
9952.0 0.0001005 9428.55957 9889.24414
9988.0 0.0001001 9426.36328 9991.83496
10358.0 0.0000965 9424.16699 10115.43750
10082.0 0.0000992 9421.97070 10258.62305
10434.0 0.0000958 9419.77344 10418.50488
10564.0 0.0000947 9417.57715 10590.16797
10682.0 0.0000936 9415.38184 10766.96191
10918.0 0.0000916 9413.18359 10940.94727
11118.0 0.0000899 9410.98828 11102.32715
11152.0 0.0000897 9408.79102 11240.00293
11108.0 0.0000900 9406.59473 11341.14355
11326.0 0.0000883 9404.39844 11392.63672
11228.0 0.0000891 9402.20215 11384.40137
11264.0 0.0000888 9400.00488 11313.02148
11100.0 0.0000901 9397.80859 11184.65820
11060.0 0.0000904 9395.61230 11014.49121
10866.0 0.0000920 9393.41504 10825.48535
10566.0 0.0000946 9391.21875 10637.88867
10490.0 0.0000953 9389.02344 10475.82617
10032.0 0.0000997 9386.82520 10358.36719
9996.0 0.0001000 9384.62891 10300.15625
10120.0 0.0000988 9382.43359 10309.74316
10324.0 0.0000969 9380.23633 10389.35547
10218.0 0.0000979 9378.04004 10534.31641
10500.0 0.0000952 9375.84473 10733.06152
10668.0 0.0000937 9373.64648 10967.89551
10784.0 0.0000927 9371.45020 11215.09863
11076.0 0.0000903 9369.25391 11447.92285
11232.0 0.0000890 9367.05762 11638.79199
11078.0 0.0000903 9364.86035 11753.29590
11758.0 0.0000850 9362.66406 11795.42773
11798.0 0.0000848 9360.46875 11750.67676
11476.0 0.0000871 9358.27051 11628.43945
11496.0 0.0000870 9356.07422 11449.73633
11076.0 0.0000903 9353.87793 11241.17578
11060.0 0.0000904 9351.68164 11029.06934
10598.0 0.0000944 9349.48535 10835.11719
10568.0 0.0000946 9347.28906 10673.63379
10412.0 0.0000960 9345.09180 10550.84375
10440.0 0.0000958 9342.89551 10465.85352
10480.0 0.0000954 9340.69922 10411.29492
10692.0 0.0000935 9338.50195 10375.58496
10552.0 0.0000948 9336.30566 10345.39551
10490.0 0.0000953 9334.11035 10308.77344
10460.0 0.0000956 9331.91211 10258.27051
10400.0 0.0000962 9329.71582 10192.72656
10350.0 0.0000966 9327.51953 10116.28516
10414.0 0.0000960 9325.32324 10036.41113
10414.0 0.0000960 9323.12695 9962.10254
9856.0 0.0001015 9320.93066 9902.63770
10016.0 0.0000998 9318.73340 9867.19238
10114.0 0.0000989 9316.53711 9864.08691
9894.0 0.0001011 9314.34082 9900.04883
10180.0 0.0000982 9312.14453 9979.33496
9872.0 0.0001013 9309.94727 10102.66992
10068.0 0.0000993 9307.75098 10266.04980
10440.0 0.0000958 9305.55566 10460.22168
10596.0 0.0000944 9303.35742 10670.89453
10708.0 0.0000934 9301.16113 10878.52441
10830.0 0.0000923 9298.96484 11066.97461
10712.0 0.0000934 9296.76855 11202.99219
11120.0 0.0000899 9294.57227 11273.41699
11102.0 0.0000901 9292.37598 11267.43750
11114.0 0.0000900 9290.17871 11184.62305
11102.0 0.0000901 9287.98242 11040.54297
10842.0 0.0000922 9285.78613 10843.12207
10832.0 0.0000923 9283.58887 10618.85254
10264.0 0.0000974 9281.39258 10389.86621
10256.0 0.0000975 9279.19727 10170.93555
9946.0 0.0001005 9276.99902 9974.95605
9660.0 0.0001035 9274.80273 9808.89258
9770.0 0.0001024 9272.60645 9674.58398
9606.0 0.0001041 9270.40918 9570.43848
9346.0 0.0001070 9268.21387 9492.72656
9642.0 0.0001037 9266.01758 9436.61230
9642.0 0.0001037 9263.82031 9397.14258
9574.0 0.0001044 9261.62402 9369.99121
9160.0 0.0001092 9259.42773 9351.52051
9422.0 0.0001061 9257.23145 9338.99316
9372.0 0.0001067 9255.03418 9330.44238
9138.0 0.0001094 9252.83789 9325.91406
9302.0 0.0001075 9250.64258 9321.87500
9492.0 0.0001054 9248.44434 9319.17578
9456.0 0.0001058 9246.24805 9315.71680
9520.0 0.0001050 9244.05176 9315.46191
9592.0 0.0001043 9241.85449 9316.81934
9634.0 0.0001038 9239.65918 9320.58496
9496.0 0.0001053 9237.46289 9328.16016
9318.0 0.0001073 9235.26563 9341.84961
9724.0 0.0001028 9233.06836 9365.11035
9590.0 0.0001043 9230.87305 9402.89063
9628.0 0.0001039 9228.67578 9461.75488
9340.0 0.0001071 9226.47949 9549.66504
10162.0 0.0000984 9224.28418 9675.36523
9956.0 0.0001004 9222.08594 9847.38965
9958.0 0.0001004 9219.88965 10074.67188
10394.0 0.0000962 9217.69336 10352.77441
10356.0 0.0000966 9215.49609 10679.68262
10770.0 0.0000929 9213.29980 11041.81055
10942.0 0.0000914 9211.10449 11417.02148
11450.0 0.0000873 9208.90723 11776.00195
11674.0 0.0000857 9206.71094 12081.71973
11838.0 0.0000845 9204.51367 12303.57520
11822.0 0.0000846 9202.31836 12418.20410
11526.0 0.0000868 9200.12109 12398.91504
11664.0 0.0000857 9197.92480 12257.41504
11922.0 0.0000839 9195.72949 12017.46680
11804.0 0.0000847 9193.53125 11714.66602
11378.0 0.0000879 9191.33496 11390.39551
10578.0 0.0000945 9189.13867 11084.52637
10162.0 0.0000984 9186.94141 10832.18164
10644.0 0.0000939 9184.74512 10661.27832
10484.0 0.0000954 9182.54980 10590.53027
10366.0 0.0000965 9180.35254 10629.08691
10794.0 0.0000926 9178.15527 10774.21777
11126.0 0.0000899 9175.95898 11019.30566
11398.0 0.0000877 9173.76172 11342.26172
11766.0 0.0000850 9171.56641 11713.76270
12066.0 0.0000829 9169.37012 12097.06641
12482.0 0.0000801 9167.17285 12450.70215
12798.0 0.0000781 9164.97656 12730.97852
12680.0 0.0000789 9162.78027 12899.97656
12994.0 0.0000770 9160.58301 12932.60840
12994.0 0.0000770 9158.38672 12830.02051
12716.0 0.0000786 9156.19141 12598.38965
12826.0 0.0000780 9153.99316 12278.01758
12136.0 0.0000824 9151.79785 11912.98242
11798.0 0.0000848 9149.60059 11547.66309
10882.0 0.0000919 9147.40430 11222.27441
11044.0 0.0000905 9145.20703 10969.16406
10864.0 0.0000920 9143.01172 10810.89941
10392.0 0.0000962 9140.81543 10758.55078
10880.0 0.0000919 9138.61816 10811.73145
11054.0 0.0000905 9136.42188 10958.83203
11050.0 0.0000905 9134.22559 11176.51465
11478.0 0.0000871 9132.02832 11438.42578
11840.0 0.0000845 9129.83203 11707.04883
11966.0 0.0000836 9127.63672 11944.65234
11778.0 0.0000849 9125.43945 12116.37305
12188.0 0.0000820 9123.24219 12195.46289
12284.0 0.0000814 9121.04590 12170.08105
12044.0 0.0000830 9119.48828 12046.12891
12036.0 0.0000831 9119.32422 11844.70410
11610.0 0.0000861 9119.16016 11593.44141
11462.0 0.0000872 9118.99707 11322.84961
11074.0 0.0000903 9118.83301 11060.73730
10988.0 0.0000910 9118.66895 10827.44141
10834.0 0.0000923 9118.50488 10634.70020
10372.0 0.0000964 9118.34082 10485.54199
10556.0 0.0000947 9118.17676 10374.94336
10542.0 0.0000949 9118.01270 10291.90430
10388.0 0.0000963 9117.84863 10223.23926
10550.0 0.0000948 9117.68457 10157.41797
10482.0 0.0000954 9117.52051 10087.03711
10598.0 0.0000944 9117.35742 10009.92676
10322.0 0.0000969 9117.19336 9928.19629
10400.0 0.0000962 9117.02930 9846.37988
10138.0 0.0000986 9116.86523 9770.04297
9886.0 0.0001012 9116.70117 9705.35156
9902.0 0.0001010 9116.53711 9658.37891
9756.0 0.0001025 9116.37305 9635.19043
9696.0 0.0001031 9116.20898 9641.80957
9928.0 0.0001007 9116.04492 9684.15137
10048.0 0.0000995 9115.88086 9768.01172
9658.0 0.0001035 9115.71777 9898.35840
9768.0 0.0001024 9115.55371 10078.91797
10144.0 0.0000986 9115.38965 10311.03516
10562.0 0.0000947 9115.22559 10592.21484
10758.0 0.0000930 9115.06152 10915.32715
10906.0 0.0000917 9114.89746 11268.07715
11198.0 0.0000893 9114.73340 11631.20410
11254.0 0.0000889 9114.56934 11977.77930
11632.0 0.0000860 9114.40527 12283.40820
12122.0 0.0000825 9114.24219 12513.53418
11938.0 0.0000838 9114.07813 12639.82813
12084.0 0.0000828 9113.91406 12645.38672
12076.0 0.0000828 9113.75000 12531.20508
11986.0 0.0000834 9113.58594 12316.47559
11960.0 0.0000836 9113.42188 12032.08398
11758.0 0.0000850 9113.25781 11707.48730
11292.0 0.0000886 9113.09375 11386.93262
11318.0 0.0000884 9112.92969 11094.27930
10876.0 0.0000919 9112.76563 10853.36328
10334.0 0.0000968 9112.60254 10683.00977
10266.0 0.0000974 9112.43848 10595.41992
10228.0 0.0000978 9112.27441 10596.74902
10382.0 0.0000963 9112.11035 10686.79004
10704.0 0.0000934 9111.94629 10858.87793
10798.0 0.0000926 9111.78223 11100.38184
11320.0 0.0000883 9111.61816 11393.93262
11490.0 0.0000870 9111.45410 11710.52441
11834.0 0.0000845 9111.29004 12025.00586
12392.0 0.0000807 9111.12695 12303.35352
12354.0 0.0000809 9110.96289 12512.65918
12784.0 0.0000782 9110.79883 12625.29785
12998.0 0.0000769 9110.63477 12625.86035
12826.0 0.0000780 9110.47070 12517.36621
12578.0 0.0000795 9110.30664 12319.81055
12750.0 0.0000784 9110.14258 12064.00586
12246.0 0.0000817 9109.97852 11780.59082
11844.0 0.0000844 9109.81445 11496.98730
11548.0 0.0000866 9109.65039 11233.21484
10838.0 0.0000923 9109.48730 10999.99414
10668.0 0.0000937 9109.32324 10800.01367
10596.0 0.0000944 9109.15918 10629.43359
10556.0 0.0000947 9108.99512 10480.68359
10434.0 0.0000958 9108.83105 10345.05566
10204.0 0.0000980 9108.66699 10215.07715
9986.0 0.0001001 9108.50293 10086.61523
10202.0 0.0000980 9108.33887 9957.64160
9994.0 0.0001001 9108.17480 9833.15039
9856.0 0.0001015 9108.01172 9716.56543
9498.0 0.0001053 9107.84766 9612.95020
9506.0 0.0001052 9107.68359 9526.25195
9740.0 0.0001027 9107.51953 9458.77734
9526.0 0.0001050 9107.35547 9410.42188
9594.0 0.0001042 9107.19141 9379.21191
9356.0 0.0001069 9107.02734 9361.81348
9514.0 0.0001051 9106.86328 9354.12305
9200.0 0.0001087 9106.69922 9351.89258
9456.0 0.0001058 9106.53516 9352.04590
9438.0 0.0001060 9106.37207 9349.72656
9694.0 0.0001032 9106.20801 9343.70508
9434.0 0.0001060 9106.04395 9331.00977
9674.0 0.0001034 9105.87988 9316.63477
9764.0 0.0001024 9105.71582 9299.41504
9348.0 0.0001070 9105.55176 9280.84766
9458.0 0.0001057 9105.38770 9262.40430
9500.0 0.0001053 9105.22363 9245.46191
9458.0 0.0001057 9105.05957 9231.23633
9328.0 0.0001072 9104.89648 9220.83887
9268.0 0.0001079 9104.73242 9215.32617
9166.0 0.0001091 9104.56836 9215.82813
9382.0 0.0001066 9104.40430 9223.62207
9312.0 0.0001074 9104.24023 9240.20410
9164.0 0.0001091 9104.07617 9267.25781
9494.0 0.0001053 9103.91211 9306.48340
9168.0 0.0001091 9103.74805 9359.34375
9432.0 0.0001060 9103.58398 9426.79395
9666.0 0.0001035 9103.41992 9508.58789
9750.0 0.0001026 9103.25684 9603.20215
9502.0 0.0001052 9103.09277 9707.41699
9630.0 0.0001038 9102.92871 9816.12891
9944.0 0.0001006 9102.76465 9924.72168
9898.0 0.0001010 9102.60059 10021.28320
10302.0 0.0000971 9102.43652 10099.28223
10190.0 0.0000981 9102.27246 10144.82129
9976.0 0.0001002 9102.10840 10166.43945
10214.0 0.0000979 9101.94434 10156.93457
10256.0 0.0000975 9101.78125 10120.16797
10220.0 0.0000978 9101.61719 10062.75781
10148.0 0.0000985 9101.45313 9992.27734
9950.0 0.0001005 9101.28906 9915.41504
10060.0 0.0000994 9101.12500 9837.25098
9864.0 0.0001014 9100.96094 9760.94141
9604.0 0.0001041 9100.79688 9688.02051
9344.0 0.0001070 9100.63281 9618.88477
9840.0 0.0001016 9100.46875 9553.45801
9440.0 0.0001059 9100.30469 9492.00684
9722.0 0.0001029 9100.14160 9434.87891
9494.0 0.0001053 9099.97754 9382.56934
9680.0 0.0001033 9099.81348 9335.56738
9322.0 0.0001073 9099.64941 9294.20020
9330.0 0.0001072 9099.48535 9258.58887
9260.0 0.0001080 9099.32129 9228.77051
9186.0 0.0001089 9099.15723 9204.48047
9436.0 0.0001060 9098.99316 9179.21484
9334.0 0.0001071 9098.82910 9164.68652
9136.0 0.0001095 9098.66602 9153.97363
9424.0 0.0001061 9098.50195 9146.37695
9496.0 0.0001053 9098.33789 9141.27832
9280.0 0.0001078 9098.17383 9138.14746
9394.0 0.0001065 9098.00977 9136.60059
9300.0 0.0001075 9097.84570 9136.41602
9148.0 0.0001093 9097.68164 9137.80664
9198.0 0.0001087 9097.51758 9140.38086
9158.0 0.0001092 9097.35352 9144.68555
9274.0 0.0001078 9097.18945 9151.91211
9128.0 0.0001096 9097.02637 9161.29004
9264.0 0.0001079 9096.86230 9176.26270
9370.0 0.0001067 9096.69824 9193.87500
9258.0 0.0001080 9096.53418 9217.26367
9184.0 0.0001089 9096.37012 9246.61523
9522.0 0.0001050 9096.20605 9283.00781
9532.0 0.0001049 9096.04199 9327.04883
9648.0 0.0001036 9095.87793 9379.14551
9300.0 0.0001075 9095.71387 9439.43066
9546.0 0.0001048 9095.55078 9507.84570
9526.0 0.0001050 9095.38672 9584.16113
9630.0 0.0001038 9095.22266 9667.62305
9944.0 0.0001006 9095.05859 9762.60449
9928.0 0.0001007 9093.99414 9856.61523
10158.0 0.0000984 9092.74316 9954.42969
10010.0 0.0000999 9091.49316 10055.07227
10114.0 0.0000989 9090.24121 10157.98340
10612.0 0.0000942 9088.99121 10260.10547
10482.0 0.0000954 9087.74023 10357.05566
10422.0 0.0000960 9086.48926 10442.41797
10552.0 0.0000948 9085.23828 10508.51270
10340.0 0.0000967 9083.98828 10548.10254
11020.0 0.0000907 9082.73633 10556.49902
10692.0 0.0000935 9081.48633 10533.67969
10472.0 0.0000955 9080.23535 10485.29102
10522.0 0.0000950 9078.98535 10419.37207
10248.0 0.0000976 9077.73340 10351.94336
10200.0 0.0000980 9076.48340 10291.85352
10358.0 0.0000965 9075.23340 10246.94824
9824.0 0.0001018 9073.98145 10220.71094
9898.0 0.0001010 9072.73047 10211.93262
9836.0 0.0001017 9071.48047 10214.90430
9812.0 0.0001019 9070.22949 10220.66309
9510.0 0.0001052 9068.97852 10218.75977
9680.0 0.0001033 9067.72852 10199.57910
9714.0 0.0001029 9066.47656 10155.94434
9494.0 0.0001053 9065.22656 10087.13379
9592.0 0.0001043 9063.97559 9995.37891
9636.0 0.0001038 9062.72461 9887.15625
9524.0 0.0001050 9061.47363 9771.04980
9170.0 0.0001091 9060.22363 9655.97852
9438.0 0.0001060 9058.97266 9549.86035
9284.0 0.0001077 9057.72168 9459.20020
9408.0 0.0001063 9056.47070 9390.97559
9554.0 0.0001047 9055.21973 9341.68848
9288.0 0.0001077 9053.96973 9323.06348
9464.0 0.0001057 9052.71875 9318.45020
9274.0 0.0001078 9051.46777 9330.56543
9130.0 0.0001095 9050.21680 9358.13379
9470.0 0.0001056 9048.96680 9397.66504
9418.0 0.0001062 9047.71582 9445.25488
9538.0 0.0001048 9046.46484 9496.71680
9580.0 0.0001044 9045.21387 9547.68066
9806.0 0.0001020 9043.96387 9594.02051
9856.0 0.0001015 9042.71289 9632.31934
9522.0 0.0001050 9041.46191 9660.18652
9808.0 0.0001020 9040.21094 9676.85547
9744.0 0.0001026 9038.95996 9683.43066
10052.0 0.0000995 9037.70996 9683.18652
9932.0 0.0001007 9036.45898 9681.41797
9778.0 0.0001023 9035.20801 9684.67383
9742.0 0.0001026 9033.95703 9699.51465
10064.0 0.0000994 9032.70703 9731.18848
10144.0 0.0000986 9031.45508 9782.62402
9958.0 0.0001004 9030.20508 9853.68262
10082.0 0.0000992 9028.95508 9941.10449
10414.0 0.0000960 9027.70313 10039.09473
10112.0 0.0000989 9026.45215 10139.97363
10436.0 0.0000958 9025.20215 10236.23242
10528.0 0.0000950 9023.95117 10322.04297
10380.0 0.0000963 9022.70020 10394.85449
10812.0 0.0000925 9021.45020 10456.55176
10978.0 0.0000911 9020.19824 10513.51074
10704.0 0.0000934 9018.94824 10575.47754
10616.0 0.0000942 9017.69727 10654.21875
10984.0 0.0000910 9016.44629 10761.50098
10876.0 0.0000919 9015.19531 10907.21484
10772.0 0.0000928 9013.94531 11097.27051
11022.0 0.0000907 9012.69531 11332.11719
11220.0 0.0000891 9011.44336 11607.46094
11714.0 0.0000854 9010.19238 11906.32422
11962.0 0.0000836 9008.94238 12210.14453
12052.0 0.0000830 9007.69141 12493.71680
12504.0 0.0000800 9006.44043 12730.38965
12636.0 0.0000791 9005.19043 12897.97754
12686.0 0.0000788 9003.93848 12980.82422
13010.0 0.0000769 9002.68848 12983.06836
13276.0 0.0000753 9001.43750 12907.87012
12770.0 0.0000783 9000.18652 12769.01953
12530.0 0.0000798 8998.93555 12590.90234
12574.0 0.0000795 8997.68555 12403.00488
12212.0 0.0000819 8996.43457 12238.96973
12138.0 0.0000824 8995.18359 12130.32715
12084.0 0.0000828 8993.93262 12105.54883
11908.0 0.0000840 8992.68164 12183.44434
11864.0 0.0000843 8991.43164 12369.06055
12458.0 0.0000803 8990.18066 12653.86328
12624.0 0.0000792 8988.92969 13014.58594
12568.0 0.0000796 8987.67871 13413.60547
13016.0 0.0000768 8986.42871 13803.95801
13158.0 0.0000760 8985.17773 14133.56934
13188.0 0.0000758 8983.92676 14352.73730
13460.0 0.0000743 8982.67578 14423.00781
13774.0 0.0000726 8981.42578 14326.53613
13764.0 0.0000727 8980.17480 14069.82129
13712.0 0.0000729 8978.92383 13681.83496
13050.0 0.0000766 8977.67285 13204.73633
12560.0 0.0000796 8976.42188 12685.23730
11900.0 0.0000840 8975.17188 12168.18945
11114.0 0.0000900 8973.92090 11691.18555
10962.0 0.0000912 8972.66992 11281.43555
10512.0 0.0000951 8971.41895 10957.45020
10634.0 0.0000940 8970.16895 10725.60840
10452.0 0.0000957 8968.91797 10583.78223
10286.0 0.0000972 8967.66699 10521.79980
10542.0 0.0000949 8966.41699 10527.61621
10328.0 0.0000968 8965.16504 10583.92188
10458.0 0.0000956 8963.91504 10670.08984
10454.0 0.0000957 8962.66406 10769.41992
10966.0 0.0000912 8961.41309 10866.58789
10862.0 0.0000921 8960.16211 10949.33008
11232.0 0.0000890 8958.91211 11008.33301
10832.0 0.0000923 8957.66113 11036.15234
10994.0 0.0000910 8956.41016 11027.82910
11066.0 0.0000904 8955.15918 10981.64941
10878.0 0.0000919 8953.90918 10900.37598
10796.0 0.0000926 8952.65820 10791.73535
10860.0 0.0000921 8951.40723 10667.58496
10726.0 0.0000932 8950.15723 10541.58789
10738.0 0.0000931 8948.90527 10426.69629
10284.0 0.0000972 8947.65527 10333.59082
10128.0 0.0000987 8946.40430 10268.72070
9966.0 0.0001003 8945.15332 10233.99316
9974.0 0.0001003 8943.90234 10226.85449
9888.0 0.0001011 8942.65234 10241.06250
10142.0 0.0000986 8941.40137 10268.18359
10038.0 0.0000996 8940.15039 10301.10547
10044.0 0.0000996 8938.89941 10328.41895
10406.0 0.0000961 8937.64844 10346.50977
10502.0 0.0000952 8936.39844 10352.53027
10364.0 0.0000965 8935.14746 10347.19922
10474.0 0.0000955 8933.89648 10328.14355
10436.0 0.0000958 8932.64551 10297.72754
10508.0 0.0000952 8931.39551 10259.85547
10522.0 0.0000950 8930.14453 10209.94922
10474.0 0.0000955 8928.89355 10153.12988
10388.0 0.0000963 8927.64355 10092.84277
10284.0 0.0000972 8926.39160 10034.97168
10180.0 0.0000982 8925.14160 9984.88867
10294.0 0.0000971 8923.89063 9947.49316
10082.0 0.0000992 8922.63965 9926.07031
10284.0 0.0000972 8921.38867 9921.70703
9882.0 0.0001012 8920.13867 9933.06543
9998.0 0.0001000 8918.88770 9956.33301
10042.0 0.0000996 8917.63672 9985.54297
10120.0 0.0000988 8916.38574 10006.43750
10234.0 0.0000977 8915.13574 10024.31055
10254.0 0.0000975 8913.88379 10025.41992
10402.0 0.0000961 8912.63379 10005.81055
10134.0 0.0000987 8911.38281 9957.58496
9988.0 0.0001001 8910.13184 9901.16699
10026.0 0.0000997 8908.88086 9834.94238
10190.0 0.0000981 8907.55762 9766.74512
9980.0 0.0001002 8906.09180 9704.63770
10080.0 0.0000992 8904.62695 9656.35449
9666.0 0.0001035 8903.16309 9628.16699
10010.0 0.0000999 8901.69824 9624.52930
9742.0 0.0001026 8900.23340 9647.74902
9920.0 0.0001008 8898.76855 9697.77832
9964.0 0.0001004 8897.30371 9772.30176
10350.0 0.0000966 8895.83887 9867.53125
10284.0 0.0000972 8894.37500 9975.74902
10502.0 0.0000952 8892.90918 10090.19336
10260.0 0.0000975 8891.44531 10202.45703
10468.0 0.0000955 8889.98047 10304.69922
10760.0 0.0000929 8888.51563 10390.06836
10648.0 0.0000939 8887.05078 10453.16016
10614.0 0.0000942 8885.58594 10489.58789
10382.0 0.0000963 8884.12207 10495.82227
10578.0 0.0000945 8882.65625 10469.21387
10256.0 0.0000975 8881.19141 10408.81152
10200.0 0.0000980 8879.72754 10316.22070
9898.0 0.0001010 8878.26172 10196.09277
9850.0 0.0001015 8876.79785 10055.94531
9696.0 0.0001031 8875.33301 9905.18555
9778.0 0.0001023 8873.86719 9751.17090
9688.0 0.0001032 8872.40234 9602.82520
9382.0 0.0001066 8870.93848 9466.42676
9376.0 0.0001067 8869.47363 9346.37012
9336.0 0.0001071 8868.00879 9242.59863
9176.0 0.0001090 8866.54492 9163.36133
9070.0 0.0001103 8865.07910 9100.40332
9044.0 0.0001106 8863.61426 9054.51367
9098.0 0.0001099 8862.14941 9025.97949
9072.0 0.0001102 8860.68457 9008.34082
9150.0 0.0001093 8859.22070 9002.60742
9124.0 0.0001096 8857.75586 9008.38086
9256.0 0.0001080 8856.29102 9026.34668
9282.0 0.0001077 8854.82617 9058.67090
9192.0 0.0001088 8853.36133 9107.43555
9238.0 0.0001082 8851.89648 9176.68848
9150.0 0.0001093 8850.43164 9270.57910
9258.0 0.0001080 8848.96680 9393.03320
9658.0 0.0001035 8847.50293 9547.15137
9574.0 0.0001044 8846.03711 9734.59570
9780.0 0.0001022 8844.57324 9953.98145
9896.0 0.0001011 8843.10840 10204.78809
10046.0 0.0000995 8841.64258 10471.44922
10502.0 0.0000952 8840.17773 10745.33496
10420.0 0.0000960 8838.71387 11010.86328
10666.0 0.0000938 8837.24902 11249.42480
11524.0 0.0000868 8835.78418 11441.43164
11324.0 0.0000883 8834.31934 11569.29980
11364.0 0.0000880 8832.85449 11619.94922
11544.0 0.0000866 8831.38965 11587.62988
11488.0 0.0000870 8829.92578 11475.62109
11394.0 0.0000878 8828.45996 11295.37402
11196.0 0.0000893 8826.99609 11064.71777
10968.0 0.0000912 8825.53125 10803.52148
10982.0 0.0000911 8824.06641 10530.97754
10356.0 0.0000966 8822.60156 10263.85352
9964.0 0.0001004 8821.13770 10015.08887
9560.0 0.0001046 8819.67090 9793.32129
9768.0 0.0001024 8818.20703 9603.93457
9604.0 0.0001041 8816.74219 9448.41699
9484.0 0.0001054 8815.27832 9325.82031
9188.0 0.0001088 8813.81250 9233.27051
9484.0 0.0001054 8812.34863 9167.36328
9238.0 0.0001082 8810.88379 9124.59668
9432.0 0.0001060 8809.41797 9099.87598
9386.0 0.0001065 8807.95313 9095.95703
9388.0 0.0001065 8806.48926 9109.83789
9328.0 0.0001072 8805.02441 9141.90234
9358.0 0.0001069 8803.55957 9191.97363
9498.0 0.0001053 8802.09570 9264.69727
9234.0 0.0001083 8800.62988 9359.45801
9516.0 0.0001051 8799.16504 9480.93750
9580.0 0.0001044 8797.70020 9629.41504
9786.0 0.0001022 8796.23535 9805.67676
10038.0 0.0000996 8794.77148 10009.00879
10048.0 0.0000995 8793.30664 10237.03027
10622.0 0.0000941 8791.84180 10485.65234
10718.0 0.0000933 8790.37695 10748.06348
10938.0 0.0000914 8788.91211 11015.84277
11278.0 0.0000887 8787.44629 11278.22168
11344.0 0.0000882 8785.98242 11521.88867
11566.0 0.0000865 8784.51758 11731.99023
11674.0 0.0000857 8783.05273 11893.71777
12134.0 0.0000824 8781.58789 11994.08496
12168.0 0.0000822 8780.12402 12025.43359
12056.0 0.0000829 8778.65918 11986.70703
12250.0 0.0000816 8777.19336 11883.73145
11938.0 0.0000838 8775.72852 11728.01855
11708.0 0.0000854 8774.26465 11534.19922
11544.0 0.0000866 8772.79980 11317.14453
10660.0 0.0000938 8771.33496 11090.89063
10710.0 0.0000934 8769.87012 10866.57031
9986.0 0.0001001 8768.40527 10652.76563
10480.0 0.0000954 8766.94043 10455.82910
10112.0 0.0000989 8765.47656 10279.65234
10126.0 0.0000988 8764.01074 10125.56152
9836.0 0.0001017 8762.54688 9992.93164
9744.0 0.0001026 8761.08203 9878.74512
9450.0 0.0001058 8759.61719 9778.71973
9400.0 0.0001064 8758.15234 9688.30078
9312.0 0.0001074 8756.68848 9603.56641
9394.0 0.0001065 8755.22266 9522.01270
9308.0 0.0001074 8753.75781 9443.12402
9330.0 0.0001072 8752.29297 9367.62109
9402.0 0.0001064 8750.82813 9297.05762
9238.0 0.0001082 8749.36426 9233.32227
9188.0 0.0001088 8747.89941 9178.18848
8852.0 0.0001130 8746.43359 9133.24121
8894.0 0.0001124 8744.96875 9099.50391
8998.0 0.0001111 8743.50488 9077.90820
8978.0 0.0001114 8742.04004 9069.02637
9158.0 0.0001092 8740.57520 9073.31445
9248.0 0.0001081 8739.11035 9091.27930
9088.0 0.0001100 8737.64648 9123.61230
8982.0 0.0001113 8736.18066 9171.40039
9354.0 0.0001069 8734.71582 9236.01270
9074.0 0.0001102 8733.25098 9319.25781
9394.0 0.0001065 8731.78613 9423.10059
9334.0 0.0001071 8730.32227 9547.68066
9648.0 0.0001036 8728.85742 9696.67383
9718.0 0.0001029 8727.39258 9865.04980
9760.0 0.0001025 8725.92773 10056.28613
9950.0 0.0001005 8724.46289 10260.28613
10146.0 0.0000986 8722.99805 10469.38867
10502.0 0.0000952 8721.53320 10672.14355
10754.0 0.0000930 8720.06934 10854.74023
10908.0 0.0000917 8718.60352 11001.96191
10980.0 0.0000911 8717.13965 11098.44824
10954.0 0.0000913 8715.67480 11132.46680
10884.0 0.0000919 8714.20898 11099.62988
11018.0 0.0000908 8712.74414 11001.05762
11164.0 0.0000896 8711.28027 10847.91992
10824.0 0.0000924 8709.81543 10654.50293
10964.0 0.0000912 8708.35059 10436.73047
10318.0 0.0000969 8706.88574 10209.08203
9806.0 0.0001020 8705.42188 9983.97949
9564.0 0.0001046 8703.95605 9771.12695
9452.0 0.0001058 8702.49121 9577.63379
9344.0 0.0001070 8701.02734 9407.75684
9378.0 0.0001066 8699.56152 9263.12891
9266.0 0.0001079 8698.09668 9143.76660
9148.0 0.0001093 8696.63281 9047.81836
8846.0 0.0001130 8695.16797 8972.51270
9050.0 0.0001105 8693.70313 8914.64844
9030.0 0.0001107 8692.23926 8870.87500
8900.0 0.0001124 8690.77344 8839.98926
8906.0 0.0001123 8689.30859 8815.46973
8964.0 0.0001116 8687.07031 8796.20410
8722.0 0.0001147 8684.70215 8781.10254
8782.0 0.0001139 8682.33594 8769.03613
8776.0 0.0001139 8679.96875 8759.08789
8674.0 0.0001153 8677.59961 8750.64063
8700.0 0.0001149 8675.23242 8743.29199
8766.0 0.0001141 8672.86621 8736.77637
9014.0 0.0001109 8670.49805 8731.20215
8892.0 0.0001125 8668.13086 8725.93848
8818.0 0.0001134 8665.76465 8723.47949
8992.0 0.0001112 8663.39551 8719.32715
8910.0 0.0001122 8661.02832 8715.74023
8720.0 0.0001147 8658.66113 8712.80371
8728.0 0.0001146 8656.29395 8710.68750
8850.0 0.0001130 8653.92676 8709.64746
9060.0 0.0001104 8651.55957 8710.07910
9132.0 0.0001095 8649.19336 8712.51172
8916.0 0.0001122 8646.82422 8717.67285
8748.0 0.0001143 8644.45703 8726.43945
8792.0 0.0001137 8642.08984 8739.84277
8934.0 0.0001119 8639.72266 8759.00977
9014.0 0.0001109 8637.35547 8785.01953
8848.0 0.0001130 8634.98926 8818.80176
9024.0 0.0001108 8632.61914 8861.02148
9278.0 0.0001078 8630.25293 8911.72754
9006.0 0.0001110 8627.88574 8970.41602
9048.0 0.0001105 8625.51758 9035.83105
9146.0 0.0001093 8623.15039 9105.88086
9336.0 0.0001071 8620.78418 9177.77051
9150.0 0.0001093 8618.41602 9248.17871
9222.0 0.0001084 8616.04785 9313.24316
9320.0 0.0001073 8613.68066 9369.31934
9248.0 0.0001081 8611.31348 9410.21094
9488.0 0.0001054 8608.94629 9440.39941
9320.0 0.0001073 8606.58008 9456.07617
9382.0 0.0001066 8604.21191 9457.71777
9412.0 0.0001062 8601.84473 9445.93359
9034.0 0.0001107 8599.47656 9422.62598
9264.0 0.0001079 8597.10938 9386.54102
9140.0 0.0001094 8594.74219 9339.45703
9260.0 0.0001080 8592.37500 9282.77051
9188.0 0.0001088 8590.00879 9218.64160
8966.0 0.0001115 8587.64063 9149.79102
8732.0 0.0001145 8585.27246 9079.38379
9032.0 0.0001107 8582.90527 9010.25293
8948.0 0.0001118 8580.53809 8944.83691
8704.0 0.0001149 8578.17090 8885.09082
9062.0 0.0001104 8575.80371 8832.37793
8486.0 0.0001178 8573.43555 8787.49902
8862.0 0.0001128 8571.06934 8750.94238
8840.0 0.0001131 8568.70117 8722.79004
8562.0 0.0001168 8566.33301 8702.98730
8850.0 0.0001130 8563.96582 8691.51465
9002.0 0.0001111 8561.59961 8688.52441
8782.0 0.0001139 8559.23145 8694.50488
8676.0 0.0001153 8556.86426 8710.37988
8868.0 0.0001128 8554.49609 8737.53320
8768.0 0.0001141 8552.12891 8777.76660
9010.0 0.0001110 8549.76172 8833.10645
9316.0 0.0001073 8547.39551 8905.57520
9094.0 0.0001100 8545.02734 8997.00098
9108.0 0.0001098 8542.66016 9108.23535
9274.0 0.0001078 8540.29297 9239.18652
8984.0 0.0001113 8537.92480 9389.26563
9796.0 0.0001021 8535.55762 9553.06250
9724.0 0.0001028 8533.19043 9726.25684
10096.0 0.0000990 8530.82422 9901.88379
10118.0 0.0000988 8528.45605 10071.88867
9998.0 0.0001000 8526.08887 10223.34766
10360.0 0.0000965 8523.72168 10356.50098
10518.0 0.0000951 8521.35254 10461.86914
10374.0 0.0000964 8518.98633 10537.42480
10406.0 0.0000961 8516.61914 10584.71094
10508.0 0.0000952 8514.25098 10607.73926
10588.0 0.0000944 8511.88379 10611.26953
10590.0 0.0000944 8509.51758 10599.45020
10330.0 0.0000968 8507.14844 10574.64844
10296.0 0.0000971 8504.78125 10537.11035
10446.0 0.0000957 8502.41504 10484.60156
10122.0 0.0000988 8500.04688 10413.75293
10044.0 0.0000996 8497.67969 10321.47461
9958.0 0.0001004 8495.31250 10206.48242
9978.0 0.0001002 8492.94434 10070.46777
9822.0 0.0001018 8490.57715 9919.36035
9944.0 0.0001006 8488.21094 9756.96680
9708.0 0.0001030 8485.84277 9591.12012
9520.0 0.0001050 8483.47559 9428.49023
9266.0 0.0001079 8481.10840 9274.49414
8966.0 0.0001115 8478.74121 9133.48438
9148.0 0.0001093 8476.37305 9008.49414
8848.0 0.0001130 8474.00586 8901.35938
8976.0 0.0001114 8471.63965 8812.62207
8704.0 0.0001149 8469.27051 8741.72754
8858.0 0.0001129 8466.90430 8687.59570
8960.0 0.0001116 8464.53711 8650.78516
8758.0 0.0001142 8462.16797 8624.77148
8756.0 0.0001142 8459.80078 8609.74121
8408.0 0.0001189 8457.43457 8603.58301
8708.0 0.0001148 8455.06641 8604.20703
8470.0 0.0001181 8452.69922 8611.74219
8386.0 0.0001192 8450.33203 8619.80176
8568.0 0.0001167 8447.96484 8628.53906
8924.0 0.0001121 8445.59668 8636.12793
8460.0 0.0001182 8443.23047 8639.64746
8494.0 0.0001177 8440.86230 8640.79102
8664.0 0.0001154 8438.49512 8637.50098
8678.0 0.0001152 8436.12793 8629.72949
8604.0 0.0001162 8433.76074 8617.96875
8844.0 0.0001131 8431.39258 8603.16602
8646.0 0.0001157 8429.02637 8586.56738
8402.0 0.0001190 8426.65723 8569.50781
8812.0 0.0001135 8424.29102 8553.29492
8474.0 0.0001180 8421.92383 8538.98242
8864.0 0.0001128 8419.55664 8527.32227
8564.0 0.0001168 8417.18750 8518.71680
8496.0 0.0001177 8414.82129 8513.26953
8460.0 0.0001182 8412.45410 8510.80469
8752.0 0.0001143 8410.08594 8511.00098
8580.0 0.0001166 8407.71875 8513.45410
8158.0 0.0001226 8405.35254 8517.77051
8560.0 0.0001168 8402.98438 8523.63770
8692.0 0.0001150 8400.61621 8530.88477
8480.0 0.0001179 8398.25000 8539.95117
8574.0 0.0001166 8395.88184 8550.27832
8614.0 0.0001161 8393.51465 8562.64941
8796.0 0.0001137 8391.14746 8578.65039
8856.0 0.0001129 8388.78027 8596.30566
8784.0 0.0001138 8386.41309 8616.76074
8912.0 0.0001122 8384.04688 8639.69238
8742.0 0.0001144 8381.67773 8664.40039
8716.0 0.0001147 8379.31055 8689.77148
8782.0 0.0001139 8376.94336 8714.44727
8582.0 0.0001165 8374.57617 8736.93457
8764.0 0.0001141 8372.20898 8755.83496
8878.0 0.0001126 8369.84180 8770.21484
8852.0 0.0001130 8367.47266 8780.01465
8796.0 0.0001137 8365.10645 8786.30762
9058.0 0.0001104 8362.73926 8791.40234
8768.0 0.0001141 8360.37207 8798.58203
9046.0 0.0001105 8358.00391 8811.75000
8870.0 0.0001127 8355.63770 8835.08691
8980.0 0.0001114 8353.26953 8870.82422
8966.0 0.0001115 8350.90137 8926.88281
8702.0 0.0001149 8348.53418 9004.60645
8834.0 0.0001132 8346.16797 9106.61719
9186.0 0.0001089 8343.79980 9234.42480
9162.0 0.0001091 8341.43262 9387.95605
9304.0 0.0001075 8339.06641 9565.80273
9372.0 0.0001067 8336.69727 9763.80957
9680.0 0.0001033 8334.50000 9978.19238
10338.0 0.0000967 8332.58789 10198.80176
10476.0 0.0000955 8330.67578 10419.23926
10694.0 0.0000935 8328.76465 10627.99219
10728.0 0.0000932 8326.85352 10820.64746
11032.0 0.0000906 8324.94043 10986.72754
10768.0 0.0000929 8323.02930 11119.14355
10862.0 0.0000921 8321.11719 11213.79590
11288.0 0.0000886 8319.20410 11269.83691
11390.0 0.0000878 8317.29395 11289.75977
11300.0 0.0000885 8315.38184 11278.63965
11096.0 0.0000901 8313.46875 11243.13086
11352.0 0.0000881 8311.55762 11187.01563
10938.0 0.0000914 8309.64648 11114.00000
10380.0 0.0000963 8307.73438 11024.46973
10440.0 0.0000958 8305.82227 10916.49121
10466.0 0.0000955 8303.91016 10787.20215
10282.0 0.0000973 8301.99902 10634.49219
9832.0 0.0001017 8300.08691 10460.78125
10096.0 0.0000990 8298.17480 10265.25098
9818.0 0.0001019 8296.26270 10056.03809
9992.0 0.0001001 8294.35156 9840.42676
9320.0 0.0001073 8292.43945 9625.74414
9254.0 0.0001081 8290.52832 9419.73828
9070.0 0.0001103 8288.61621 9227.72754
8774.0 0.0001140 8286.70410 9056.83691
9114.0 0.0001097 8284.79199 8905.19922
8704.0 0.0001149 8282.88086 8776.25879
8732.0 0.0001145 8280.96875 8669.82813
8500.0 0.0001176 8279.05762 8584.42969
8570.0 0.0001167 8277.14453 8517.70410
8528.0 0.0001173 8275.23340 8467.20801
8520.0 0.0001174 8273.32129 8429.86230
8464.0 0.0001181 8271.40918 8403.22656
8652.0 0.0001156 8269.49707 8386.14844
8480.0 0.0001179 8267.58594 8374.98145
8758.0 0.0001142 8265.67383 8369.16504
8452.0 0.0001183 8263.76172 8367.92969
8506.0 0.0001176 8261.84961 8370.66699
8572.0 0.0001167 8259.93945 8376.97949
8440.0 0.0001185 8258.02637 8386.57520
8564.0 0.0001168 8256.11426 8399.21289
8640.0 0.0001157 8254.20410 8414.68945
8834.0 0.0001132 8252.29102 8432.87207
8654.0 0.0001156 8250.37891 8453.67871
8788.0 0.0001138 8248.46777 8477.82715
8730.0 0.0001145 8246.55566 8504.29980
8764.0 0.0001141 8244.64355 8534.03711
8972.0 0.0001115 8242.73340 8567.44434
8802.0 0.0001136 8240.82031 8604.99609
8954.0 0.0001117 8238.90820 8647.06934
9174.0 0.0001090 8236.99707 8695.07520
8950.0 0.0001117 8235.08398 8747.48926
9040.0 0.0001106 8233.17285 8805.52930
9068.0 0.0001103 8231.26172 8869.48242
9160.0 0.0001092 8229.34863 8939.83496
9164.0 0.0001091 8227.43750 9017.08594
9494.0 0.0001053 8225.52637 9102.10254
9426.0 0.0001061 8223.61328 9195.74316
9584.0 0.0001043 8221.70215 9298.38965
9736.0 0.0001027 8219.79102 9411.52930
9596.0 0.0001042 8217.87793 9529.94727
9972.0 0.0001003 8215.96680 9651.58203
10026.0 0.0000997 8214.05469 9774.21289
10042.0 0.0000996 8212.14258 9892.65332
9958.0 0.0001004 8210.23145 10002.61035
10240.0 0.0000977 8208.31934 10100.15039
9892.0 0.0001011 8206.40820 10181.41113
9904.0 0.0001010 8204.49609 10243.41602
9960.0 0.0001004 8202.58398 10283.67285
10182.0 0.0000982 8200.67188 10301.33301
10062.0 0.0000994 8198.76074 10297.68164
9844.0 0.0001016 8196.84863 10276.56445
9900.0 0.0001010 8194.93750 10244.07910
9684.0 0.0001033 8193.02539 10207.40234
9828.0 0.0001018 8191.11328 10173.44336
9758.0 0.0001025 8189.20166 10147.29297
9922.0 0.0001008 8187.28857 10131.37012
9574.0 0.0001044 8185.37793 10125.01367
9644.0 0.0001037 8183.46631 10124.52734
10014.0 0.0000999 8181.55322 10123.78125
9926.0 0.0001007 8179.64160 10115.28613
9844.0 0.0001016 8177.73096 10091.79590
9932.0 0.0001007 8175.81787 10047.90918
10040.0 0.0000996 8173.90625 9981.19141
10010.0 0.0000999 8171.99561 9892.28906
9872.0 0.0001013 8170.08252 9784.30469
9692.0 0.0001032 8168.17090 9662.54297
9474.0 0.0001056 8166.25928 9527.96680
9376.0 0.0001067 8164.34717 9398.95215
9340.0 0.0001071 8162.43555 9277.58008
8954.0 0.0001117 8160.52393 9171.47070
8940.0 0.0001119 8158.61279 9087.42285
9184.0 0.0001089 8156.70020 9030.80859
8910.0 0.0001122 8154.78857 9005.39746
9066.0 0.0001103 8152.87646 9012.73145
9078.0 0.0001102 8150.96484 9052.23828
9084.0 0.0001101 8149.05322 9121.17578
9224.0 0.0001084 8147.14209 9214.84668
9600.0 0.0001042 8145.22852 9327.01465
9364.0 0.0001068 8143.31787 9449.79492
9706.0 0.0001030 8141.40576 9574.54395
9566.0 0.0001045 8139.49316 9692.12207
9956.0 0.0001004 8137.58154 9793.54492
9844.0 0.0001016 8135.67041 9871.31641
10196.0 0.0000981 8133.75781 9920.82324
9988.0 0.0001001 8131.84619 9941.32324
10236.0 0.0000977 8129.93457 9936.50684
9992.0 0.0001001 8128.02246 9913.38770
9646.0 0.0001037 8126.11084 9880.71094
10224.0 0.0000978 8124.20020 9847.24316
10068.0 0.0000993 8122.28711 9820.47852
9760.0 0.0001025 8120.37549 9805.99512
9896.0 0.0001011 8118.46387 9806.86523
9848.0 0.0001015 8116.55176 9823.63281
9974.0 0.0001003 8114.64014 9857.37012
9858.0 0.0001014 8112.72852 9898.55566
10194.0 0.0000981 8110.81738 9945.09766
9906.0 0.0001009 8108.90479 9991.27441
10108.0 0.0000989 8106.99316 10031.44141
9972.0 0.0001003 8105.08105 10060.45605
10000.0 0.0001000 8103.16846 10074.33203
10052.0 0.0000995 8101.25781 10071.05273
10100.0 0.0000990 8099.34570 10051.02246
9766.0 0.0001024 8097.43311 10016.74902
9858.0 0.0001014 8095.52148 9971.97461
9590.0 0.0001043 8093.61035 9920.34961
9684.0 0.0001033 8091.69775 9864.48926
9496.0 0.0001053 8089.78613 9805.50586
9526.0 0.0001050 8087.87500 9742.70996
9590.0 0.0001043 8085.96240 9674.30762
9548.0 0.0001047 8084.05078 9597.67383
9474.0 0.0001056 8082.13916 9510.58887
9306.0 0.0001075 8080.22705 9412.27539
9322.0 0.0001073 8078.31543 9304.00781
9374.0 0.0001067 8076.40430 9188.74707
9198.0 0.0001087 8074.49170 9070.37305
9060.0 0.0001104 8072.58008 8953.49023
8682.0 0.0001152 8070.66846 8842.37402
8630.0 0.0001159 8068.75635 8741.02148
8606.0 0.0001162 8066.84473 8652.89941
8422.0 0.0001187 8064.93311 8580.19922
8666.0 0.0001154 8063.02197 8526.26953
8750.0 0.0001143 8061.10840 8491.56250
8524.0 0.0001173 8059.19775 8476.23145
8374.0 0.0001194 8057.28564 8479.25000
8372.0 0.0001194 8055.37305 8498.50488
8550.0 0.0001170 8053.46143 8530.79492
8492.0 0.0001178 8051.55029 8572.01660
8806.0 0.0001136 8049.63770 8617.50781
8632.0 0.0001158 8049.13379 8663.65723
8592.0 0.0001164 8048.81104 8701.72266
8708.0 0.0001148 8048.48828 8733.37988
8786.0 0.0001138 8048.16553 8753.03223
8928.0 0.0001120 8047.84326 8759.32813
8712.0 0.0001148 8047.52002 8753.28516
8814.0 0.0001135 8047.19727 8736.49023
8758.0 0.0001142 8046.87451 8711.73340
8770.0 0.0001140 8046.55176 8682.09863
8712.0 0.0001148 8046.22900 8650.45996
8578.0 0.0001166 8045.90625 8618.99512
8502.0 0.0001176 8045.58350 8588.69922
8768.0 0.0001141 8045.26074 8561.14063
8632.0 0.0001158 8044.93799 8534.48633
8594.0 0.0001164 8044.61523 8508.80664
8526.0 0.0001173 8044.29248 8483.50586
8534.0 0.0001172 8043.96973 8458.27637
8432.0 0.0001186 8043.64697 8433.24512
8408.0 0.0001189 8043.32422 8409.10742
8306.0 0.0001204 8043.00146 8387.21680
8438.0 0.0001185 8042.67871 8369.26855
8350.0 0.0001198 8042.35547 8357.06836
8276.0 0.0001208 8042.03271 8352.17578
8412.0 0.0001189 8041.71045 8355.65137
8306.0 0.0001204 8041.38721 8367.94922
8634.0 0.0001158 8041.06445 8388.85938
8326.0 0.0001201 8040.74170 8417.65137
8622.0 0.0001160 8040.41895 8453.18359
8490.0 0.0001178 8040.09619 8493.97656
8642.0 0.0001157 8039.77393 8538.37500
8562.0 0.0001168 8039.45068 8584.63965
8522.0 0.0001173 8039.12793 8631.57520
8614.0 0.0001161 8038.80518 8675.86133
8820.0 0.0001134 8038.48242 8716.37207
8606.0 0.0001162 8038.15967 8751.37500
9088.0 0.0001100 8037.83691 8779.41504
9018.0 0.0001109 8037.51416 8799.73438
9042.0 0.0001106 8037.19141 8812.50586
8762.0 0.0001141 8036.86865 8819.25000
8952.0 0.0001117 8036.54590 8822.79297
9026.0 0.0001108 8036.22314 8826.88867
9166.0 0.0001091 8035.90039 8835.62793
9042.0 0.0001106 8035.57764 8849.85156
9100.0 0.0001099 8035.25488 8878.43848
8734.0 0.0001145 8034.93213 8920.00098
8888.0 0.0001125 8034.60938 8974.64258
8902.0 0.0001123 8034.28613 9040.78613
9404.0 0.0001063 8033.96338 9115.08008
9158.0 0.0001092 8033.64111 9192.65430
9126.0 0.0001096 8033.31787 9267.44922
9352.0 0.0001069 8032.99512 9332.37598
9698.0 0.0001031 8032.67236 9380.46973
9454.0 0.0001058 8032.34961 9405.75879
9726.0 0.0001028 8032.02686 9404.54785
9484.0 0.0001054 8031.70459 9376.39941
9636.0 0.0001038 8031.38135 9324.12109
9490.0 0.0001054 8031.05859 9254.65137
9114.0 0.0001097 8030.73584 9171.98242
9290.0 0.0001076 8030.41309 9080.60352
8812.0 0.0001135 8030.09033 8995.04199
8878.0 0.0001126 8029.76758 8917.67578
8642.0 0.0001157 8029.44482 8850.45410
8764.0 0.0001141 8029.12207 8797.32129
8720.0 0.0001147 8028.79932 8758.25195
8952.0 0.0001117 8028.47656 8732.98438
8658.0 0.0001155 8028.15381 8719.59668
8638.0 0.0001158 8027.83105 8715.23242
8652.0 0.0001156 8027.50830 8716.51465
8414.0 0.0001188 8027.18555 8720.02539
8518.0 0.0001174 8026.86279 8722.78125
8468.0 0.0001181 8026.54004 8722.63672
8744.0 0.0001144 8026.21729 8718.42676
8572.0 0.0001167 8025.89453 8709.82324
8598.0 0.0001163 8025.57178 8697.04492
8164.0 0.0001225 8025.24854 8680.48047
8528.0 0.0001173 8024.92578 8660.49707
8620.0 0.0001160 8024.60303 8637.25195
8250.0 0.0001212 8024.28027 8610.74805
8334.0 0.0001200 8023.95752 8581.06348
8306.0 0.0001204 8023.63525 8550.94922
8228.0 0.0001215 8023.31201 8516.60156
8250.0 0.0001212 8022.98926 8481.88574
8310.0 0.0001203 8022.66650 8448.67773
8204.0 0.0001219 8022.34375 8419.07031
8562.0 0.0001168 8022.02100 8395.15723
8212.0 0.0001218 8021.69824 8378.82617
8140.0 0.0001229 8021.37549 8371.64160
8292.0 0.0001206 8021.05273 8374.73730
8122.0 0.0001231 8020.72998 8389.11816
8074.0 0.0001239 8020.40723 8413.63086
8394.0 0.0001191 8020.08447 8447.62891
8510.0 0.0001175 8019.76172 8489.61133
8200.0 0.0001220 8019.43896 8536.97949
8510.0 0.0001175 8019.11621 8586.80957
8416.0 0.0001188 8018.79346 8635.75879
8562.0 0.0001168 8018.47070 8680.59668
8774.0 0.0001140 8018.14795 8718.38672
8612.0 0.0001161 8017.82520 8746.73047
8788.0 0.0001138 8017.50244 8763.99902
8910.0 0.0001122 8017.17920 8769.31055
8778.0 0.0001139 8016.85645 8763.34473
8488.0 0.0001178 8016.53369 8744.58203
8394.0 0.0001191 8016.21094 8714.66406
8536.0 0.0001172 8015.88818 8674.89453
8602.0 0.0001163 8015.56543 8627.13281
8410.0 0.0001189 8015.24268 8573.63184
8476.0 0.0001180 8014.91992 8517.02832
8520.0 0.0001174 8014.59717 8459.80176
8226.0 0.0001216 8014.27441 8403.21094
8426.0 0.0001187 8013.95166 8351.00781
8234.0 0.0001214 8013.62891 8303.64844
8408.0 0.0001189 8013.30615 8262.15430
8466.0 0.0001181 8012.98340 8227.41113
8030.0 0.0001245 8012.66064 8200.02637
8260.0 0.0001211 8012.33789 8180.54785
8224.0 0.0001216 8012.01514 8169.53271
8128.0 0.0001230 8011.69238 8167.63135
8388.0 0.0001192 8011.36963 8175.62646
8304.0 0.0001204 8011.04688 8194.50000
8266.0 0.0001210 8010.72412 8225.99805
8386.0 0.0001192 8010.40137 8270.78223
8698.0 0.0001150 8010.07861 8329.02930
8628.0 0.0001159 8009.75586 8402.22168
8518.0 0.0001174 8009.43311 8490.52539
8748.0 0.0001143 8009.11035 8593.40625
8962.0 0.0001116 8008.78760 8708.98438
9014.0 0.0001109 8008.46436 8834.36133
9196.0 0.0001087 8008.14160 8965.67871
9338.0 0.0001071 8007.81885 9096.82520
9494.0 0.0001053 8007.49609 9221.96289
9624.0 0.0001039 8007.17334 9334.83301
9784.0 0.0001022 8006.85059 9429.39844
10078.0 0.0000992 8006.52783 9501.24023
10004.0 0.0001000 8006.20508 9547.85938
10016.0 0.0000998 8005.88232 9569.03418
9870.0 0.0001013 8005.55957 9566.47070
10176.0 0.0000983 8005.23682 9543.53613
9632.0 0.0001038 8004.91406 9504.42676
9824.0 0.0001018 8004.59131 9453.44336
9660.0 0.0001035 8004.26855 9394.39355
9396.0 0.0001064 8003.94580 9328.15234
9116.0 0.0001097 8003.62305 9260.43555
9378.0 0.0001066 8003.30029 9189.45215
9248.0 0.0001081 8002.97754 9116.34375
9022.0 0.0001108 8002.65479 9041.04492
9238.0 0.0001082 8002.33203 8964.50488
8988.0 0.0001113 8002.00928 8888.52051
8930.0 0.0001120 8001.68652 8815.62207
8902.0 0.0001123 8001.36377 8748.69531
8864.0 0.0001128 8000.61182 8690.32031
8732.0 0.0001145 7999.21826 8643.52051
8504.0 0.0001176 7997.82422 8612.02539
8502.0 0.0001176 7996.42969 8598.78613
8402.0 0.0001190 7995.03564 8606.43848
8562.0 0.0001168 7993.64258 8638.09668
8654.0 0.0001156 7992.24805 8693.05762
8608.0 0.0001162 7990.85400 8772.16016
8978.0 0.0001114 7989.45996 8874.36621
8958.0 0.0001116 7988.06592 8997.00977
9444.0 0.0001059 7986.67236 9136.23828
9128.0 0.0001096 7985.27881 9285.26367
9278.0 0.0001078 7983.88428 9437.60059
9474.0 0.0001056 7982.49023 9584.96680
9420.0 0.0001062 7981.09619 9718.70605
9336.0 0.0001071 7979.70264 9830.66992
9598.0 0.0001042 7978.30859 9913.15234
9792.0 0.0001021 7976.91455 9963.44531
9860.0 0.0001014 7975.52148 9979.42871
9790.0 0.0001021 7974.12646 9963.20898
9724.0 0.0001028 7972.73291 9918.81641
9318.0 0.0001073 7971.33887 9852.62207
9404.0 0.0001063 7969.94434 9769.60547
9684.0 0.0001033 7968.55078 9675.04297
9536.0 0.0001049 7967.15674 9573.09180
9154.0 0.0001092 7965.76221 9465.57520
9124.0 0.0001096 7964.36816 9355.88770
9066.0 0.0001103 7962.97510 9244.30176
8990.0 0.0001112 7961.58057 9131.74512
9002.0 0.0001111 7960.18652 9019.45215
8720.0 0.0001147 7958.79297 8908.90430
8756.0 0.0001142 7957.39844 8801.73633
8488.0 0.0001178 7956.00439 8700.01660
8834.0 0.0001132 7954.61084 8605.58496
8516.0 0.0001174 7953.21680 8520.19141
8302.0 0.0001205 7951.82275 8445.45605
8436.0 0.0001185 7950.42969 8382.64746
8392.0 0.0001192 7949.03467 8332.61035
8168.0 0.0001224 7947.64111 8295.92969
8164.0 0.0001225 7946.24707 8272.64258
8202.0 0.0001219 7944.85303 8262.39551
8342.0 0.0001199 7943.45898 8264.43945
8218.0 0.0001217 7942.06494 8277.67383
8176.0 0.0001223 7940.67188 8300.69238
8394.0 0.0001191 7939.27734 8331.89160
8504.0 0.0001176 7937.88330 8369.39453
8548.0 0.0001170 7936.48926 8411.23926
8192.0 0.0001221 7935.09473 8455.39648
8640.0 0.0001157 7933.70166 8499.82422
8640.0 0.0001157 7932.30762 8542.68945
8794.0 0.0001137 7930.91309 8582.56250
8538.0 0.0001171 7929.51904 8618.40039
8624.0 0.0001160 7928.12549 8649.77832
8670.0 0.0001153 7926.73096 8677.58398
8798.0 0.0001137 7925.33691 8700.11328
8796.0 0.0001137 7923.94385 8718.47949
8610.0 0.0001161 7922.54932 8733.63770
8706.0 0.0001149 7921.15527 8744.18848
8672.0 0.0001153 7919.76123 8751.25000
8676.0 0.0001153 7918.36719 8755.43848
8948.0 0.0001118 7916.97363 8757.64258
8762.0 0.0001141 7915.58008 8758.87402
9052.0 0.0001105 7914.18555 8760.12109
8694.0 0.0001150 7912.79150 8762.24219
8844.0 0.0001131 7911.39746 8766.04883
8948.0 0.0001118 7910.00342 8772.37305
8554.0 0.0001169 7908.60986 8782.15137
8702.0 0.0001149 7907.21582 8796.41309
8804.0 0.0001136 7905.82227 8816.14063
8952.0 0.0001117 7904.42725 8842.04102
8830.0 0.0001133 7903.03369 8874.15430
9012.0 0.0001110 7901.64014 8911.72754
9058.0 0.0001104 7900.24512 8953.01855
9124.0 0.0001096 7898.85156 8995.23633
8912.0 0.0001122 7897.45801 9034.75000
8882.0 0.0001126 7896.06348 9068.20020
9122.0 0.0001096 7894.66943 9089.82520
9016.0 0.0001109 7893.27539 9096.87305
9178.0 0.0001090 7891.88184 9086.98730
9138.0 0.0001094 7890.48779 9059.25293
9174.0 0.0001090 7889.09424 9014.10059
8860.0 0.0001129 7887.69971 8951.01758
9050.0 0.0001105 7886.30566 8876.51074
8864.0 0.0001128 7884.91211 8791.70996
8612.0 0.0001161 7883.51807 8700.28125
8670.0 0.0001153 7882.12402 8606.17773
8680.0 0.0001152 7880.73096 8513.12793
8534.0 0.0001172 7879.33545 8424.28613
8324.0 0.0001201 7877.94238 8342.40527
8178.0 0.0001223 7876.54834 8269.31738
8258.0 0.0001211 7875.15430 8206.19824
8252.0 0.0001212 7873.75977 8153.59570
7996.0 0.0001251 7872.36621 8112.50391
8262.0 0.0001210 7870.97266 8080.58984
8174.0 0.0001223 7869.57764 8058.19385
8126.0 0.0001231 7868.18408 8044.65137
7896.0 0.0001266 7866.79053 8039.26318
8212.0 0.0001218 7865.39600 8041.45703
8016.0 0.0001248 7864.00195 8050.83105
8198.0 0.0001220 7862.60889 8067.15967
8168.0 0.0001224 7861.21436 8090.42822
8288.0 0.0001207 7859.82031 8120.67871
8160.0 0.0001225 7858.42627 8158.00586
8356.0 0.0001197 7857.03223 8204.06348
8232.0 0.0001215 7855.63818 8252.77734
8148.0 0.0001227 7854.24512 8310.76953
8386.0 0.0001192 7852.85059 8372.16992
8546.0 0.0001170 7851.45654 8435.98438
8498.0 0.0001177 7850.06250 8499.78516
8388.0 0.0001192 7848.66797 8560.80176
8612.0 0.0001161 7847.27441 8616.14453
8270.0 0.0001209 7845.88086 8663.16895
8544.0 0.0001170 7844.48584 8699.76465
8588.0 0.0001164 7843.09229 8723.93652
8694.0 0.0001150 7841.69873 8736.39844
8698.0 0.0001150 7840.30469 8737.19336
8706.0 0.0001149 7838.91016 8727.79395
8656.0 0.0001155 7837.51611 8710.20020
8444.0 0.0001184 7836.12305 8687.92578
8566.0 0.0001167 7834.72852 8660.06055
8388.0 0.0001192 7833.33447 8629.41113
8536.0 0.0001172 7831.94043 8596.73828
8496.0 0.0001177 7830.54639 8562.20215
8488.0 0.0001178 7829.15283 8525.53418
8556.0 0.0001169 7827.75928 8486.31055
8400.0 0.0001190 7826.36475 8444.26465
8494.0 0.0001177 7824.97070 8399.73633
8482.0 0.0001179 7823.57666 8353.53906
8388.0 0.0001192 7822.18311 8306.95508
8330.0 0.0001200 7820.78906 8261.58984
8164.0 0.0001225 7819.39551 8219.14648
8348.0 0.0001198 7818.00098 8181.28076
8242.0 0.0001213 7816.60693 8149.66162
8250.0 0.0001212 7815.21338 8125.68750
8008.0 0.0001249 7813.81836 8110.92383
8166.0 0.0001225 7812.42529 8105.26807
8120.0 0.0001232 7811.03125 8111.81445
8140.0 0.0001229 7809.63672 8125.64307
8172.0 0.0001224 7808.24268 8148.24707
8164.0 0.0001225 7806.84961 8178.27881
8494.0 0.0001177 7805.45557 8213.87891
8342.0 0.0001199 7804.06104 8252.75879
8450.0 0.0001183 7802.66699 8292.29785
8474.0 0.0001180 7801.27344 8329.74023
8264.0 0.0001210 7799.87891 8362.43555
8416.0 0.0001188 7798.48486 8386.92676
8266.0 0.0001210 7797.09131 8403.57129
8454.0 0.0001183 7795.69727 8410.55762
8154.0 0.0001226 7794.30322 8407.15625
8356.0 0.0001197 7792.91016 8397.15039
8368.0 0.0001195 7791.97900 8384.80859
8244.0 0.0001213 7791.09229 8367.65234
8294.0 0.0001206 7790.20557 8350.44531
8314.0 0.0001203 7789.31885 8335.55566
8434.0 0.0001186 7788.43213 8326.06543
8400.0 0.0001190 7787.54590 8322.85645
8262.0 0.0001210 7786.65820 8327.36230
8596.0 0.0001163 7785.77197 8337.89746
8404.0 0.0001190 7784.88525 8354.37500
8384.0 0.0001193 7783.99805 8375.34961
8480.0 0.0001179 7783.11133 8398.94336
8616.0 0.0001161 7782.22461 8423.11035
8418.0 0.0001188 7781.33789 8445.96484
8672.0 0.0001153 7780.45068 8466.04297
8604.0 0.0001162 7779.56396 8482.71191
8650.0 0.0001156 7778.67773 8496.23926
8764.0 0.0001141 7777.79053 8507.67090
8468.0 0.0001181 7776.90381 8518.50391
8402.0 0.0001190 7776.01758 8530.31641
8772.0 0.0001140 7775.13037 8544.47656
8694.0 0.0001150 7774.24365 8561.87988
8534.0 0.0001172 7773.35693 8582.94238
8690.0 0.0001151 7772.47021 8607.57129
8572.0 0.0001167 7771.58350 8635.23145
8722.0 0.0001147 7770.69727 8665.15332
8678.0 0.0001152 7769.81006 8696.64941
8788.0 0.0001138 7768.92285 8729.34668
8598.0 0.0001163 7768.03613 8763.72070
8812.0 0.0001135 7767.14893 8801.25488
8862.0 0.0001128 7766.26270 8844.35547
8982.0 0.0001113 7765.37598 8896.01074
8838.0 0.0001131 7764.48877 8959.31836
9000.0 0.0001111 7763.60205 9036.65723
8924.0 0.0001121 7762.71582 9129.47656
8984.0 0.0001113 7761.82861 9237.76172
9266.0 0.0001079 7760.94189 9359.67188
9338.0 0.0001071 7760.05566 9491.55957
9656.0 0.0001036 7759.16846 9627.96484
9640.0 0.0001037 7758.28174 9762.26270
9818.0 0.0001019 7757.39502 9886.67383
9778.0 0.0001023 7756.50830 9993.62109
10056.0 0.0000994 7755.62109 10076.54297
10586.0 0.0000945 7754.73438 10130.61816
10192.0 0.0000981 7753.84814 10153.46777
10118.0 0.0000988 7752.96094 10145.34473
10352.0 0.0000966 7752.07422 10109.06738
10104.0 0.0000990 7751.18750 10049.02246
10318.0 0.0000969 7750.30078 9973.31836
9990.0 0.0001001 7749.41406 9885.89844
10056.0 0.0000994 7748.52783 9793.44922
9776.0 0.0001023 7747.64014 9700.38281
9588.0 0.0001043 7746.75391 9609.74219
9382.0 0.0001066 7745.86719 9523.71680
9348.0 0.0001070 7744.97998 9439.74316
9318.0 0.0001073 7744.09326 9357.43164
9186.0 0.0001089 7743.20654 9274.88574
9278.0 0.0001078 7742.31982 9190.38867
9118.0 0.0001097 7741.43262 9103.23535
9084.0 0.0001101 7740.54590 9013.45313
9216.0 0.0001085 7739.65918 8921.90723
8716.0 0.0001147 7738.77246 8830.15332
8962.0 0.0001116 7737.88623 8740.08203
8740.0 0.0001144 7736.99902 8653.63184
8658.0 0.0001155 7736.11230 8572.95410
8352.0 0.0001197 7735.22559 8499.80078
8406.0 0.0001190 7734.33887 8435.65527
8378.0 0.0001194 7733.45215 8381.59277
8242.0 0.0001213 7732.56543 8338.62207
8220.0 0.0001217 7731.67871 8305.75879
8184.0 0.0001222 7730.79199 8284.99707
8326.0 0.0001201 7729.90479 8275.74316
8182.0 0.0001222 7729.01807 8278.38770
8298.0 0.0001205 7728.13135 8293.72461
8252.0 0.0001212 7727.24463 8322.97168
8484.0 0.0001179 7726.35791 8367.66406
8422.0 0.0001187 7725.47070 8429.49121
8474.0 0.0001180 7724.58447 8509.72559
8112.0 0.0001233 7723.69775 8609.15918
8678.0 0.0001152 7722.81055 8727.68262
8922.0 0.0001121 7721.92383 8863.78418
8706.0 0.0001149 7721.03760 9015.04102
9044.0 0.0001106 7720.15039 9178.04980
9128.0 0.0001096 7719.26367 9346.10547
9204.0 0.0001086 7718.37695 9512.25195
9442.0 0.0001059 7717.49023 9669.05762
9946.0 0.0001005 7716.60303 9809.07324
9686.0 0.0001032 7715.71680 9922.08203
9886.0 0.0001012 7714.82959 10002.34766
9904.0 0.0001010 7713.94287 10045.27539
9960.0 0.0001004 7713.05615 10049.68945
9770.0 0.0001024 7712.16943 10017.68359
9838.0 0.0001016 7711.28271 9954.07324
9892.0 0.0001011 7710.39600 9865.55664
9566.0 0.0001045 7709.50977 9759.74316
9430.0 0.0001060 7708.62256 9644.33008
9516.0 0.0001051 7707.73584 9527.00879
9176.0 0.0001090 7706.84912 9414.37891
9182.0 0.0001089 7705.96191 9311.77344
8918.0 0.0001121 7705.07568 9223.01270
9144.0 0.0001094 7704.18848 9150.16504
9000.0 0.0001111 7703.30127 9093.68652
9208.0 0.0001086 7702.41455 9052.95898
9102.0 0.0001099 7701.52832 9026.37500
8944.0 0.0001118 7700.64111 9011.93652
8862.0 0.0001128 7699.75439 9007.66602
9298.0 0.0001076 7698.86816 9011.91797
9304.0 0.0001075 7697.98096 9023.61133
9262.0 0.0001080 7697.09424 9042.08301
9336.0 0.0001071 7696.20752 9066.83008
9082.0 0.0001101 7695.32080 9097.95605
9250.0 0.0001081 7694.43408 9132.21484
9220.0 0.0001085 7693.54785 9168.11816
9190.0 0.0001088 7692.66064 9202.45410
9158.0 0.0001092 7691.77393 9231.16602
8940.0 0.0001119 7690.88672 9250.10156
9052.0 0.0001105 7690.00000 9253.85059
9038.0 0.0001106 7689.11328 9240.18848
8812.0 0.0001135 7688.22656 9205.59277
9232.0 0.0001083 7687.34033 9149.51367
9260.0 0.0001080 7686.45264 9073.07617
8930.0 0.0001120 7685.56641 8979.49609
8896.0 0.0001124 7684.67969 8873.31738
8718.0 0.0001147 7683.79248 8759.94434
8422.0 0.0001187 7682.90576 8645.12793
8486.0 0.0001178 7682.01953 8534.27051
8214.0 0.0001217 7681.13232 8431.95898
8136.0 0.0001229 7680.24561 8342.11328
8286.0 0.0001207 7679.35889 8265.06641
8556.0 0.0001169 7678.47217 8206.86719
8328.0 0.0001201 7677.58496 8165.64990
8294.0 0.0001206 7676.69873 8140.86426
8300.0 0.0001205 7675.81152 8131.16162
8504.0 0.0001176 7674.92480 8134.66113
8438.0 0.0001185 7674.03809 8149.34180
8514.0 0.0001175 7673.15137 8172.23730
8402.0 0.0001190 7672.26465 8201.12207
8630.0 0.0001159 7671.37842 8233.67285
8598.0 0.0001163 7670.49072 8267.90918
8812.0 0.0001135 7669.60449 8302.24512
8664.0 0.0001154 7668.71777 8335.87402
8634.0 0.0001158 7667.83105 8368.85547
8970.0 0.0001115 7666.94385 8402.22852
8862.0 0.0001128 7666.05713 8436.42969
8664.0 0.0001154 7665.17041 8476.52051
8968.0 0.0001115 7664.28320 8523.37891
8572.0 0.0001167 7663.39648 8578.62793
8594.0 0.0001164 7662.51025 8643.08691
9034.0 0.0001107 7661.62305 8716.39844
8698.0 0.0001150 7660.73633 8796.88867
8532.0 0.0001172 7659.92334 8881.74609
8912.0 0.0001122 7659.20703 8967.15039
9032.0 0.0001107 7658.49121 9048.10254
8974.0 0.0001114 7657.77539 9119.49121
8922.0 0.0001121 7657.05957 9176.27539
9198.0 0.0001087 7656.34375 9216.31348
9136.0 0.0001095 7655.62842 9232.13086
9256.0 0.0001080 7654.91211 9224.67578
9024.0 0.0001108 7654.19629 9194.68457
9008.0 0.0001110 7653.48047 9144.90430
8824.0 0.0001133 7652.76465 9078.98633
8954.0 0.0001117 7652.04883 9001.76172
8716.0 0.0001147 7651.33301 8919.11035
8548.0 0.0001170 7650.61670 8833.09277
8278.0 0.0001208 7649.90137 8748.40918
8472.0 0.0001180 7649.18555 8667.46289
8764.0 0.0001141 7648.46973 8591.62207
8470.0 0.0001181 7647.75342 8521.20898
8452.0 0.0001183 7647.03809 8455.83887
8376.0 0.0001194 7646.32227 8394.87012
8252.0 0.0001212 7645.60596 8336.97656
8290.0 0.0001206 7644.89014 8281.84180
8354.0 0.0001197 7644.17432 8229.23828
8170.0 0.0001224 7643.45850 8179.32568
8342.0 0.0001199 7642.74268 8132.65820
8284.0 0.0001207 7642.02686 8089.56396
8030.0 0.0001245 7641.31104 8047.91895
7944.0 0.0001259 7640.59521 8013.67920
8060.0 0.0001241 7639.87939 7984.34131
7932.0 0.0001261 7639.16357 7964.36572
8032.0 0.0001245 7638.44727 7944.77539
7932.0 0.0001261 7637.73193 7928.66797
8000.0 0.0001250 7637.01563 7916.89795
7934.0 0.0001260 7636.29980 7907.81689
8014.0 0.0001248 7635.58398 7900.45117
7712.0 0.0001297 7634.86816 7893.84766
8060.0 0.0001241 7634.15234 7887.21680
7980.0 0.0001253 7633.43652 7879.94775
7942.0 0.0001259 7632.72021 7871.81055
7946.0 0.0001258 7632.00439 7862.91162
7928.0 0.0001261 7631.28906 7852.18115
7958.0 0.0001257 7630.57324 7843.12842
7990.0 0.0001252 7629.85693 7834.98096
7732.0 0.0001293 7629.14111 7828.52783
8024.0 0.0001246 7628.42578 7824.57373
7914.0 0.0001264 7627.70947 7823.93457
7820.0 0.0001279 7626.99365 7827.94043
7738.0 0.0001292 7626.27783 7836.38623
7868.0 0.0001271 7625.56201 7850.63184
7862.0 0.0001272 7624.84619 7871.56201
7908.0 0.0001265 7624.13086 7900.12500
8024.0 0.0001246 7623.41455 7937.37158
7946.0 0.0001258 7622.69873 7984.29443
7950.0 0.0001258 7621.98291 8041.93750
8002.0 0.0001250 7621.26709 8111.25977
7978.0 0.0001253 7620.55127 8192.94043
8272.0 0.0001209 7619.83594 8287.33691
8266.0 0.0001210 7619.11914 8394.37695
8484.0 0.0001179 7618.40381 8512.91504
8580.0 0.0001166 7617.68799 8641.04590
8322.0 0.0001202 7616.97168 8775.76953
8698.0 0.0001150 7616.25586 8912.86133
8796.0 0.0001137 7615.54053 9047.28223
9022.0 0.0001108 7614.82422 9173.35840
8892.0 0.0001125 7614.10840 9284.87109
8996.0 0.0001112 7613.39258 9376.07129
9034.0 0.0001107 7612.67725 9441.90625
9192.0 0.0001088 7611.96094 9478.62793
9362.0 0.0001068 7611.24512 9484.11035
9386.0 0.0001065 7610.52930 9458.08594
9190.0 0.0001088 7609.81348 9402.04980
9276.0 0.0001078 7609.09766 9319.87988
8988.0 0.0001113 7608.38184 9215.02246
8836.0 0.0001132 7607.66602 9094.36719
8774.0 0.0001140 7606.95020 8962.52832
8484.0 0.0001179 7606.23438 8826.16211
8522.0 0.0001173 7605.51807 8690.99512
8440.0 0.0001185 7604.80225 8561.70703
8486.0 0.0001178 7604.08643 8441.60742
8106.0 0.0001234 7603.37061 8336.35254
8346.0 0.0001198 7602.65479 8247.74512
7942.0 0.0001259 7601.93896 8178.06201
8136.0 0.0001229 7601.22314 8129.12549
8178.0 0.0001223 7600.50732 8102.64209
8334.0 0.0001200 7599.79150 8100.04443
8458.0 0.0001182 7599.07520 8122.70801
8340.0 0.0001199 7598.35938 8171.86670
8362.0 0.0001196 7597.64404 8248.53125
8568.0 0.0001167 7596.92773 8353.88086
8588.0 0.0001164 7596.21191 8486.97461
8810.0 0.0001135 7595.49609 8647.45410
8992.0 0.0001112 7594.78027 8833.41406
9086.0 0.0001101 7594.06445 9041.44336
9470.0 0.0001056 7593.34863 9267.39648
9496.0 0.0001053 7592.63330 9504.97656
9920.0 0.0001008 7591.91699 9747.15918
10176.0 0.0000983 7591.20117 9985.13281
10606.0 0.0000943 7590.48535 10209.85742
10460.0 0.0000956 7589.76953 10412.01758
10906.0 0.0000917 7589.05371 10582.74707
10968.0 0.0000912 7588.33838 10714.98047
11150.0 0.0000897 7587.62207 10804.37402
11042.0 0.0000906 7586.90625 10849.41406
11064.0 0.0000904 7586.19043 10851.76953
10948.0 0.0000913 7585.47412 10815.18262
10980.0 0.0000911 7584.75879 10744.50195
10862.0 0.0000921 7584.04297 10643.29297
10582.0 0.0000945 7583.32666 10518.83105
10174.0 0.0000983 7582.61084 10373.87207
9966.0 0.0001003 7581.89551 10211.36719
9848.0 0.0001015 7581.17920 10034.76172
9756.0 0.0001025 7580.46338 9847.85352
10012.0 0.0000999 7579.74756 9654.86621
9188.0 0.0001088 7579.03174 9460.13672
9042.0 0.0001106 7578.31592 9268.51367
8972.0 0.0001115 7577.60010 9083.99805
8854.0 0.0001129 7576.88428 8910.04785
8602.0 0.0001163 7576.16846 8749.31055
8442.0 0.0001185 7575.45264 8603.86523
8396.0 0.0001191 7574.73682 8475.04492
8306.0 0.0001204 7574.02100 8363.48730
8124.0 0.0001231 7573.30469 8269.65625
8076.0 0.0001238 7572.58887 8193.32129
8084.0 0.0001237 7571.87305 8134.38525
8156.0 0.0001226 7571.15723 8091.02930
8190.0 0.0001221 7570.44189 8062.50098
8132.0 0.0001230 7569.72559 8047.34424
8302.0 0.0001205 7569.00977 8043.98779
8086.0 0.0001237 7568.29395 8050.69580
8164.0 0.0001225 7567.57764 8065.69336
8172.0 0.0001224 7566.86182 8087.90039
8338.0 0.0001199 7566.14648 8114.93896
8382.0 0.0001193 7565.43018 8144.25928
8610.0 0.0001161 7564.71436 8175.17480
8274.0 0.0001209 7563.99854 8206.50586
8168.0 0.0001224 7563.28271 8237.31641
8344.0 0.0001198 7562.56689 8266.83105
8544.0 0.0001170 7561.85156 8294.37012
8320.0 0.0001202 7561.13525 8319.27930
8534.0 0.0001172 7560.41943 8342.06250
8192.0 0.0001221 7559.70361 8359.55762
8522.0 0.0001173 7558.98779 8372.43652
8350.0 0.0001198 7558.27197 8380.22852
8346.0 0.0001198 7557.55615 8383.59375
8420.0 0.0001188 7556.84082 8383.04883
8326.0 0.0001201 7556.12451 8379.84570
8484.0 0.0001179 7555.40869 8375.62109
8350.0 0.0001198 7554.69287 8372.15527
8316.0 0.0001203 7553.97656 8371.20508
8224.0 0.0001216 7553.26123 8374.28320
8072.0 0.0001239 7551.90381 8383.28516
8206.0 0.0001219 7550.50732 8396.56055
8202.0 0.0001219 7549.11084 8415.38477
8374.0 0.0001194 7547.71582 8438.84668
8320.0 0.0001202 7546.31885 8465.27539
8350.0 0.0001198 7544.92285 8492.28027
8338.0 0.0001199 7543.52734 8516.95508
8408.0 0.0001189 7542.13037 8536.12598
8322.0 0.0001202 7540.73438 8546.59375
8290.0 0.0001206 7539.33838 8545.36523
8454.0 0.0001183 7537.94238 8531.05859
8442.0 0.0001185 7536.54639 8502.66504
8414.0 0.0001188 7535.15088 8460.71289
8256.0 0.0001211 7533.75391 8406.79883
8372.0 0.0001194 7532.35791 8343.50000
8328.0 0.0001201 7530.96191 8273.79004
8166.0 0.0001225 7529.56592 8200.85742
8002.0 0.0001250 7528.16992 8127.83740
8016.0 0.0001248 7526.77344 8057.71826
7948.0 0.0001258 7525.37793 7993.14307
7582.0 0.0001319 7523.98096 7936.31055
7892.0 0.0001267 7522.58545 7889.18945
7754.0 0.0001290 7521.18945 7853.20850
7834.0 0.0001276 7519.79248 7829.44531
7930.0 0.0001261 7518.39648 7818.62451
7858.0 0.0001273 7517.00098 7821.09668
7894.0 0.0001267 7515.60400 7836.89844
7882.0 0.0001269 7514.20801 7865.68066
8106.0 0.0001234 7512.81201 7906.76758
8146.0 0.0001228 7511.41602 7959.11719
8020.0 0.0001247 7510.02002 8021.68457
8068.0 0.0001239 7508.62451 8091.75293
8240.0 0.0001214 7507.22754 8167.65967
8336.0 0.0001200 7505.83154 8246.81152
8480.0 0.0001179 7504.43555 8326.57324
8394.0 0.0001191 7503.03955 8404.22754
8336.0 0.0001200 7501.64307 8477.35547
8592.0 0.0001164 7500.24805 8543.08105
8922.0 0.0001121 7498.85107 8600.58496
8670.0 0.0001153 7497.45508 8647.13184
8850.0 0.0001130 7496.05908 8682.77637
8628.0 0.0001159 7494.66260 8707.32910
8758.0 0.0001142 7493.26660 8720.92969
8796.0 0.0001137 7491.87061 8723.89063
8908.0 0.0001123 7490.47461 8716.68262
8946.0 0.0001118 7489.07764 8699.90625
8708.0 0.0001148 7487.68213 8674.88086
8672.0 0.0001153 7486.28613 8642.57227
8748.0 0.0001143 7484.88965 8603.65527
8636.0 0.0001158 7483.49365 8557.97559
8802.0 0.0001136 7482.09814 8507.39355
8616.0 0.0001161 7480.70117 8452.50195
8274.0 0.0001209 7479.30518 8394.25977
8272.0 0.0001209 7477.90918 8332.83789
8490.0 0.0001178 7476.51318 8269.46484
8204.0 0.0001219 7475.11670 8205.50098
8182.0 0.0001222 7473.72168 8142.53467
8154.0 0.0001226 7472.32471 8082.23486
8212.0 0.0001218 7470.92871 8026.46924
8082.0 0.0001237 7469.53271 7976.89551
8128.0 0.0001230 7468.13623 7935.05176
8046.0 0.0001243 7466.74023 7902.31494
7738.0 0.0001292 7465.34473 7879.78857
7722.0 0.0001295 7463.94727 7868.29102
7806.0 0.0001281 7462.55225 7863.86475
7882.0 0.0001269 7461.15576 7875.80371
8154.0 0.0001226 7459.75977 7899.37109
7832.0 0.0001277 7458.36328 7934.09814
8138.0 0.0001229 7456.96777 7979.13428
8230.0 0.0001215 7455.57178 8033.31348
8256.0 0.0001211 7454.17480 8095.25586
8392.0 0.0001192 7452.77881 8163.11621
8512.0 0.0001175 7451.38330 8234.93164
7878.0 0.0001269 7449.98633 8308.49121
8686.0 0.0001151 7448.59033 8381.39941
8506.0 0.0001176 7447.19482 8451.29785
8768.0 0.0001141 7445.79834 8516.12402
8574.0 0.0001166 7444.40234 8574.04980
8646.0 0.0001157 7443.00586 8623.93750
8920.0 0.0001121 7441.60986 8665.15137
8854.0 0.0001129 7440.21436 8697.41406
8818.0 0.0001134 7438.81738 8720.57520
8622.0 0.0001160 7437.42188 8734.38672
8806.0 0.0001136 7436.02588 8738.46289
8634.0 0.0001158 7434.62939 8732.30176
8544.0 0.0001170 7433.23340 8715.36816
8556.0 0.0001169 7431.83887 8687.52246
8910.0 0.0001122 7430.44043 8649.12305
8738.0 0.0001144 7429.04443 8601.55469
8614.0 0.0001161 7427.64844 8546.88770
8460.0 0.0001182 7426.25293 8487.87988
8392.0 0.0001192 7424.85693 8427.57715
8332.0 0.0001200 7423.46094 8368.96680
7952.0 0.0001258 7422.06396 8314.66406
8034.0 0.0001245 7420.66797 8266.84668
7998.0 0.0001250 7419.27197 8226.28906
8164.0 0.0001225 7417.87598 8195.05566
8038.0 0.0001244 7416.47949 8172.96875
8098.0 0.0001235 7415.08496 8158.20654
8124.0 0.0001231 7413.68701 8150.98145
8156.0 0.0001226 7412.29150 8149.44434
8120.0 0.0001232 7410.89551 8152.04492
8090.0 0.0001236 7409.49902 8157.33740
8090.0 0.0001236 7408.10303 8164.18848
8166.0 0.0001225 7406.70703 8171.97217
8436.0 0.0001185 7405.31104 8180.66113
8316.0 0.0001203 7403.91406 8190.92383
8244.0 0.0001213 7402.51807 8203.54199
8198.0 0.0001220 7401.12256 8219.86035
8110.0 0.0001233 7399.72656 8241.09375
8144.0 0.0001228 7398.33057 8268.20410
8052.0 0.0001242 7396.93506 8301.66602
7972.0 0.0001254 7395.53760 8341.47363
8222.0 0.0001216 7394.14160 8386.71289
8564.0 0.0001168 7392.74561 8435.92578
8436.0 0.0001185 7391.34961 8486.98340
8444.0 0.0001184 7389.95410 8537.29199
8278.0 0.0001208 7388.55762 8584.02930
8584.0 0.0001165 7387.16113 8624.48828
8706.0 0.0001149 7385.76514 8656.25195
8612.0 0.0001161 7384.36914 8677.55762
8468.0 0.0001181 7382.97266 8687.24316
8638.0 0.0001158 7381.57666 8684.74707
8214.0 0.0001217 7380.18213 8670.07520
8412.0 0.0001189 7378.78369 8643.68750
8514.0 0.0001175 7377.38867 8606.70020
8188.0 0.0001221 7375.99219 8560.65430
8324.0 0.0001201 7374.59619 8507.52441
8402.0 0.0001190 7373.20020 8450.01465
8190.0 0.0001221 7371.80420 8389.45117
8292.0 0.0001206 7370.40820 8328.38672
8036.0 0.0001244 7369.01123 8268.55664
8212.0 0.0001218 7367.61523 8209.69336
8276.0 0.0001208 7366.21973 8156.30322
7786.0 0.0001284 7364.82373 8107.39990
8040.0 0.0001244 7363.42773 8063.63818
8188.0 0.0001221 7362.03223 8025.84375
7984.0 0.0001253 7360.63477 7994.18506
8080.0 0.0001238 7359.23877 7969.52637
7798.0 0.0001282 7357.84229 7952.29541
8058.0 0.0001241 7356.44629 7942.79102
8078.0 0.0001238 7355.05078 7940.94385
7996.0 0.0001251 7353.65479 7946.45313
8230.0 0.0001215 7352.25830 7958.66113
8210.0 0.0001218 7350.86182 7976.53027
8022.0 0.0001247 7349.46582 7998.70459
8096.0 0.0001235 7348.06982 8023.49219
8132.0 0.0001230 7346.67383 8048.90430
8380.0 0.0001193 7345.27881 8072.95264
8054.0 0.0001242 7344.39160 8093.37500
8254.0 0.0001212 7344.11035 8108.12207
8384.0 0.0001193 7343.82959 8114.57031
8282.0 0.0001207 7343.54883 8111.21484
8368.0 0.0001195 7343.26758 8097.31104
8004.0 0.0001249 7342.98682 8073.00098
7988.0 0.0001252 7342.70557 8039.21973
7764.0 0.0001288 7342.42480 7997.66748
8106.0 0.0001234 7342.14355 7949.92090
7838.0 0.0001276 7341.86279 7898.13623
7706.0 0.0001298 7341.58203 7844.25977
7572.0 0.0001321 7341.30078 7790.06836
7660.0 0.0001305 7341.02002 7737.70703
7768.0 0.0001287 7340.73877 7687.22949
7678.0 0.0001302 7340.45801 7640.92236
7628.0 0.0001311 7340.17725 7597.64551
7558.0 0.0001323 7339.89600 7559.67529
7706.0 0.0001298 7339.61523 7526.52197
7600.0 0.0001316 7339.33447 7498.14600
7536.0 0.0001327 7339.05322 7474.32129
7682.0 0.0001302 7338.77246 7454.75342
7476.0 0.0001338 7338.49121 7439.02881
7700.0 0.0001299 7338.21045 7426.73242
7526.0 0.0001329 7337.92920 7417.45947
7368.0 0.0001357 7337.64893 7410.85938
7658.0 0.0001306 7337.36719 7405.22852
7324.0 0.0001365 7337.08643 7403.22461
7398.0 0.0001352 7336.80566 7403.77100
7572.0 0.0001321 7336.52441 7406.02881
7332.0 0.0001364 7336.24365 7410.36035
7496.0 0.0001334 7335.96289 7417.04199
7652.0 0.0001307 7335.68164 7426.33447
7600.0 0.0001316 7335.40088 7438.56934
7730.0 0.0001294 7335.11963 7454.09814
7646.0 0.0001308 7334.83887 7473.31006
7478.0 0.0001337 7334.55762 7496.58545
7488.0 0.0001335 7334.27686 7524.25879
7712.0 0.0001297 7333.99609 7556.58057
7662.0 0.0001305 7333.71484 7594.01025
7622.0 0.0001312 7333.43408 7636.04688
7678.0 0.0001302 7333.15283 7682.80908
7778.0 0.0001286 7332.87207 7733.95557
7816.0 0.0001279 7332.59082 7788.93701
7906.0 0.0001265 7332.31006 7846.98291
8078.0 0.0001238 7332.02881 7907.13037
8362.0 0.0001196 7331.74805 7968.10205
8126.0 0.0001231 7331.46729 8028.52539
8368.0 0.0001195 7331.18604 8086.80469
8418.0 0.0001188 7330.90527 8141.16553
8314.0 0.0001203 7330.62451 8189.65332
8452.0 0.0001183 7330.34326 8230.37402
8370.0 0.0001195 7330.06250 8261.26367
8478.0 0.0001180 7329.78125 8280.72949
8282.0 0.0001207 7329.50049 8287.64063
8242.0 0.0001213 7329.21973 8281.77637
8238.0 0.0001214 7328.93848 8263.08887
8382.0 0.0001193 7328.65771 8232.84863
8258.0 0.0001211 7328.37646 8192.64453
8328.0 0.0001201 7328.09570 8144.50342
7956.0 0.0001257 7327.81445 8090.56934
8108.0 0.0001233 7327.53369 8033.06787
7984.0 0.0001253 7327.25293 7974.20117
7814.0 0.0001280 7326.97217 7916.14893
7740.0 0.0001292 7326.69092 7860.82080
7706.0 0.0001298 7326.40967 7810.31787
7542.0 0.0001326 7326.12891 7766.34424
7474.0 0.0001338 7325.84814 7730.49854
7738.0 0.0001292 7325.56689 7704.18652
7658.0 0.0001306 7325.28613 7688.60986
7892.0 0.0001267 7325.00488 7684.75049
7580.0 0.0001319 7324.72412 7693.36279
7534.0 0.0001327 7324.44336 7714.92188
7596.0 0.0001316 7324.16211 7749.60498
7790.0 0.0001284 7323.88135 7797.22705
7826.0 0.0001278 7323.60059 7857.13037
7840.0 0.0001276 7323.31934 7928.36084
7798.0 0.0001282 7323.03809 8009.05469
8010.0 0.0001248 7322.75732 8097.05078
7892.0 0.0001267 7322.47656 8189.81787
8316.0 0.0001203 7322.19531 8283.43652
8210.0 0.0001218 7321.91455 8374.41797
8384.0 0.0001193 7321.63379 8458.73828
8390.0 0.0001192 7321.35254 8532.38086
8266.0 0.0001210 7321.07178 8591.48828
8228.0 0.0001215 7320.79053 8632.93457
8626.0 0.0001159 7320.50977 8654.47949
8314.0 0.0001203 7320.22852 8655.06152
8272.0 0.0001209 7319.94775 8634.90820
8252.0 0.0001212 7319.66650 8595.63867
8110.0 0.0001233 7319.38574 8539.29785
8016.0 0.0001248 7319.10498 8468.18262
7820.0 0.0001279 7318.82373 8389.16797
8110.0 0.0001233 7318.54297 8302.66895
8006.0 0.0001249 7318.26221 8213.36133
7778.0 0.0001286 7317.98096 8124.57861
8066.0 0.0001240 7317.69971 8039.46973
7698.0 0.0001299 7317.41895 7960.61084
7800.0 0.0001282 7317.13818 7890.16699
7702.0 0.0001298 7316.85742 7830.97607
7622.0 0.0001312 7316.57617 7781.88037
7608.0 0.0001314 7316.29492 7744.57959
7884.0 0.0001268 7316.01416 7719.37744
7854.0 0.0001273 7315.73340 7705.98584
7668.0 0.0001304 7315.45215 7703.79590
7588.0 0.0001318 7315.17139 7711.87988
7816.0 0.0001279 7314.89063 7729.01318
7730.0 0.0001294 7314.60938 7753.71826
7810.0 0.0001280 7314.32861 7783.16260
7892.0 0.0001267 7314.04736 7817.71729
7914.0 0.0001264 7313.76660 7854.17041
8020.0 0.0001247 7313.48535 7890.34668
7926.0 0.0001262 7313.20459 7924.02148
7916.0 0.0001263 7312.92383 7952.99365
7858.0 0.0001273 7312.64258 7975.45313
7886.0 0.0001268 7312.36182 7989.68115
7918.0 0.0001263 7312.08057 7994.10645
7990.0 0.0001252 7311.79980 7988.51270
7826.0 0.0001278 7311.51904 7973.11768
7866.0 0.0001271 7311.23779 7948.80664
8038.0 0.0001244 7310.95703 7916.99854
8034.0 0.0001245 7310.67578 7879.53125
7862.0 0.0001272 7310.39502 7838.37402
7770.0 0.0001287 7310.11377 7795.53271
7730.0 0.0001294 7309.83301 7752.93457
7656.0 0.0001306 7309.55225 7712.36963
7666.0 0.0001304 7309.27100 7675.28760
7630.0 0.0001311 7308.99023 7643.11719
7468.0 0.0001339 7308.70898 7616.84180
7608.0 0.0001314 7308.42822 7597.22705
7464.0 0.0001340 7308.14746 7584.75879
7616.0 0.0001313 7307.86621 7579.64941
7670.0 0.0001304 7307.58545 7581.85498
7690.0 0.0001300 7307.30420 7591.08447
7726.0 0.0001294 7307.02344 7606.79688
7804.0 0.0001281 7306.74268 7628.23975
7842.0 0.0001275 7306.46143 7654.45850
7688.0 0.0001301 7306.18066 7684.38232
7726.0 0.0001294 7305.89990 7716.53906
7990.0 0.0001252 7305.61865 7749.63672
7874.0 0.0001270 7305.33740 7782.05273
8086.0 0.0001237 7305.05664 7812.30957
8228.0 0.0001215 7304.77588 7838.97314
7940.0 0.0001259 7304.49463 7860.81396
7968.0 0.0001255 7304.21387 7876.89795
7906.0 0.0001265 7303.93262 7886.64746
8104.0 0.0001234 7303.65186 7889.87256
7966.0 0.0001255 7303.37061 7886.77979
8330.0 0.0001200 7303.08984 7879.06494
8028.0 0.0001246 7302.80908 7865.35254
8538.0 0.0001171 7302.52832 7847.93994
8040.0 0.0001244 7302.26221 7828.22217
7914.0 0.0001264 7301.99707 7807.90771
7948.0 0.0001258 7301.73193 7788.80762
7704.0 0.0001298 7301.46680 7772.84766
7824.0 0.0001278 7301.20117 7761.95898
7710.0 0.0001297 7300.93604 7757.95654
7948.0 0.0001258 7300.67090 7762.45850
7742.0 0.0001292 7300.40527 7775.58789
7994.0 0.0001251 7300.14063 7800.75098
7896.0 0.0001266 7299.87500 7837.24463
8042.0 0.0001243 7299.60986 7885.12549
7960.0 0.0001256 7299.34473 7943.98047
8064.0 0.0001240 7299.07959 8012.67285
8216.0 0.0001217 7298.81396 8089.91797
8282.0 0.0001207 7298.54883 8172.85400
8264.0 0.0001210 7298.28369 8261.20898
8112.0 0.0001233 7298.01855 8351.14453
8294.0 0.0001206 7297.75342 8441.21289
8474.0 0.0001180 7297.48779 8526.36816
8656.0 0.0001155 7297.22266 8605.21680
8672.0 0.0001153 7296.95752 8675.59082
8696.0 0.0001150 7296.69238 8736.04785
8866.0 0.0001128 7296.42676 8785.69824
8770.0 0.0001140 7296.16162 8824.16016
8768.0 0.0001141 7295.89697 8851.39844
8556.0 0.0001169 7295.63135 8867.62695
8878.0 0.0001126 7295.36621 8860.13770
8784.0 0.0001138 7295.10059 8856.27246
8852.0 0.0001130 7294.83545 8843.71289
8848.0 0.0001130 7294.57031 8823.70508
8736.0 0.0001145 7294.30518 8797.87012
8768.0 0.0001141 7294.04004 8768.14063
8766.0 0.0001141 7293.77441 8737.50391
8620.0 0.0001160 7293.50928 8706.54199
8286.0 0.0001207 7293.24414 8678.33008
8676.0 0.0001153 7292.97900 8655.07910
8558.0 0.0001168 7292.71387 8638.90137
8536.0 0.0001172 7292.44873 8631.80371
8468.0 0.0001181 7292.18311 8634.46289
8732.0 0.0001145 7291.91797 8649.33301
8512.0 0.0001175 7291.65234 8675.79883
8672.0 0.0001153 7291.38721 8713.52832
8902.0 0.0001123 7291.12207 8759.73438
9012.0 0.0001110 7290.85693 8810.91602
9056.0 0.0001104 7290.59180 8863.38574
8712.0 0.0001148 7290.32617 8912.26465
9034.0 0.0001107 7290.06104 8952.57715
8862.0 0.0001128 7289.79590 8979.98145
9138.0 0.0001094 7289.53076 8990.02148
9374.0 0.0001067 7289.26563 8980.29688
9084.0 0.0001101 7289.00000 8949.15527
9300.0 0.0001075 7288.73486 8896.17188
9270.0 0.0001079 7288.46973 8821.89648
8940.0 0.0001119 7288.20459 8728.14355
8890.0 0.0001125 7287.93945 8618.09375
8708.0 0.0001148 7287.67383 8496.17676
8428.0 0.0001187 7287.40869 8367.69238
7758.0 0.0001289 7287.14355 8238.15332
7936.0 0.0001260 7286.87842 8113.00684
8154.0 0.0001226 7286.61279 7996.65576
7804.0 0.0001281 7286.34766 7892.45850
7816.0 0.0001279 7286.08252 7802.49756
7656.0 0.0001306 7285.81738 7727.65723
7646.0 0.0001308 7285.55225 7667.09570
7830.0 0.0001277 7285.28662 7621.74951
7678.0 0.0001302 7285.02148 7587.65674
7792.0 0.0001283 7284.75635 7563.77100
7796.0 0.0001283 7284.49121 7548.16455
7596.0 0.0001316 7284.22607 7539.11328
7696.0 0.0001299 7283.96045 7535.27148
7552.0 0.0001324 7283.69531 7534.49414
7544.0 0.0001326 7283.43018 7538.84521
7426.0 0.0001347 7283.16504 7547.05371
7616.0 0.0001313 7282.89941 7559.22656
7384.0 0.0001354 7282.63477 7575.79199
7612.0 0.0001314 7282.36914 7597.21240
7616.0 0.0001313 7282.10400 7623.77930
7522.0 0.0001329 7281.83838 7655.69629
7510.0 0.0001332 7281.57324 7692.91113
8016.0 0.0001248 7281.30811 7735.08691
7992.0 0.0001251 7281.04297 7781.57910
7888.0 0.0001268 7280.77783 7831.43115
7890.0 0.0001267 7280.51221 7883.45605
7844.0 0.0001275 7280.24707 7936.14014
7946.0 0.0001258 7279.98193 7987.94482
8054.0 0.0001242 7279.71680 8037.26367
7828.0 0.0001277 7279.45166 8082.59424
8270.0 0.0001209 7279.18652 8123.88721
8174.0 0.0001223 7278.92090 8157.95313
8114.0 0.0001232 7278.65576 8185.48486
8172.0 0.0001224 7278.39063 8206.67676
8116.0 0.0001232 7278.12549 8222.15039
7954.0 0.0001257 7277.85986 8232.86523
7914.0 0.0001264 7277.59473 8239.95605
8058.0 0.0001241 7277.32959 8244.57715
7958.0 0.0001257 7277.06445 8247.73535
8050.0 0.0001242 7276.79932 8250.22363
7820.0 0.0001279 7276.53369 8251.96191
8116.0 0.0001232 7276.26855 8254.34570
7812.0 0.0001280 7276.00342 8256.74219
8090.0 0.0001236 7275.73779 8259.01563
7786.0 0.0001284 7275.47266 8261.03906
8046.0 0.0001243 7275.20752 8262.86230
8032.0 0.0001245 7274.94238 8264.76270
8152.0 0.0001227 7274.67725 8267.23535
8326.0 0.0001201 7274.41211 8270.91504
7972.0 0.0001254 7274.14648 8276.37695
8212.0 0.0001218 7273.88135 8284.43164
8304.0 0.0001204 7273.61621 8295.28418
8274.0 0.0001209 7273.35107 8308.81836
7970.0 0.0001255 7273.08545 8325.45703
8178.0 0.0001223 7272.82031 8345.66504
8290.0 0.0001206 7272.55566 8368.59082
8250.0 0.0001212 7272.29004 8394.70605
8610.0 0.0001161 7272.02490 8424.39746
8350.0 0.0001198 7271.75928 8456.94727
8580.0 0.0001166 7271.49414 8491.00488
8624.0 0.0001160 7271.22900 8530.35840
8598.0 0.0001163 7270.96387 8573.09570
8624.0 0.0001160 7270.69824 8619.06152
8548.0 0.0001170 7270.43311 8667.85547
8634.0 0.0001158 7270.16797 8718.92480
8924.0 0.0001121 7269.90283 8771.38965
8726.0 0.0001146 7269.63770 8823.98535
8596.0 0.0001163 7269.37256 8874.92871
8800.0 0.0001136 7269.10693 8922.11426
8962.0 0.0001116 7268.84180 8962.74609
9160.0 0.0001092 7268.57666 8994.03809
8740.0 0.0001144 7268.31104 9013.15234
9116.0 0.0001097 7268.04639 9017.67578
8994.0 0.0001112 7267.78076 9005.69922
9018.0 0.0001109 7267.51563 8976.37988
8946.0 0.0001118 7267.25049 8929.84277
8920.0 0.0001121 7266.98486 8867.35840
8732.0 0.0001145 7266.71973 8791.03125
8776.0 0.0001139 7266.45459 8703.68945
8512.0 0.0001175 7266.18945 8608.57813
8438.0 0.0001185 7265.92432 8501.94336
8250.0 0.0001212 7265.65869 8402.06738
8058.0 0.0001241 7265.39355 8305.11523
7994.0 0.0001251 7265.12842 8213.98535
8026.0 0.0001246 7264.86328 8131.30322
7994.0 0.0001251 7264.59814 8059.26367
7928.0 0.0001261 7264.33252 8000.02832
8040.0 0.0001244 7264.06738 7954.13965
7830.0 0.0001277 7263.80225 7924.34570
8066.0 0.0001240 7263.53711 7908.87744
8068.0 0.0001239 7263.27197 7909.45654
8046.0 0.0001243 7263.00635 7926.32275
8138.0 0.0001229 7263.17725 7959.81787
8044.0 0.0001243 7263.81006 8008.33545
8136.0 0.0001229 7264.44238 8073.64941
8318.0 0.0001202 7265.07520 8152.84424
8802.0 0.0001136 7265.70752 8244.06641
8672.0 0.0001153 7266.33984 8344.86914
8600.0 0.0001163 7266.97217 8452.23340
8862.0 0.0001128 7267.60449 8562.64844
8966.0 0.0001115 7268.23730 8672.35742
9110.0 0.0001098 7268.87012 8777.34277
9226.0 0.0001084 7269.50244 8874.01953
9272.0 0.0001079 7270.13477 8959.17383
9422.0 0.0001061 7270.76758 9030.17773
9532.0 0.0001049 7271.39941 9084.95801
9754.0 0.0001025 7272.03271 9122.15723
9744.0 0.0001026 7272.66504 9140.81641
9760.0 0.0001025 7273.29736 9140.89746
9306.0 0.0001075 7273.92969 9123.14941
9356.0 0.0001069 7274.56250 9089.15137
8966.0 0.0001115 7275.19482 9041.18945
9122.0 0.0001096 7275.82764 8981.97754
9078.0 0.0001102 7276.45996 8914.55078
9012.0 0.0001110 7277.09277 8841.77930
8724.0 0.0001146 7277.72510 8766.26953
8560.0 0.0001168 7278.35742 8689.86035
8380.0 0.0001193 7278.98926 8614.77539
8570.0 0.0001167 7279.62256 8541.49316
8286.0 0.0001207 7280.25488 8471.12305
8478.0 0.0001180 7280.88770 8402.92969
8552.0 0.0001169 7281.52002 8334.07910
8302.0 0.0001205 7282.15234 8270.51563
8130.0 0.0001230 7282.78516 8209.21582
8012.0 0.0001248 7283.41699 8150.27344
8040.0 0.0001244 7284.04980 8093.96191
8028.0 0.0001246 7284.68262 8040.87158
8134.0 0.0001229 7285.31494 7991.70801
7834.0 0.0001276 7285.94727 7947.38672
7772.0 0.0001287 7286.58008 7908.92725
7784.0 0.0001285 7287.21191 7877.73975
7976.0 0.0001254 7287.84521 7854.13965
7680.0 0.0001302 7288.47754 7839.49756
7698.0 0.0001299 7289.10986 7834.81592
7900.0 0.0001266 7289.74219 7840.52197
8086.0 0.0001237 7290.37500 7857.49658
7900.0 0.0001266 7291.00732 7886.16357
7964.0 0.0001256 7291.64014 7927.05176
8094.0 0.0001235 7292.27246 7980.42578
8294.0 0.0001206 7292.90527 8046.50000
7934.0 0.0001260 7293.53760 8125.27588
8272.0 0.0001209 7294.16992 8216.54102
8460.0 0.0001182 7294.80176 8319.71973
8374.0 0.0001194 7295.43506 8434.24707
8302.0 0.0001205 7296.06738 8558.54395
8710.0 0.0001148 7296.70020 8691.06250
8654.0 0.0001156 7297.33252 8830.74902
8820.0 0.0001134 7297.96484 8972.68555
9230.0 0.0001083 7298.59766 9113.44336
9194.0 0.0001088 7299.22949 9252.18066
9092.0 0.0001100 7299.86279 9381.95605
9164.0 0.0001091 7300.49512 9498.54785
9298.0 0.0001076 7301.12744 9597.28223
9650.0 0.0001036 7301.75977 9673.69238
9926.0 0.0001007 7302.39258 9723.91406
9850.0 0.0001015 7303.02441 9744.90918
9778.0 0.0001023 7303.65771 9734.87109
9548.0 0.0001047 7304.29004 9692.74512
9640.0 0.0001037 7304.92285 9620.54102
9460.0 0.0001057 7305.55469 9518.15723
9034.0 0.0001107 7306.18750 9390.37012
8944.0 0.0001118 7306.81982 9242.04199
8526.0 0.0001173 7307.45264 9079.21191
8324.0 0.0001201 7308.08496 8907.34473
8248.0 0.0001212 7308.71777 8732.63867
8088.0 0.0001236 7309.35010 8560.59766
7938.0 0.0001260 7309.98242 8395.90332
7958.0 0.0001257 7310.61426 8242.39746
7792.0 0.0001283 7311.24805 8102.48389
7672.0 0.0001303 7311.87988 7978.38477
7636.0 0.0001310 7312.51270 7870.82910
7588.0 0.0001318 7313.14502 7779.96045
7608.0 0.0001314 7313.77734 7705.37744
7436.0 0.0001345 7314.41016 7646.06348
7678.0 0.0001302 7315.04248 7600.83838
7436.0 0.0001345 7315.67529 7568.27148
7600.0 0.0001316 7316.30762 7546.87500
7692.0 0.0001300 7316.93994 7535.08691
7482.0 0.0001337 7317.57227 7529.76123
7718.0 0.0001296 7318.20508 7532.70850
7488.0 0.0001335 7318.83691 7540.86816
7518.0 0.0001330 7319.47021 7552.94336
7552.0 0.0001324 7320.10254 7567.64258
7864.0 0.0001272 7320.73535 7583.78223
7854.0 0.0001273 7321.36768 7600.08594
7886.0 0.0001268 7322.00000 7615.84326
7760.0 0.0001289 7322.63232 7629.94434
7860.0 0.0001272 7323.26514 7641.56494
8088.0 0.0001236 7323.89746 7650.00684
7866.0 0.0001271 7324.53027 7655.08838
7822.0 0.0001278 7325.16260 7655.98926
7922.0 0.0001262 7325.79492 7653.02344
7626.0 0.0001311 7326.42676 7646.53076
7986.0 0.0001252 7327.06055 7637.08936
7872.0 0.0001270 7327.69287 7625.59717
7796.0 0.0001283 7328.32520 7613.09180
7628.0 0.0001311 7328.95752 7601.92480
7664.0 0.0001305 7329.58984 7591.17334
7600.0 0.0001316 7330.22266 7583.32275
7504.0 0.0001333 7330.85498 7579.48193
7698.0 0.0001299 7331.48779 7581.66455
7780.0 0.0001285 7332.12012 7590.87744
7528.0 0.0001328 7332.75293 7608.32324
7780.0 0.0001285 7333.38477 7635.00342
7720.0 0.0001295 7334.01758 7671.68018
7724.0 0.0001295 7334.64941 7718.73340
7940.0 0.0001259 7335.28271 7776.30615
7852.0 0.0001274 7335.91504 7843.76904
7946.0 0.0001258 7336.54785 7920.19873
8224.0 0.0001216 7337.18018 8004.07031
8290.0 0.0001206 7337.81250 8093.31201
8096.0 0.0001235 7338.44482 8185.37305
8354.0 0.0001197 7339.07764 8277.36426
8400.0 0.0001190 7339.70996 8365.96484
8402.0 0.0001190 7340.34277 8447.93457
8760.0 0.0001142 7340.97510 8519.03125
8956.0 0.0001117 7341.60742 8578.56641
9004.0 0.0001111 7342.23926 8623.14160
9012.0 0.0001110 7342.87305 8651.29395
8926.0 0.0001120 7343.50537 8662.26855
8826.0 0.0001133 7344.13770 8656.39648
8712.0 0.0001148 7344.77002 8634.88477
8470.0 0.0001181 7345.40234 8600.04199
8496.0 0.0001177 7346.03516 8554.11133
8340.0 0.0001199 7346.66748 8500.04199
8212.0 0.0001218 7347.30029 8441.69043
8264.0 0.0001210 7347.93262 8381.24219
8026.0 0.0001246 7348.56543 8322.02734
8134.0 0.0001229 7349.19727 8266.48730
7928.0 0.0001261 7349.83008 8216.54688
7878.0 0.0001269 7350.46191 8173.59082
8220.0 0.0001217 7351.09521 8138.31396
8110.0 0.0001233 7351.72754 8111.22705
7942.0 0.0001259 7352.36035 8091.83691
7950.0 0.0001258 7352.99268 8079.74463
8064.0 0.0001240 7353.62500 8074.22412
8022.0 0.0001247 7354.25732 8074.48096
8020.0 0.0001247 7354.89014 8079.79150
8204.0 0.0001219 7355.52246 8089.56641
7942.0 0.0001259 7356.15527 8103.39111
8164.0 0.0001225 7356.78760 8120.99707
8078.0 0.0001238 7357.41992 8142.18701
8166.0 . . .
loop_
_refln_index_h
_refln_index_k
_refln_index_l
_refln_observed_status
_refln_F_squared_meas
_refln_F_squared_calc
_refln_phase_calc
_refln_d_spacing
_gsas_i100_meas
0 2 0 o 7704.931 7755.509 180.00 9.21176 100.00
1 1 0 o 313.029 338.351 -90.00 6.36321 3.87
0 1 1 o 4120.383 4206.145 -90.00 5.59131 38.99
1 2 0 o 1175.289 1214.230 90.00 5.46068 10.60
0 2 1 o 1538.219 1585.341 -180.00 4.94920 11.17
0 4 0 o 182.911 180.897 180.00 4.60588 0.54
1 3 0 o 1655.775 1648.903 90.00 4.55174 10.27
1 0 1 o 1048.648 1008.631 -90.00 4.43714 5.80
1 1 1 o 2133.618 2059.073 -3.80 4.31379 22.68
0 3 1 o 2359.639 2439.209 90.00 4.24262 12.59
1 2 1 o 3145.911 3084.864 -54.80 3.99756 28.91
1 4 0 o 65.252 43.663 -90.00 3.80999 0.36
0 4 1 o 355.787 353.175 0.00 3.62311 1.42
1 3 1 o 919.982 880.916 -52.24 3.59658 7.00
2 0 0 o 3978.815 3931.666 0.00 3.39024 6.45
2 1 0 o 13826.246 13570.735 0.00 3.33426 44.02
1 5 0 o 341.140 202.242 -90.00 3.23754 1.09
1 4 1 o 567.954 581.411 46.96 3.19552 3.42
2 2 0 o 53.095 68.502 0.00 3.18161 0.14
0 5 1 o 298.855 445.675 90.00 3.12051 0.81
0 6 0 o 2186.955 2125.052 0.00 3.07059 2.90
2 3 0 o 381.743 217.681 0.00 2.96801 0.90
2 0 1 o 28.061 32.492 90.00 2.93553 0.13
0 0 2 o 1050.900 1169.053 0.00 2.93404 1.30
2 1 1 o 730.573 738.011 39.18 2.89896 3.40
0 1 2 o 4319.117 4397.941 -90.00 2.89752 10.06
1 5 1 o 2709.940 2830.055 159.75 2.83472 12.32
1 6 0 o 77.039 69.234 -90.00 2.79713 0.17
2 2 1 o 837.407 748.635 -96.66 2.79695 3.80
0 2 2 o 2561.784 2308.325 180.00 2.79565 5.57
2 4 0 o 1227.701 1286.353 0.00 2.73034 2.50
0 6 1 o 208.113 315.926 -180.00 2.72062 0.47
1 0 2 o 118.496 161.598 -180.00 2.69275 0.28
1 1 2 o 120.277 82.748 -179.21 2.66444 0.46
2 3 1 o 104.710 99.937 -91.58 2.64850 0.41
0 3 2 o 7900.721 7638.988 90.00 2.64741 15.30
1 2 2 o 612.167 725.712 0.87 2.58458 2.34
1 6 1 o 2670.460 2688.702 -149.51 2.52495 9.34
2 5 0 o 249.031 121.602 180.00 2.49488 0.41
2 4 1 o 1363.345 1253.846 61.65 2.47550 4.55
1 3 2 o 400.354 524.295 -118.18 2.46610 1.33
0 4 2 o 271.218 251.473 0.00 2.47460 0.46
1 7 0 o 25.950 244.493 90.00 2.45357 0.09
0 7 1 o 10062.160 9376.765 -90.00 2.40145 15.55
1 4 2 o 275.092 418.927 -157.97 2.32462 0.84
2 5 1 o 62.660 61.346 157.35 2.29598 0.17
0 5 2 o 12169.954 11646.820 -90.00 2.29526 17.18
0 8 0 o 5475.605 4862.655 180.00 2.30294 3.90
2 6 0 o 289.033 251.752 -180.00 2.27587 0.39
1 7 1 o 3097.149 3005.215 -15.87 2.26366 8.48
3 1 0 o 1167.896 1103.556 -90.00 2.24334 1.56
2 0 2 o 0.740 0.524 0.00 2.21857 0.00
2 1 2 o 435.753 559.713 -71.21 2.20266 1.13
3 2 0 o 2909.258 3059.350 -90.00 2.19505 3.71
1 5 2 o 82.831 102.748 105.51 2.17408 0.19
1 8 0 o 387.976 590.055 -90.00 2.18060 0.52
2 2 2 o 969.857 1098.011 -97.07 2.15690 2.42
0 8 1 o 969.411 832.078 0.00 2.14376 1.18
2 6 1 o 309.258 288.982 60.68 2.12187 0.73
0 6 2 o 317.977 304.277 0.00 2.12131 0.37
3 3 0 o 4596.220 4426.304 90.00 2.12107 5.44
3 0 1 o 142.427 141.925 -90.00 2.10912 0.17
2 3 2 o 483.736 414.340 172.04 2.08658 1.11
2 7 0 o 41.937 24.382 -180.00 2.07898 0.05
3 1 1 o 1006.559 1045.439 69.57 2.09544 2.35
3 2 1 o 273.321 237.457 -148.89 2.05592 0.62
1 8 1 o 1054.869 994.787 31.49 2.04403 2.28
1 6 2 o 188.957 214.789 -176.85 2.02454 0.41
3 4 0 o 5628.302 5829.579 90.00 2.02903 6.00
2 4 2 o 2315.172 2354.113 86.14 1.99878 4.88
3 3 1 o 721.516 744.138 -106.22 1.99476 1.50
2 7 1 o 1287.501 1166.136 -152.51 1.95963 2.55
1 9 0 o 1195.353 1076.213 -90.00 1.95969 1.17
0 7 2 o 2194.274 1961.151 90.00 1.95919 2.20
0 1 3 o 658.331 555.957 -90.00 1.94509 0.62
3 5 0 o 1675.643 1502.135 -90.00 1.92660 1.63
0 9 1 o 2438.321 2327.434 90.00 1.93283 2.37
3 4 1 o 4120.064 4226.500 -11.97 1.91763 7.76
2 5 2 o 657.751 648.590 -73.93 1.90064 1.20
0 2 3 o 3865.379 3970.393 -180.00 1.91337 3.62
2 8 0 o 25.502 24.973 0.00 1.90499 0.02
1 7 2 o 802.432 871.365 60.07 1.88219 1.47
1 0 3 o 1515.778 1678.575 90.00 1.87939 1.40
1 1 3 o 1528.510 1611.616 127.75 1.86968 2.74
1 9 1 o 550.086 750.016 -147.64 1.85878 0.99
0 3 3 o 45.535 56.998 -90.00 1.86377 0.04
1 2 3 o 1491.055 1448.811 -109.01 1.84145 2.58
3 5 1 o 2336.908 2081.006 3.07 1.83047 3.93
3 6 0 o 1634.503 1489.304 -90.00 1.82023 1.37
0 10 0 o 3028.826 2952.401 0.00 1.84235 1.33
2 8 1 o 1145.519 965.873 -107.54 1.81191 1.91
2 6 2 o 1536.733 1641.336 -94.46 1.79829 2.58
0 8 2 o 49.744 40.448 180.00 1.81156 0.05
1 3 3 o 402.019 437.155 -45.87 1.79712 0.66
0 4 3 o 4563.040 4800.718 0.00 1.80040 3.75
3 0 2 o 860.247 918.668 -180.00 1.79051 0.72
3 1 2 o 2401.930 2577.623 -159.83 1.78211 3.83
1 10 0 o 3.641 3.074 90.00 1.77789 0.00
3 2 2 o 1284.616 1305.878 -23.73 1.75762 2.01
2 9 0 o 950.710 981.167 -180.00 1.75239 0.76
1 8 2 o 1507.305 1502.781 -51.95 1.75017 2.30
0 10 1 o 100.733 104.404 0.00 1.75775 0.07
3 6 1 o 4562.786 4370.496 -178.68 1.73851 6.82
1 4 3 o 590.341 586.866 115.28 1.74010 0.89
0 5 3 o 58.828 46.748 90.00 1.72768 0.04
3 3 2 o 2250.679 2161.286 26.10 1.71894 3.27
3 7 0 o 640.276 614.238 90.00 1.71468 0.48
2 7 2 o 356.513 383.489 117.34 1.69631 0.50
1 10 1 o 1391.014 1493.737 113.68 1.70151 1.98
2 0 3 o 180.171 190.160 90.00 1.69426 0.12
2 1 3 o 189.450 269.217 45.09 1.68714 0.27
2 9 1 o 436.308 443.844 -9.50 1.67911 0.61
4 0 0 o 2097.448 2223.350 180.00 1.69512 0.76
3 4 2 o 186.353 151.950 -162.33 1.66885 0.26
1 5 3 o 177.571 171.169 71.64 1.67419 0.24
0 9 2 o 48.295 48.419 90.00 1.67883 0.03
4 1 0 o 150.516 215.532 0.00 1.68799 0.11
2 2 3 o 35.032 30.590 -93.71 1.66631 0.05
4 2 0 o 905.739 756.274 0.00 1.66713 0.63
3 7 1 o 454.815 377.939 152.72 1.64586 0.61
0 6 3 o 2606.963 2390.228 -180.00 1.64973 1.75
2 3 3 o 1653.160 1655.102 -170.55 1.63324 2.18
1 9 2 o 988.484 986.164 -136.68 1.62962 1.29
4 3 0 o 42.897 43.441 -180.00 1.63401 0.03
1 11 0 o 90.896 95.645 -90.00 1.62599 0.06
2 10 0 o 28.846 26.309 0.00 1.61877 0.02
3 5 2 o 280.550 296.446 -92.08 1.61044 0.36
4 0 1 o 19.265 19.350 -90.00 1.62853 0.01
3 8 0 o 475.108 473.099 90.00 1.61309 0.30
4 1 1 o 422.219 446.936 81.04 1.62221 0.58
1 6 3 o 511.039 558.743 -52.65 1.60297 0.62
2 8 2 o 419.081 358.888 45.35 1.59776 0.53
0 11 1 o 603.180 639.576 -90.00 1.61055 0.40
4 2 1 o 371.205 423.212 -1.10 1.60366 0.47
2 4 3 o 304.548 303.361 -140.19 1.59009 0.36
4 4 0 o 1044.662 1085.876 0.00 1.59080 0.61
0 7 3 o 23.462 24.525 -90.00 1.56994 0.01
4 3 1 o 1172.324 1304.759 -96.98 1.57413 1.41
1 11 1 o 1648.215 1617.741 70.03 1.56695 1.92
2 10 1 o 348.950 339.858 44.03 1.56048 0.44
3 8 1 o 471.284 369.816 33.51 1.55539 0.56
0 10 2 o 1836.145 1801.172 0.00 1.56026 1.07
3 6 2 o 1594.886 1765.115 -127.84 1.54675 1.81
2 5 3 o 1680.456 1623.759 -29.81 1.53933 1.94
4 4 1 o 34.180 31.194 -9.24 1.53538 0.04
4 5 0 o 138.989 137.124 0.00 1.53997 0.08
1 7 3 o 143.404 80.623 112.39 1.52947 0.16
1 10 2 o 530.808 479.532 -161.41 1.52052 0.60
0 12 0 o 1088.811 1006.601 180.00 1.53529 0.32
3 9 0 o 381.569 276.418 -90.00 1.51725 0.21
2 9 2 o 285.317 233.750 -118.43 1.50447 0.31
2 11 0 o 1263.640 1226.594 0.00 1.50162 0.70
0 8 3 o 231.193 207.532 -180.00 1.49084 0.11
4 5 1 o 243.301 205.238 86.95 1.48954 0.25
1 12 0 o 614.407 934.341 90.00 1.49739 0.33
2 6 3 o 112.490 108.009 156.96 1.48342 0.11
3 7 2 o 1426.966 1480.480 147.48 1.48041 1.47
4 6 0 o 34.739 32.726 0.00 1.48400 0.02
3 0 3 o 1631.753 1689.925 -90.00 1.47905 0.85
3 1 3 o 2456.368 2770.562 79.59 1.47430 2.55
0 12 1 o 940.151 823.360 -180.00 1.48530 0.48
3 9 1 o 514.767 545.870 -110.53 1.46894 0.53
0 0 4 o 2723.960 2758.113 180.00 1.46702 0.69
1 8 3 o 656.366 538.525 -96.07 1.45606 0.66
3 2 3 o 503.284 441.077 134.27 1.46034 0.51
4 0 2 o 3.483 3.626 0.00 1.46777 0.00
2 11 1 o 55.978 44.756 -119.46 1.45474 0.05
4 1 2 o 346.335 357.000 -6.34 1.46313 0.34
0 1 4 o 247.003 244.465 -90.00 1.46239 0.12
1 12 1 o 490.818 419.023 -78.97 1.45089 0.49
0 11 2 o 7.669 5.799 -90.00 1.45456 0.00
4 2 2 o 43.486 40.482 -10.86 1.44948 0.05
0 2 4 o 1147.056 1119.479 0.00 1.44876 0.57
4 6 1 o 561.827 583.480 31.86 1.43871 0.55
3 3 3 o 1129.188 1132.817 -119.84 1.43793 1.09
2 7 3 o 272.347 294.891 135.84 1.42460 0.29
3 10 0 o 18.424 18.203 -90.00 1.42803 0.01
1 0 4 o 60.853 40.776 180.00 1.43384 0.03
1 1 4 o 305.752 289.135 61.77 1.42952 0.30
4 3 2 o 817.873 815.788 -95.91 1.42756 0.79
0 3 4 o 1533.768 1545.592 90.00 1.42687 0.74
1 11 2 o 228.555 270.536 30.60 1.42220 0.23
4 7 0 o 258.891 274.965 -180.00 1.42512 0.12
3 8 2 o 1634.661 1633.031 16.54 1.41354 1.53
2 10 2 o 61.929 68.972 -58.37 1.41736 0.06
1 2 4 o 13.648 16.289 -60.70 1.41678 0.02
0 9 3 o 25.941 27.170 -90.00 1.41421 0.01
3 4 3 o 6.450 3.897 157.65 1.40822 0.01
4 4 2 o 54.045 48.864 165.02 1.39847 0.05
2 12 0 o 677.531 627.798 180.00 1.39857 0.30
0 4 4 o 0.046 0.074 0.00 1.39783 0.00
1 3 4 o 264.049 291.568 -119.07 1.39629 0.25
3 10 1 o 695.527 673.781 -67.38 1.38753 0.62
4 7 1 o 103.711 105.616 47.73 1.38486 0.10
1 9 3 o 885.108 890.228 -61.47 1.38441 0.80
3 5 3 o 65.380 48.675 107.81 1.37260 0.06
1 13 0 o 744.292 757.196 90.00 1.38722 0.33
2 8 3 o 276.687 289.560 158.24 1.36472 0.23
1 4 4 o 268.281 222.655 -139.17 1.36904 0.23
4 8 0 o 83.576 90.039 0.00 1.36517 0.04
0 13 1 o 186.230 165.606 90.00 1.37759 0.09
4 5 2 o 463.575 487.693 106.89 1.36357 0.43
2 12 1 o 924.576 990.374 -115.18 1.36046 0.82
0 5 4 o 1867.451 1972.422 -90.00 1.36297 0.82
0 12 2 o 418.485 462.306 180.00 1.36031 0.18
3 9 2 o 599.517 529.037 -0.63 1.34771 0.51
1 13 1 o 276.472 188.371 -113.50 1.35001 0.23
3 11 0 o 1380.781 1489.952 -90.00 1.34566 0.57
2 0 4 o 714.959 745.681 180.00 1.34637 0.29
2 11 2 o 1281.074 1224.495 17.89 1.33672 1.05
5 1 0 o 197.739 94.275 90.00 1.35244 0.08
2 1 4 o 842.828 916.049 -172.53 1.34279 0.71
0 10 3 o 144.542 148.234 0.00 1.34113 0.06
3 6 3 o 510.921 518.909 -70.11 1.33252 0.41
1 5 4 o 59.227 56.200 113.73 1.33624 0.05
1 12 2 o 333.743 328.407 20.06 1.33374 0.28
2 2 4 o 488.184 502.774 -29.46 1.33222 0.40
4 8 1 o 806.626 833.936 -158.13 1.32966 0.66
5 2 0 o 400.220 417.918 -90.00 1.34164 0.17
4 6 2 o 77.602 74.833 -47.86 1.32425 0.06
0 6 4 o 3.721 3.530 180.00 1.32370 0.00
1 10 3 o 437.180 390.584 93.18 1.31564 0.37
3 11 1 o 1189.527 1130.804 58.44 1.31161 0.94
2 3 4 o 40.276 35.621 32.88 1.31514 0.04
5 3 0 o 732.023 703.359 -90.00 1.32419 0.30
5 0 1 o 400.514 370.971 -90.00 1.32127 0.16
2 9 3 o 207.808 315.915 -44.60 1.30520 0.17
5 1 1 o 117.953 109.841 90.63 1.31789 0.09
4 9 0 o 10.164 15.983 180.00 1.30560 0.00
0 14 0 o 172.547 154.398 180.00 1.31597 0.03
2 13 0 o 483.387 611.586 180.00 1.30755 0.20
1 6 4 o 333.971 362.920 24.07 1.29918 0.25
5 2 1 o 23.835 30.154 135.02 1.30789 0.02
3 7 3 o 786.199 703.714 78.55 1.28940 0.60
2 4 4 o 527.287 412.057 99.76 1.29229 0.42
5 4 0 o 468.425 595.295 90.00 1.30088 0.20
3 10 2 o 1036.463 1149.587 -167.83 1.28402 0.80
4 7 2 o 222.095 249.913 -61.03 1.28190 0.19
5 3 1 o 6.196 3.818 46.71 1.29171 0.01
1 14 0 o 1461.064 1165.185 -90.00 1.29186 0.56
4 9 1 o 390.028 378.891 -119.87 1.27443 0.31
0 7 4 o 638.453 713.625 90.00 1.28140 0.25
2 13 1 o 171.720 167.760 -164.50 1.27625 0.13
4 0 3 o 26.625 29.382 90.00 1.28102 0.01
4 1 3 o 21.477 21.926 -172.42 1.27793 0.02
0 14 1 o 643.313 728.615 0.00 1.28407 0.25
3 12 0 o 1243.447 1203.986 -90.00 1.27000 0.45
0 13 2 o 230.661 223.730 90.00 1.27613 0.09
0 11 3 o 8.911 8.725 -90.00 1.27221 0.00
4 2 3 o 346.377 325.199 -15.96 1.26881 0.27
2 5 4 o 65.588 56.907 -49.78 1.26460 0.05
5 4 1 o 127.584 123.513 -128.80 1.27005 0.10
5 5 0 o 638.103 622.452 90.00 1.27264 0.24
2 12 2 o 118.752 120.858 86.41 1.26248 0.08
1 7 4 o 454.489 447.056 -115.74 1.25912 0.33
1 14 1 o 487.732 531.022 37.01 1.26165 0.37
1 13 2 o 478.973 462.497 161.63 1.25411 0.35
4 3 3 o 28.101 27.225 29.71 1.25402 0.02
2 10 3 o 17.289 17.322 90.19 1.24709 0.01
1 11 3 o 530.341 477.930 109.51 1.25039 0.39
3 8 3 o 844.905 848.511 93.86 1.24449 0.60
4 10 0 o 1160.416 1153.384 180.00 1.24744 0.43
3 12 1 o 879.649 861.973 116.65 1.24126 0.62
4 8 2 o 228.802 243.148 91.52 1.23775 0.16
5 5 1 o 1272.646 1255.975 -6.88 1.24373 0.92
4 4 3 o 1762.159 1905.238 176.56 1.23417 1.26
5 6 0 o 414.457 407.449 -90.00 1.24050 0.16
0 8 4 o 2.122 2.462 180.00 1.23730 0.00
2 6 4 o 417.079 442.385 -110.98 1.23305 0.31
3 1 4 o 721.129 725.529 149.65 1.22780 0.51
3 0 4 o 1255.581 1235.409 -180.00 1.23053 0.44
3 11 2 o 779.423 572.982 -146.27 1.22315 0.53
2 14 0 o 0.335 0.320 -180.00 1.22679 0.00
4 10 1 o 175.807 177.144 -7.86 1.22017 0.12
5 0 2 o 172.732 170.926 0.00 1.23097 0.06
1 8 4 o 488.951 483.914 76.16 1.21720 0.34
5 1 2 o 489.294 500.599 174.56 1.22823 0.36
3 2 4 o 587.785 616.813 44.47 1.21970 0.41
5 2 2 o 577.722 600.269 -147.58 1.22013 0.40
5 6 1 o 205.684 168.180 -29.59 1.21368 0.14
4 5 3 o 146.711 155.876 -87.63 1.20998 0.10
3 3 4 o 171.588 193.301 -57.78 1.20655 0.12
3 9 3 o 1650.140 1655.341 -91.00 1.19886 1.11
0 12 3 o 1552.625 1816.177 -180.00 1.20770 0.53
5 3 2 o 625.977 720.602 -3.15 1.20696 0.43
5 7 0 o 213.853 225.074 -90.00 1.20549 0.08
2 7 4 o 62.842 63.469 2.72 1.19864 0.04
1 15 0 o 35.475 44.511 -90.00 1.20857 0.02
2 14 1 o 1468.035 1375.789 92.58 1.20082 0.97
3 13 0 o 2835.459 2671.162 90.00 1.20068 0.94
4 9 2 o 18.798 17.646 -172.86 1.19283 0.01
2 13 2 o 394.038 342.847 162.96 1.19432 0.26
2 11 3 o 17.370 18.811 -77.28 1.19110 0.01
0 14 2 o 4.111 3.851 180.00 1.20072 0.00
0 15 1 o 8.261 7.265 -90.00 1.20218 0.00
0 9 4 o 1017.552 993.890 -90.00 1.19243 0.33
1 12 3 o 545.832 621.652 -75.51 1.18899 0.37
3 4 4 o 30.053 34.688 -111.27 1.18883 0.02
4 11 0 o 262.573 279.851 0.00 1.19140 0.09
5 4 2 o 283.365 323.955 -9.98 1.18923 0.19
4 6 3 o 262.495 237.747 -3.85 1.18226 0.19
1 14 2 o 397.652 363.698 -118.02 1.18233 0.26
1 15 1 o 723.206 662.045 -175.03 1.18372 0.48
5 7 1 o 547.392 495.480 152.49 1.18083 0.36
3 13 1 o 931.206 861.764 -171.64 1.17631 0.60
1 9 4 o 1040.847 1052.486 162.60 1.17441 0.67
3 12 2 o 342.689 340.742 -26.04 1.16550 0.23
4 11 1 o 128.551 145.998 77.63 1.16758 0.10
3 5 4 o 417.251 459.249 172.89 1.16717 0.26
0 1 5 o 1008.642 1074.195 90.00 1.17124 0.33
5 8 0 o 1361.743 1527.589 90.00 1.16855 0.44
2 8 4 o 1017.457 892.476 76.49 1.16231 0.65
5 5 2 o 149.578 167.833 145.30 1.16754 0.10
0 2 5 o 45.172 40.623 180.00 1.16420 0.02
3 10 3 o 1013.960 902.353 -79.68 1.15336 0.64
4 7 3 o 87.402 90.806 -90.93 1.15183 0.05
1 0 5 o 1.465 0.040 90.00 1.15642 0.00
4 10 2 o 297.982 370.228 -130.97 1.14799 0.19
2 15 0 o 349.045 270.664 0.00 1.15479 0.11
1 1 5 o 24.466 20.163 -59.27 1.15415 0.02
0 3 5 o 385.496 368.050 -90.00 1.15275 0.12
5 8 1 o 114.425 142.618 120.12 1.14605 0.08
3 6 4 o 474.659 478.309 104.44 1.14222 0.29
0 10 4 o 825.095 1058.863 180.00 1.14763 0.26
1 2 5 o 426.377 550.111 -55.42 1.14741 0.27
5 6 2 o 377.316 382.027 -81.61 1.14258 0.24
0 13 3 o 143.201 183.611 -90.00 1.14763 0.04
2 12 3 o 243.114 188.020 163.30 1.13767 0.15
0 16 0 o 3.979 4.395 180.00 1.15147 0.00
4 12 0 o 408.276 306.157 0.00 1.13794 0.13
3 14 0 o 2.060 0.252 90.00 1.13724 0.00
1 3 5 o 278.107 212.320 -131.70 1.13645 0.18
0 4 5 o 483.327 361.799 0.00 1.13728 0.15
2 14 2 o 232.247 237.747 60.20 1.13183 0.15
1 13 3 o 323.369 332.370 -68.20 1.13154 0.20
1 10 4 o 531.953 545.717 -175.89 1.13154 0.33
2 15 1 o 816.139 807.442 -9.68 1.13306 0.50
5 9 0 o 191.570 196.015 90.00 1.13053 0.06
2 9 4 o 271.852 242.327 -56.83 1.12488 0.17
1 16 0 o 3.615 1.096 90.00 1.13522 0.00
0 15 2 o 371.945 373.031 -90.00 1.13297 0.12
4 8 3 o 724.028 878.853 -173.65 1.11948 0.45
4 12 1 o 49.753 52.806 167.39 1.11712 0.03
6 0 0 o -0.034 0.008 0.00 1.13008 0.00
0 16 1 o 1048.172 1063.349 -180.00 1.12992 0.32
1 4 5 o 666.781 743.799 166.50 1.12161 0.41
6 1 0 o 3155.173 2932.441 -180.00 1.12796 0.96
3 7 4 o 436.162 448.157 -129.74 1.11471 0.26
3 14 1 o 593.130 619.014 33.52 1.11647 0.36
0 5 5 o 148.499 169.469 -90.00 1.11826 0.04
5 7 2 o 423.708 436.050 -124.88 1.11504 0.26
1 15 2 o 371.799 403.506 -95.67 1.11748 0.22
3 13 2 o 301.369 262.221 85.58 1.11123 0.18
6 2 0 o 141.612 157.845 0.00 1.12167 0.04
3 11 3 o 714.520 644.332 78.09 1.10864 0.44
5 9 1 o 45.496 37.714 70.79 1.11011 0.03
1 16 1 o 769.541 794.346 -172.67 1.11455 0.47
5 0 3 o 415.014 429.878 -90.00 1.11446 0.13
5 1 3 o 147.356 138.950 -85.01 1.11242 0.09
4 11 2 o 0.444 0.451 66.00 1.10387 0.00
4 1 4 o 20.554 20.229 160.75 1.10728 0.01
2 1 5 o 2.799 2.783 134.31 1.10704 0.00
4 0 4 o 535.685 459.312 0.00 1.10928 0.16
2 0 5 o 497.231 430.546 -90.00 1.10904 0.16
5 2 3 o 466.737 472.067 32.67 1.10639 0.28
1 5 5 o 714.599 728.875 10.09 1.10336 0.43
6 3 0 o 1.328 0.288 -180.00 1.11142 0.00
0 11 4 o 96.753 97.964 -90.00 1.10355 0.03
6 0 1 o 2255.010 1867.051 -90.00 1.10969 0.67
4 2 4 o 258.435 298.086 -122.39 1.10133 0.16
2 2 5 o 751.571 885.999 74.54 1.10109 0.46
6 1 1 o 421.395 409.111 144.09 1.10768 0.25
5 3 3 o 21.854 14.869 -69.37 1.09655 0.01
0 6 5 o 1101.771 740.850 -180.00 1.09627 0.32
6 2 1 o 1458.575 1639.707 73.10 1.10172 0.87
5 10 0 o 727.340 676.892 -90.00 1.09214 0.21
4 3 4 o 145.195 140.672 -87.81 1.09162 0.09
2 3 5 o 50.986 50.587 121.32 1.09139 0.03
6 4 0 o 123.721 92.608 0.00 1.09753 0.03
1 11 4 o 498.149 544.393 33.43 1.08922 0.30
0 14 3 o 888.775 845.200 0.00 1.09186 0.27
2 16 0 o 82.043 88.703 180.00 1.09030 0.02
6 3 1 o 705.945 664.193 -32.09 1.09200 0.41
