#------------------------------------------------------------------------------
#$Date: 2016-03-26 20:39:59 +0200 (Sat, 26 Mar 2016) $
#$Revision: 180443 $
#$URL: svn://www.crystallography.net/cod/cif/7/21/12/7211204.cif $
#------------------------------------------------------------------------------
#
# This file is available in the Crystallography Open Database (COD),
# http://www.crystallography.net/
#
# All data on this site have been placed in the public domain by the
# contributors.
#
data_7211204
loop_
_publ_author_name
'Jones, R. H.'
'Knight, K. S.'
'Marshall, W. G.'
'Coles, S. J.'
'Horton, P. N.'
'Pitak, M. B.'
_publ_section_title
;
 The competition between halogen bonds (Br&#x22EF;O) and C--H&#x22EF;O
 hydrogen bonds: the structure of the acetone--bromine complex revisited
;
_journal_issue                   42
_journal_name_full               CrystEngComm
_journal_page_first              8572
_journal_paper_doi               10.1039/c3ce41472h
_journal_volume                  15
_journal_year                    2013
_chemical_formula_moiety         'C3 D6 Br2 O1'
_chemical_formula_sum            'C3 Br2 D6 O'
_chemical_formula_weight         223.92
_chemical_name_systematic        ' ?'
_space_group_IT_number           15
_symmetry_cell_setting           monoclinic
_symmetry_space_group_name_Hall  '-C 2yc'
_symmetry_space_group_name_H-M   'C 1 2/c 1'
_cell_angle_alpha                90.0
_cell_angle_beta                 102.2629(6)
_cell_angle_gamma                90.0
_cell_formula_units_Z            4
_cell_length_a                   7.58233(11)
_cell_length_b                   7.37528(9)
_cell_length_c                   12.04151(16)
_cell_measurement_temperature    110
_cell_volume                     658.019(15)
_diffrn_ambient_temperature      110
_diffrn_measurement_device_type  'ISIS HRPD '
_diffrn_radiation_probe          neutron
_diffrn_radiation_type           neutron
_exptl_absorpt_correction_T_max  0.86101
_exptl_absorpt_correction_T_min  0.58953
_exptl_crystal_colour            orange
_exptl_crystal_density_diffrn    2.260
_exptl_crystal_density_meas      ?
_exptl_crystal_density_method    'not measured'
_pd_block_id                     2013-04-15T10:09|BR2-ACETONE-CIF_phase1|rhj||
_pd_calc_method                  'Rietveld Refinement'
_pd_instr_location               'ISIS spallation source, England'
_pd_meas_2theta_fixed            168.33
_pd_meas_number_of_points        4610
_pd_meas_scan_method             tof
_pd_phase_name                   avbr2
_pd_proc_info_datetime           2013-04-15T10:09:50
_pd_proc_ls_peak_cutoff          10.76(24)
_pd_proc_ls_pref_orient_corr     ' ?'
_pd_proc_ls_prof_R_factor        0.0148
_pd_proc_ls_prof_wR_expected     0.0061
_pd_proc_ls_prof_wR_factor       0.0160
_pd_proc_number_of_points        4610
_pd_spec_mounting                ' ?'
_refine_ls_goodness_of_fit_all   3.53
_refine_ls_number_parameters     103
_refine_ls_R_Fsqd_factor         0.17965
_reflns_d_resolution_high        0.663
_reflns_d_resolution_low         2.533
_reflns_limit_h_max              11
_reflns_limit_h_min              0
_reflns_limit_k_max              11
_reflns_limit_k_min              0
_reflns_limit_l_max              17
_reflns_limit_l_min              -18
_reflns_number_total             1166
_cod_data_source_file            c3ce41472h.txt
_cod_data_source_block           BR2-ACETONE-CIF_phase_1
_cod_depositor_comments
;
The following automatic conversions were performed:

'_geom_bond_publ_flag' value 'N' changed to 'n' according to
/home/saulius/struct/CIF-dictionaries/cif_core.dic dictionary named
'cif_core.dic' version 2.4.2 from 2011-04-26 (39
times).

'_geom_angle_publ_flag' value 'N' changed to 'n' according
to /home/saulius/struct/CIF-dictionaries/cif_core.dic dictionary
named 'cif_core.dic' version 2.4.2 from 2011-04-26 (22 times).

Automatic conversion script
Id: cif_fix_values 1891 2012-01-12 08:04:46Z andrius 

The following automatic conversions were performed:

'_exptl_crystal_density_meas' value 'not measured' was changed to '?'
- the value is perceived as not measured.

Automatic conversion script
Id: cif_fix_values 3008 2015-01-20 13:52:24Z robertas 
;
_cod_original_cell_volume        658.019(22)
_cod_original_sg_symbol_H-M      C2/c
_cod_database_code               7211204
#BEGIN Tags that were not found in dictionaries:
_gsas_exptl_extinct_corr_t_min   0.75531
_gsas_exptl_extinct_corr_t_max   1.00000
#END Tags that were not found in dictionaries
loop_
_symmetry_equiv_pos_site_id
_symmetry_equiv_pos_as_xyz
1 +x,+y,+z
2 -x,+y,-z+1/2
-1 -x,-y,-z
-2 +x,-y,+z+1/2
101 +x+1/2,+y+1/2,+z
102 -x+1/2,+y+1/2,-z+1/2
-101 -x+1/2,-y+1/2,-z
-102 +x+1/2,-y+1/2,+z+1/2
loop_
_atom_site_aniso_label
_atom_site_aniso_U_11
_atom_site_aniso_U_12
_atom_site_aniso_U_13
_atom_site_aniso_U_22
_atom_site_aniso_U_23
_atom_site_aniso_U_33
BR1 0.0446(15) 0.0044(8) -0.0102(9) 0.0141(10) -0.0007(7) 0.0333(12)
O1 0.0605(20) 0.0 -0.0132(14) 0.0164(17) 0.0 0.0117(15)
C1 0.0126(16) 0.0 -0.0099(10) 0.0313(16) 0.0 0.0203(14)
C2 0.0538(16) -0.0169(11) -0.0149(12) 0.0332(13) -0.0083(10) 0.0259(13)
D1 0.1469(28) -0.0931(21) 0.0135(18) 0.1104(24) -0.0125(15) 0.0491(16)
D2 0.1664(32) -0.0039(20) -0.1027(22) 0.0585(18) -0.0010(14) 0.0969(23)
D3 0.0778(22) -0.0141(16) 0.0120(16) 0.1307(26) -0.0949(21) 0.0904(22)
loop_
_atom_site_type_symbol
_atom_site_label
_atom_site_fract_x
_atom_site_fract_y
_atom_site_fract_z
_atom_site_occupancy
_atom_site_thermal_displace_type
_atom_site_U_iso_or_equiv
_atom_site_symmetry_multiplicity
Br BR1 0.32738(23) 0.65805(20) 0.57249(13) 1.0 Uani 0.0334 8
O O1 0.5 0.44557(34) 0.75 1.0 Uani 0.03264 4
C C1 0.5 0.27882(31) 0.75 1.0 Uani 0.02338 4
C C2 0.3731(4) 0.17252(33) 0.66021(19) 1.0 Uani 0.0411 8
D D1 0.2954(5) 0.0852(5) 0.69368(19) 1.0 Uani 0.1032 8
D D2 0.2890(5) 0.2567(4) 0.60612(24) 1.0 Uani 0.12665 8
D D3 0.4461(4) 0.0949(4) 0.61192(23) 1.0 Uani 0.10051 8
loop_
_atom_type_symbol
_atom_type_number_in_cell
Br 8.0
O 4.0
C 12.0
D 24.0
loop_
_geom_angle_atom_site_label_1
_geom_angle_atom_site_label_2
_geom_angle_atom_site_label_3
_geom_angle
_geom_angle_site_symmetry_1
_geom_angle_site_symmetry_3
_geom_angle_publ_flag
BR1 BR1 O1 177.41(13) -101_566 1_555 n
BR1 O1 BR1 110.45(10) 1_555 2_656 n
BR1 O1 C1 124.77(5) 1_555 1_555 n
BR1 O1 C1 124.77(5) 2_656 1_555 n
O1 C1 C2 121.38(13) 1_555 1_555 n
O1 C1 C2 121.38(13) 1_555 2_656 n
C2 C1 C2 117.24(26) 1_555 2_656 n
C1 C2 D1 112.49(26) 1_555 1_555 n
C1 C2 D2 111.07(28) 1_555 1_555 n
C1 C2 D3 110.44(26) 1_555 1_555 n
D1 C2 D2 107.6(4) 1_555 1_555 n
D1 C2 D3 107.02(34) 1_555 1_555 n
D2 C2 D3 107.99(33) 1_555 1_555 n
C2 D1 D2 36.33(22) 1_555 1_555 n
C2 D1 D3 37.31(20) 1_555 1_555 n
D2 D1 D3 61.05(18) 1_555 1_555 n
C2 D2 D1 36.04(23) 1_555 1_555 n
C2 D2 D3 36.67(19) 1_555 1_555 n
D1 D2 D3 60.07(18) 1_555 1_555 n
C2 D3 D1 35.67(18) 1_555 1_555 n
C2 D3 D2 35.34(18) 1_555 1_555 n
D1 D3 D2 58.88(21) 1_555 1_555 n
loop_
_geom_bond_atom_site_label_1
_geom_bond_atom_site_label_2
_geom_bond_distance
_geom_bond_site_symmetry_2
_geom_bond_publ_flag
BR1 BR1 2.3224(28) -101_566 n
BR1 O1 2.7476(19) 1_555 n
O1 BR1 2.7476(19) 1_555 n
O1 BR1 2.7476(19) 2_656 n
O1 C1 1.2298(28) 1_555 n
O1 C2 2.3891(29) 1_555 n
O1 C2 2.3891(29) 2_656 n
O1 D1 2.6798(33) 101_555 n
O1 D1 2.6798(33) 102_556 n
O1 D2 2.5150(27) 1_555 n
O1 D2 2.5150(27) 2_656 n
C1 O1 1.2298(28) 1_555 n
C1 C2 1.5057(23) 1_555 n
C1 C2 1.5057(23) 2_656 n
C1 D1 2.1118(31) 1_555 n
C1 D1 2.1118(31) 2_656 n
C1 D2 2.1002(22) 1_555 n
C1 D2 2.1002(22) 2_656 n
C1 D3 2.1172(26) 1_555 n
C1 D3 2.1172(26) 2_656 n
C2 O1 2.3891(29) 1_555 n
C2 C1 1.5057(23) 1_555 n
C2 D1 1.0128(26) 1_555 n
C2 D2 1.0197(27) 1_555 n
C2 D3 1.0529(28) 1_555 n
D1 O1 2.6798(33) 101_445 n
D1 C1 2.1118(31) 1_555 n
D1 C2 1.0128(26) 1_555 n
D1 D2 1.641(4) 1_555 n
D1 D3 1.661(4) 1_555 n
D2 O1 2.5150(27) 1_555 n
D2 C1 2.1002(22) 1_555 n
D2 C2 1.0197(27) 1_555 n
D2 D1 1.641(4) 1_555 n
D2 D3 1.677(4) 1_555 n
D3 C1 2.1172(26) 1_555 n
D3 C2 1.0529(28) 1_555 n
D3 D1 1.661(4) 1_555 n
D3 D2 1.677(4) 1_555 n
loop_
_pd_block_diffractogram_id
2013-04-15T10:09|BR2-ACETONE-CIF_H_01|rhj|hrpd
2013-04-15T10:09|BR2-ACETONE-CIF_H_02|rhj|hrpd
loop_
_pd_meas_time_of_flight
_pd_proc_d_spacing
_pd_meas_intensity_total
_pd_proc_ls_weight
_pd_proc_intensity_bkg_calc
_pd_calc_intensity_total
31370.1 . 1.73(5) . . .
31379.6 . 1.80(6) . . .
31389.0 . 1.75(5) . . .
31398.4 . 1.76(5) . . .
31407.8 . 1.71(5) . . .
31417.2 . 1.75(5) . . .
31426.7 . 1.79(5) . . .
31436.1 . 1.78(5) . . .
31445.5 . 1.79(5) . . .
31454.9 . 1.76(5) . . .
31464.4 . 1.82(5) . . .
31473.8 . 1.78(5) . . .
31483.3 . 1.73(5) . . .
31492.7 . 1.75(5) . . .
31502.2 . 1.81(5) . . .
31511.6 . 1.79(5) . . .
31521.1 . 1.80(5) . . .
31530.5 . 1.81(5) . . .
31540.0 . 1.89(5) . . .
31549.4 . 1.87(5) . . .
31558.9 . 1.84(5) . . .
31568.4 . 1.76(5) . . .
31577.8 . 1.87(5) . . .
31587.3 . 1.82(5) . . .
31596.8 . 1.92(5) . . .
31606.3 . 1.89(5) . . .
31615.8 . 1.84(5) . . .
31625.2 . 1.80(5) . . .
31634.7 . 1.75(4) . . .
31644.2 . 1.79(4) . . .
31653.7 . 1.89(5) . . .
31663.2 . 1.88(5) . . .
31672.7 . 1.93(5) . . .
31682.2 . 1.98(5) . . .
31691.7 . 2.02(5) . . .
31701.2 . 1.98(5) . . .
31710.7 . 2.05(5) . . .
31720.2 . 1.90(4) . . .
31729.8 . 1.94(4) . . .
31739.3 . 1.93(4) . . .
31748.8 . 1.92(4) . . .
31758.3 . 1.85(4) . . .
31767.9 . 1.83(4) . . .
31777.4 . 1.91(4) . . .
31786.9 . 1.96(4) . . .
31796.5 . 1.90(4) . . .
31806.0 . 1.83(4) . . .
31815.5 . 1.91(4) . . .
31825.1 . 1.86(4) . . .
31834.6 . 1.89(4) . . .
31844.2 . 1.92(4) . . .
31853.7 . 1.86(4) . . .
31863.3 . 1.86(4) . . .
31872.8 . 1.90(4) . . .
31882.4 . 1.91(4) . . .
31892.0 . 1.88(4) . . .
31901.5 . 1.97(4) . . .
31911.1 . 1.92(4) . . .
31920.7 . 1.94(4) . . .
31930.3 . 1.93(4) . . .
31939.8 . 1.88(4) . . .
31949.4 . 1.98(4) . . .
31959.0 . 1.91(4) . . .
31968.6 . 1.93(4) . . .
31978.2 . 1.97(4) . . .
31987.8 . 2.02(4) . . .
31997.4 0.66261 1.89(4) 0.0 1.812 .
32007.0 0.66281 2.01(4) 685. 1.813 1.932
32016.6 0.66301 1.99(4) 691. 1.815 1.912
32026.2 0.66321 2.02(4) 690. 1.816 1.891
32035.8 0.66341 1.94(4) 721. 1.817 1.872
32045.4 0.66361 1.92(4) 742. 1.819 1.860
32055.0 0.66381 1.91(4) 764. 1.820 1.859
32064.6 0.66401 1.93(4) 766. 1.821 1.867
32074.2 0.66420 1.89(4) 786. 1.823 1.877
32083.9 0.66440 1.90(4) 794. 1.824 1.881
32093.5 0.66460 1.94(4) 780. 1.825 1.883
32103.1 0.66480 1.94(4) 790. 1.827 1.885
32112.8 0.66500 1.92(4) 804. 1.828 1.886
32122.4 0.66520 1.94(4) 785. 1.829 1.885
32132.0 0.66540 1.893(35) 815. 1.8306 1.8825
32141.7 0.66560 1.893(35) 829. 1.8318 1.8807
32151.3 0.66580 1.944(35) 824. 1.8331 1.8800
32160.9 0.66600 1.885(34) 850. 1.8343 1.8783
32170.6 0.66620 1.863(34) 864. 1.8356 1.8736
32180.3 0.66640 1.898(34) 850. 1.8368 1.8690
32189.9 0.66660 1.966(34) 841. 1.8380 1.8694
32199.6 0.66680 1.924(34) 870. 1.8392 1.8772
32209.2 0.66700 1.950(34) 870. 1.8404 1.8925
32218.9 0.66720 1.943(34) 872. 1.8416 1.9141
32228.5 0.66740 1.949(34) 876. 1.8428 1.9360
32238.2 0.66760 1.886(33) 909. 1.8440 1.9443
32247.9 0.66780 1.916(34) 883. 1.8451 1.9326
32257.6 0.66800 1.907(33) 911. 1.8463 1.9109
32267.2 0.66820 1.929(33) 920. 1.8474 1.8922
32276.9 0.66840 1.864(32) 953. 1.8486 1.8814
32286.6 0.66860 1.905(33) 937. 1.8497 1.8786
32296.3 0.66880 1.921(33) 921. 1.8508 1.8817
32306.0 0.66901 1.867(32) 985. 1.8519 1.8871
32315.7 0.66921 1.882(32) 975. 1.8530 1.8916
32325.4 0.66941 1.920(32) 963. 1.8541 1.8971
32335.1 0.66961 1.883(32) 998. 1.8552 1.9043
32344.8 0.66981 1.929(32) 961. 1.8563 1.9103
32354.5 0.67001 1.909(32) 1001. 1.8574 1.9126
32364.2 0.67021 1.895(32) 1002. 1.8585 1.9101
32373.9 0.67041 1.869(31) 1042. 1.8595 1.9023
32383.6 0.67061 1.892(31) 1012. 1.8606 1.8928
32393.3 0.67081 1.856(31) 1054. 1.8616 1.8850
32403.0 0.67102 1.841(30) 1095. 1.8627 1.8797
32412.7 0.67122 1.863(31) 1068. 1.8637 1.8772
32422.5 0.67142 1.881(31) 1053. 1.8647 1.8778
32432.2 0.67162 1.905(31) 1040. 1.8657 1.8822
32441.9 0.67182 1.913(31) 1052. 1.8667 1.8905
32451.7 0.67202 1.910(31) 1066. 1.8677 1.9001
32461.4 0.67222 1.925(31) 1065. 1.8687 1.9051
32471.1 0.67243 1.860(30) 1105. 1.8697 1.9026
32480.9 0.67263 1.919(30) 1078. 1.8707 1.8959
32490.6 0.67283 1.901(30) 1085. 1.8717 1.8899
32500.4 0.67303 1.872(30) 1137. 1.8727 1.8878
32510.1 0.67323 1.882(30) 1124. 1.8736 1.8902
32519.9 0.67344 1.867(29) 1165. 1.8746 1.8965
32529.6 0.67364 1.897(30) 1138. 1.8755 1.9037
32539.4 0.67384 1.895(30) 1144. 1.8765 1.9078
32549.1 0.67404 1.877(29) 1164. 1.8774 1.9089
32558.9 0.67424 1.916(30) 1148. 1.8784 1.9101
32568.7 0.67445 1.852(29) 1198. 1.8793 1.9119
32578.4 0.67465 1.887(29) 1183. 1.8802 1.9110
32588.2 0.67485 1.884(29) 1181. 1.8811 1.9069
32598.0 0.67505 1.884(29) 1199. 1.8820 1.9026
32607.8 0.67526 1.873(29) 1220. 1.8830 1.9001
32617.6 0.67546 1.888(29) 1206. 1.8839 1.8996
32627.3 0.67566 1.934(29) 1188. 1.8847 1.9007
32637.1 0.67586 1.853(28) 1263. 1.8856 1.9026
32646.9 0.67607 1.848(28) 1277. 1.8865 1.9040
32656.7 0.67627 1.880(28) 1243. 1.8874 1.9046
32666.5 0.67647 1.872(28) 1263. 1.8883 1.9057
32676.3 0.67668 1.879(28) 1267. 1.8891 1.9090
32686.1 0.67688 1.895(28) 1264. 1.8900 1.9151
32695.9 0.67708 1.932(29) 1226. 1.8909 1.9245
32705.7 0.67729 1.933(28) 1269. 1.8917 1.9404
32715.5 0.67749 1.959(28) 1243. 1.8926 1.9708
32725.4 0.67769 1.988(29) 1213. 1.8934 2.0140
32735.2 0.67790 1.935(28) 1255. 1.8942 2.0462
32745.0 0.67810 1.933(28) 1262. 1.8951 2.0441
32754.8 0.67830 1.930(28) 1285. 1.8959 2.0168
32764.7 0.67851 1.884(27) 1344. 1.8967 1.9866
32774.5 0.67871 1.943(28) 1293. 1.8976 1.9671
32784.3 0.67891 1.919(27) 1323. 1.8984 1.9621
32794.1 0.67912 1.931(27) 1328. 1.8992 1.9670
32804.0 0.67932 1.953(28) 1310. 1.9000 1.9713
32813.8 0.67952 1.985(28) 1259. 1.9008 1.9703
32823.7 0.67973 1.940(27) 1324. 1.9016 1.9733
32833.5 0.67993 1.943(27) 1338. 1.9024 1.9988
32843.4 0.68014 1.986(28) 1319. 1.9032 2.0573
32853.2 0.68034 2.052(28) 1281. 1.9040 2.1304
32863.1 0.68055 2.039(28) 1310. 1.9047 2.1755
32872.9 0.68075 2.037(28) 1311. 1.9055 2.1686
32882.8 0.68095 2.034(28) 1290. 1.9063 2.1231
32892.7 0.68116 1.967(27) 1393. 1.9071 2.0679
32902.5 0.68136 1.978(27) 1349. 1.9078 2.0197
32912.4 0.68157 1.967(27) 1358. 1.9086 1.9829
32922.3 0.68177 1.980(27) 1352. 1.9094 1.9581
32932.1 0.68198 1.942(27) 1410. 1.9101 1.9446
32942.0 0.68218 1.908(26) 1443. 1.9109 1.9419
32951.9 0.68239 1.960(27) 1388. 1.9116 1.9495
32961.8 0.68259 1.932(26) 1441. 1.9124 1.9634
32971.7 0.68279 1.941(27) 1417. 1.9131 1.9739
32981.6 0.68300 1.929(26) 1460. 1.9138 1.9720
32991.5 0.68320 1.931(26) 1460. 1.9146 1.9605
33001.4 0.68341 1.926(26) 1474. 1.9153 1.9482
33011.3 0.68361 1.877(26) 1535. 1.9160 1.9410
33021.2 0.68382 1.908(26) 1520. 1.9168 1.9400
33031.1 0.68403 1.922(26) 1507. 1.9175 1.9435
33041.0 0.68423 1.954(26) 1490. 1.9182 1.9484
33050.9 0.68444 1.910(25) 1539. 1.9189 1.9544
33060.8 0.68464 1.973(26) 1458. 1.9196 1.9639
33070.7 0.68485 2.016(26) 1443. 1.9203 1.9742
33080.7 0.68505 1.916(25) 1577. 1.9210 1.9785
33090.6 0.68526 1.979(26) 1505. 1.9218 1.9766
33100.5 0.68546 1.976(26) 1505. 1.9225 1.9733
33110.4 0.68567 1.960(25) 1568. 1.9232 1.9706
33120.4 0.68587 1.960(25) 1540. 1.9239 1.9684
33130.3 0.68608 1.975(25) 1545. 1.9245 1.9714
33140.2 0.68629 1.962(25) 1565. 1.9252 1.9877
33150.2 0.68649 2.003(26) 1513. 1.9259 2.0170
33160.1 0.68670 1.998(25) 1546. 1.9266 2.0429
33170.1 0.68690 1.991(25) 1559. 1.9273 2.0459
33180.0 0.68711 1.924(25) 1604. 1.9280 2.0284
33190.0 0.68732 1.981(25) 1575. 1.9287 2.0048
33199.9 0.68752 1.914(25) 1623. 1.9293 1.9861
33209.9 0.68773 1.959(25) 1589. 1.9300 1.9790
33219.9 0.68794 1.942(25) 1629. 1.9307 1.9879
33229.8 0.68814 2.010(25) 1587. 1.9314 2.0083
33239.8 0.68835 2.035(25) 1563. 1.9320 2.0241
33249.8 0.68856 2.059(26) 1534. 1.9327 2.0224
33259.8 0.68876 2.023(25) 1566. 1.9334 2.0086
33269.7 0.68897 2.013(25) 1601. 1.9340 1.9929
33279.7 0.68918 1.987(25) 1617. 1.9347 1.9789
33289.7 0.68938 1.999(25) 1602. 1.9354 1.9678
33299.7 0.68959 1.956(24) 1668. 1.9360 1.9618
33309.7 0.68980 1.953(24) 1691. 1.9367 1.9635
33319.7 0.69000 1.919(24) 1728. 1.9373 1.9728
33329.7 0.69021 1.972(24) 1697. 1.9380 1.9833
33339.7 0.69042 1.978(24) 1697. 1.9386 1.9850
33349.7 0.69062 1.971(24) 1707. 1.9393 1.9770
33359.7 0.69083 1.975(24) 1676. 1.9399 1.9665
33369.7 0.69104 1.964(24) 1698. 1.9406 1.9583
33379.7 0.69125 1.915(24) 1745. 1.9412 1.9536
33389.7 0.69145 1.973(24) 1693. 1.9419 1.9526
33399.7 0.69166 1.968(24) 1702. 1.9425 1.9565
33409.7 0.69187 1.944(24) 1757. 1.9432 1.9664
33419.8 0.69208 1.960(24) 1757. 1.9438 1.9800
33429.8 0.69228 1.984(24) 1721. 1.9444 1.9912
33439.8 0.69249 1.969(24) 1771. 1.9451 1.9994
33449.8 0.69270 1.986(24) 1769. 1.9457 2.0111
33459.9 0.69291 1.996(24) 1746. 1.9463 2.0255
33469.9 0.69312 1.981(24) 1765. 1.9470 2.0344
33480.0 0.69332 2.032(24) 1703. 1.9476 2.0395
33490.0 0.69353 2.042(24) 1699. 1.9482 2.0491
33500.0 0.69374 2.039(24) 1726. 1.9489 2.0573
33510.1 0.69395 2.028(24) 1746. 1.9495 2.0498
33520.2 0.69416 1.991(24) 1774. 1.9501 2.0293
33530.2 0.69436 2.003(24) 1784. 1.9508 2.0081
33540.3 0.69457 1.993(24) 1807. 1.9514 1.9932
33550.3 0.69478 1.987(23) 1817. 1.9520 1.9875
33560.4 0.69499 1.998(23) 1842. 1.9526 1.9916
33570.5 0.69520 2.025(24) 1788. 1.9533 2.0035
33580.5 0.69541 2.003(23) 1826. 1.9539 2.0178
33590.6 0.69562 1.998(23) 1876. 1.9545 2.0276
33600.7 0.69582 1.997(23) 1839. 1.9551 2.0265
33610.8 0.69603 2.013(23) 1823. 1.9558 2.0162
33620.8 0.69624 2.047(23) 1812. 1.9564 2.0061
33630.9 0.69645 2.009(23) 1856. 1.9570 2.0018
33641.0 0.69666 2.032(23) 1833. 1.9576 2.0030
33651.1 0.69687 2.034(23) 1826. 1.9583 2.0079
33661.2 0.69708 2.022(23) 1836. 1.9589 2.0149
33671.3 0.69729 2.057(23) 1816. 1.9595 2.0213
33681.4 0.69750 2.019(23) 1869. 1.9601 2.0281
33691.5 0.69771 2.086(24) 1794. 1.9607 2.0436
33701.6 0.69792 2.123(24) 1769. 1.9614 2.0722
33711.7 0.69812 2.106(24) 1795. 1.9620 2.1075
33721.8 0.69833 2.120(24) 1788. 1.9626 2.1365
33732.0 0.69854 2.134(24) 1792. 1.9632 2.1571
33742.1 0.69875 2.174(24) 1771. 1.9638 2.1817
33752.2 0.69896 2.145(24) 1787. 1.9644 2.1988
33762.3 0.69917 2.158(24) 1751. 1.9651 2.1820
33772.5 0.69938 2.107(23) 1836. 1.9657 2.1412
33782.6 0.69959 2.106(23) 1826. 1.9663 2.1039
33792.7 0.69980 2.085(23) 1871. 1.9669 2.0779
33802.9 0.70001 2.080(23) 1883. 1.9675 2.0553
33813.0 0.70022 2.071(23) 1894. 1.9682 2.0348
33823.1 0.70043 2.062(23) 1907. 1.9688 2.0243
33833.3 0.70064 2.053(23) 1950. 1.9694 2.0306
33843.4 0.70085 2.077(23) 1938. 1.9700 2.0516
33853.6 0.70106 2.143(23) 1842. 1.9706 2.0717
33863.8 0.70127 2.097(23) 1890. 1.9712 2.0711
33873.9 0.70148 2.045(23) 1967. 1.9719 2.0517
33884.1 0.70169 2.052(23) 1961. 1.9725 2.0293
33894.2 0.70191 2.022(22) 2004. 1.9731 2.0130
33904.4 0.70212 2.051(22) 1982. 1.9737 2.0036
33914.6 0.70233 2.060(23) 1967. 1.9743 1.9989
33924.8 0.70254 2.048(22) 1987. 1.9750 1.9973
33934.9 0.70275 2.044(22) 2019. 1.9756 1.9989
33945.1 0.70296 2.080(22) 1978. 1.9762 2.0057
33955.3 0.70317 2.063(22) 1988. 1.9768 2.0188
33965.5 0.70338 2.077(22) 1988. 1.9774 2.0376
33975.7 0.70359 2.108(23) 1952. 1.9781 2.0634
33985.9 0.70380 2.137(23) 1941. 1.9787 2.0972
33996.1 0.70401 2.114(23) 1967. 1.9793 2.1289
34006.3 0.70423 2.118(22) 1996. 1.9799 2.1528
34016.5 0.70444 2.161(23) 1962. 1.9806 2.1836
34026.7 0.70465 2.200(23) 1906. 1.9812 2.2236
34036.9 0.70486 2.162(23) 1949. 1.9818 2.2525
34047.1 0.70507 2.185(23) 1952. 1.9824 2.2616
34057.3 0.70528 2.182(23) 1934. 1.9831 2.2482
34067.5 0.70549 2.203(23) 1925. 1.9837 2.2101
34077.7 0.70571 2.162(22) 1987. 1.9843 2.1560
34088.0 0.70592 2.145(23) 1960. 1.9849 2.1037
34098.2 0.70613 2.096(22) 2037. 1.9856 2.0653
34108.4 0.70634 2.107(22) 2059. 1.9862 2.0436
34118.7 0.70655 2.067(22) 2117. 1.9868 2.0371
34128.9 0.70677 2.082(22) 2090. 1.9875 2.0417
34139.1 0.70698 2.122(22) 2059. 1.9881 2.0493
34149.4 0.70719 2.108(22) 2091. 1.9887 2.0522
34159.6 0.70740 2.085(22) 2101. 1.9893 2.0483
34169.9 0.70761 2.111(22) 2050. 1.9900 2.0384
34180.1 0.70783 2.078(22) 2088. 1.9906 2.0269
34190.4 0.70804 2.054(21) 2167. 1.9913 2.0170
34200.6 0.70825 2.068(22) 2131. 1.9919 2.0098
34210.9 0.70846 2.027(21) 2208. 1.9925 2.0052
34221.1 0.70868 2.049(21) 2211. 1.9932 2.0027
34231.4 0.70889 2.036(21) 2204. 1.9938 2.0021
34241.7 0.70910 2.028(21) 2242. 1.9944 2.0027
34252.0 0.70931 2.053(21) 2215. 1.9951 2.0046
34262.2 0.70953 2.062(21) 2198. 1.9957 2.0079
34272.5 0.70974 2.067(21) 2187. 1.9964 2.0137
34282.8 0.70995 2.070(21) 2189. 1.9970 2.0246
34293.1 0.71017 2.117(22) 2143. 1.9977 2.0434
34303.4 0.71038 2.080(21) 2213. 1.9983 2.0690
34313.7 0.71059 2.096(21) 2185. 1.9990 2.0910
34323.9 0.71081 2.130(22) 2139. 1.9996 2.0972
34334.2 0.71102 2.100(21) 2203. 2.0002 2.0917
34344.5 0.71123 2.136(22) 2154. 2.0009 2.0871
34354.8 0.71145 2.099(21) 2201. 2.0016 2.0860
34365.2 0.71166 2.101(21) 2219. 2.0022 2.0824
34375.5 0.71187 2.101(21) 2230. 2.0029 2.0727
34385.8 0.71209 2.082(21) 2246. 2.0035 2.0603
34396.1 0.71230 2.094(21) 2224. 2.0042 2.0504
34406.4 0.71251 2.121(21) 2206. 2.0048 2.0448
34416.7 0.71273 2.094(21) 2242. 2.0055 2.0436
34427.1 0.71294 2.090(21) 2284. 2.0061 2.0481
34437.4 0.71316 2.123(21) 2244. 2.0068 2.0621
34447.7 0.71337 2.112(21) 2276. 2.0075 2.0883
34458.1 0.71358 2.157(21) 2236. 2.0081 2.1220
34468.4 0.71380 2.188(21) 2180. 2.0088 2.1509
34478.7 0.71401 2.173(21) 2211. 2.0095 2.1695
34489.1 0.71423 2.212(21) 2182. 2.0101 2.1832
34499.4 0.71444 2.229(22) 2156. 2.0108 2.1958
34509.8 0.71466 2.246(22) 2139. 2.0115 2.1957
34520.1 0.71487 2.201(21) 2207. 2.0121 2.1809
34530.5 0.71508 2.205(21) 2236. 2.0128 2.1688
34540.8 0.71530 2.202(21) 2230. 2.0135 2.1670
34551.2 0.71551 2.228(21) 2189. 2.0142 2.1679
34561.6 0.71573 2.186(21) 2262. 2.0148 2.1700
34571.9 0.71594 2.197(21) 2273. 2.0155 2.1804
34582.3 0.71616 2.224(21) 2231. 2.0162 2.1900
34592.7 0.71637 2.235(21) 2266. 2.0169 2.1838
34603.1 0.71659 2.194(21) 2302. 2.0176 2.1653
34613.4 0.71680 2.208(21) 2287. 2.0183 2.1445
34623.8 0.71702 2.182(21) 2317. 2.0189 2.1257
34634.2 0.71723 2.177(21) 2328. 2.0196 2.1073
34644.6 0.71745 2.139(20) 2405. 2.0203 2.0912
34655.0 0.71766 2.121(20) 2427. 2.0210 2.0826
34665.4 0.71788 2.123(20) 2432. 2.0217 2.0796
34675.8 0.71809 2.117(20) 2433. 2.0224 2.0753
34686.2 0.71831 2.086(20) 2480. 2.0231 2.0698
34696.6 0.71853 2.157(21) 2379. 2.0238 2.0712
34707.0 0.71874 2.147(20) 2426. 2.0245 2.0875
34717.4 0.71896 2.150(20) 2430. 2.0252 2.1189
34727.8 0.71917 2.155(20) 2417. 2.0259 2.1506
34738.3 0.71939 2.151(20) 2443. 2.0266 2.1644
34748.7 0.71960 2.148(20) 2461. 2.0273 2.1620
34759.1 0.71982 2.149(20) 2458. 2.0280 2.1535
34769.5 0.72004 2.157(20) 2435. 2.0287 2.1398
34780.0 0.72025 2.156(20) 2462. 2.0294 2.1210
34790.4 0.72047 2.166(20) 2470. 2.0301 2.1064
34800.8 0.72068 2.145(20) 2520. 2.0308 2.1102
34811.3 0.72090 2.215(20) 2418. 2.0315 2.1427
34821.7 0.72112 2.260(21) 2363. 2.0323 2.1998
34832.2 0.72133 2.314(21) 2307. 2.0330 2.2541
34842.6 0.72155 2.274(21) 2374. 2.0337 2.2773
34853.1 0.72177 2.239(20) 2411. 2.0344 2.2625
34863.5 0.72198 2.226(20) 2472. 2.0351 2.2232
34874.0 0.72220 2.173(20) 2518. 2.0359 2.1784
34884.4 0.72242 2.168(20) 2536. 2.0366 2.1394
34894.9 0.72263 2.147(20) 2558. 2.0373 2.1090
34905.4 0.72285 2.100(19) 2641. 2.0380 2.0874
34915.8 0.72307 2.132(20) 2578. 2.0388 2.0749
34926.3 0.72328 2.143(20) 2572. 2.0395 2.0720
34936.8 0.72350 2.124(19) 2645. 2.0402 2.0773
34947.3 0.72372 2.144(20) 2620. 2.0410 2.0858
34957.8 0.72394 2.129(19) 2648. 2.0417 2.0893
34968.2 0.72415 2.102(19) 2698. 2.0424 2.0856
34978.7 0.72437 2.109(19) 2681. 2.0432 2.0805
34989.2 0.72459 2.117(19) 2679. 2.0439 2.0785
34999.7 0.72480 2.127(19) 2676. 2.0447 2.0816
35010.2 0.72502 2.124(19) 2657. 2.0454 2.0912
35020.7 0.72524 2.124(19) 2711. 2.0462 2.1081
35031.2 0.72546 2.109(19) 2729. 2.0469 2.1269
35041.7 0.72567 2.154(19) 2680. 2.0477 2.1369
35052.3 0.72589 2.139(19) 2690. 2.0484 2.1329
35062.8 0.72611 2.111(19) 2734. 2.0492 2.1255
35073.3 0.72633 2.154(19) 2715. 2.0499 2.1303
35084. 0.72655 2.173(19) 2659. 2.0507 2.1581
35094. 0.72676 2.218(19) 2641. 2.0514 2.2105
35105. 0.72698 2.259(20) 2597. 2.0522 2.2693
35115. 0.72720 2.215(19) 2646. 2.0529 2.2970
35126. 0.72742 2.245(20) 2590. 2.0537 2.2741
35136. 0.72764 2.224(19) 2641. 2.0545 2.2224
35147. 0.72786 2.142(19) 2792. 2.0552 2.1745
35158. 0.72807 2.143(19) 2782. 2.0560 2.1458
35168. 0.72829 2.179(19) 2741. 2.0568 2.1397
35179. 0.72851 2.177(19) 2746. 2.0576 2.1540
35189. 0.72873 2.194(19) 2723. 2.0583 2.1772
35200. 0.72895 2.150(19) 2774. 2.0591 2.1874
35210. 0.72917 2.151(19) 2792. 2.0599 2.1755
35221. 0.72939 2.162(19) 2783. 2.0607 2.1553
35231. 0.72960 2.140(19) 2807. 2.0614 2.1426
35242. 0.72982 2.149(19) 2813. 2.0622 2.1413
35253. 0.73004 2.141(19) 2850. 2.0630 2.1443
35263. 0.73026 2.133(19) 2889. 2.0638 2.1440
35274. 0.73048 2.144(19) 2862. 2.0646 2.1420
35284. 0.73070 2.160(19) 2868. 2.0654 2.1460
35295. 0.73092 2.188(19) 2819. 2.0662 2.1616
35306. 0.73114 2.205(19) 2773. 2.0670 2.1824
35316. 0.73136 2.212(19) 2771. 2.0678 2.1954
35327. 0.73158 2.190(19) 2835. 2.0686 2.2007
35337. 0.73180 2.197(19) 2838. 2.0694 2.2037
35348. 0.73202 2.196(19) 2855. 2.0702 2.1994
35359. 0.73224 2.154(19) 2906. 2.0710 2.1797
35369. 0.73246 2.162(19) 2909. 2.0718 2.1522
35380. 0.73268 2.148(18) 2936. 2.0726 2.1279
35390. 0.73290 2.106(18) 3013. 2.0734 2.1103
35401. 0.73312 2.112(18) 2998. 2.0742 2.0987
35412. 0.73334 2.110(18) 3036. 2.0750 2.0915
35422. 0.73356 2.113(18) 3021. 2.0758 2.0877
35433. 0.73378 2.117(18) 3005. 2.0766 2.0872
35443. 0.73400 2.119(18) 3001. 2.0774 2.0906
35454. 0.73422 2.108(18) 3053. 2.0782 2.0970
35465. 0.73444 2.121(18) 3050. 2.0791 2.1032
35475. 0.73466 2.118(18) 3029. 2.0799 2.1058
35486. 0.73488 2.156(18) 2955. 2.0807 2.1072
35497. 0.73510 2.142(18) 3016. 2.0815 2.1115
35507. 0.73532 2.124(18) 3070. 2.0824 2.1208
35518. 0.73554 2.112(18) 3102. 2.0832 2.1364
35529. 0.73576 2.203(18) 2966. 2.0840 2.1600
35539. 0.73598 2.183(18) 3007. 2.0848 2.1848
35550. 0.73620 2.163(18) 3034. 2.0857 2.1936
35561. 0.73642 2.191(18) 2983. 2.0865 2.1809
35571. 0.73664 2.128(18) 3111. 2.0874 2.1617
35582. 0.73686 2.146(18) 3095. 2.0882 2.1537
35593. 0.73709 2.172(18) 3039. 2.0890 2.1644
35603. 0.73731 2.185(18) 3037. 2.0899 2.1874
35614. 0.73753 2.181(18) 3072. 2.0907 2.2067
35625. 0.73775 2.206(18) 3049. 2.0916 2.2167
35635. 0.73797 2.238(18) 2974. 2.0924 2.2252
35646. 0.73819 2.205(18) 3039. 2.0933 2.2300
35657. 0.73841 2.174(18) 3108. 2.0941 2.2223
35667. 0.73864 2.203(18) 3056. 2.0950 2.2069
35678. 0.73886 2.183(18) 3126. 2.0958 2.1951
35689. 0.73908 2.226(18) 3015. 2.0967 2.1963
35700. 0.73930 2.215(18) 3079. 2.0975 2.2113
35710. 0.73952 2.239(18) 3017. 2.0984 2.2267
35721. 0.73974 2.198(18) 3084. 2.0992 2.2291
35732. 0.73997 2.177(18) 3131. 2.1001 2.2198
35742. 0.74019 2.181(18) 3159. 2.1010 2.2025
35753. 0.74041 2.179(18) 3161. 2.1018 2.1804
35764. 0.74063 2.162(18) 3147. 2.1027 2.1601
35775. 0.74085 2.123(18) 3263. 2.1036 2.1460
35785. 0.74108 2.113(17) 3287. 2.1044 2.1391
35796. 0.74130 2.126(17) 3270. 2.1053 2.1410
35807. 0.74152 2.125(17) 3283. 2.1062 2.1531
35818. 0.74174 2.153(18) 3227. 2.1070 2.1700
35828. 0.74197 2.173(18) 3232. 2.1079 2.1792
35839. 0.74219 2.152(17) 3274. 2.1088 2.1739
35850. 0.74241 2.129(17) 3328. 2.1097 2.1617
35861. 0.74264 2.110(17) 3375. 2.1106 2.1530
35871. 0.74286 2.158(18) 3259. 2.1114 2.1536
35882. 0.74308 2.155(17) 3308. 2.1123 2.1634
35893. 0.74330 2.171(18) 3246. 2.1132 2.1770
35904. 0.74353 2.183(18) 3251. 2.1141 2.1907
35914. 0.74375 2.178(17) 3301. 2.1150 2.2068
35925. 0.74397 2.160(17) 3344. 2.1159 2.2240
35936. 0.74420 2.219(18) 3214. 2.1168 2.2365
35947. 0.74442 2.224(18) 3233. 2.1176 2.2488
35957. 0.74464 2.215(17) 3281. 2.1185 2.2639
35968. 0.74487 2.196(17) 3297. 2.1194 2.2657
35979. 0.74509 2.169(17) 3360. 2.1203 2.2460
35990. 0.74531 2.158(17) 3358. 2.1212 2.2211
36001. 0.74554 2.166(17) 3356. 2.1221 2.2061
36011. 0.74576 2.155(17) 3408. 2.1230 2.2002
36022. 0.74599 2.174(17) 3341. 2.1239 2.1958
36033. 0.74621 2.151(17) 3438. 2.1248 2.1889
36044. 0.74643 2.134(17) 3461. 2.1257 2.1819
36055. 0.74666 2.150(17) 3414. 2.1267 2.1793
36065. 0.74688 2.185(17) 3387. 2.1276 2.1851
36076. 0.74711 2.165(17) 3451. 2.1285 2.2034
36087. 0.74733 2.205(17) 3353. 2.1294 2.2295
36098. 0.74755 2.182(17) 3389. 2.1303 2.2442
36109. 0.74778 2.199(17) 3372. 2.1312 2.2362
36120. 0.74800 2.168(17) 3458. 2.1321 2.2159
36130. 0.74823 2.153(17) 3496. 2.1330 2.1949
36141. 0.74845 2.154(17) 3488. 2.1340 2.1782
36152. 0.74868 2.170(17) 3449. 2.1349 2.1659
36163. 0.74890 2.144(17) 3529. 2.1358 2.1576
36174. 0.74913 2.167(17) 3482. 2.1367 2.1534
36185. 0.74935 2.168(17) 3460. 2.1376 2.1540
36196. 0.74957 2.131(17) 3577. 2.1386 2.1591
36206. 0.74980 2.159(17) 3562. 2.1395 2.1658
36217. 0.75002 2.177(17) 3500. 2.1404 2.1701
36228. 0.75025 2.151(17) 3584. 2.1414 2.1716
36239. 0.75047 2.169(17) 3564. 2.1423 2.1723
36250. 0.75070 2.161(17) 3577. 2.1432 2.1729
36261. 0.75093 2.186(17) 3524. 2.1441 2.1731
36272. 0.75115 2.157(17) 3578. 2.1451 2.1713
36282. 0.75138 2.126(17) 3659. 2.1460 2.1670
36293. 0.75160 2.134(16) 3678. 2.1470 2.1622
36304. 0.75183 2.140(17) 3664. 2.1479 2.1588
36315. 0.75205 2.117(16) 3705. 2.1488 2.1572
36326. 0.75228 2.138(16) 3683. 2.1498 2.1574
36337. 0.75250 2.136(16) 3685. 2.1507 2.1591
36348. 0.75273 2.124(16) 3716. 2.1517 2.1633
36359. 0.75296 2.175(17) 3642. 2.1526 2.1716
36370. 0.75318 2.162(17) 3654. 2.1535 2.1840
36381. 0.75341 2.178(17) 3653. 2.1545 2.1981
36391. 0.75363 2.207(17) 3594. 2.1554 2.2117
36402. 0.75386 2.219(17) 3586. 2.1564 2.2224
36413. 0.75409 2.218(17) 3597. 2.1573 2.2264
36424. 0.75431 2.201(17) 3617. 2.1583 2.2225
36435. 0.75454 2.200(17) 3654. 2.1592 2.2130
36446. 0.75477 2.188(17) 3641. 2.1602 2.2037
36457. 0.75499 2.219(17) 3642. 2.1611 2.1987
36468. 0.75522 2.216(17) 3649. 2.1621 2.1974
36479. 0.75544 2.206(17) 3656. 2.1631 2.1956
36490. 0.75567 2.180(16) 3688. 2.1640 2.1919
36501. 0.75590 2.170(16) 3746. 2.1650 2.1887
36512. 0.75613 2.205(17) 3646. 2.1659 2.1893
36523. 0.75635 2.207(17) 3642. 2.1669 2.1944
36534. 0.75658 2.204(16) 3713. 2.1679 2.2015
36545. 0.75681 2.160(16) 3806. 2.1688 2.2065
36556. 0.75703 2.193(16) 3727. 2.1698 2.2099
36567. 0.75726 2.199(16) 3727. 2.1707 2.2163
36578. 0.75749 2.240(17) 3659. 2.1717 2.2289
36588. 0.75771 2.233(16) 3685. 2.1727 2.2498
36599. 0.75794 2.280(17) 3608. 2.1736 2.2823
36610. 0.75817 2.268(17) 3640. 2.1746 2.3212
36621. 0.75840 2.305(17) 3572. 2.1756 2.3457
36632. 0.75862 2.294(17) 3598. 2.1766 2.3388
36643. 0.75885 2.266(17) 3671. 2.1775 2.3090
36654. 0.75908 2.239(16) 3728. 2.1785 2.2774
36665. 0.75931 2.256(16) 3733. 2.1795 2.2541
36676. 0.75954 2.251(16) 3724. 2.1804 2.2376
36687. 0.75976 2.243(16) 3739. 2.1814 2.2239
36698. 0.75999 2.260(16) 3710. 2.1824 2.2123
36709. 0.76022 2.250(16) 3715. 2.1834 2.2038
36720. 0.76045 2.216(16) 3814. 2.1844 2.1982
36731. 0.76068 2.195(16) 3842. 2.1853 2.1950
36742. 0.76090 2.197(16) 3866. 2.1863 2.1933
36753. 0.76113 2.189(16) 3889. 2.1873 2.1926
36765. 0.76136 2.182(16) 3913. 2.1883 2.1926
36776. 0.76159 2.165(16) 3909. 2.1893 2.1932
36787. 0.76182 2.186(16) 3878. 2.1902 2.1942
36798. 0.76205 2.203(16) 3854. 2.1912 2.1956
36809. 0.76228 2.192(16) 3929. 2.1922 2.1977
36820. 0.76250 2.181(16) 3936. 2.1932 2.2025
36831. 0.76273 2.190(16) 3948. 2.1942 2.2149
36842. 0.76296 2.201(16) 3944. 2.1952 2.2425
36853. 0.76319 2.264(16) 3795. 2.1962 2.2873
36864. 0.76342 2.273(16) 3820. 2.1971 2.3357
36875. 0.76365 2.271(16) 3808. 2.1981 2.3674
36886. 0.76388 2.324(16) 3720. 2.1991 2.3760
36897. 0.76411 2.330(16) 3747. 2.2001 2.3719
36908. 0.76434 2.330(16) 3715. 2.2011 2.3648
36919. 0.76457 2.296(16) 3754. 2.2021 2.3482
36930. 0.76480 2.286(16) 3841. 2.2031 2.3194
36941. 0.76502 2.277(16) 3838. 2.2041 2.2884
36952. 0.76525 2.296(16) 3813. 2.2051 2.2652
36964. 0.76548 2.243(16) 3938. 2.2061 2.2564
36975. 0.76571 2.276(16) 3870. 2.2071 2.2674
36986. 0.76594 2.315(16) 3793. 2.2081 2.3004
36997. 0.76617 2.323(16) 3787. 2.2091 2.3433
37008. 0.76640 2.315(16) 3855. 2.2101 2.3717
37019. 0.76663 2.321(16) 3858. 2.2110 2.3740
37030. 0.76686 2.323(16) 3840. 2.2120 2.3630
37041. 0.76709 2.358(16) 3747. 2.2130 2.3551
37052. 0.76732 2.350(16) 3764. 2.2140 2.3461
37063. 0.76755 2.307(16) 3881. 2.2150 2.3254
37075. 0.76778 2.316(16) 3886. 2.2160 2.2978
37086. 0.76801 2.304(16) 3868. 2.2170 2.2737
37097. 0.76825 2.254(16) 3995. 2.2180 2.2578
37108. 0.76848 2.225(16) 4073. 2.2190 2.2493
37119. 0.76871 2.242(16) 4023. 2.2200 2.2461
37130. 0.76894 2.259(16) 4012. 2.2210 2.2459
37141. 0.76917 2.271(16) 3967. 2.2221 2.2469
37153. 0.76940 2.269(16) 3985. 2.2231 2.2475
37164. 0.76963 2.263(16) 4006. 2.2241 2.2466
37175. 0.76986 2.262(16) 3999. 2.2251 2.2440
37186. 0.77009 2.272(16) 3997. 2.2261 2.2409
37197. 0.77032 2.254(16) 4060. 2.2271 2.2383
37208. 0.77055 2.246(16) 4096. 2.2281 2.2366
37219. 0.77078 2.235(16) 4093. 2.2291 2.2353
37231. 0.77102 2.232(16) 4115. 2.2301 2.2347
37242. 0.77125 2.222(15) 4163. 2.2311 2.2346
37253. 0.77148 2.228(16) 4099. 2.2321 2.2351
37264. 0.77171 2.224(16) 4140. 2.2331 2.2362
37275. 0.77194 2.231(15) 4178. 2.2341 2.2388
37286. 0.77217 2.237(16) 4155. 2.2351 2.2449
37298. 0.77241 2.246(16) 4109. 2.2361 2.2564
37309. 0.77264 2.270(16) 4064. 2.2371 2.2726
37320. 0.77287 2.277(16) 4071. 2.2381 2.2887
37331. 0.77310 2.257(16) 4111. 2.2392 2.3018
37342. 0.77333 2.245(15) 4180. 2.2402 2.3111
37354. 0.77356 2.257(16) 4139. 2.2412 2.3123
37365. 0.77380 2.272(16) 4097. 2.2422 2.3034
37376. 0.77403 2.257(16) 4157. 2.2432 2.2894
37387. 0.77426 2.237(15) 4220. 2.2442 2.2766
37398. 0.77449 2.251(15) 4203. 2.2452 2.2678
37410. 0.77473 2.258(15) 4173. 2.2462 2.2633
37421. 0.77496 2.279(16) 4134. 2.2472 2.2644
37432. 0.77519 2.299(16) 4108. 2.2482 2.2741
37443. 0.77542 2.294(15) 4165. 2.2493 2.2940
37455. 0.77566 2.325(16) 4098. 2.2503 2.3178
37466. 0.77589 2.358(16) 4009. 2.2513 2.3342
37477. 0.77612 2.333(16) 4105. 2.2523 2.3419
37488. 0.77636 2.346(16) 4062. 2.2533 2.3456
37500. 0.77659 2.329(16) 4141. 2.2543 2.3418
37511. 0.77682 2.314(16) 4142. 2.2553 2.3282
37522. 0.77705 2.300(15) 4170. 2.2563 2.3119
37533. 0.77729 2.294(15) 4195. 2.2573 2.3004
37545. 0.77752 2.304(15) 4176. 2.2583 2.2954
37556. 0.77775 2.288(15) 4239. 2.2594 2.2934
37567. 0.77799 2.288(15) 4220. 2.2604 2.2906
37578. 0.77822 2.323(16) 4142. 2.2614 2.2870
37590. 0.77845 2.315(15) 4180. 2.2624 2.2858
37601. 0.77869 2.308(15) 4248. 2.2634 2.2925
37612. 0.77892 2.298(15) 4271. 2.2644 2.3159
37624. 0.77916 2.347(15) 4191. 2.2654 2.3616
37635. 0.77939 2.387(16) 4095. 2.2664 2.4213
37646. 0.77962 2.384(16) 4145. 2.2674 2.4748
37657. 0.77986 2.435(16) 4045. 2.2685 2.5079
37669. 0.78009 2.489(16) 3958. 2.2695 2.5159
37680. 0.78032 2.494(16) 3961. 2.2705 2.5019
37691. 0.78056 2.457(16) 4008. 2.2715 2.4725
37703. 0.78079 2.426(16) 4085. 2.2725 2.4418
37714. 0.78103 2.399(16) 4153. 2.2735 2.4149
37725. 0.78126 2.376(15) 4203. 2.2745 2.3865
37737. 0.78150 2.365(15) 4249. 2.2755 2.3571
37748. 0.78173 2.341(15) 4302. 2.2765 2.3324
37759. 0.78197 2.302(15) 4409. 2.2775 2.3148
37771. 0.78220 2.298(15) 4437. 2.2786 2.3035
37782. 0.78243 2.279(15) 4475. 2.2796 2.2967
37793. 0.78267 2.331(15) 4312. 2.2806 2.2931
37805. 0.78290 2.302(15) 4424. 2.2816 2.2916
37816. 0.78314 2.294(15) 4440. 2.2826 2.2913
37827. 0.78337 2.327(15) 4361. 2.2836 2.2915
37839. 0.78361 2.299(15) 4435. 2.2846 2.2924
37850. 0.78384 2.322(15) 4409. 2.2856 2.2964
37861. 0.78408 2.310(15) 4476. 2.2866 2.3077
37873. 0.78432 2.349(15) 4394. 2.2876 2.3302
37884. 0.78455 2.378(15) 4342. 2.2886 2.3597
37895. 0.78479 2.364(15) 4417. 2.2896 2.3803
37907. 0.78502 2.380(15) 4327. 2.2906 2.3780
37918. 0.78526 2.377(15) 4354. 2.2916 2.3600
37929. 0.78549 2.346(15) 4445. 2.2927 2.3405
37941. 0.78573 2.338(15) 4463. 2.2937 2.3264
37952. 0.78596 2.345(15) 4439. 2.2947 2.3196
37964. 0.78620 2.363(15) 4408. 2.2957 2.3207
37975. 0.78644 2.363(15) 4411. 2.2967 2.3305
37986. 0.78667 2.372(15) 4401. 2.2977 2.3445
37998. 0.78691 2.369(15) 4437. 2.2987 2.3530
38009. 0.78714 2.347(15) 4470. 2.2997 2.3511
38021. 0.78738 2.355(15) 4472. 2.3007 2.3446
38032. 0.78762 2.354(15) 4467. 2.3017 2.3407
38043. 0.78785 2.372(15) 4429. 2.3027 2.3395
38055. 0.78809 2.352(15) 4500. 2.3037 2.3368
38066. 0.78833 2.349(15) 4546. 2.3047 2.3319
38078. 0.78856 2.327(15) 4605. 2.3057 2.3288
38089. 0.78880 2.357(15) 4541. 2.3067 2.3331
38101. 0.78904 2.375(15) 4541. 2.3077 2.3499
38112. 0.78927 2.391(15) 4500. 2.3087 2.3784
38123. 0.78951 2.432(15) 4375. 2.3097 2.4056
38135. 0.78975 2.417(15) 4402. 2.3107 2.4139
38146. 0.78998 2.372(15) 4537. 2.3117 2.4011
38158. 0.79022 2.382(15) 4518. 2.3127 2.3794
38169. 0.79046 2.355(15) 4556. 2.3136 2.3599
38181. 0.79069 2.363(15) 4595. 2.3146 2.3460
38192. 0.79093 2.352(15) 4599. 2.3156 2.3373
38204. 0.79117 2.364(15) 4594. 2.3166 2.3328
38215. 0.79141 2.351(15) 4656. 2.3176 2.3334
38226. 0.79164 2.386(15) 4568. 2.3186 2.3434
38238. 0.79188 2.373(15) 4619. 2.3196 2.3678
38249. 0.79212 2.424(15) 4533. 2.3206 2.4024
38261. 0.79236 2.460(15) 4460. 2.3216 2.4283
38272. 0.79259 2.449(15) 4494. 2.3226 2.4319
38284. 0.79283 2.427(15) 4547. 2.3236 2.4283
38295. 0.79307 2.453(15) 4491. 2.3245 2.4365
38307. 0.79331 2.464(15) 4466. 2.3255 2.4528
38318. 0.79355 2.485(15) 4414. 2.3265 2.4554
38330. 0.79378 2.453(15) 4537. 2.3275 2.4366
38341. 0.79402 2.418(15) 4612. 2.3285 2.4093
38353. 0.79426 2.408(15) 4612. 2.3295 2.3854
38364. 0.79450 2.411(15) 4590. 2.3304 2.3690
38376. 0.79474 2.377(15) 4689. 2.3314 2.3594
38387. 0.79498 2.359(15) 4749. 2.3324 2.3557
38399. 0.79522 2.367(15) 4714. 2.3334 2.3587
38410. 0.79545 2.387(15) 4714. 2.3344 2.3749
38422. 0.79569 2.420(15) 4644. 2.3353 2.4154
38433. 0.79593 2.496(15) 4483. 2.3363 2.4777
38445. 0.79617 2.529(15) 4417. 2.3373 2.5294
38456. 0.79641 2.485(15) 4505. 2.3383 2.5341
38468. 0.79665 2.495(15) 4470. 2.3393 2.5012
38480. 0.79689 2.442(15) 4607. 2.3402 2.4614
38491. 0.79713 2.423(15) 4680. 2.3412 2.4319
38503. 0.79737 2.422(15) 4685. 2.3422 2.4180
38514. 0.79760 2.432(15) 4699. 2.3431 2.4232
38526. 0.79784 2.473(15) 4579. 2.3441 2.4501
38537. 0.79808 2.511(15) 4536. 2.3451 2.4873
38549. 0.79832 2.508(15) 4540. 2.3461 2.5068
38560. 0.79856 2.479(15) 4613. 2.3470 2.4933
38572. 0.79880 2.465(15) 4626. 2.3480 2.4612
38584. 0.79904 2.437(15) 4721. 2.3490 2.4289
38595. 0.79928 2.376(14) 4863. 2.3499 2.4042
38607. 0.79952 2.373(14) 4861. 2.3509 2.3874
38618. 0.79976 2.386(14) 4806. 2.3518 2.3764
38630. 0.80000 2.369(14) 4872. 2.3528 2.3696
38641. 0.80024 2.363(14) 4867. 2.3538 2.3656
38653. 0.80048 2.370(14) 4866. 2.3547 2.3635
38665. 0.80072 2.369(14) 4885. 2.3557 2.3629
38676. 0.80096 2.355(14) 4953. 2.3566 2.3635
38688. 0.80120 2.365(14) 4893. 2.3576 2.3658
38699. 0.80144 2.372(14) 4884. 2.3586 2.3710
38711. 0.80168 2.374(14) 4932. 2.3595 2.3809
38723. 0.80192 2.375(14) 4900. 2.3605 2.3941
38734. 0.80216 2.392(14) 4913. 2.3614 2.4074
38746. 0.80240 2.417(14) 4847. 2.3624 2.4216
38758. 0.80265 2.447(14) 4775. 2.3633 2.4406
38769. 0.80289 2.474(15) 4740. 2.3643 2.4601
38781. 0.80313 2.465(15) 4742. 2.3652 2.4763
38792. 0.80337 2.526(15) 4583. 2.3662 2.4979
38804. 0.80361 2.520(15) 4649. 2.3671 2.5260
38816. 0.80385 2.520(15) 4615. 2.3681 2.5425
38827. 0.80409 2.492(15) 4728. 2.3690 2.5393
38839. 0.80433 2.470(14) 4790. 2.3699 2.5248
38851. 0.80457 2.441(14) 4832. 2.3709 2.5034
38862. 0.80482 2.445(14) 4841. 2.3718 2.4797
38874. 0.80506 2.436(14) 4876. 2.3728 2.4619
38886. 0.80530 2.450(14) 4838. 2.3737 2.4546
38897. 0.80554 2.445(14) 4877. 2.3746 2.4556
38909. 0.80578 2.438(14) 4900. 2.3756 2.4592
38921. 0.80602 2.438(14) 4881. 2.3765 2.4600
38932. 0.80627 2.455(14) 4865. 2.3774 2.4594
38944. 0.80651 2.461(14) 4888. 2.3784 2.4635
38956. 0.80675 2.445(14) 4957. 2.3793 2.4733
38967. 0.80699 2.481(14) 4858. 2.3802 2.4810
38979. 0.80723 2.496(14) 4822. 2.3811 2.4819
38991. 0.80748 2.509(14) 4798. 2.3821 2.4825
39002. 0.80772 2.515(14) 4783. 2.3830 2.4910
39014. 0.80796 2.509(14) 4800. 2.3839 2.5063
39026. 0.80820 2.511(14) 4773. 2.3848 2.5161
39038. 0.80845 2.503(14) 4817. 2.3858 2.5116
39049. 0.80869 2.518(14) 4822. 2.3867 2.4987
39061. 0.80893 2.501(14) 4881. 2.3876 2.4864
39073. 0.80917 2.539(14) 4767. 2.3885 2.4798
39084. 0.80942 2.527(14) 4786. 2.3894 2.4826
39096. 0.80966 2.553(14) 4768. 2.3903 2.4971
39108. 0.80990 2.537(14) 4813. 2.3913 2.5222
39120. 0.81015 2.559(14) 4826. 2.3922 2.5543
39131. 0.81039 2.593(14) 4772. 2.3931 2.5946
39143. 0.81063 2.630(15) 4650. 2.3940 2.6379
39155. 0.81088 2.641(15) 4633. 2.3949 2.6593
39167. 0.81112 2.644(15) 4638. 2.3958 2.6421
39178. 0.81136 2.596(15) 4756. 2.3967 2.6042
39190. 0.81161 2.581(14) 4802. 2.3976 2.5643
39202. 0.81185 2.543(14) 4880. 2.3985 2.5279
39214. 0.81209 2.516(14) 4933. 2.3994 2.4998
39225. 0.81234 2.492(14) 4991. 2.4003 2.4812
39237. 0.81258 2.448(14) 5099. 2.4012 2.4673
39249. 0.81282 2.458(14) 5065. 2.4021 2.4545
39261. 0.81307 2.448(14) 5105. 2.4030 2.4455
39272. 0.81331 2.418(14) 5211. 2.4039 2.4438
39284. 0.81356 2.424(14) 5175. 2.4048 2.4497
39296. 0.81380 2.428(14) 5172. 2.4057 2.4597
39308. 0.81404 2.439(14) 5173. 2.4066 2.4673
39320. 0.81429 2.448(14) 5139. 2.4074 2.4678
39331. 0.81453 2.452(14) 5110. 2.4083 2.4626
39343. 0.81478 2.451(14) 5120. 2.4092 2.4597
39355. 0.81502 2.472(14) 5111. 2.4101 2.4690
39367. 0.81527 2.487(14) 5118. 2.4110 2.4985
39379. 0.81551 2.505(14) 5071. 2.4119 2.5423
39390. 0.81576 2.551(14) 4952. 2.4127 2.5716
39402. 0.81600 2.523(14) 5031. 2.4136 2.5634
39414. 0.81625 2.486(14) 5111. 2.4145 2.5321
39426. 0.81649 2.480(14) 5157. 2.4154 2.5010
39438. 0.81674 2.469(14) 5176. 2.4162 2.4800
39450. 0.81698 2.454(14) 5220. 2.4171 2.4698
39461. 0.81723 2.480(14) 5199. 2.4180 2.4742
39473. 0.81747 2.510(14) 5149. 2.4188 2.5062
39485. 0.81772 2.565(14) 5063. 2.4197 2.5740
39497. 0.81796 2.639(14) 4862. 2.4206 2.6517
39509. 0.81821 2.621(14) 4908. 2.4214 2.6867
39521. 0.81845 2.616(14) 4883. 2.4223 2.6606
39532. 0.81870 2.565(14) 5026. 2.4231 2.6053
39544. 0.81894 2.524(14) 5117. 2.4240 2.5527
39556. 0.81919 2.494(14) 5231. 2.4249 2.5143
39568. 0.81944 2.470(14) 5263. 2.4257 2.4898
39580. 0.81968 2.480(14) 5265. 2.4266 2.4776
39592. 0.81993 2.489(14) 5244. 2.4274 2.4764
39604. 0.82017 2.486(14) 5233. 2.4283 2.4803
39616. 0.82042 2.515(14) 5133. 2.4291 2.4798
39627. 0.82067 2.501(14) 5204. 2.4300 2.4719
39639. 0.82091 2.457(14) 5300. 2.4308 2.4623
39651. 0.82116 2.467(14) 5280. 2.4316 2.4556
39663. 0.82140 2.426(14) 5377. 2.4325 2.4533
39675. 0.82165 2.414(14) 5451. 2.4333 2.4539
39687. 0.82190 2.425(14) 5436. 2.4342 2.4539
39699. 0.82214 2.448(14) 5351. 2.4350 2.4519
39711. 0.82239 2.438(14) 5369. 2.4358 2.4497
39723. 0.82264 2.414(13) 5498. 2.4367 2.4501
39735. 0.82288 2.435(14) 5397. 2.4375 2.4562
39746. 0.82313 2.445(14) 5413. 2.4383 2.4695
39758. 0.82338 2.468(14) 5315. 2.4391 2.4840
39770. 0.82363 2.469(14) 5383. 2.4400 2.4901
39782. 0.82387 2.446(14) 5457. 2.4408 2.4874
39794. 0.82412 2.479(14) 5327. 2.4416 2.4857
39806. 0.82437 2.501(14) 5334. 2.4424 2.4930
39818. 0.82461 2.535(14) 5183. 2.4433 2.5094
39830. 0.82486 2.609(14) 4933. 2.4441 2.5308
39842. 0.82511 2.608(14) 5008. 2.4449 2.5578
39854. 0.82536 2.649(14) 4994. 2.4457 2.5872
39866. 0.82560 2.675(14) 4989. 2.4465 2.6000
39878. 0.82585 2.658(14) 5046. 2.4473 2.5848
39890. 0.82610 2.629(14) 5191. 2.4481 2.5551
39902. 0.82635 2.616(14) 5236. 2.4489 2.5311
39914. 0.82660 2.610(14) 5205. 2.4497 2.5282
39926. 0.82684 2.646(14) 5053. 2.4505 2.5572
39938. 0.82709 2.676(14) 4942. 2.4513 2.6148
39950. 0.82734 2.698(14) 4864. 2.4521 2.6684
39962. 0.82759 2.707(14) 4805. 2.4529 2.6855
39974. 0.82784 2.667(15) 4478. 2.4537 2.6745
39986. 0.82809 2.636(15) 4349. 2.4545 2.6657
39998. 0.82833 2.665(15) 4178. 2.4553 2.6748
40010. 0.82858 2.702(16) 3992. 2.4561 2.6955
40022. 0.82883 2.724(16) 3801. 2.4569 2.7248
40034. 0.82908 2.751(17) 3629. 2.4577 2.7675
40046. 0.82933 2.780(17) 3512. 2.4585 2.8156
40058. 0.82958 2.759(17) 3454. 2.4593 2.8251
40070. 0.82983 2.721(17) 3458. 2.4600 2.7736
40082. 0.83008 2.621(17) 3600. 2.4608 2.6966
40094. 0.83032 2.562(16) 3715. 2.4616 2.6288
40106. 0.83057 2.558(16) 3722. 2.4624 2.5799
40118. 0.83082 2.511(16) 3799. 2.4631 2.5479
40130. 0.83107 2.522(16) 3791. 2.4639 2.5305
40142. 0.83132 2.490(16) 3866. 2.4647 2.5274
40154. 0.83157 2.518(16) 3859. 2.4654 2.5356
40166. 0.83182 2.518(16) 3871. 2.4662 2.5488
40178. 0.83207 2.526(16) 3878. 2.4670 2.5612
40190. 0.83232 2.540(16) 3857. 2.4677 2.5683
40202. 0.83257 2.544(16) 3862. 2.4685 2.5770
40214. 0.83282 2.615(16) 3844. 2.4693 2.6177
40226. 0.83307 2.731(17) 3653. 2.4700 2.7155
40238. 0.83332 2.888(17) 3425. 2.4708 2.8407
40250. 0.83357 2.906(17) 3378. 2.4715 2.9088
40262. 0.83382 2.857(17) 3461. 2.4723 2.8832
40275. 0.83407 2.775(17) 3593. 2.4730 2.8099
40287. 0.83432 2.718(16) 3695. 2.4738 2.7321
40299. 0.83457 2.659(16) 3755. 2.4745 2.6690
40311. 0.83482 2.637(16) 3804. 2.4753 2.6250
40323. 0.83507 2.597(16) 3850. 2.4760 2.5926
40335. 0.83532 2.581(16) 3912. 2.4767 2.5641
40347. 0.83557 2.544(16) 3963. 2.4775 2.5398
40359. 0.83582 2.531(16) 4016. 2.4782 2.5225
40371. 0.83607 2.525(16) 4070. 2.4789 2.5132
40383. 0.83633 2.526(16) 4038. 2.4797 2.5126
40396. 0.83658 2.536(16) 4013. 2.4804 2.5206
40408. 0.83683 2.595(16) 3957. 2.4811 2.5377
40420. 0.83708 2.599(16) 3947. 2.4819 2.5635
40432. 0.83733 2.640(16) 3897. 2.4826 2.5933
40444. 0.83758 2.650(16) 3886. 2.4833 2.6101
40456. 0.83783 2.628(16) 3952. 2.4840 2.6009
40468. 0.83808 2.584(16) 4020. 2.4848 2.5784
40480. 0.83833 2.579(16) 4083. 2.4855 2.5631
40493. 0.83859 2.595(16) 4157. 2.4862 2.5670
40505. 0.83884 2.606(15) 4224. 2.4869 2.5886
40517. 0.83909 2.638(15) 4237. 2.4876 2.6102
40529. 0.83934 2.631(15) 4356. 2.4883 2.6111
40541. 0.83959 2.611(15) 4498. 2.4890 2.5923
40553. 0.83985 2.590(15) 4620. 2.4897 2.5692
40566. 0.84010 2.541(14) 4833. 2.4904 2.5530
40578. 0.84035 2.535(14) 4906. 2.4911 2.5458
40590. 0.84060 2.534(14) 5032. 2.4918 2.5456
40602. 0.84085 2.544(14) 5107. 2.4925 2.5546
40614. 0.84111 2.587(14) 5102. 2.4932 2.5733
40626. 0.84136 2.590(14) 5178. 2.4939 2.5913
40639. 0.84161 2.593(14) 5314. 2.4946 2.5949
40651. 0.84186 2.605(14) 5380. 2.4953 2.5882
40663. 0.84212 2.613(14) 5352. 2.4960 2.5830
40675. 0.84237 2.638(14) 5274. 2.4967 2.5837
40687. 0.84262 2.638(14) 5306. 2.4974 2.5898
40700. 0.84287 2.639(14) 5306. 2.4980 2.5953
40712. 0.84313 2.617(14) 5371. 2.4987 2.5920
40724. 0.84338 2.608(14) 5384. 2.4994 2.5828
40736. 0.84363 2.623(14) 5344. 2.5001 2.5726
40748. 0.84389 2.615(14) 5400. 2.5008 2.5625
40761. 0.84414 2.602(14) 5413. 2.5014 2.5522
40773. 0.84439 2.563(13) 5525. 2.5021 2.5426
40785. 0.84465 2.570(13) 5492. 2.5028 2.5343
40797. 0.84490 2.544(13) 5564. 2.5034 2.5292
40810. 0.84515 2.529(13) 5605. 2.5041 2.5305
40822. 0.84541 2.544(13) 5582. 2.5048 2.5401
40834. 0.84566 2.518(13) 5656. 2.5054 2.5536
40846. 0.84591 2.533(13) 5612. 2.5061 2.5601
40859. 0.84617 2.533(13) 5625. 2.5067 2.5564
40871. 0.84642 2.531(13) 5671. 2.5074 2.5520
40883. 0.84668 2.588(13) 5490. 2.5080 2.5569
40895. 0.84693 2.609(14) 5482. 2.5087 2.5749
40908. 0.84718 2.601(13) 5501. 2.5093 2.6015
40920. 0.84744 2.643(14) 5408. 2.5100 2.6264
40932. 0.84769 2.642(14) 5409. 2.5106 2.6358
40944. 0.84795 2.637(14) 5393. 2.5113 2.6246
40957. 0.84820 2.632(14) 5447. 2.5119 2.6045
40969. 0.84846 2.600(13) 5500. 2.5126 2.5871
40981. 0.84871 2.580(13) 5568. 2.5132 2.5756
40994. 0.84897 2.572(13) 5587. 2.5138 2.5678
41006. 0.84922 2.560(13) 5651. 2.5145 2.5650
41018. 0.84948 2.571(13) 5630. 2.5151 2.5722
41031. 0.84973 2.573(13) 5642. 2.5157 2.5883
41043. 0.84999 2.572(13) 5647. 2.5163 2.6012
41055. 0.85024 2.554(13) 5660. 2.5170 2.6007
41067. 0.85050 2.550(13) 5675. 2.5176 2.5921
41080. 0.85075 2.560(13) 5686. 2.5182 2.5829
41092. 0.85101 2.540(13) 5733. 2.5188 2.5726
41104. 0.85126 2.543(13) 5720. 2.5195 2.5615
41117. 0.85152 2.531(13) 5740. 2.5201 2.5522
41129. 0.85177 2.517(13) 5811. 2.5207 2.5473
41141. 0.85203 2.522(13) 5795. 2.5213 2.5471
41154. 0.85228 2.523(13) 5813. 2.5219 2.5514
41166. 0.85254 2.539(13) 5767. 2.5225 2.5574
41178. 0.85280 2.522(13) 5818. 2.5231 2.5604
41191. 0.85305 2.534(13) 5782. 2.5237 2.5581
41203. 0.85331 2.511(13) 5871. 2.5243 2.5520
41216. 0.85356 2.531(13) 5800. 2.5249 2.5458
41228. 0.85382 2.537(13) 5770. 2.5255 2.5418
41240. 0.85408 2.524(13) 5816. 2.5261 2.5422
41253. 0.85433 2.522(13) 5866. 2.5267 2.5483
41265. 0.85459 2.532(13) 5836. 2.5273 2.5581
41277. 0.85484 2.548(13) 5782. 2.5279 2.5644
41290. 0.85510 2.560(13) 5744. 2.5285 2.5628
41302. 0.85536 2.563(13) 5754. 2.5291 2.5567
41315. 0.85561 2.535(13) 5815. 2.5297 2.5521
41327. 0.85587 2.535(13) 5860. 2.5302 2.5532
41339. 0.85613 2.600(13) 5638. 2.5308 2.5635
41352. 0.85638 2.602(13) 5666. 2.5314 2.5833
41364. 0.85664 2.639(13) 5586. 2.5320 2.6071
41377. 0.85690 2.686(14) 5482. 2.5326 2.6346
41389. 0.85716 2.710(14) 5467. 2.5331 2.6782
41401. 0.85741 2.772(14) 5323. 2.5337 2.7385
41414. 0.85767 2.827(14) 5180. 2.5343 2.7796
41426. 0.85793 2.781(14) 5279. 2.5348 2.7729
41439. 0.85819 2.743(14) 5356. 2.5354 2.7381
41451. 0.85844 2.663(13) 5572. 2.5360 2.6997
41464. 0.85870 2.641(13) 5625. 2.5365 2.6648
41476. 0.85896 2.641(13) 5626. 2.5371 2.6379
41488. 0.85922 2.634(13) 5662. 2.5377 2.6311
41501. 0.85947 2.713(13) 5527. 2.5382 2.6587
41513. 0.85973 2.784(14) 5338. 2.5388 2.7179
41526. 0.85999 2.865(14) 5113. 2.5393 2.7697
41538. 0.86025 2.846(14) 5187. 2.5399 2.7699
41551. 0.86051 2.779(14) 5289. 2.5404 2.7280
41563. 0.86076 2.702(14) 5475. 2.5410 2.6802
41576. 0.86102 2.689(13) 5496. 2.5415 2.6464
41588. 0.86128 2.636(13) 5663. 2.5421 2.6289
41601. 0.86154 2.644(13) 5658. 2.5426 2.6243
41613. 0.86180 2.644(13) 5609. 2.5431 2.6275
41626. 0.86206 2.628(13) 5659. 2.5437 2.6328
41638. 0.86231 2.625(13) 5673. 2.5442 2.6391
41651. 0.86257 2.654(13) 5561. 2.5447 2.6467
41663. 0.86283 2.648(13) 5630. 2.5453 2.6579
41676. 0.86309 2.723(14) 5453. 2.5458 2.6931
41688. 0.86335 2.810(14) 5293. 2.5463 2.7774
41701. 0.86361 2.914(14) 5031. 2.5469 2.8929
41713. 0.86387 2.977(14) 4875. 2.5474 2.9642
41726. 0.86413 2.926(14) 4998. 2.5479 2.9455
41738. 0.86439 2.863(14) 5148. 2.5484 2.8835
41751. 0.86465 2.792(14) 5320. 2.5490 2.8342
41763. 0.86491 2.778(14) 5303. 2.5495 2.8050
41776. 0.86517 2.741(14) 5400. 2.5500 2.7712
41788. 0.86543 2.692(13) 5526. 2.5505 2.7271
41801. 0.86568 2.696(14) 5484. 2.5510 2.6888
41813. 0.86594 2.673(13) 5585. 2.5515 2.6668
41826. 0.86620 2.663(13) 5574. 2.5520 2.6588
41838. 0.86646 2.661(13) 5550. 2.5525 2.6524
41851. 0.86672 2.651(13) 5599. 2.5531 2.6386
41863. 0.86698 2.652(13) 5578. 2.5536 2.6200
41876. 0.86724 2.625(13) 5669. 2.5541 2.6035
41889. 0.86750 2.598(13) 5746. 2.5546 2.5950
41901. 0.86777 2.602(13) 5729. 2.5551 2.6002
41914. 0.86803 2.632(13) 5671. 2.5556 2.6259
41926. 0.86829 2.671(13) 5580. 2.5560 2.6691
41939. 0.86855 2.715(14) 5444. 2.5565 2.7065
41951. 0.86881 2.704(14) 5481. 2.5570 2.7124
41964. 0.86907 2.685(13) 5541. 2.5575 2.6938
41977. 0.86933 2.671(13) 5585. 2.5580 2.6828
41989. 0.86959 2.705(13) 5532. 2.5585 2.7089
42002. 0.86985 2.762(14) 5412. 2.5590 2.7767
42014. 0.87011 2.832(14) 5230. 2.5595 2.8495
42027. 0.87037 2.824(14) 5256. 2.5599 2.8772
42040. 0.87063 2.850(14) 5210. 2.5604 2.8626
42052. 0.87089 2.824(14) 5305. 2.5609 2.8400
42065. 0.87116 2.859(14) 5248. 2.5614 2.8302
42077. 0.87142 2.891(14) 5152. 2.5618 2.8355
42090. 0.87168 2.913(14) 5097. 2.5623 2.8368
42103. 0.87194 2.904(14) 5118. 2.5628 2.8139
42115. 0.87220 2.901(14) 5097. 2.5633 2.7710
42128. 0.87246 2.830(14) 5255. 2.5637 2.7238
42141. 0.87273 2.786(14) 5325. 2.5642 2.6847
42153. 0.87299 2.741(14) 5431. 2.5647 2.6584
42166. 0.87325 2.722(14) 5465. 2.5651 2.6453
42179. 0.87351 2.710(14) 5483. 2.5656 2.6411
42191. 0.87377 2.694(13) 5559. 2.5660 2.6378
42204. 0.87404 2.681(13) 5590. 2.5665 2.6320
42217. 0.87430 2.650(13) 5683. 2.5669 2.6272
42229. 0.87456 2.638(13) 5722. 2.5674 2.6244
42242. 0.87482 2.613(13) 5750. 2.5679 2.6200
42255. 0.87509 2.611(13) 5790. 2.5683 2.6127
42267. 0.87535 2.591(13) 5809. 2.5687 2.6064
42280. 0.87561 2.569(13) 5875. 2.5692 2.6031
42293. 0.87587 2.595(13) 5816. 2.5696 2.6012
42305. 0.87614 2.575(13) 5863. 2.5701 2.5978
42318. 0.87640 2.576(13) 5892. 2.5705 2.5932
42331. 0.87666 2.571(13) 5911. 2.5710 2.5892
42343. 0.87693 2.579(13) 5904. 2.5714 2.5876
42356. 0.87719 2.590(13) 5874. 2.5718 2.5894
42369. 0.87745 2.604(13) 5822. 2.5723 2.5941
42381. 0.87772 2.589(13) 5914. 2.5727 2.5990
42394. 0.87798 2.602(13) 5859. 2.5731 2.6031
42407. 0.87824 2.584(13) 5928. 2.5736 2.6087
42420. 0.87851 2.622(13) 5815. 2.5740 2.6156
42432. 0.87877 2.609(13) 5842. 2.5744 2.6192
42445. 0.87903 2.640(13) 5760. 2.5749 2.6180
42458. 0.87930 2.612(13) 5855. 2.5753 2.6153
42471. 0.87956 2.622(13) 5853. 2.5757 2.6145
42483. 0.87982 2.642(13) 5764. 2.5761 2.6166
42496. 0.88009 2.635(13) 5817. 2.5766 2.6263
42509. 0.88035 2.679(13) 5726. 2.5770 2.6582
42522. 0.88062 2.755(13) 5590. 2.5774 2.7300
42534. 0.88088 2.847(14) 5379. 2.5778 2.8354
42547. 0.88115 2.930(14) 5206. 2.5782 2.9206
42560. 0.88141 2.957(14) 5169. 2.5786 2.9402
42573. 0.88167 2.987(14) 5122. 2.5790 2.9221
42585. 0.88194 2.970(14) 5152. 2.5795 2.8991
42598. 0.88220 2.958(14) 5148. 2.5799 2.8656
42611. 0.88247 2.884(14) 5310. 2.5803 2.8255
42624. 0.88273 2.851(14) 5353. 2.5807 2.8016
42637. 0.88300 2.824(14) 5439. 2.5811 2.7942
42649. 0.88326 2.779(13) 5497. 2.5815 2.7770
42662. 0.88353 2.695(13) 5733. 2.5819 2.7414
42675. 0.88379 2.666(13) 5803. 2.5823 2.7044
42688. 0.88406 2.654(13) 5807. 2.5827 2.6823
42700. 0.88432 2.640(13) 5847. 2.5831 2.6770
42713. 0.88459 2.652(13) 5787. 2.5835 2.6786
42726. 0.88485 2.645(13) 5824. 2.5839 2.6759
42739. 0.88512 2.649(13) 5781. 2.5843 2.6678
42752. 0.88539 2.647(13) 5789. 2.5846 2.6583
42765. 0.88565 2.650(13) 5801. 2.5850 2.6512
42777. 0.88592 2.653(13) 5773. 2.5854 2.6484
42790. 0.88618 2.660(13) 5771. 2.5858 2.6499
42803. 0.88645 2.660(13) 5736. 2.5862 2.6495
42816. 0.88671 2.622(13) 5845. 2.5866 2.6414
42829. 0.88698 2.620(13) 5865. 2.5870 2.6290
42842. 0.88725 2.590(13) 5937. 2.5873 2.6180
42854. 0.88751 2.595(13) 5961. 2.5877 2.6119
42867. 0.88778 2.572(13) 6008. 2.5881 2.6146
42880. 0.88805 2.605(13) 5910. 2.5885 2.6308
42893. 0.88831 2.616(13) 5881. 2.5889 2.6582
42906. 0.88858 2.635(13) 5818. 2.5892 2.6811
42919. 0.88885 2.617(13) 5868. 2.5896 2.6815
42932. 0.88911 2.625(13) 5815. 2.5900 2.6641
42945. 0.88938 2.610(13) 5852. 2.5903 2.6437
42957. 0.88965 2.601(13) 5884. 2.5907 2.6277
42970. 0.88991 2.588(13) 5932. 2.5911 2.6174
42983. 0.89018 2.586(13) 5899. 2.5914 2.6122
42996. 0.89045 2.574(13) 5996. 2.5918 2.6137
43009. 0.89071 2.599(13) 5929. 2.5922 2.6244
43022. 0.89098 2.611(13) 5920. 2.5925 2.6422
43035. 0.89125 2.605(13) 5916. 2.5929 2.6560
43048. 0.89152 2.647(13) 5793. 2.5933 2.6549
43061. 0.89178 2.615(13) 5859. 2.5936 2.6431
43074. 0.89205 2.588(13) 5944. 2.5940 2.6295
43086. 0.89232 2.605(13) 5868. 2.5943 2.6190
43099. 0.89259 2.577(13) 5964. 2.5947 2.6120
43112. 0.89285 2.566(13) 6013. 2.5950 2.6075
43125. 0.89312 2.565(13) 5982. 2.5954 2.6048
43138. 0.89339 2.571(13) 5994. 2.5957 2.6037
43151. 0.89366 2.601(13) 5855. 2.5961 2.6047
43164. 0.89393 2.582(13) 5939. 2.5964 2.6098
43177. 0.89419 2.582(13) 5962. 2.5968 2.6219
43190. 0.89446 2.626(13) 5820. 2.5971 2.6411
43203. 0.89473 2.649(13) 5792. 2.5975 2.6645
43216. 0.89500 2.679(13) 5748. 2.5978 2.6919
43229. 0.89527 2.705(13) 5676. 2.5982 2.7239
43242. 0.89554 2.742(13) 5570. 2.5985 2.7494
43255. 0.89581 2.725(13) 5600. 2.5989 2.7555
43268. 0.89607 2.711(13) 5607. 2.5992 2.7457
43281. 0.89634 2.702(13) 5678. 2.5995 2.7258
43294. 0.89661 2.676(13) 5692. 2.5999 2.7061
43307. 0.89688 2.680(13) 5687. 2.6002 2.7016
43320. 0.89715 2.706(13) 5673. 2.6005 2.7176
43333. 0.89742 2.732(13) 5583. 2.6009 2.7451
43346. 0.89769 2.809(14) 5431. 2.6012 2.7789
43359. 0.89796 2.883(14) 5333. 2.6015 2.8332
43372. 0.89823 3.000(14) 5058. 2.6019 2.9086
43385. 0.89850 3.078(14) 4904. 2.6022 2.9723
43398. 0.89877 3.106(14) 4838. 2.6025 2.9991
43411. 0.89904 3.064(14) 4919. 2.6029 2.9874
43424. 0.89931 2.992(14) 5079. 2.6032 2.9326
43437. 0.89958 2.920(14) 5207. 2.6035 2.8538
43450. 0.89985 2.848(14) 5362. 2.6038 2.7815
43463. 0.90012 2.769(13) 5527. 2.6042 2.7315
43476. 0.90039 2.706(13) 5679. 2.6045 2.7064
43489. 0.90066 2.736(13) 5557. 2.6048 2.7007
43502. 0.90093 2.705(13) 5630. 2.6051 2.7004
43515. 0.90120 2.675(13) 5706. 2.6055 2.6929
43528. 0.90147 2.677(13) 5713. 2.6058 2.6789
43541. 0.90174 2.639(13) 5806. 2.6061 2.6643
43554. 0.90201 2.637(13) 5821. 2.6064 2.6518
43567. 0.90228 2.621(13) 5842. 2.6067 2.6444
43580. 0.90255 2.649(13) 5784. 2.6070 2.6460
43593. 0.90282 2.669(13) 5732. 2.6074 2.6614
43607. 0.90309 2.703(13) 5699. 2.6077 2.6906
43620. 0.90336 2.771(13) 5571. 2.6080 2.7203
43633. 0.90363 2.787(14) 5482. 2.6083 2.7284
43646. 0.90391 2.795(14) 5464. 2.6086 2.7134
43659. 0.90418 2.756(13) 5568. 2.6089 2.6936
43672. 0.90445 2.717(13) 5669. 2.6092 2.6818
43685. 0.90472 2.723(13) 5663. 2.6095 2.6763
43698. 0.90499 2.703(13) 5690. 2.6098 2.6688
43711. 0.90526 2.686(13) 5758. 2.6101 2.6590
43724. 0.90553 2.653(13) 5842. 2.6105 2.6550
43738. 0.90581 2.693(13) 5775. 2.6108 2.6666
43751. 0.90608 2.722(13) 5636. 2.6111 2.6956
43764. 0.90635 2.765(13) 5552. 2.6114 2.7256
43777. 0.90662 2.724(13) 5685. 2.6117 2.7321
43790. 0.90689 2.719(13) 5687. 2.6120 2.7145
43803. 0.90717 2.672(13) 5761. 2.6123 2.6918
43816. 0.90744 2.642(13) 5886. 2.6126 2.6787
43829. 0.90771 2.644(13) 5857. 2.6129 2.6767
43843. 0.90798 2.634(13) 5864. 2.6132 2.6772
43856. 0.90825 2.617(13) 5913. 2.6135 2.6714
43869. 0.90853 2.639(13) 5874. 2.6138 2.6626
43882. 0.90880 2.633(13) 5888. 2.6141 2.6615
43895. 0.90907 2.670(13) 5836. 2.6144 2.6786
43908. 0.90935 2.711(13) 5742. 2.6146 2.7135
43922. 0.90962 2.754(13) 5606. 2.6149 2.7454
43935. 0.90989 2.767(13) 5559. 2.6152 2.7517
43948. 0.91016 2.739(13) 5702. 2.6155 2.7395
43961. 0.91044 2.733(13) 5705. 2.6158 2.7320
43974. 0.91071 2.763(13) 5624. 2.6161 2.7411
43988. 0.91098 2.742(13) 5661. 2.6164 2.7651
44001. 0.91126 2.757(13) 5620. 2.6167 2.7931
44014. 0.91153 2.748(13) 5631. 2.6170 2.8024
44027. 0.91180 2.752(13) 5649. 2.6173 2.7823
44040. 0.91208 2.679(13) 5850. 2.6176 2.7487
44054. 0.91235 2.686(13) 5835. 2.6178 2.7232
44067. 0.91263 2.679(13) 5840. 2.6181 2.7147
44080. 0.91290 2.686(13) 5853. 2.6184 2.7155
44093. 0.91317 2.722(13) 5689. 2.6187 2.7101
44106. 0.91345 2.671(13) 5860. 2.6190 2.6948
44120. 0.91372 2.656(13) 5921. 2.6193 2.6767
44133. 0.91400 2.626(13) 5992. 2.6196 2.6618
44146. 0.91427 2.645(13) 5929. 2.6198 2.6532
44159. 0.91454 2.633(13) 5995. 2.6201 2.6534
44173. 0.91482 2.641(13) 5958. 2.6204 2.6630
44186. 0.91509 2.664(13) 5896. 2.6207 2.6751
44199. 0.91537 2.656(13) 5927. 2.6210 2.6789
44212. 0.91564 2.668(13) 5888. 2.6212 2.6748
44226. 0.91592 2.655(13) 5985. 2.6215 2.6748
44239. 0.91619 2.706(13) 5812. 2.6218 2.6900
44252. 0.91647 2.736(13) 5748. 2.6221 2.7225
44265. 0.91674 2.780(13) 5681. 2.6224 2.7601
44279. 0.91702 2.816(13) 5609. 2.6226 2.7825
44292. 0.91729 2.831(13) 5550. 2.6229 2.7746
44305. 0.91757 2.816(13) 5614. 2.6232 2.7454
44319. 0.91784 2.761(13) 5689. 2.6235 2.7145
44332. 0.91812 2.724(13) 5833. 2.6237 2.6953
44345. 0.91839 2.756(13) 5753. 2.6240 2.6944
44359. 0.91867 2.786(13) 5665. 2.6243 2.7148
44372. 0.91894 2.824(13) 5602. 2.6246 2.7436
44385. 0.91922 2.850(14) 5485. 2.6248 2.7546
44398. 0.91950 2.802(13) 5604. 2.6251 2.7397
44412. 0.91977 2.740(13) 5760. 2.6254 2.7135
44425. 0.92005 2.719(13) 5812. 2.6257 2.6889
44438. 0.92032 2.668(13) 5966. 2.6259 2.6704
44452. 0.92060 2.663(13) 5948. 2.6262 2.6581
44465. 0.92088 2.638(13) 6019. 2.6265 2.6510
44478. 0.92115 2.630(13) 6044. 2.6267 2.6493
44492. 0.92143 2.631(13) 6016. 2.6270 2.6532
44505. 0.92171 2.658(13) 5958. 2.6273 2.6615
44518. 0.92198 2.697(13) 5838. 2.6276 2.6726
44532. 0.92226 2.724(13) 5829. 2.6278 2.6951
44545. 0.92254 2.778(13) 5753. 2.6281 2.7482
44559. 0.92281 2.886(14) 5475. 2.6284 2.8373
44572. 0.92309 2.981(14) 5283. 2.6286 2.9331
44585. 0.92337 3.016(14) 5193. 2.6289 2.9943
44599. 0.92364 3.001(14) 5229. 2.6292 3.0027
44612. 0.92392 2.996(14) 5273. 2.6294 2.9630
44625. 0.92420 2.925(14) 5395. 2.6297 2.9129
44639. 0.92448 2.923(14) 5453. 2.6300 2.9061
44652. 0.92475 3.003(14) 5259. 2.6302 2.9840
44666. 0.92503 3.075(14) 5112. 2.6305 3.1205
44679. 0.92531 3.128(14) 4979. 2.6308 3.2048
44692. 0.92559 3.033(14) 5148. 2.6310 3.1643
44706. 0.92586 2.965(14) 5290. 2.6313 3.0561
44719. 0.92614 2.891(14) 5456. 2.6316 2.9551
44733. 0.92642 2.838(13) 5572. 2.6318 2.8846
44746. 0.92670 2.752(13) 5760. 2.6321 2.8346
44759. 0.92698 2.730(13) 5795. 2.6324 2.7954
44773. 0.92725 2.732(13) 5802. 2.6326 2.7635
44786. 0.92753 2.698(13) 5839. 2.6329 2.7342
44800. 0.92781 2.685(13) 5889. 2.6332 2.7081
44813. 0.92809 2.662(13) 5966. 2.6334 2.6887
44827. 0.92837 2.662(13) 5920. 2.6337 2.6772
44840. 0.92865 2.659(13) 5953. 2.6340 2.6716
44854. 0.92892 2.650(13) 5984. 2.6342 2.6686
44867. 0.92920 2.643(13) 5997. 2.6345 2.6683
44880. 0.92948 2.660(13) 5949. 2.6348 2.6761
44894. 0.92976 2.715(13) 5860. 2.6350 2.6986
44907. 0.93004 2.763(13) 5770. 2.6353 2.7368
44921. 0.93032 2.843(13) 5551. 2.6356 2.7744
44934. 0.93060 2.887(14) 5421. 2.6358 2.7833
44948. 0.93088 2.851(13) 5533. 2.6361 2.7619
44961. 0.93116 2.794(13) 5633. 2.6364 2.7324
44975. 0.93144 2.730(13) 5757. 2.6366 2.7116
44988. 0.93172 2.666(13) 5952. 2.6369 2.7011
45002. 0.93199 2.648(13) 5971. 2.6371 2.6941
45015. 0.93227 2.619(13) 6061. 2.6374 2.6844
45029. 0.93255 2.584(13) 6189. 2.6377 2.6738
45042. 0.93283 2.613(13) 6073. 2.6379 2.6668
45056. 0.93311 2.615(13) 6088. 2.6382 2.6676
45069. 0.93339 2.614(13) 6076. 2.6385 2.6785
45083. 0.93367 2.635(13) 6004. 2.6387 2.6997
45096. 0.93395 2.660(13) 5953. 2.6390 2.7251
45110. 0.93423 2.681(13) 5882. 2.6393 2.7460
45123. 0.93451 2.664(13) 5976. 2.6395 2.7499
45137. 0.93480 2.662(13) 5980. 2.6398 2.7338
45151. 0.93508 2.655(13) 5970. 2.6401 2.7099
45164. 0.93536 2.632(13) 6023. 2.6403 2.6889
45178. 0.93564 2.630(13) 6046. 2.6406 2.6737
45191. 0.93592 2.624(13) 6063. 2.6408 2.6639
45205. 0.93620 2.609(13) 6108. 2.6411 2.6572
45218. 0.93648 2.599(13) 6136. 2.6414 2.6529
45232. 0.93676 2.620(13) 6084. 2.6416 2.6501
45245. 0.93704 2.606(13) 6112. 2.6419 2.6484
45259. 0.93732 2.597(13) 6157. 2.6422 2.6475
45273. 0.93760 2.589(13) 6206. 2.6424 2.6472
45286. 0.93789 2.602(13) 6164. 2.6427 2.6475
45300. 0.93817 2.614(13) 6117. 2.6430 2.6487
45313. 0.93845 2.603(13) 6152. 2.6432 2.6506
45327. 0.93873 2.636(13) 6059. 2.6435 2.6534
45341. 0.93901 2.682(13) 5935. 2.6438 2.6568
45354. 0.93929 2.678(13) 6001. 2.6440 2.6620
45368. 0.93958 2.701(13) 5930. 2.6443 2.6745
45381. 0.93986 2.706(13) 5922. 2.6446 2.6999
45395. 0.94014 2.748(13) 5792. 2.6448 2.7320
45409. 0.94042 2.761(13) 5739. 2.6451 2.7507
45422. 0.94070 2.716(13) 5911. 2.6454 2.7473
45436. 0.94099 2.724(13) 5908. 2.6456 2.7374
45449. 0.94127 2.723(13) 5912. 2.6459 2.7369
45463. 0.94155 2.724(13) 5926. 2.6462 2.7508
45477. 0.94183 2.768(13) 5830. 2.6464 2.7862
45490. 0.94212 2.853(13) 5697. 2.6467 2.8678
45504. 0.94240 3.002(14) 5395. 2.6470 3.0186
45518. 0.94268 3.215(14) 5011. 2.6472 3.2206
45531. 0.94296 3.421(15) 4641. 2.6475 3.4094
45545. 0.94325 3.541(15) 4444. 2.6478 3.4897
45559. 0.94353 3.449(15) 4571. 2.6481 3.4109
45572. 0.94381 3.303(14) 4823. 2.6483 3.2502
45586. 0.94410 3.145(14) 5109. 2.6486 3.0940
45600. 0.94438 3.031(14) 5307. 2.6489 2.9732
45613. 0.94466 2.945(14) 5441. 2.6491 2.8936
45627. 0.94495 2.900(13) 5528. 2.6494 2.8540
45641. 0.94523 2.869(13) 5615. 2.6497 2.8404
45654. 0.94551 2.813(13) 5747. 2.6500 2.8336
45668. 0.94580 2.810(13) 5759. 2.6502 2.8332
45682. 0.94608 2.836(13) 5700. 2.6505 2.8414
45696. 0.94637 2.867(13) 5601. 2.6508 2.8409
45709. 0.94665 2.872(13) 5592. 2.6511 2.8243
45723. 0.94693 2.872(13) 5646. 2.6513 2.8169
45737. 0.94722 2.925(13) 5524. 2.6516 2.8426
45750. 0.94750 3.005(14) 5371. 2.6519 2.8872
45764. 0.94779 2.999(14) 5361. 2.6522 2.9044
45778. 0.94807 2.991(14) 5387. 2.6524 2.8763
45792. 0.94835 2.908(13) 5550. 2.6527 2.8283
45805. 0.94864 2.874(13) 5650. 2.6530 2.7837
45819. 0.94892 2.798(13) 5810. 2.6533 2.7478
45833. 0.94921 2.775(13) 5800. 2.6535 2.7203
45847. 0.94949 2.720(13) 5964. 2.6538 2.7006
45860. 0.94978 2.700(13) 6014. 2.6541 2.6879
45874. 0.95006 2.683(13) 6042. 2.6544 2.6810
45888. 0.95035 2.660(13) 6100. 2.6547 2.6778
45902. 0.95063 2.662(13) 6089. 2.6549 2.6756
45915. 0.95092 2.648(13) 6099. 2.6552 2.6736
45929. 0.95120 2.648(13) 6144. 2.6555 2.6715
45943. 0.95149 2.655(13) 6107. 2.6558 2.6713
45957. 0.95178 2.665(13) 6075. 2.6561 2.6733
45970. 0.95206 2.650(13) 6134. 2.6563 2.6771
45984. 0.95235 2.671(13) 6053. 2.6566 2.6824
45998. 0.95263 2.677(13) 6058. 2.6569 2.6909
46012. 0.95292 2.717(13) 5975. 2.6572 2.7106
46026. 0.95320 2.753(13) 5899. 2.6575 2.7513
46039. 0.95349 2.797(13) 5800. 2.6578 2.8115
46053. 0.95378 2.886(13) 5570. 2.6581 2.8668
46067. 0.95406 2.939(14) 5443. 2.6583 2.8900
46081. 0.95435 2.952(14) 5404. 2.6586 2.8774
46095. 0.95464 2.909(13) 5518. 2.6589 2.8458
46109. 0.95492 2.852(13) 5619. 2.6592 2.8141
46122. 0.95521 2.816(13) 5687. 2.6595 2.7903
46136. 0.95549 2.795(13) 5708. 2.6598 2.7745
46150. 0.95578 2.742(13) 5871. 2.6601 2.7656
46164. 0.95607 2.739(13) 5858. 2.6604 2.7638
46178. 0.95636 2.754(13) 5813. 2.6607 2.7759
46192. 0.95664 2.771(13) 5811. 2.6610 2.8135
46205. 0.95693 2.855(13) 5617. 2.6612 2.8798
46219. 0.95722 2.896(13) 5513. 2.6615 2.9433
46233. 0.95750 2.899(13) 5503. 2.6618 2.9567
46247. 0.95779 2.856(13) 5578. 2.6621 2.9196
46261. 0.95808 2.823(13) 5644. 2.6624 2.8669
46275. 0.95837 2.778(13) 5766. 2.6627 2.8225
46289. 0.95865 2.774(13) 5749. 2.6630 2.7935
46303. 0.95894 2.795(13) 5725. 2.6633 2.7809
46317. 0.95923 2.798(13) 5700. 2.6636 2.7817
46330. 0.95952 2.825(13) 5633. 2.6639 2.7861
46344. 0.95980 2.823(13) 5647. 2.6642 2.7818
46358. 0.96009 2.806(13) 5695. 2.6645 2.7652
46372. 0.96038 2.754(13) 5801. 2.6648 2.7440
46386. 0.96067 2.740(13) 5787. 2.6651 2.7256
46400. 0.96096 2.756(13) 5723. 2.6654 2.7122
46414. 0.96125 2.733(13) 5799. 2.6657 2.7038
46428. 0.96153 2.725(13) 5836. 2.6660 2.7010
46442. 0.96182 2.745(13) 5772. 2.6663 2.7076
46456. 0.96211 2.778(13) 5753. 2.6667 2.7322
46470. 0.96240 2.860(13) 5589. 2.6670 2.7913
46484. 0.96269 2.997(14) 5310. 2.6673 2.9043
46497. 0.96298 3.174(14) 4965. 2.6676 3.0738
46511. 0.96327 3.331(15) 4692. 2.6679 3.2591
46525. 0.96356 3.431(15) 4498. 2.6682 3.3773
46539. 0.96384 3.392(15) 4567. 2.6685 3.3533
46553. 0.96413 3.231(14) 4833. 2.6688 3.2241
46567. 0.96442 3.101(14) 5064. 2.6691 3.0735
46581. 0.96471 2.964(14) 5326. 2.6694 2.9492
46595. 0.96500 2.871(13) 5504. 2.6698 2.8599
46609. 0.96529 2.795(13) 5697. 2.6701 2.7993
46623. 0.96558 2.792(13) 5678. 2.6704 2.7591
46637. 0.96587 2.724(13) 5841. 2.6707 2.7338
46651. 0.96616 2.726(13) 5812. 2.6710 2.7212
46665. 0.96645 2.720(13) 5796. 2.6714 2.7203
46679. 0.96674 2.708(13) 5850. 2.6717 2.7266
46693. 0.96703 2.704(13) 5855. 2.6720 2.7302
46707. 0.96732 2.713(13) 5848. 2.6723 2.7253
46721. 0.96761 2.704(13) 5840. 2.6726 2.7169
46735. 0.96790 2.705(13) 5879. 2.6730 2.7161
46749. 0.96819 2.730(13) 5858. 2.6733 2.7402
46763. 0.96848 2.805(13) 5666. 2.6736 2.8132
46777. 0.96877 2.897(14) 5463. 2.6739 2.9354
46791. 0.96906 2.979(14) 5278. 2.6743 3.0444
46805. 0.96935 2.996(14) 5223. 2.6746 3.0615
46819. 0.96965 2.924(14) 5396. 2.6749 2.9959
46833. 0.96994 2.867(13) 5519. 2.6752 2.9084
46847. 0.97023 2.789(13) 5714. 2.6756 2.8358
46862. 0.97052 2.762(13) 5745. 2.6759 2.7848
46876. 0.97081 2.748(13) 5795. 2.6762 2.7505
46890. 0.97110 2.724(13) 5860. 2.6766 2.7280
46904. 0.97139 2.716(13) 5819. 2.6769 2.7144
46918. 0.97168 2.684(13) 5954. 2.6772 2.7082
46932. 0.97198 2.690(13) 5940. 2.6776 2.7112
46946. 0.97227 2.712(13) 5891. 2.6779 2.7223
46960. 0.97256 2.748(13) 5756. 2.6783 2.7375
46974. 0.97285 2.741(13) 5794. 2.6786 2.7514
46988. 0.97314 2.723(13) 5870. 2.6789 2.7603
47002. 0.97343 2.760(13) 5815. 2.6793 2.7701
47016. 0.97373 2.791(13) 5759. 2.6796 2.8015
47030. 0.97402 2.869(13) 5581. 2.6800 2.8670
47045. 0.97431 2.925(14) 5413. 2.6803 2.9376
47059. 0.97460 2.949(14) 5346. 2.6807 2.9596
47073. 0.97490 2.885(13) 5536. 2.6810 2.9284
47087. 0.97519 2.835(13) 5652. 2.6814 2.8824
47101. 0.97548 2.801(13) 5704. 2.6817 2.8433
47115. 0.97577 2.772(13) 5785. 2.6821 2.8083
47129. 0.97607 2.730(13) 5886. 2.6824 2.7758
47143. 0.97636 2.727(13) 5894. 2.6828 2.7497
47158. 0.97665 2.721(13) 5878. 2.6831 2.7333
47172. 0.97695 2.711(13) 5934. 2.6835 2.7296
47186. 0.97724 2.722(13) 5926. 2.6838 2.7400
47200. 0.97753 2.742(13) 5852. 2.6842 2.7596
47214. 0.97783 2.743(13) 5842. 2.6845 2.7716
47228. 0.97812 2.741(13) 5818. 2.6849 2.7656
47243. 0.97841 2.750(13) 5809. 2.6852 2.7498
47257. 0.97871 2.727(13) 5879. 2.6856 2.7354
47271. 0.97900 2.741(13) 5837. 2.6860 2.7276
47285. 0.97929 2.755(13) 5832. 2.6863 2.7291
47299. 0.97959 2.780(13) 5807. 2.6867 2.7511
47313. 0.97988 2.870(13) 5605. 2.6871 2.8208
47328. 0.98018 3.040(14) 5272. 2.6874 2.9556
47342. 0.98047 3.166(14) 5001. 2.6878 3.1090
47356. 0.98076 3.208(14) 4930. 2.6882 3.1804
47370. 0.98106 3.159(14) 5045. 2.6885 3.1452
47384. 0.98135 3.075(14) 5197. 2.6889 3.0774
47399. 0.98165 3.035(14) 5253. 2.6893 3.0328
47413. 0.98194 3.012(14) 5275. 2.6896 3.0029
47427. 0.98224 2.944(14) 5428. 2.6900 2.9608
47441. 0.98253 2.903(13) 5528. 2.6904 2.9041
47456. 0.98283 2.840(13) 5653. 2.6908 2.8483
47470. 0.98312 2.811(13) 5712. 2.6911 2.8035
47484. 0.98342 2.798(13) 5736. 2.6915 2.7711
47498. 0.98371 2.741(13) 5843. 2.6919 2.7500
47513. 0.98401 2.745(13) 5811. 2.6923 2.7405
47527. 0.98430 2.704(13) 5953. 2.6927 2.7426
47541. 0.98460 2.717(13) 5862. 2.6931 2.7507
47555. 0.98489 2.727(13) 5839. 2.6934 2.7541
47570. 0.98519 2.729(13) 5835. 2.6938 2.7484
47584. 0.98548 2.708(13) 5933. 2.6942 2.7405
47598. 0.98578 2.728(13) 5861. 2.6946 2.7393
47612. 0.98607 2.762(13) 5799. 2.6950 2.7525
47627. 0.98637 2.798(13) 5671. 2.6954 2.7811
47641. 0.98667 2.845(13) 5585. 2.6958 2.8109
47655. 0.98696 2.882(13) 5495. 2.6962 2.8228
47670. 0.98726 2.907(14) 5451. 2.6966 2.8238
47684. 0.98755 2.900(14) 5446. 2.6970 2.8328
47698. 0.98785 2.928(14) 5372. 2.6973 2.8461
47713. 0.98815 2.916(14) 5412. 2.6977 2.8425
47727. 0.98844 2.867(13) 5515. 2.6981 2.8198
47741. 0.98874 2.843(13) 5550. 2.6985 2.7977
47755. 0.98904 2.817(13) 5630. 2.6989 2.7989
47770. 0.98933 2.848(13) 5538. 2.6993 2.8423
47784. 0.98963 2.883(13) 5513. 2.6997 2.9290
47798. 0.98993 2.972(14) 5288. 2.7002 3.0269
47813. 0.99022 2.984(14) 5301. 2.7006 3.1046
47827. 0.99052 3.052(14) 5169. 2.7010 3.1694
47842. 0.99082 3.090(14) 5071. 2.7014 3.2114
47856. 0.99112 3.086(14) 5092. 2.7018 3.2039
47870. 0.99141 3.116(14) 5038. 2.7022 3.1703
47885. 0.99171 3.137(14) 5035. 2.7026 3.1760
47899. 0.99201 3.223(14) 4905. 2.7030 3.2426
47913. 0.99231 3.294(15) 4706. 2.7034 3.3105
47928. 0.99260 3.283(15) 4693. 2.7039 3.2981
47942. 0.99290 3.204(14) 4832. 2.7043 3.1963
47956. 0.99320 3.042(14) 5153. 2.7047 3.0657
47971. 0.99350 2.951(14) 5298. 2.7051 2.9545
47985. 0.99380 2.857(13) 5531. 2.7055 2.8746
48000. 0.99409 2.808(13) 5592. 2.7060 2.8205
48014. 0.99439 2.776(13) 5638. 2.7064 2.7845
48028. 0.99469 2.747(13) 5717. 2.7068 2.7603
48043. 0.99499 2.726(13) 5769. 2.7072 2.7444
48057. 0.99529 2.703(13) 5822. 2.7077 2.7340
48072. 0.99559 2.723(13) 5738. 2.7081 2.7271
48086. 0.99589 2.708(13) 5807. 2.7085 2.7228
48101. 0.99618 2.707(13) 5790. 2.7089 2.7201
48115. 0.99648 2.713(13) 5804. 2.7094 2.7191
48129. 0.99678 2.721(13) 5767. 2.7098 2.7205
48144. 0.99708 2.702(13) 5821. 2.7102 2.7285
48158. 0.99738 2.731(13) 5753. 2.7107 2.7489
48173. 0.99768 2.732(13) 5770. 2.7111 2.7805
48187. 0.99798 2.764(13) 5670. 2.7116 2.8062
48202. 0.99828 2.751(13) 5682. 2.7120 2.8079
48216. 0.99858 2.723(13) 5777. 2.7124 2.7907
48231. 0.99888 2.722(13) 5800. 2.7129 2.7697
48245. 0.99918 2.730(13) 5746. 2.7133 2.7532
48259. 0.99948 2.711(13) 5801. 2.7138 2.7432
48274. 0.99978 2.722(13) 5769. 2.7142 2.7405
48288. 1.00008 2.737(13) 5719. 2.7147 2.7484
48303. 1.00038 2.752(13) 5708. 2.7151 2.7686
48317. 1.00068 2.749(13) 5718. 2.7156 2.7929
48332. 1.00098 2.756(13) 5710. 2.7160 2.8065
48346. 1.00128 2.781(13) 5650. 2.7165 2.8089
48361. 1.00158 2.778(13) 5650. 2.7169 2.8128
48375. 1.00188 2.786(13) 5659. 2.7174 2.8202
48390. 1.00218 2.822(13) 5560. 2.7178 2.8181
48404. 1.00248 2.834(13) 5528. 2.7183 2.8033
48419. 1.00278 2.808(13) 5628. 2.7188 2.7874
48433. 1.00308 2.800(13) 5677. 2.7192 2.7865
48448. 1.00338 2.854(13) 5553. 2.7197 2.8207
48463. 1.00368 2.908(14) 5459. 2.7201 2.9055
48477. 1.00399 3.002(14) 5246. 2.7206 3.0235
48492. 1.00429 3.099(14) 5045. 2.7211 3.1151
48506. 1.00459 3.110(14) 5024. 2.7215 3.1325
48521. 1.00489 3.035(14) 5181. 2.7220 3.0762
48535. 1.00519 2.981(14) 5283. 2.7225 2.9891
48550. 1.00549 2.920(14) 5402. 2.7230 2.9102
48564. 1.00579 2.857(13) 5584. 2.7234 2.8544
48579. 1.00610 2.822(13) 5647. 2.7239 2.8227
48594. 1.00640 2.822(13) 5638. 2.7244 2.8124
48608. 1.00670 2.819(13) 5599. 2.7248 2.8142
48623. 1.00700 2.840(13) 5576. 2.7253 2.8132
48637. 1.00730 2.839(13) 5594. 2.7258 2.8058
48652. 1.00761 2.819(13) 5639. 2.7263 2.8072
48667. 1.00791 2.831(13) 5601. 2.7268 2.8359
48681. 1.00821 2.860(13) 5528. 2.7273 2.8904
48696. 1.00851 2.908(14) 5427. 2.7277 2.9358
48710. 1.00882 2.888(14) 5461. 2.7282 2.9372
48725. 1.00912 2.883(13) 5541. 2.7287 2.9130
48740. 1.00942 2.878(13) 5562. 2.7292 2.9082
48754. 1.00973 2.919(13) 5508. 2.7297 2.9457
48769. 1.01003 3.012(14) 5255. 2.7302 2.9994
48783. 1.01033 3.051(14) 5154. 2.7307 3.0138
48798. 1.01063 2.996(14) 5279. 2.7312 2.9752
48813. 1.01094 2.946(14) 5395. 2.7317 2.9153
48827. 1.01124 2.880(13) 5499. 2.7322 2.8612
48842. 1.01154 2.825(13) 5649. 2.7327 2.8217
48857. 1.01185 2.794(13) 5707. 2.7332 2.7951
48871. 1.01215 2.749(13) 5825. 2.7337 2.7792
48886. 1.01246 2.735(13) 5863. 2.7342 2.7745
48901. 1.01276 2.760(13) 5798. 2.7347 2.7834
48915. 1.01306 2.775(13) 5735. 2.7352 2.8036
48930. 1.01337 2.835(13) 5590. 2.7357 2.8209
48945. 1.01367 2.830(13) 5607. 2.7362 2.8214
48959. 1.01398 2.802(13) 5674. 2.7367 2.8086
48974. 1.01428 2.795(13) 5693. 2.7372 2.7965
48989. 1.01458 2.789(13) 5712. 2.7377 2.7975
49003. 1.01489 2.802(13) 5703. 2.7382 2.8282
49018. 1.01519 2.892(13) 5493. 2.7387 2.9056
49033. 1.01550 2.973(14) 5335. 2.7393 3.0164
49048. 1.01580 3.030(14) 5228. 2.7398 3.0999
49062. 1.01611 3.034(14) 5176. 2.7403 3.1070
49077. 1.01641 3.031(14) 5204. 2.7408 3.0617
49092. 1.01672 2.983(14) 5316. 2.7413 3.0279
49106. 1.01702 3.026(14) 5240. 2.7418 3.0349
49121. 1.01733 3.103(14) 5038. 2.7424 3.0623
49136. 1.01763 3.131(14) 5046. 2.7429 3.0902
49151. 1.01794 3.168(14) 5006. 2.7434 3.1458
49165. 1.01824 3.283(15) 4738. 2.7439 3.2338
49180. 1.01855 3.322(15) 4626. 2.7445 3.2823
49195. 1.01885 3.241(14) 4784. 2.7450 3.2443
49210. 1.01916 3.164(14) 4951. 2.7455 3.1676
49224. 1.01947 3.114(14) 5017. 2.7461 3.1031
49239. 1.01977 3.069(14) 5076. 2.7466 3.0574
49254. 1.02008 3.030(14) 5143. 2.7471 3.0306
49269. 1.02038 2.985(14) 5247. 2.7477 3.0312
49283. 1.02069 2.997(14) 5206. 2.7482 3.0454
49298. 1.02100 3.004(14) 5215. 2.7488 3.0611
49313. 1.02130 3.061(14) 5121. 2.7493 3.1051
49328. 1.02161 3.137(14) 4948. 2.7498 3.1813
49343. 1.02192 3.173(14) 4868. 2.7504 3.2217
49357. 1.02222 3.137(14) 4927. 2.7509 3.1751
49372. 1.02253 3.047(14) 5116. 2.7515 3.0804
49387. 1.02284 2.983(14) 5235. 2.7520 2.9952
49402. 1.02314 2.958(14) 5290. 2.7526 2.9554
49417. 1.02345 3.036(14) 5186. 2.7531 2.9941
49432. 1.02376 3.199(14) 4883. 2.7537 3.1338
49446. 1.02406 3.477(15) 4443. 2.7542 3.3340
49461. 1.02437 3.653(15) 4171. 2.7548 3.4817
49476. 1.02468 3.732(16) 4036. 2.7553 3.5014
49491. 1.02499 3.657(16) 4135. 2.7559 3.4024
49506. 1.02529 3.443(15) 4442. 2.7564 3.2536
49521. 1.02560 3.283(15) 4715. 2.7570 3.1214
49535. 1.02591 3.117(14) 5000. 2.7575 3.0309
49550. 1.02622 3.056(14) 5086. 2.7581 2.9787
49565. 1.02653 3.018(14) 5177. 2.7587 2.9618
49580. 1.02683 3.065(14) 5093. 2.7592 2.9928
49595. 1.02714 3.128(14) 4977. 2.7598 3.1065
49610. 1.02745 3.262(15) 4746. 2.7604 3.3078
49625. 1.02776 3.384(15) 4524. 2.7609 3.4918
49640. 1.02807 3.417(15) 4447. 2.7615 3.5127
49654. 1.02837 3.326(15) 4607. 2.7621 3.3852
49669. 1.02868 3.163(14) 4895. 2.7626 3.2267
49684. 1.02899 3.105(14) 5013. 2.7632 3.1149
49699. 1.02930 3.059(14) 5113. 2.7638 3.0630
49714. 1.02961 3.050(14) 5098. 2.7644 3.0421
49729. 1.02992 3.077(14) 5018. 2.7649 3.0214
49744. 1.03023 3.007(14) 5183. 2.7655 3.0082
49759. 1.03054 3.022(14) 5121. 2.7661 3.0165
49774. 1.03085 3.033(14) 5080. 2.7667 3.0246
49789. 1.03116 2.989(14) 5201. 2.7672 3.0004
49804. 1.03146 2.930(14) 5305. 2.7678 2.9523
49819. 1.03177 2.910(14) 5368. 2.7684 2.9070
49833. 1.03208 2.913(14) 5366. 2.7690 2.8771
49848. 1.03239 2.862(14) 5451. 2.7696 2.8601
49863. 1.03270 2.879(14) 5419. 2.7702 2.8510
49878. 1.03301 2.870(14) 5422. 2.7708 2.8502
49893. 1.03332 2.885(14) 5415. 2.7713 2.8553
49908. 1.03363 2.882(14) 5422. 2.7719 2.8543
49923. 1.03394 2.877(14) 5415. 2.7725 2.8446
49938. 1.03425 2.844(13) 5495. 2.7731 2.8371
49953. 1.03456 2.843(13) 5512. 2.7737 2.8444
49968. 1.03487 2.842(13) 5521. 2.7743 2.8690
49983. 1.03518 2.866(13) 5495. 2.7749 2.8986
49998. 1.03550 2.880(14) 5477. 2.7755 2.9248
50013. 1.03581 2.913(14) 5409. 2.7761 2.9605
50028. 1.03612 3.018(14) 5173. 2.7767 3.0044
50043. 1.03643 3.025(14) 5174. 2.7773 3.0207
50058. 1.03674 3.017(14) 5196. 2.7779 2.9915
50073. 1.03705 2.978(14) 5288. 2.7785 2.9457
50088. 1.03736 2.937(14) 5408. 2.7791 2.9189
50103. 1.03767 2.987(14) 5269. 2.7797 2.9417
50118. 1.03798 3.052(14) 5184. 2.7803 3.0301
50133. 1.03830 3.175(14) 4948. 2.7809 3.1488
50148. 1.03861 3.264(14) 4778. 2.7815 3.2078
50163. 1.03892 3.233(14) 4841. 2.7821 3.1665
50178. 1.03923 3.133(14) 5028. 2.7828 3.0749
50194. 1.03954 3.045(14) 5209. 2.7834 2.9875
50209. 1.03985 2.978(14) 5296. 2.7840 2.9229
50224. 1.04017 2.939(14) 5366. 2.7846 2.8799
50239. 1.04048 2.886(14) 5483. 2.7852 2.8546
50254. 1.04079 2.873(13) 5512. 2.7858 2.8442
50269. 1.04110 2.892(13) 5502. 2.7864 2.8497
50284. 1.04142 2.923(14) 5400. 2.7871 2.8685
50299. 1.04173 2.923(14) 5408. 2.7877 2.8943
50314. 1.04204 2.949(14) 5340. 2.7883 2.9206
50329. 1.04235 2.935(14) 5391. 2.7889 2.9366
50344. 1.04267 2.936(14) 5382. 2.7895 2.9325
50359. 1.04298 2.915(14) 5415. 2.7902 2.9133
50375. 1.04329 2.910(14) 5432. 2.7908 2.8887
50390. 1.04360 2.886(14) 5452. 2.7914 2.8651
50405. 1.04392 2.871(13) 5498. 2.7920 2.8472
50420. 1.04423 2.848(13) 5549. 2.7927 2.8393
50435. 1.04454 2.847(13) 5581. 2.7933 2.8488
50450. 1.04486 2.905(14) 5440. 2.7939 2.8833
50465. 1.04517 2.972(14) 5302. 2.7946 2.9364
50480. 1.04548 3.026(14) 5230. 2.7952 2.9847
50496. 1.04580 3.074(14) 5132. 2.7958 3.0237
50511. 1.04611 3.131(14) 5018. 2.7965 3.0709
50526. 1.04643 3.164(14) 4955. 2.7971 3.1104
50541. 1.04674 3.140(14) 4994. 2.7977 3.1036
50556. 1.04705 3.109(14) 5076. 2.7984 3.0643
50571. 1.04737 3.120(14) 5076. 2.7990 3.0458
50587. 1.04768 3.206(14) 4952. 2.7997 3.1037
50602. 1.04800 3.381(15) 4657. 2.8003 3.2655
50617. 1.04831 3.597(15) 4268. 2.8009 3.4761
50632. 1.04863 3.712(16) 4092. 2.8016 3.5891
50647. 1.04894 3.638(15) 4199. 2.8022 3.5389
50662. 1.04926 3.466(15) 4454. 2.8029 3.4055
50678. 1.04957 3.333(15) 4635. 2.8035 3.2766
50693. 1.04989 3.216(14) 4842. 2.8042 3.1849
50708. 1.05020 3.159(14) 4933. 2.8048 3.1306
50723. 1.05052 3.097(14) 5027. 2.8055 3.1089
50738. 1.05083 3.099(14) 5023. 2.8061 3.0988
50754. 1.05115 3.080(14) 5015. 2.8068 3.0663
50769. 1.05146 3.050(14) 5057. 2.8074 3.0113
50784. 1.05178 2.965(14) 5222. 2.8081 2.9569
50799. 1.05209 2.925(14) 5331. 2.8087 2.9189
50815. 1.05241 2.922(14) 5327. 2.8094 2.9071
50830. 1.05272 2.956(14) 5269. 2.8100 2.9351
50845. 1.05304 3.016(14) 5171. 2.8107 3.0050
50860. 1.05336 3.092(14) 5006. 2.8113 3.0814
50876. 1.05367 3.173(14) 4836. 2.8120 3.1156
50891. 1.05399 3.154(14) 4911. 2.8127 3.1229
50906. 1.05430 3.151(14) 4952. 2.8133 3.1560
50921. 1.05462 3.200(14) 4835. 2.8140 3.2219
50937. 1.05494 3.261(15) 4674. 2.8146 3.2734
50952. 1.05525 3.305(15) 4627. 2.8153 3.2761
50967. 1.05557 3.256(15) 4704. 2.8160 3.2263
50983. 1.05589 3.192(14) 4817. 2.8166 3.1624
50998. 1.05620 3.170(14) 4864. 2.8173 3.1397
51013. 1.05652 3.180(14) 4821. 2.8180 3.1755
51028. 1.05684 3.188(14) 4798. 2.8186 3.2226
51044. 1.05716 3.214(15) 4753. 2.8193 3.2256
51059. 1.05747 3.225(14) 4777. 2.8200 3.2208
51074. 1.05779 3.336(15) 4610. 2.8206 3.3076
51090. 1.05811 3.530(15) 4313. 2.8213 3.5141
51105. 1.05842 3.663(16) 4092. 2.8220 3.7090
51120. 1.05874 3.628(16) 4156. 2.8226 3.7177
51136. 1.05906 3.476(15) 4371. 2.8233 3.5587
51151. 1.05938 3.293(15) 4642. 2.8240 3.3611
51166. 1.05970 3.205(14) 4792. 2.8247 3.2088
51182. 1.06001 3.166(14) 4880. 2.8253 3.1367
51197. 1.06033 3.233(14) 4778. 2.8260 3.1691
51212. 1.06065 3.365(15) 4579. 2.8267 3.2992
51228. 1.06097 3.524(15) 4297. 2.8274 3.4341
51243. 1.06129 3.569(15) 4220. 2.8281 3.4479
51259. 1.06160 3.475(15) 4363. 2.8287 3.3416
51274. 1.06192 3.306(15) 4660. 2.8294 3.2027
51289. 1.06224 3.158(14) 4880. 2.8301 3.0884
51305. 1.06256 3.060(14) 5031. 2.8308 3.0126
51320. 1.06288 2.982(14) 5177. 2.8315 2.9707
51336. 1.06320 2.939(14) 5267. 2.8321 2.9534
51351. 1.06352 2.947(14) 5236. 2.8328 2.9458
51366. 1.06384 2.952(14) 5238. 2.8335 2.9387
51382. 1.06416 2.938(14) 5256. 2.8342 2.9377
51397. 1.06448 2.960(14) 5203. 2.8349 2.9478
51413. 1.06479 2.967(14) 5204. 2.8356 2.9582
51428. 1.06511 2.963(14) 5224. 2.8362 2.9577
51443. 1.06543 2.952(14) 5261. 2.8369 2.9542
51459. 1.06575 2.932(14) 5287. 2.8376 2.9563
51474. 1.06607 2.963(14) 5196. 2.8383 2.9589
51490. 1.06639 2.937(14) 5302. 2.8390 2.9558
51505. 1.06671 2.927(14) 5295. 2.8397 2.9581
51521. 1.06703 2.990(14) 5175. 2.8404 2.9834
51536. 1.06735 3.020(14) 5145. 2.8411 3.0326
51552. 1.06767 3.060(14) 5060. 2.8418 3.0767
51567. 1.06799 3.023(14) 5119. 2.8425 3.0816
51582. 1.06831 2.992(14) 5182. 2.8432 3.0565
51598. 1.06863 2.972(14) 5207. 2.8438 3.0290
51613. 1.06896 2.948(14) 5257. 2.8445 3.0136
51629. 1.06928 2.903(14) 5338. 2.8452 3.0127
51644. 1.06960 2.896(14) 5331. 2.8459 3.0220
51660. 1.06992 2.902(14) 5365. 2.8466 3.0263
51675. 1.07024 2.892(14) 5387. 2.8473 3.0159
51691. 1.07056 2.909(14) 5317. 2.8480 2.9981
51706. 1.07088 2.908(14) 5347. 2.8487 2.9823
51722. 1.07120 2.912(14) 5316. 2.8494 2.9676
51737. 1.07152 2.892(14) 5395. 2.8501 2.9511
51753. 1.07185 2.891(14) 5382. 2.8508 2.9345
51768. 1.07217 2.878(14) 5379. 2.8515 2.9202
51784. 1.07249 2.868(14) 5444. 2.8522 2.9089
51800. 1.07281 2.862(14) 5435. 2.8529 2.9003
51815. 1.07313 2.856(14) 5465. 2.8536 2.8943
51831. 1.07345 2.843(13) 5512. 2.8543 2.8908
51846. 1.07378 2.864(14) 5451. 2.8550 2.8904
51862. 1.07410 2.869(14) 5434. 2.8557 2.8936
51877. 1.07442 2.909(14) 5348. 2.8564 2.9053
51893. 1.07474 2.968(14) 5230. 2.8571 2.9424
51908. 1.07507 3.041(14) 5117. 2.8578 3.0235
51924. 1.07539 3.161(14) 4859. 2.8585 3.1292
51940. 1.07571 3.228(15) 4730. 2.8593 3.1900
51955. 1.07603 3.189(14) 4802. 2.8600 3.1674
51971. 1.07636 3.097(14) 4978. 2.8607 3.0982
51986. 1.07668 3.031(14) 5110. 2.8614 3.0281
52002. 1.07700 2.959(14) 5245. 2.8621 2.9752
52018. 1.07733 2.932(14) 5288. 2.8628 2.9391
52033. 1.07765 2.884(14) 5372. 2.8635 2.9153
52049. 1.07797 2.856(14) 5408. 2.8642 2.8998
52064. 1.07830 2.831(14) 5474. 2.8649 2.8899
52080. 1.07862 2.839(14) 5458. 2.8656 2.8840
52096. 1.07894 2.857(14) 5395. 2.8663 2.8820
52111. 1.07927 2.844(14) 5457. 2.8670 2.8856
52127. 1.07959 2.868(14) 5403. 2.8677 2.8977
52143. 1.07992 2.871(14) 5374. 2.8685 2.9175
52158. 1.08024 2.914(14) 5286. 2.8692 2.9413
52174. 1.08056 2.928(14) 5280. 2.8699 2.9727
52189. 1.08089 2.994(14) 5126. 2.8706 3.0170
52205. 1.08121 3.056(14) 4990. 2.8713 3.0551
52221. 1.08154 3.049(14) 5005. 2.8720 3.0549
52236. 1.08186 2.993(14) 5090. 2.8727 3.0213
52252. 1.08219 2.936(14) 5233. 2.8734 2.9802
52268. 1.08251 2.900(14) 5287. 2.8742 2.9470
52283. 1.08284 2.902(14) 5283. 2.8749 2.9240
52299. 1.08316 2.856(14) 5381. 2.8756 2.9089
52315. 1.08349 2.855(14) 5345. 2.8763 2.8991
52331. 1.08381 2.869(14) 5284. 2.8770 2.8928
52346. 1.08414 2.823(14) 5410. 2.8777 2.8890
52362. 1.08446 2.823(14) 5411. 2.8784 2.8863
52378. 1.08479 2.847(14) 5330. 2.8792 2.8851
52393. 1.08511 2.833(14) 5355. 2.8799 2.8845
52409. 1.08544 2.820(14) 5402. 2.8806 2.8845
52425. 1.08576 2.831(14) 5359. 2.8813 2.8848
52441. 1.08609 2.856(14) 5316. 2.8820 2.8853
52456. 1.08642 2.834(14) 5331. 2.8827 2.8861
52472. 1.08674 2.820(14) 5390. 2.8835 2.8871
52488. 1.08707 2.844(14) 5301. 2.8842 2.8888
52503. 1.08739 2.853(14) 5316. 2.8849 2.8904
52519. 1.08772 2.856(14) 5288. 2.8856 2.8929
52535. 1.08805 2.872(14) 5239. 2.8863 2.8992
52551. 1.08837 2.910(14) 5191. 2.8870 2.9202
52567. 1.08870 2.975(14) 5065. 2.8878 2.9799
52582. 1.08903 3.115(14) 4825. 2.8885 3.0952
52598. 1.08935 3.268(15) 4523. 2.8892 3.2286
52614. 1.08968 3.358(15) 4376. 2.8899 3.2902
52630. 1.09001 3.267(15) 4552. 2.8906 3.2518
52645. 1.09033 3.181(15) 4694. 2.8913 3.1731
52661. 1.09066 3.117(14) 4784. 2.8921 3.1147
52677. 1.09099 3.082(14) 4857. 2.8928 3.0939
52693. 1.09132 3.078(14) 4858. 2.8935 3.0895
52709. 1.09164 3.096(14) 4816. 2.8942 3.0703
52724. 1.09197 3.057(14) 4871. 2.8949 3.0336
52740. 1.09230 3.003(14) 4999. 2.8957 2.9958
52756. 1.09263 2.963(14) 5070. 2.8964 2.9666
52772. 1.09295 2.927(14) 5127. 2.8971 2.9473
52788. 1.09328 2.933(14) 5075. 2.8978 2.9362
52804. 1.09361 2.917(14) 5146. 2.8985 2.9348
52819. 1.09394 2.925(14) 5148. 2.8992 2.9559
52835. 1.09427 2.994(14) 5071. 2.9000 3.0295
52851. 1.09459 3.153(14) 4797. 2.9007 3.1758
52867. 1.09492 3.341(15) 4454. 2.9014 3.3437
52883. 1.09525 3.458(15) 4250. 2.9021 3.4173
52899. 1.09558 3.379(15) 4387. 2.9028 3.3610
52915. 1.09591 3.253(15) 4580. 2.9036 3.2477
52930. 1.09624 3.121(14) 4820. 2.9043 3.1434
52946. 1.09657 3.062(14) 4897. 2.9050 3.0692
52962. 1.09690 3.009(14) 5014. 2.9057 3.0244
52978. 1.09722 2.994(14) 5082. 2.9064 3.0142
52994. 1.09755 3.077(14) 4968. 2.9071 3.0574
53010. 1.09788 3.259(15) 4661. 2.9079 3.1620
53026. 1.09821 3.430(15) 4371. 2.9086 3.2778
53042. 1.09854 3.517(15) 4225. 2.9093 3.3144
53058. 1.09887 3.393(15) 4414. 2.9100 3.2581
53074. 1.09920 3.225(15) 4683. 2.9107 3.1673
53089. 1.09953 3.110(14) 4859. 2.9114 3.0877
53105. 1.09986 3.022(14) 5002. 2.9122 3.0310
53121. 1.10019 2.977(14) 5091. 2.9129 2.9930
53137. 1.10052 2.941(14) 5159. 2.9136 2.9681
53153. 1.10085 2.916(14) 5194. 2.9143 2.9518
53169. 1.10118 2.903(14) 5266. 2.9150 2.9414
53185. 1.10151 2.894(14) 5268. 2.9157 2.9348
53201. 1.10184 2.888(14) 5275. 2.9165 2.9308
53217. 1.10217 2.887(14) 5259. 2.9172 2.9287
53233. 1.10250 2.904(14) 5201. 2.9179 2.9278
53249. 1.10284 2.879(14) 5282. 2.9186 2.9280
53265. 1.10317 2.902(14) 5218. 2.9193 2.9300
53281. 1.10350 2.916(14) 5212. 2.9200 2.9375
53297. 1.10383 2.962(14) 5132. 2.9208 2.9643
53313. 1.10416 3.039(14) 5007. 2.9215 3.0349
53329. 1.10449 3.181(15) 4749. 2.9222 3.1597
53345. 1.10482 3.329(15) 4501. 2.9229 3.2861
53361. 1.10515 3.364(15) 4420. 2.9236 3.3280
53377. 1.10549 3.278(15) 4581. 2.9243 3.2766
53393. 1.10582 3.168(15) 4752. 2.9250 3.1929
53409. 1.10615 3.087(14) 4885. 2.9257 3.1240
53425. 1.10648 3.032(14) 4977. 2.9265 3.0771
53441. 1.10681 2.986(14) 5074. 2.9272 3.0419
53457. 1.10714 2.976(14) 5051. 2.9279 3.0134
53473. 1.10748 2.951(14) 5111. 2.9286 2.9973
53489. 1.10781 2.939(14) 5164. 2.9293 2.9984
53505. 1.10814 2.944(14) 5150. 2.9300 3.0130
53521. 1.10847 2.973(14) 5051. 2.9307 3.0247
53537. 1.10881 2.963(14) 5073. 2.9314 3.0211
53553. 1.10914 2.960(14) 5079. 2.9321 3.0097
53569. 1.10947 2.962(14) 5082. 2.9329 3.0042
53585. 1.10981 2.967(14) 5044. 2.9336 3.0099
53601. 1.11014 2.953(14) 5081. 2.9343 3.0187
53618. 1.11047 2.948(14) 5096. 2.9350 3.0172
53634. 1.11080 2.937(14) 5100. 2.9357 3.0033
53650. 1.11114 2.937(14) 5116. 2.9364 2.9873
53666. 1.11147 2.917(14) 5169. 2.9371 2.9782
53682. 1.11180 2.955(14) 5066. 2.9378 2.9844
53698. 1.11214 3.011(14) 4954. 2.9385 3.0136
53714. 1.11247 3.027(14) 4912. 2.9392 3.0600
53730. 1.11281 3.048(14) 4887. 2.9399 3.0930
53746. 1.11314 3.047(14) 4873. 2.9406 3.0883
53762. 1.11347 3.048(14) 4834. 2.9413 3.0589
53779. 1.11381 3.008(14) 4915. 2.9420 3.0284
53795. 1.11414 2.994(14) 4938. 2.9427 3.0116
53811. 1.11448 2.955(14) 5023. 2.9434 3.0135
53827. 1.11481 2.959(14) 4981. 2.9441 3.0301
53843. 1.11515 2.992(14) 4913. 2.9448 3.0465
53859. 1.11548 2.979(14) 4932. 2.9455 3.0507
53875. 1.11581 3.015(14) 4868. 2.9462 3.0437
53892. 1.11615 2.984(14) 4901. 2.9469 3.0287
53908. 1.11648 2.977(14) 4923. 2.9476 3.0108
53924. 1.11682 2.974(14) 4905. 2.9483 2.9953
53940. 1.11715 2.955(14) 4964. 2.9490 2.9847
53956. 1.11749 2.932(14) 5021. 2.9497 2.9790
53973. 1.11783 2.971(14) 4953. 2.9504 2.9784
53989. 1.11816 3.007(14) 4879. 2.9511 2.9890
54005. 1.11850 3.070(14) 4793. 2.9518 3.0375
54021. 1.11883 3.259(15) 4539. 2.9525 3.1854
54037. 1.11917 3.554(16) 4140. 2.9532 3.4805
54054. 1.11950 3.936(17) 3602. 2.9539 3.8317
54070. 1.11984 4.161(17) 3335. 2.9546 4.0070
54086. 1.12018 4.049(17) 3474. 2.9553 3.9240
54102. 1.12051 3.828(16) 3730. 2.9560 3.7277
54118. 1.12085 3.617(16) 3977. 2.9567 3.5440
54135. 1.12118 3.431(15) 4189. 2.9574 3.3942
54151. 1.12152 3.311(15) 4345. 2.9581 3.2701
54167. 1.12186 3.198(15) 4518. 2.9587 3.1734
54183. 1.12219 3.111(15) 4640. 2.9594 3.1045
54200. 1.12253 3.043(14) 4772. 2.9601 3.0582
54216. 1.12287 3.001(14) 4847. 2.9608 3.0276
54232. 1.12320 2.981(14) 4876. 2.9615 3.0075
54248. 1.12354 2.982(14) 4862. 2.9622 2.9945
54265. 1.12388 2.974(14) 4894. 2.9629 2.9861
54281. 1.12422 2.956(14) 4917. 2.9635 2.9808
54297. 1.12455 2.954(14) 4919. 2.9642 2.9778
54314. 1.12489 2.960(14) 4908. 2.9649 2.9768
54330. 1.12523 2.963(14) 4875. 2.9656 2.9774
54346. 1.12557 2.960(14) 4892. 2.9663 2.9788
54362. 1.12590 2.967(14) 4904. 2.9670 2.9804
54379. 1.12624 2.945(14) 4950. 2.9676 2.9812
54395. 1.12658 2.959(14) 4916. 2.9683 2.9841
54411. 1.12692 2.961(14) 4928. 2.9690 2.9967
54428. 1.12726 3.012(14) 4862. 2.9697 3.0383
54444. 1.12759 3.094(14) 4774. 2.9703 3.1305
54460. 1.12793 3.262(15) 4443. 2.9710 3.2566
54477. 1.12827 3.308(15) 4361. 2.9717 3.3405
54493. 1.12861 3.278(15) 4448. 2.9724 3.3291
54509. 1.12895 3.224(15) 4503. 2.9730 3.2714
54526. 1.12929 3.181(15) 4622. 2.9737 3.2401
54542. 1.12963 3.228(15) 4520. 2.9744 3.2682
54559. 1.12996 3.262(15) 4464. 2.9750 3.3210
54575. 1.13030 3.266(15) 4450. 2.9757 3.3284
54591. 1.13064 3.240(15) 4458. 2.9764 3.2731
54608. 1.13098 3.162(15) 4608. 2.9770 3.1952
54624. 1.13132 3.082(15) 4726. 2.9777 3.1283
54640. 1.13166 3.036(14) 4840. 2.9784 3.0809
54657. 1.13200 3.008(14) 4868. 2.9790 3.0498
54673. 1.13234 2.986(14) 4915. 2.9797 3.0302
54690. 1.13268 2.996(14) 4895. 2.9804 3.0191
54706. 1.13302 3.011(14) 4840. 2.9810 3.0158
54722. 1.13336 2.998(14) 4914. 2.9817 3.0242
54739. 1.13370 3.088(14) 4757. 2.9824 3.0545
54755. 1.13404 3.168(15) 4646. 2.9830 3.1285
54772. 1.13438 3.296(15) 4484. 2.9837 3.2763
54788. 1.13472 3.517(16) 4156. 2.9843 3.4885
54805. 1.13506 3.653(16) 3938. 2.9850 3.6542
54821. 1.13540 3.668(16) 3917. 2.9856 3.6534
54837. 1.13574 3.537(16) 4118. 2.9863 3.5241
54854. 1.13608 3.368(15) 4333. 2.9869 3.3709
54870. 1.13642 3.249(15) 4517. 2.9876 3.2489
54887. 1.13676 3.177(15) 4590. 2.9882 3.1642
54903. 1.13711 3.107(15) 4729. 2.9889 3.1085
54920. 1.13745 3.096(15) 4702. 2.9895 3.0754
54936. 1.13779 3.073(14) 4774. 2.9902 3.0647
54953. 1.13813 3.115(15) 4681. 2.9908 3.0791
54969. 1.13847 3.141(15) 4663. 2.9915 3.1129
54986. 1.13881 3.188(15) 4598. 2.9921 3.1429
55002. 1.13915 3.189(15) 4547. 2.9928 3.1483
55019. 1.13950 3.174(15) 4567. 2.9934 3.1286
55035. 1.13984 3.137(15) 4644. 2.9940 3.0973
55052. 1.14018 3.099(15) 4687. 2.9947 3.0691
55068. 1.14052 3.076(15) 4723. 2.9953 3.0532
55085. 1.14086 3.087(15) 4707. 2.9960 3.0558
55101. 1.14121 3.096(15) 4696. 2.9966 3.0823
55118. 1.14155 3.146(15) 4593. 2.9972 3.1227
55134. 1.14189 3.171(15) 4517. 2.9979 3.1490
55151. 1.14223 3.162(15) 4541. 2.9985 3.1479
55167. 1.14258 3.134(15) 4597. 2.9991 3.1314
55184. 1.14292 3.113(15) 4586. 2.9998 3.1085
55200. 1.14326 3.089(15) 4643. 3.0004 3.0833
55217. 1.14361 3.066(15) 4695. 3.0010 3.0613
55234. 1.14395 3.039(15) 4703. 3.0016 3.0458
55250. 1.14429 3.022(15) 4722. 3.0023 3.0356
55267. 1.14464 3.020(14) 4780. 3.0029 3.0285
55283. 1.14498 3.014(14) 4765. 3.0035 3.0237
55300. 1.14532 3.019(14) 4757. 3.0041 3.0230
55317. 1.14567 3.017(15) 4746. 3.0048 3.0250
55333. 1.14601 3.012(15) 4748. 3.0054 3.0265
55350. 1.14635 3.025(15) 4728. 3.0060 3.0254
55366. 1.14670 3.005(15) 4744. 3.0066 3.0232
55383. 1.14704 3.031(15) 4708. 3.0072 3.0222
55400. 1.14739 3.058(15) 4663. 3.0078 3.0237
55416. 1.14773 3.062(15) 4646. 3.0085 3.0277
55433. 1.14808 3.081(15) 4599. 3.0091 3.0340
55449. 1.14842 3.094(15) 4583. 3.0097 3.0500
55466. 1.14876 3.186(15) 4422. 3.0103 3.1027
55483. 1.14911 3.246(15) 4361. 3.0109 3.2321
55499. 1.14945 3.379(16) 4142. 3.0115 3.4308
55516. 1.14980 3.486(16) 3963. 3.0121 3.5889
55533. 1.15014 3.492(16) 3954. 3.0127 3.5939
55549. 1.15049 3.375(16) 4135. 3.0133 3.4808
55566. 1.15083 3.272(15) 4264. 3.0139 3.3454
55583. 1.15118 3.186(15) 4386. 3.0145 3.2381
55599. 1.15152 3.126(15) 4477. 3.0151 3.1643
55616. 1.15187 3.105(15) 4504. 3.0157 3.1164
55633. 1.15222 3.082(15) 4543. 3.0163 3.0879
55649. 1.15256 3.092(15) 4518. 3.0169 3.0782
55666. 1.15291 3.092(15) 4534. 3.0175 3.0895
55683. 1.15325 3.120(15) 4489. 3.0181 3.1161
55699. 1.15360 3.166(15) 4385. 3.0187 3.1374
55716. 1.15395 3.134(15) 4449. 3.0193 3.1346
55733. 1.15429 3.124(15) 4463. 3.0198 3.1126
55750. 1.15464 3.101(15) 4472. 3.0204 3.0870
55766. 1.15498 3.064(15) 4527. 3.0210 3.0667
55783. 1.15533 3.042(15) 4571. 3.0216 3.0528
55800. 1.15568 3.079(15) 4484. 3.0222 3.0438
55817. 1.15602 3.063(15) 4531. 3.0228 3.0382
55833. 1.15637 3.041(15) 4566. 3.0233 3.0349
55850. 1.15672 3.079(15) 4489. 3.0239 3.0330
55867. 1.15707 3.035(15) 4575. 3.0245 3.0324
55884. 1.15741 3.026(15) 4622. 3.0251 3.0331
55900. 1.15776 3.055(15) 4580. 3.0256 3.0373
55917. 1.15811 3.090(15) 4502. 3.0262 3.0533
55934. 1.15846 3.112(15) 4509. 3.0268 3.0971
55951. 1.15880 3.213(15) 4325. 3.0274 3.1750
55967. 1.15915 3.263(15) 4265. 3.0279 3.2547
55984. 1.15950 3.289(15) 4216. 3.0285 3.2820
56001. 1.15985 3.256(15) 4276. 3.0291 3.2486
56018. 1.16019 3.203(15) 4368. 3.0296 3.1939
56035. 1.16054 3.186(15) 4381. 3.0302 3.1461
56051. 1.16089 3.171(15) 4383. 3.0307 3.1161
56068. 1.16124 3.165(15) 4427. 3.0313 3.1098
56085. 1.16159 3.183(15) 4422. 3.0319 3.1314
56102. 1.16194 3.224(15) 4384. 3.0324 3.1691
56119. 1.16228 3.296(15) 4210. 3.0330 3.1901
56136. 1.16263 3.293(15) 4218. 3.0335 3.1763
56152. 1.16298 3.244(15) 4309. 3.0341 3.1437
56169. 1.16333 3.195(15) 4375. 3.0346 3.1121
56186. 1.16368 3.144(15) 4446. 3.0352 3.0892
56203. 1.16403 3.117(15) 4499. 3.0357 3.0742
56220. 1.16438 3.105(15) 4508. 3.0363 3.0650
56237. 1.16473 3.074(15) 4557. 3.0368 3.0599
56254. 1.16508 3.086(15) 4532. 3.0373 3.0583
56270. 1.16543 3.084(15) 4548. 3.0379 3.0619
56287. 1.16578 3.094(15) 4558. 3.0384 3.0759
56304. 1.16613 3.107(15) 4523. 3.0390 3.1040
56321. 1.16648 3.133(15) 4491. 3.0395 3.1390
56338. 1.16683 3.199(15) 4378. 3.0400 3.1681
56355. 1.16718 3.249(15) 4353. 3.0406 3.2175
56372. 1.16753 3.430(16) 4146. 3.0411 3.3835
56389. 1.16788 3.765(16) 3746. 3.0416 3.7668
56406. 1.16823 4.211(17) 3290. 3.0421 4.2882
56423. 1.16858 4.532(18) 2972. 3.0427 4.6152
56439. 1.16893 4.441(18) 3033. 3.0432 4.5330
56456. 1.16928 4.158(17) 3292. 3.0437 4.2055
56473. 1.16963 3.842(17) 3608. 3.0442 3.8658
56490. 1.16998 3.618(16) 3828. 3.0448 3.6166
56507. 1.17033 3.421(16) 4080. 3.0453 3.4740
56524. 1.17068 3.359(15) 4168. 3.0458 3.4279
56541. 1.17104 3.358(16) 4147. 3.0463 3.4446
56558. 1.17139 3.362(16) 4146. 3.0468 3.4644
56575. 1.17174 3.387(16) 4053. 3.0473 3.4368
56592. 1.17209 3.354(16) 4111. 3.0478 3.3655
56609. 1.17244 3.274(15) 4234. 3.0483 3.2850
56626. 1.17279 3.236(15) 4270. 3.0489 3.2181
56643. 1.17314 3.215(15) 4317. 3.0494 3.1684
56660. 1.17350 3.157(15) 4414. 3.0499 3.1326
56677. 1.17385 3.144(15) 4375. 3.0504 3.1074
56694. 1.17420 3.150(15) 4368. 3.0509 3.0904
56711. 1.17455 3.119(15) 4417. 3.0514 3.0793
56728. 1.17491 3.112(15) 4435. 3.0519 3.0723
56745. 1.17526 3.128(15) 4397. 3.0523 3.0693
56762. 1.17561 3.116(15) 4418. 3.0528 3.0722
56779. 1.17596 3.127(15) 4405. 3.0533 3.0845
56796. 1.17632 3.151(15) 4355. 3.0538 3.1047
56813. 1.17667 3.109(15) 4398. 3.0543 3.1204
56830. 1.17702 3.121(15) 4389. 3.0548 3.1200
56847. 1.17738 3.123(15) 4376. 3.0553 3.1076
56864. 1.17773 3.121(15) 4373. 3.0558 3.0931
56881. 1.17808 3.102(15) 4391. 3.0562 3.0819
56898. 1.17844 3.095(15) 4376. 3.0567 3.0729
56915. 1.17879 3.112(15) 4352. 3.0572 3.0685
56933. 1.17914 3.083(15) 4424. 3.0577 3.0656
56950. 1.17950 3.097(15) 4361. 3.0581 3.0638
56967. 1.17985 3.098(15) 4382. 3.0586 3.0628
56984. 1.18021 3.120(15) 4321. 3.0591 3.0623
57001. 1.18056 3.097(15) 4330. 3.0596 3.0624
57018. 1.18091 3.103(15) 4348. 3.0600 3.0624
57035. 1.18127 3.089(15) 4357. 3.0605 3.0625
57052. 1.18162 3.077(15) 4378. 3.0609 3.0629
57069. 1.18198 3.088(15) 4355. 3.0614 3.0633
57086. 1.18233 3.113(15) 4300. 3.0619 3.0639
57104. 1.18269 3.096(15) 4338. 3.0623 3.0645
57121. 1.18304 3.091(15) 4318. 3.0628 3.0652
57138. 1.18340 3.116(15) 4283. 3.0632 3.0659
57155. 1.18375 3.099(15) 4316. 3.0637 3.0668
57172. 1.18411 3.112(15) 4293. 3.0641 3.0678
57189. 1.18446 3.117(15) 4301. 3.0646 3.0690
57206. 1.18482 3.081(15) 4379. 3.0650 3.0706
57224. 1.18517 3.114(15) 4300. 3.0655 3.0739
57241. 1.18553 3.132(15) 4255. 3.0659 3.0823
57258. 1.18588 3.122(15) 4277. 3.0664 3.1026
57275. 1.18624 3.181(15) 4187. 3.0668 3.1390
57292. 1.18660 3.210(15) 4169. 3.0672 3.1900
57309. 1.18695 3.303(16) 4042. 3.0677 3.2648
57327. 1.18731 3.396(16) 3960. 3.0681 3.3903
57344. 1.18766 3.553(16) 3727. 3.0685 3.5471
57361. 1.18802 3.675(17) 3551. 3.0690 3.6366
57378. 1.18838 3.658(17) 3588. 3.0694 3.6030
57396. 1.18873 3.569(16) 3714. 3.0698 3.5181
57413. 1.18909 3.540(16) 3764. 3.0703 3.4675
57430. 1.18945 3.536(16) 3745. 3.0707 3.4572
57447. 1.18980 3.530(16) 3720. 3.0711 3.4306
57464. 1.19016 3.482(16) 3788. 3.0715 3.3630
57482. 1.19052 3.381(16) 3932. 3.0719 3.2823
57499. 1.19088 3.321(16) 4005. 3.0724 3.2151
57516. 1.19123 3.243(16) 4123. 3.0728 3.1679
57533. 1.19159 3.208(15) 4166. 3.0732 3.1366
57551. 1.19195 3.189(15) 4213. 3.0736 3.1162
57568. 1.19231 3.153(15) 4272. 3.0740 3.1030
57585. 1.19266 3.137(15) 4292. 3.0744 3.0944
57602. 1.19302 3.125(15) 4301. 3.0748 3.0889
57620. 1.19338 3.136(15) 4317. 3.0752 3.0855
57637. 1.19374 3.134(15) 4316. 3.0756 3.0836
57654. 1.19410 3.144(15) 4297. 3.0760 3.0836
57672. 1.19445 3.158(15) 4301. 3.0764 3.0868
57689. 1.19481 3.169(15) 4279. 3.0768 3.0954
57706. 1.19517 3.192(15) 4235. 3.0772 3.1077
57724. 1.19553 3.204(15) 4217. 3.0776 3.1170
57741. 1.19589 3.231(15) 4163. 3.0780 3.1188
57758. 1.19625 3.234(15) 4186. 3.0784 3.1164
57776. 1.19661 3.222(15) 4192. 3.0788 3.1122
57793. 1.19696 3.194(15) 4227. 3.0792 3.1068
57810. 1.19732 3.174(15) 4255. 3.0795 3.1007
57828. 1.19768 3.132(15) 4332. 3.0799 3.0949
57845. 1.19804 3.149(15) 4301. 3.0803 3.0908
57862. 1.19840 3.153(15) 4288. 3.0807 3.0881
57880. 1.19876 3.130(15) 4343. 3.0811 3.0864
57897. 1.19912 3.152(15) 4301. 3.0814 3.0859
57914. 1.19948 3.117(15) 4350. 3.0818 3.0853
57932. 1.19984 3.125(15) 4337. 3.0822 3.0853
57949. 1.20020 3.118(15) 4355. 3.0825 3.0855
57966. 1.20056 3.130(15) 4337. 3.0829 3.0860
57984. 1.20092 3.127(15) 4328. 3.0833 3.0882
58001. 1.20128 3.117(15) 4338. 3.0836 3.0897
58019. 1.20164 3.123(15) 4332. 3.0840 3.0936
58036. 1.20200 3.121(15) 4349. 3.0844 3.1066
58053. 1.20236 3.164(15) 4288. 3.0847 3.1414
58071. 1.20272 3.239(16) 4131. 3.0851 3.2043
58088. 1.20309 3.286(16) 4074. 3.0854 3.2703
58106. 1.20345 3.296(16) 4069. 3.0858 3.2928
58123. 1.20381 3.262(16) 4123. 3.0861 3.2657
58141. 1.20417 3.240(16) 4141. 3.0865 3.2201
58158. 1.20453 3.207(15) 4168. 3.0868 3.1806
58175. 1.20489 3.174(15) 4249. 3.0872 3.1539
58193. 1.20525 3.183(15) 4221. 3.0875 3.1400
58210. 1.20561 3.164(15) 4238. 3.0878 3.1426
58228. 1.20598 3.216(16) 4146. 3.0882 3.1698
58245. 1.20634 3.247(16) 4126. 3.0885 3.2171
58263. 1.20670 3.310(16) 4028. 3.0889 3.2627
58280. 1.20706 3.369(16) 3926. 3.0892 3.2936
58298. 1.20742 3.413(16) 3910. 3.0895 3.3459
58315. 1.20779 3.550(16) 3728. 3.0899 3.4586
58333. 1.20815 3.660(17) 3574. 3.0902 3.5947
58350. 1.20851 3.752(17) 3461. 3.0905 3.6574
58368. 1.20887 3.695(17) 3548. 3.0908 3.6546
58385. 1.20924 3.747(17) 3567. 3.0911 3.7503
58403. 1.20960 4.085(18) 3229. 3.0915 4.1047
58420. 1.20996 4.576(19) 2788. 3.0918 4.6382
58438. 1.21033 4.921(20) 2505. 3.0921 4.9800
58455. 1.21069 4.827(20) 2584. 3.0924 4.9077
58473. 1.21105 4.572(19) 2756. 3.0927 4.5977
58490. 1.21142 4.219(18) 3013. 3.0930 4.2675
58508. 1.21178 3.932(17) 3269. 3.0934 4.0077
58526. 1.21214 3.722(17) 3465. 3.0937 3.8180
58543. 1.21251 3.574(17) 3626. 3.0940 3.6707
58561. 1.21287 3.458(16) 3753. 3.0943 3.5536
58578. 1.21323 3.356(16) 3898. 3.0946 3.4556
58596. 1.21360 3.320(16) 3933. 3.0949 3.3807
58613. 1.21396 3.343(16) 3926. 3.0952 3.3703
58631. 1.21433 3.492(16) 3750. 3.0955 3.5057
58649. 1.21469 3.792(17) 3406. 3.0958 3.8423
58666. 1.21506 4.180(18) 2984. 3.0960 4.2526
58684. 1.21542 4.333(19) 2834. 3.0963 4.4352
58701. 1.21579 4.144(18) 3014. 3.0966 4.2878
58719. 1.21615 3.884(17) 3269. 3.0969 4.0000
58737. 1.21651 3.655(17) 3533. 3.0972 3.7620
58754. 1.21688 3.544(17) 3647. 3.0975 3.6394
58772. 1.21725 3.492(16) 3716. 3.0978 3.5942
58789. 1.21761 3.453(16) 3728. 3.0980 3.5439
58807. 1.21798 3.389(16) 3808. 3.0983 3.4554
58825. 1.21834 3.340(16) 3870. 3.0986 3.3570
58842. 1.21871 3.277(16) 3966. 3.0989 3.2777
58860. 1.21907 3.202(16) 4072. 3.0991 3.2235
58878. 1.21944 3.177(16) 4115. 3.0994 3.1903
58895. 1.21980 3.154(16) 4159. 3.0997 3.1738
58913. 1.22017 3.173(16) 4140. 3.0999 3.1674
58931. 1.22054 3.187(16) 4105. 3.1002 3.1674
58948. 1.22090 3.197(16) 4083. 3.1005 3.1697
58966. 1.22127 3.210(16) 4135. 3.1007 3.1914
58984. 1.22164 3.331(16) 3975. 3.1010 3.2851
59001. 1.22200 3.501(16) 3812. 3.1013 3.5396
59019. 1.22237 3.913(17) 3362. 3.1015 4.0035
59037. 1.22274 4.358(18) 2974. 3.1018 4.5354
59055. 1.22310 4.747(19) 2663. 3.1020 4.8264
59072. 1.22347 4.725(19) 2664. 3.1023 4.7091
59090. 1.22384 4.382(18) 2927. 3.1025 4.3452
59108. 1.22420 4.008(18) 3252. 3.1028 3.9683
59125. 1.22457 3.728(17) 3529. 3.1030 3.6871
59143. 1.22494 3.520(16) 3779. 3.1032 3.5111
59161. 1.22531 3.405(16) 3888. 3.1035 3.4180
59179. 1.22567 3.337(16) 3971. 3.1037 3.3744
59196. 1.22604 3.306(16) 4017. 3.1040 3.3358
59214. 1.22641 3.261(16) 4067. 3.1042 3.2865
59232. 1.22678 3.209(16) 4137. 3.1044 3.2379
59250. 1.22715 3.183(15) 4186. 3.1047 3.2004
59268. 1.22751 3.140(15) 4241. 3.1049 3.1763
59285. 1.22788 3.137(15) 4235. 3.1051 3.1631
59303. 1.22825 3.108(15) 4308. 3.1054 3.1590
59321. 1.22862 3.111(15) 4325. 3.1056 3.1631
59339. 1.22899 3.122(15) 4280. 3.1058 3.1726
59356. 1.22936 3.161(15) 4211. 3.1060 3.1819
59374. 1.22973 3.165(15) 4188. 3.1062 3.1892
59392. 1.23009 3.177(15) 4205. 3.1065 3.1976
59410. 1.23046 3.190(15) 4215. 3.1067 3.2130
59428. 1.23083 3.238(16) 4148. 3.1069 3.2517
59446. 1.23120 3.392(16) 3945. 3.1071 3.3547
59463. 1.23157 3.588(16) 3741. 3.1073 3.5713
59481. 1.23194 3.855(17) 3452. 3.1075 3.8722
59499. 1.23231 4.112(18) 3195. 3.1077 4.1065
59517. 1.23268 4.191(18) 3168. 3.1079 4.1860
59535. 1.23305 4.290(18) 3092. 3.1081 4.2100
59553. 1.23342 4.456(19) 2908. 3.1084 4.2436
59571. 1.23379 4.551(19) 2779. 3.1086 4.2231
59588. 1.23416 4.423(19) 2865. 3.1088 4.1419
59606. 1.23453 4.186(18) 3077. 3.1089 4.0662
59624. 1.23490 4.081(18) 3139. 3.1091 3.9942
59642. 1.23527 4.049(18) 3147. 3.1093 3.8822
59660. 1.23564 3.956(18) 3243. 3.1095 3.7467
59678. 1.23601 3.824(17) 3397. 3.1097 3.6293
59696. 1.23638 3.695(17) 3543. 3.1099 3.5498
59714. 1.23676 3.561(16) 3707. 3.1101 3.5043
59732. 1.23713 3.550(16) 3688. 3.1103 3.4822
59749. 1.23750 3.485(16) 3714. 3.1105 3.4728
59767. 1.23787 3.434(16) 3749. 3.1107 3.4626
59785. 1.23824 3.411(16) 3803. 3.1108 3.4319
59803. 1.23861 3.370(16) 3895. 3.1110 3.3802
59821. 1.23898 3.334(16) 3980. 3.1112 3.3248
59839. 1.23936 3.329(16) 4009. 3.1114 3.2777
59857. 1.23973 3.319(16) 4044. 3.1115 3.2414
59875. 1.24010 3.304(16) 4060. 3.1117 3.2140
59893. 1.24047 3.265(16) 3876. 3.1119 3.1937
59911. 1.24084 3.236(16) 3740. 3.1121 3.1806
59929. 1.24122 3.239(16) 3739. 3.1122 3.1783
59947. 1.24159 3.229(17) 3657. 3.1124 3.1898
59965. 1.24196 3.244(17) 3533. 3.1125 3.2091
59983. 1.24233 3.289(17) 3330. 3.1127 3.2187
60001. 1.24271 3.250(17) 3326. 3.1129 3.2091
60019. 1.24308 3.241(17) 3278. 3.1130 3.1922
60037. 1.24345 3.212(17) 3311. 3.1132 3.1859
60055. 1.24383 3.250(17) 3269. 3.1133 3.2120
60073. 1.24420 3.337(18) 3165. 3.1135 3.2971
60091. 1.24457 3.505(18) 3008. 3.1137 3.4528
60109. 1.24495 3.637(19) 2841. 3.1138 3.6423
60127. 1.24532 3.745(19) 2744. 3.1140 3.7808
60145. 1.24569 3.749(19) 2727. 3.1141 3.7863
60163. 1.24607 3.629(19) 2855. 3.1143 3.6794
60181. 1.24644 3.526(18) 2947. 3.1144 3.5417
60199. 1.24681 3.408(18) 3061. 3.1145 3.4218
60217. 1.24719 3.298(18) 3195. 3.1147 3.3302
60235. 1.24756 3.243(18) 3237. 3.1148 3.2632
60253. 1.24794 3.180(17) 3337. 3.1150 3.2163
60271. 1.24831 3.164(17) 3326. 3.1151 3.1849
60290. 1.24869 3.134(17) 3393. 3.1152 3.1649
60308. 1.24906 3.081(17) 3465. 3.1154 3.1531
60326. 1.24944 3.108(17) 3466. 3.1155 3.1484
60344. 1.24981 3.130(17) 3422. 3.1156 3.1603
60362. 1.25019 3.174(17) 3384. 3.1158 3.2142
60380. 1.25056 3.326(18) 3221. 3.1159 3.3505
60398. 1.25094 3.521(18) 3019. 3.1160 3.5671
60416. 1.25131 3.734(19) 2778. 3.1161 3.7582
60434. 1.25169 3.805(19) 2729. 3.1163 3.7896
60453. 1.25206 3.655(19) 2871. 3.1164 3.6724
60471. 1.25244 3.475(18) 3046. 3.1165 3.5136
60489. 1.25281 3.325(18) 3186. 3.1166 3.3828
60507. 1.25319 3.224(17) 3308. 3.1168 3.2942
60525. 1.25357 3.189(17) 3386. 3.1169 3.2393
60543. 1.25394 3.156(17) 3414. 3.1170 3.2060
60561. 1.25432 3.166(17) 3381. 3.1171 3.1834
60580. 1.25469 3.132(17) 3478. 3.1172 3.1660
60598. 1.25507 3.143(17) 3436. 3.1173 3.1541
60616. 1.25545 3.160(17) 3408. 3.1174 3.1472
60634. 1.25582 3.129(17) 3505. 3.1175 3.1437
60652. 1.25620 3.123(17) 3479. 3.1176 3.1397
60671. 1.25658 3.133(17) 3444. 3.1177 3.1346
60689. 1.25695 3.097(17) 3572. 3.1179 3.1300
60707. 1.25733 3.091(17) 3516. 3.1180 3.1265
60725. 1.25771 3.074(17) 3530. 3.1181 3.1242
60743. 1.25809 3.074(17) 3630. 3.1182 3.1227
60762. 1.25846 3.079(17) 3670. 3.1183 3.1217
60780. 1.25884 3.111(16) 3692. 3.1184 3.1215
60798. 1.25922 3.099(16) 3788. 3.1184 3.1212
60816. 1.25960 3.089(16) 3879. 3.1185 3.1210
60835. 1.25998 3.087(16) 3961. 3.1186 3.1210
60853. 1.26035 3.073(16) 4059. 3.1187 3.1210
60871. 1.26073 3.091(16) 4068. 3.1188 3.1211
60889. 1.26111 3.103(16) 4147. 3.1189 3.1213
60908. 1.26149 3.124(15) 4176. 3.1190 3.1211
60926. 1.26187 3.127(15) 4173. 3.1191 3.1220
60944. 1.26225 3.092(15) 4230. 3.1192 3.1247
60962. 1.26262 3.115(15) 4190. 3.1192 3.1333
60981. 1.26300 3.121(15) 4167. 3.1193 3.1525
60999. 1.26338 3.109(15) 4195. 3.1194 3.1793
61017. 1.26376 3.113(15) 4205. 3.1195 3.1978
61036. 1.26414 3.127(16) 4153. 3.1196 3.1955
61054. 1.26452 3.106(15) 4178. 3.1196 3.1801
61072. 1.26490 3.104(15) 4227. 3.1197 3.1651
61091. 1.26528 3.105(15) 4192. 3.1198 3.1597
61109. 1.26566 3.129(15) 4165. 3.1199 3.1688
61127. 1.26604 3.156(16) 4100. 3.1199 3.1901
61146. 1.26642 3.194(16) 4050. 3.1200 3.2082
61164. 1.26680 3.199(16) 4032. 3.1201 3.2088
61182. 1.26718 3.195(16) 4027. 3.1202 3.1973
61201. 1.26756 3.195(16) 4024. 3.1202 3.1921
61219. 1.26794 3.245(16) 3974. 3.1203 3.2255
61237. 1.26832 3.309(16) 3891. 3.1204 3.3386
61256. 1.26870 3.461(16) 3711. 3.1204 3.5296
61274. 1.26908 3.661(17) 3458. 3.1205 3.6958
61292. 1.26946 3.772(17) 3294. 3.1205 3.7129
61311. 1.26984 3.674(17) 3392. 3.1206 3.6020
61329. 1.27022 3.497(17) 3586. 3.1207 3.4609
61348. 1.27060 3.356(16) 3754. 3.1207 3.3473
61366. 1.27099 3.259(16) 3871. 3.1208 3.2699
61384. 1.27137 3.184(16) 3977. 3.1208 3.2196
61403. 1.27175 3.172(16) 3978. 3.1209 3.1875
61421. 1.27213 3.168(16) 3962. 3.1209 3.1675
61440. 1.27251 3.145(16) 3989. 3.1210 3.1567
61458. 1.27289 3.145(16) 3982. 3.1210 3.1560
61477. 1.27328 3.134(16) 3986. 3.1211 3.1676
61495. 1.27366 3.099(16) 4039. 3.1211 3.1867
61513. 1.27404 3.124(16) 4009. 3.1212 3.1993
61532. 1.27442 3.140(16) 3985. 3.1212 3.1960
61550. 1.27480 3.151(16) 3932. 3.1213 3.1840
61569. 1.27519 3.147(16) 3956. 3.1213 3.1748
61587. 1.27557 3.180(16) 3898. 3.1214 3.1819
61606. 1.27595 3.208(16) 3887. 3.1214 3.2367
61624. 1.27634 3.391(17) 3668. 3.1215 3.3957
61643. 1.27672 3.694(17) 3320. 3.1215 3.6811
61661. 1.27710 4.038(18) 2970. 3.1215 3.9944
61680. 1.27748 4.241(19) 2805. 3.1216 4.1918
61698. 1.27787 4.328(19) 2748. 3.1216 4.2784
61717. 1.27825 4.309(19) 2762. 3.1217 4.2990
61735. 1.27863 4.282(19) 2760. 3.1217 4.1964
61754. 1.27902 4.038(18) 2957. 3.1217 3.9697
61772. 1.27940 3.746(18) 3227. 3.1218 3.7198
61791. 1.27979 3.546(17) 3422. 3.1218 3.5200
61809. 1.28017 3.378(17) 3594. 3.1218 3.3826
61828. 1.28055 3.265(16) 3742. 3.1219 3.2931
61846. 1.28094 3.200(16) 3827. 3.1219 3.2356
61865. 1.28132 3.192(16) 3833. 3.1219 3.1988
61884. 1.28171 3.153(16) 3903. 3.1220 3.1764
61902. 1.28209 3.144(16) 3899. 3.1220 3.1675
61921. 1.28248 3.168(16) 3882. 3.1220 3.1797
61939. 1.28286 3.239(16) 3779. 3.1220 3.2248
61958. 1.28325 3.322(17) 3659. 3.1221 3.2945
61976. 1.28363 3.370(17) 3572. 3.1221 3.3436
61995. 1.28402 3.364(17) 3589. 3.1221 3.3355
62014. 1.28440 3.333(17) 3645. 3.1221 3.2889
62032. 1.28479 3.254(16) 3748. 3.1222 3.2383
62051. 1.28517 3.194(16) 3840. 3.1222 3.2002
62069. 1.28556 3.171(16) 3871. 3.1222 3.1762
62088. 1.28594 3.173(16) 3862. 3.1222 3.1659
62107. 1.28633 3.193(16) 3835. 3.1222 3.1693
62125. 1.28672 3.149(16) 3923. 3.1223 3.1813
62144. 1.28710 3.218(16) 3803. 3.1223 3.1879
62163. 1.28749 3.200(16) 3846. 3.1223 3.1816
62181. 1.28787 3.168(16) 3894. 3.1223 3.1677
62200. 1.28826 3.158(16) 3892. 3.1223 3.1547
62219. 1.28865 3.159(16) 3892. 3.1223 3.1469
62237. 1.28903 3.139(16) 3937. 3.1223 3.1465
62256. 1.28942 3.159(16) 3895. 3.1224 3.1524
62275. 1.28981 3.128(16) 3955. 3.1224 3.1598
62293. 1.29020 3.119(16) 3976. 3.1224 3.1603
62312. 1.29058 3.131(16) 3963. 3.1224 3.1538
62331. 1.29097 3.117(16) 3975. 3.1224 3.1456
62349. 1.29136 3.118(16) 3978. 3.1224 3.1395
62368. 1.29174 3.138(16) 3939. 3.1224 3.1373
62387. 1.29213 3.135(16) 3956. 3.1224 3.1437
62406. 1.29252 3.150(16) 3961. 3.1224 3.1668
62424. 1.29291 3.169(16) 3927. 3.1224 3.2084
62443. 1.29330 3.196(16) 3872. 3.1224 3.2493
62462. 1.29368 3.213(16) 3872. 3.1225 3.2625
62480. 1.29407 3.250(16) 3792. 3.1225 3.2533
62499. 1.29446 3.215(16) 3875. 3.1225 3.2457
62518. 1.29485 3.218(16) 3857. 3.1225 3.2442
62537. 1.29524 3.224(16) 3830. 3.1225 3.2340
62555. 1.29563 3.204(16) 3868. 3.1225 3.2110
62574. 1.29601 3.160(16) 3909. 3.1225 3.1853
62593. 1.29640 3.143(16) 3929. 3.1225 3.1650
62612. 1.29679 3.146(16) 3914. 3.1225 3.1512
62631. 1.29718 3.119(16) 3977. 3.1225 3.1424
62649. 1.29757 3.116(16) 3960. 3.1225 3.1377
62668. 1.29796 3.117(16) 3971. 3.1225 3.1380
62687. 1.29835 3.142(16) 3959. 3.1225 3.1499
62706. 1.29874 3.190(16) 3871. 3.1225 3.1836
62725. 1.29913 3.211(16) 3839. 3.1225 3.2372
62743. 1.29952 3.282(16) 3727. 3.1225 3.2813
62762. 1.29991 3.332(17) 3641. 3.1225 3.2833
62781. 1.30030 3.289(16) 3697. 3.1225 3.2517
62800. 1.30069 3.234(16) 3743. 3.1225 3.2136
62819. 1.30108 3.190(16) 3816. 3.1225 3.1836
62838. 1.30147 3.160(16) 3860. 3.1224 3.1636
62856. 1.30186 3.119(16) 3905. 3.1224 3.1510
62875. 1.30225 3.106(16) 3921. 3.1224 3.1434
62894. 1.30264 3.093(16) 3930. 3.1224 3.1403
62913. 1.30303 3.102(16) 3909. 3.1224 3.1449
62932. 1.30342 3.129(16) 3858. 3.1224 3.1684
62951. 1.30381 3.159(16) 3842. 3.1224 3.2238
62970. 1.30421 3.213(16) 3755. 3.1224 3.3006
62989. 1.30460 3.284(17) 3642. 3.1224 3.3511
63007. 1.30499 3.309(17) 3612. 3.1224 3.3428
63026. 1.30538 3.294(17) 3621. 3.1224 3.3051
63045. 1.30577 3.269(17) 3661. 3.1224 3.2855
63064. 1.30616 3.264(16) 3673. 3.1224 3.3096
63083. 1.30656 3.332(17) 3571. 3.1224 3.3568
63102. 1.30695 3.349(17) 3517. 3.1223 3.3739
63121. 1.30734 3.357(17) 3505. 3.1223 3.3414
63140. 1.30773 3.306(17) 3573. 3.1223 3.2902
63159. 1.30812 3.239(16) 3684. 3.1223 3.2584
63178. 1.30852 3.276(17) 3620. 3.1223 3.2825
63197. 1.30891 3.350(17) 3552. 3.1223 3.3991
63216. 1.30930 3.570(17) 3291. 3.1223 3.6020
63235. 1.30969 3.748(18) 3084. 3.1223 3.7974
63254. 1.31009 3.851(18) 2964. 3.1223 3.8763
63273. 1.31048 3.835(18) 2968. 3.1222 3.8126
63292. 1.31087 3.726(18) 3077. 3.1222 3.6615
63311. 1.31127 3.540(17) 3279. 3.1222 3.5062
63330. 1.31166 3.377(17) 3477. 3.1222 3.3888
63349. 1.31205 3.289(17) 3566. 3.1222 3.3085
63368. 1.31245 3.211(17) 3661. 3.1222 3.2519
63387. 1.31284 3.181(16) 3687. 3.1222 3.2117
63406. 1.31324 3.142(16) 3757. 3.1221 3.1849
63425. 1.31363 3.154(16) 3735. 3.1221 3.1696
63444. 1.31402 3.131(16) 3778. 3.1221 3.1701
63463. 1.31442 3.167(16) 3744. 3.1221 3.2048
63482. 1.31481 3.246(17) 3647. 3.1221 3.3007
63501. 1.31521 3.357(17) 3498. 3.1221 3.4469
63520. 1.31560 3.461(17) 3353. 3.1221 3.5568
63539. 1.31600 3.464(17) 3368. 3.1221 3.5507
63558. 1.31639 3.375(17) 3484. 3.1220 3.4605
63577. 1.31679 3.290(17) 3581. 3.1220 3.3580
63596. 1.31718 3.240(17) 3655. 3.1220 3.2798
63615. 1.31758 3.186(16) 3726. 3.1220 3.2287
63634. 1.31797 3.166(16) 3753. 3.1220 3.1974
63653. 1.31837 3.167(16) 3738. 3.1220 3.1789
63672. 1.31876 3.157(16) 3765. 3.1220 3.1718
63691. 1.31916 3.211(16) 3696. 3.1219 3.1896
63711. 1.31956 3.260(17) 3668. 3.1219 3.2722
63730. 1.31995 3.406(17) 3533. 3.1219 3.4652
63749. 1.32035 3.640(18) 3251. 3.1219 3.7313
63768. 1.32074 3.834(18) 3043. 3.1219 3.9030
63787. 1.32114 3.828(18) 3046. 3.1219 3.8624
63806. 1.32154 3.714(18) 3159. 3.1219 3.6902
63825. 1.32193 3.529(17) 3348. 3.1218 3.5097
63844. 1.32233 3.394(17) 3498. 3.1218 3.3747
63864. 1.32273 3.279(17) 3639. 3.1218 3.2852
63883. 1.32312 3.201(16) 3740. 3.1218 3.2277
63902. 1.32352 3.151(16) 3789. 3.1218 3.1909
63921. 1.32392 3.117(16) 3824. 3.1218 3.1673
63940. 1.32431 3.125(16) 3810. 3.1218 3.1522
63959. 1.32471 3.115(16) 3843. 3.1217 3.1425
63979. 1.32511 3.109(16) 3821. 3.1217 3.1363
63998. 1.32551 3.094(16) 3851. 3.1217 3.1325
64017. 1.32590 3.095(16) 3850. 3.1217 3.1303
64036. 1.32630 3.111(16) 3816. 3.1217 3.1288
64055. 1.32670 3.113(16) 3792. 3.1217 3.1271
64075. 1.32710 3.108(16) 3826. 3.1217 3.1259
64094. 1.32750 3.087(16) 3861. 3.1217 3.1249
64113. 1.32790 3.102(16) 3821. 3.1217 3.1243
64132. 1.32829 3.114(16) 3803. 3.1216 3.1238
64152. 1.32869 3.081(16) 3850. 3.1216 3.1234
64171. 1.32909 3.093(16) 3854. 3.1216 3.1232
64190. 1.32949 3.116(16) 3769. 3.1216 3.1230
64209. 1.32989 3.088(16) 3814. 3.1216 3.1229
64229. 1.33029 3.107(16) 3776. 3.1216 3.1228
64248. 1.33069 3.095(16) 3799. 3.1216 3.1227
64267. 1.33109 3.087(16) 3783. 3.1216 3.1226
64286. 1.33149 3.092(16) 3778. 3.1216 3.1219
64306. 1.33188 3.096(16) 3788. 3.1216 3.1219
64325. 1.33228 3.086(16) 3791. 3.1215 3.1219
64344. 1.33268 3.110(16) 3743. 3.1215 3.1219
64364. 1.33308 3.095(16) 3764. 3.1215 3.1220
64383. 1.33348 3.114(16) 3716. 3.1215 3.1221
64402. 1.33388 3.110(16) 3696. 3.1215 3.1222
64422. 1.33428 3.095(16) 3728. 3.1215 3.1223
64441. 1.33468 3.093(16) 3720. 3.1215 3.1224
64460. 1.33509 3.103(16) 3702. 3.1215 3.1226
64480. 1.33549 3.092(16) 3725. 3.1215 3.1228
64499. 1.33589 3.121(17) 3657. 3.1215 3.1233
64518. 1.33629 3.092(16) 3701. 3.1215 3.1245
64538. 1.33669 3.112(17) 3661. 3.1215 3.1287
64557. 1.33709 3.144(17) 3619. 3.1215 3.1404
64576. 1.33749 3.189(17) 3569. 3.1215 3.1632
64596. 1.33789 3.263(17) 3442. 3.1215 3.1920
64615. 1.33829 3.295(17) 3414. 3.1215 3.2163
64635. 1.33870 3.294(17) 3426. 3.1215 3.2374
64654. 1.33910 3.260(17) 3467. 3.1215 3.2581
64673. 1.33950 3.278(17) 3420. 3.1215 3.2630
64693. 1.33990 3.222(17) 3477. 3.1215 3.2425
64712. 1.34030 3.178(17) 3527. 3.1215 3.2100
64732. 1.34071 3.143(17) 3574. 3.1215 3.1810
64751. 1.34111 3.122(17) 3597. 3.1215 3.1604
64770. 1.34151 3.112(17) 3600. 3.1215 3.1473
64790. 1.34191 3.113(17) 3611. 3.1215 3.1402
64809. 1.34231 3.126(17) 3583. 3.1215 3.1390
64829. 1.34272 3.138(17) 3554. 3.1215 3.1438
64848. 1.34312 3.137(17) 3561. 3.1215 3.1510
64868. 1.34352 3.137(17) 3572. 3.1215 3.1537
64887. 1.34393 3.150(17) 3552. 3.1215 3.1498
64906. 1.34433 3.112(17) 3616. 3.1215 3.1432
64926. 1.34473 3.109(17) 3598. 3.1215 3.1384
64945. 1.34514 3.129(17) 3568. 3.1215 3.1397
64965. 1.34554 3.126(17) 3576. 3.1215 3.1559
64984. 1.34594 3.152(17) 3534. 3.1215 3.1974
65004. 1.34635 3.224(17) 3451. 3.1215 3.2567
65023. 1.34675 3.232(17) 3451. 3.1216 3.2967
65043. 1.34716 3.258(17) 3413. 3.1216 3.2889
65062. 1.34756 3.223(17) 3460. 3.1216 3.2504
65082. 1.34796 3.180(17) 3520. 3.1216 3.2094
65101. 1.34837 3.162(17) 3516. 3.1216 3.1786
65121. 1.34877 3.113(17) 3604. 3.1216 3.1583
65141. 1.34918 3.128(17) 3588. 3.1216 3.1452
65160. 1.34958 3.100(17) 3638. 3.1216 3.1370
65180. 1.34999 3.098(17) 3661. 3.1217 3.1317
65199. 1.35039 3.086(17) 3659. 3.1217 3.1283
65219. 1.35080 3.106(17) 3618. 3.1217 3.1261
65238. 1.35120 3.088(16) 3674. 3.1217 3.1248
65258. 1.35161 3.114(17) 3646. 3.1217 3.1239
65277. 1.35201 3.091(17) 3657. 3.1217 3.1233
65297. 1.35242 3.090(17) 3658. 3.1218 3.1229
65317. 1.35283 3.070(16) 3698. 3.1218 3.1227
65336. 1.35323 3.101(17) 3667. 3.1218 3.1225
65356. 1.35364 3.123(17) 3619. 3.1218 3.1224
65375. 1.35404 3.108(17) 3642. 3.1219 3.1223
65395. 1.35445 3.075(16) 3687. 3.1219 3.1223
65415. 1.35486 3.086(17) 3671. 3.1219 3.1222
65434. 1.35526 3.111(17) 3647. 3.1219 3.1222
65454. 1.35567 3.081(16) 3695. 3.1220 3.1222
65474. 1.35608 3.082(16) 3686. 3.1220 3.1222
65493. 1.35648 3.100(17) 3663. 3.1220 3.1222
65513. 1.35689 3.115(17) 3617. 3.1221 3.1222
65533. 1.35730 3.113(17) 3631. 3.1221 3.1223
65552. 1.35771 3.084(16) 3680. 3.1221 3.1221
65572. 1.35811 3.095(17) 3657. 3.1221 3.1222
65592. 1.35852 3.113(17) 3589. 3.1222 3.1222
65611. 1.35893 3.070(16) 3676. 3.1222 3.1222
65631. 1.35934 3.110(17) 3623. 3.1223 3.1223
65651. 1.35974 3.088(17) 3644. 3.1223 3.1223
65670. 1.36015 3.111(17) 3608. 3.1223 3.1223
65690. 1.36056 3.075(17) 3659. 3.1224 3.1224
65710. 1.36097 3.093(17) 3624. 3.1224 3.1224
65729. 1.36138 3.104(17) 3616. 3.1224 3.1225
65749. 1.36179 3.102(17) 3589. 3.1225 3.1226
65769. 1.36219 3.076(17) 3641. 3.1225 3.1228
65789. 1.36260 3.110(17) 3583. 3.1226 3.1234
65808. 1.36301 3.096(17) 3604. 3.1226 3.1243
65828. 1.36342 3.096(17) 3583. 3.1227 3.1258
65848. 1.36383 3.099(17) 3571. 3.1227 3.1263
65868. 1.36424 3.097(17) 3572. 3.1228 3.1260
65887. 1.36465 3.103(17) 3557. 3.1228 3.1256
65907. 1.36506 3.122(17) 3522. 3.1229 3.1257
65927. 1.36547 3.151(17) 3471. 3.1229 3.1263
65947. 1.36588 3.143(17) 3487. 3.1230 3.1274
65966. 1.36629 3.120(17) 3521. 3.1230 3.1281
65986. 1.36670 3.109(17) 3522. 3.1231 3.1280
66006. 1.36711 3.146(17) 3469. 3.1231 3.1275
66026. 1.36752 3.097(17) 3550. 3.1232 3.1270
66046. 1.36793 3.101(17) 3531. 3.1232 3.1268
66065. 1.36834 3.107(17) 3492. 3.1233 3.1269
66085. 1.36875 3.140(17) 3442. 3.1233 3.1273
66105. 1.36916 3.113(17) 3487. 3.1234 3.1280
66125. 1.36957 3.138(17) 3415. 3.1235 3.1293
66145. 1.36998 3.129(17) 3450. 3.1235 3.1310
66165. 1.37039 3.142(17) 3404. 3.1236 3.1331
66184. 1.37080 3.145(17) 3402. 3.1237 3.1363
66204. 1.37121 3.168(17) 3369. 3.1237 3.1447
66224. 1.37163 3.165(17) 3379. 3.1238 3.1706
66244. 1.37204 3.234(17) 3311. 3.1239 3.2393
66264. 1.37245 3.324(18) 3216. 3.1239 3.3851
66284. 1.37286 3.593(18) 2952. 3.1240 3.6188
66304. 1.37327 3.901(19) 2674. 3.1241 3.8701
66324. 1.37368 4.113(20) 2453. 3.1241 3.9811
66343. 1.37410 3.982(20) 2574. 3.1242 3.8840
66363. 1.37451 3.733(19) 2802. 3.1243 3.6855
66383. 1.37492 3.497(18) 3027. 3.1244 3.5006
66403. 1.37533 3.397(18) 3096. 3.1245 3.3710
66423. 1.37575 3.292(18) 3220. 3.1245 3.2925
66443. 1.37616 3.275(18) 3228. 3.1246 3.2494
66463. 1.37657 3.259(18) 3250. 3.1247 3.2250
66483. 1.37699 3.236(17) 3279. 3.1248 3.2045
66503. 1.37740 3.222(17) 3280. 3.1249 3.1838
66523. 1.37781 3.196(17) 3315. 3.1249 3.1659
66543. 1.37823 3.160(17) 3349. 3.1250 3.1529
66563. 1.37864 3.154(17) 3370. 3.1251 3.1443
66583. 1.37905 3.140(17) 3406. 3.1252 3.1389
66603. 1.37947 3.143(17) 3379. 3.1253 3.1355
66623. 1.37988 3.140(17) 3368. 3.1254 3.1334
66643. 1.38029 3.102(17) 3444. 3.1255 3.1322
66663. 1.38071 3.125(17) 3435. 3.1256 3.1317
66683. 1.38112 3.124(17) 3428. 3.1257 3.1316
66703. 1.38154 3.116(17) 3432. 3.1258 3.1320
66723. 1.38195 3.128(17) 3409. 3.1259 3.1328
66743. 1.38237 3.119(17) 3442. 3.1260 3.1347
66763. 1.38278 3.125(17) 3443. 3.1261 3.1409
66783. 1.38320 3.145(17) 3439. 3.1262 3.1644
66803. 1.38361 3.229(17) 3335. 3.1263 3.2352
66823. 1.38403 3.378(18) 3167. 3.1264 3.3775
66843. 1.38444 3.565(18) 2969. 3.1265 3.5457
66863. 1.38486 3.655(19) 2868. 3.1266 3.6254
66883. 1.38527 3.586(18) 2939. 3.1267 3.5712
66903. 1.38569 3.423(18) 3091. 3.1268 3.4533
66923. 1.38610 3.301(18) 3232. 3.1269 3.3437
66943. 1.38652 3.214(17) 3330. 3.1271 3.2659
66963. 1.38694 3.192(17) 3352. 3.1272 3.2156
66983. 1.38735 3.186(17) 3335. 3.1273 3.1839
67003. 1.38777 3.168(17) 3374. 3.1274 3.1640
67023. 1.38819 3.143(17) 3425. 3.1275 3.1515
67044. 1.38860 3.159(17) 3374. 3.1277 3.1437
67064. 1.38902 3.161(17) 3377. 3.1278 3.1389
67084. 1.38944 3.116(17) 3443. 3.1279 3.1361
67104. 1.38985 3.140(17) 3394. 3.1280 3.1355
67124. 1.39027 3.144(17) 3386. 3.1282 3.1389
67144. 1.39069 3.152(17) 3365. 3.1283 3.1490
67164. 1.39110 3.151(17) 3380. 3.1284 3.1644
67184. 1.39152 3.141(17) 3384. 3.1285 3.1757
67205. 1.39194 3.147(17) 3368. 3.1287 3.1745
67225. 1.39236 3.157(17) 3351. 3.1288 3.1645
67245. 1.39277 3.160(17) 3331. 3.1289 3.1538
67265. 1.39319 3.146(17) 3355. 3.1291 3.1455
67285. 1.39361 3.148(17) 3362. 3.1292 3.1401
67306. 1.39403 3.152(17) 3345. 3.1294 3.1367
67326. 1.39445 3.150(17) 3320. 3.1295 3.1346
67346. 1.39487 3.173(17) 3272. 3.1296 3.1333
67366. 1.39528 3.154(17) 3304. 3.1298 3.1326
67386. 1.39570 3.118(17) 3338. 3.1299 3.1318
67407. 1.39612 3.121(17) 3346. 3.1301 3.1317
67427. 1.39654 3.164(17) 3270. 3.1302 3.1317
67447. 1.39696 3.136(17) 3303. 3.1304 3.1318
67467. 1.39738 3.123(17) 3294. 3.1305 3.1320
67487. 1.39780 3.168(18) 3232. 3.1307 3.1323
67508. 1.39822 3.147(18) 3249. 3.1309 3.1327
67528. 1.39864 3.149(18) 3248. 3.1310 3.1331
67548. 1.39906 3.148(18) 3247. 3.1312 3.1338
67568. 1.39948 3.130(17) 3271. 3.1313 3.1345
67589. 1.39990 3.156(18) 3232. 3.1315 3.1354
67609. 1.40032 3.149(18) 3236. 3.1317 3.1367
67629. 1.40074 3.148(18) 3236. 3.1318 3.1397
67650. 1.40116 3.180(18) 3184. 3.1320 3.1481
67670. 1.40158 3.204(18) 3148. 3.1322 3.1780
67690. 1.40200 3.232(18) 3130. 3.1323 3.2576
67711. 1.40242 3.330(18) 2999. 3.1325 3.3941
67731. 1.40284 3.386(18) 2934. 3.1327 3.5244
67751. 1.40326 3.434(19) 2870. 3.1328 3.5532
67771. 1.40368 3.381(18) 2922. 3.1330 3.4811
67792. 1.40410 3.349(18) 2977. 3.1332 3.3784
67812. 1.40452 3.268(18) 3045. 3.1334 3.2939
67832. 1.40494 3.257(18) 3051. 3.1336 3.2372
67853. 1.40537 3.247(18) 3058. 3.1337 3.2030
67873. 1.40579 3.250(18) 3054. 3.1339 3.1857
67894. 1.40621 3.260(18) 3066. 3.1341 3.1803
67914. 1.40663 3.303(18) 3014. 3.1343 3.1794
67934. 1.40705 3.303(18) 2993. 3.1345 3.1760
67955. 1.40748 3.297(18) 2999. 3.1347 3.1713
67975. 1.40790 3.267(18) 3031. 3.1349 3.1750
67995. 1.40832 3.289(18) 3012. 3.1351 3.2020
68016. 1.40874 3.271(18) 3056. 3.1353 3.2588
68036. 1.40917 3.329(18) 2998. 3.1355 3.3215
68057. 1.40959 3.361(18) 2941. 3.1357 3.3455
68077. 1.41001 3.364(18) 2943. 3.1359 3.3291
68098. 1.41044 3.374(18) 2959. 3.1361 3.3276
68118. 1.41086 3.498(19) 2847. 3.1363 3.4088
68138. 1.41128 3.621(19) 2743. 3.1365 3.5885
68159. 1.41170 3.790(20) 2594. 3.1367 3.7647
68179. 1.41213 3.894(20) 2495. 3.1369 3.7915
68200. 1.41255 3.806(20) 2570. 3.1371 3.6716
68220. 1.41298 3.628(19) 2724. 3.1373 3.5109
68241. 1.41340 3.481(19) 2859. 3.1375 3.3803
68261. 1.41382 3.358(18) 2976. 3.1377 3.2921
68282. 1.41425 3.269(18) 3085. 3.1380 3.2375
68302. 1.41467 3.216(18) 3134. 3.1382 3.2065
68323. 1.41510 3.221(18) 3131. 3.1384 3.1927
68343. 1.41552 3.225(18) 3117. 3.1386 3.1895
68364. 1.41595 3.230(18) 3128. 3.1388 3.1873
68384. 1.41637 3.206(18) 3133. 3.1391 3.1801
68405. 1.41680 3.206(18) 3141. 3.1393 3.1712
68425. 1.41722 3.183(18) 3167. 3.1395 3.1669
68446. 1.41765 3.195(18) 3161. 3.1398 3.1720
68466. 1.41807 3.204(18) 3154. 3.1400 3.1857
68487. 1.41850 3.187(18) 3163. 3.1402 3.1975
68507. 1.41892 3.217(18) 3124. 3.1405 3.1963
68528. 1.41935 3.198(18) 3155. 3.1407 3.1849
68548. 1.41978 3.172(18) 3187. 3.1409 3.1717
68569. 1.42020 3.172(18) 3161. 3.1412 3.1614
68590. 1.42063 3.158(18) 3206. 3.1414 3.1549
68610. 1.42105 3.169(18) 3176. 3.1417 3.1509
68631. 1.42148 3.171(18) 3181. 3.1419 3.1485
68651. 1.42191 3.150(18) 3208. 3.1421 3.1472
68672. 1.42233 3.162(18) 3163. 3.1424 3.1466
68692. 1.42276 3.165(18) 3173. 3.1426 3.1459
68713. 1.42319 3.158(18) 3166. 3.1429 3.1463
68734. 1.42361 3.166(18) 3157. 3.1432 3.1475
68754. 1.42404 3.159(18) 3180. 3.1434 3.1520
68775. 1.42447 3.180(18) 3145. 3.1437 3.1678
68796. 1.42490 3.223(18) 3091. 3.1439 3.2085
68816. 1.42532 3.246(18) 3059. 3.1442 3.2754
68837. 1.42575 3.298(18) 3001. 3.1445 3.3349
68857. 1.42618 3.319(18) 2957. 3.1447 3.3437
68878. 1.42661 3.304(18) 2988. 3.1450 3.3067
68899. 1.42703 3.271(18) 3010. 3.1453 3.2591
68919. 1.42746 3.237(18) 3027. 3.1455 3.2241
68940. 1.42789 3.212(18) 3046. 3.1458 3.2078
68961. 1.42832 3.180(18) 3071. 3.1461 3.2050
68982. 1.42875 3.182(18) 3073. 3.1463 3.2041
69002. 1.42918 3.192(18) 3080. 3.1466 3.1964
69023. 1.42961 3.216(18) 3025. 3.1469 3.1848
69044. 1.43003 3.191(18) 3052. 3.1472 3.1753
69064. 1.43046 3.196(18) 3021. 3.1475 3.1700
69085. 1.43089 3.207(18) 3005. 3.1477 3.1667
69106. 1.43132 3.199(18) 3008. 3.1480 3.1631
69127. 1.43175 3.189(18) 3015. 3.1483 3.1610
69147. 1.43218 3.159(18) 3055. 3.1486 3.1582
69168. 1.43261 3.188(18) 2997. 3.1489 3.1564
69189. 1.43304 3.176(18) 3013. 3.1492 3.1556
69210. 1.43347 3.216(18) 2941. 3.1495 3.1555
69230. 1.43390 3.231(19) 2916. 3.1498 3.1565
69251. 1.43433 3.345(19) 2785. 3.1501 3.1609
69272. 1.43476 3.433(19) 2693. 3.1504 3.1749
69293. 1.43519 3.459(19) 2692. 3.1507 3.2054
69313. 1.43562 3.522(19) 2643. 3.1510 3.2457
69334. 1.43605 3.518(19) 2676. 3.1513 3.2706
69355. 1.43648 3.457(19) 2728. 3.1516 3.2637
69376. 1.43692 3.402(19) 2787. 3.1519 3.2380
69397. 1.43735 3.325(19) 2853. 3.1522 3.2123
69417. 1.43778 3.225(18) 2963. 3.1525 3.1941
69438. 1.43821 3.200(18) 2983. 3.1528 3.1830
69459. 1.43864 3.167(18) 3008. 3.1531 3.1770
69480. 1.43907 3.169(18) 3019. 3.1534 3.1744
69501. 1.43950 3.163(18) 3032. 3.1538 3.1744
69522. 1.43994 3.151(18) 3026. 3.1541 3.1767
69542. 1.44037 3.167(18) 3023. 3.1544 3.1816
69563. 1.44080 3.202(18) 2975. 3.1547 3.1930
69584. 1.44123 3.256(18) 2944. 3.1550 3.2322
69605. 1.44167 3.445(19) 2794. 3.1554 3.3768
69626. 1.44210 3.844(20) 2526. 3.1557 3.7764
69647. 1.44253 4.573(22) 2071. 3.1560 4.4925
69668. 1.44296 5.339(24) 1675. 3.1564 5.2185
69689. 1.44340 5.667(26) 1532. 3.1567 5.4265
69710. 1.44383 5.219(24) 1713. 3.1570 5.0644
69730. 1.44426 4.562(22) 2028. 3.1574 4.5056
69751. 1.44470 4.020(21) 2355. 3.1577 4.0341
69772. 1.44513 3.685(20) 2598. 3.1580 3.7197
69793. 1.44556 3.455(19) 2791. 3.1584 3.5379
69814. 1.44600 3.367(19) 2868. 3.1587 3.4534
69835. 1.44643 3.320(19) 2922. 3.1591 3.4228
69856. 1.44687 3.279(18) 2960. 3.1594 3.3942
69877. 1.44730 3.247(18) 2989. 3.1598 3.3460
69898. 1.44773 3.229(18) 3013. 3.1601 3.2925
69919. 1.44817 3.204(18) 3050. 3.1605 3.2496
69940. 1.44860 3.185(18) 3066. 3.1608 3.2206
69961. 1.44904 3.202(18) 3055. 3.1612 3.2027
69982. 1.44947 3.195(18) 3061. 3.1615 3.1930
70003. 1.44991 3.188(18) 3065. 3.1619 3.1919
70024. 1.45034 3.176(18) 3089. 3.1622 3.2044
70045. 1.45078 3.213(18) 3045. 3.1626 3.2344
70066. 1.45121 3.226(18) 3050. 3.1630 3.2767
70087. 1.45165 3.277(18) 3013. 3.1633 3.3272
70108. 1.45208 3.344(18) 2936. 3.1637 3.3994
70129. 1.45252 3.490(19) 2785. 3.1641 3.4873
70150. 1.45296 3.593(19) 2711. 3.1644 3.5327
70171. 1.45339 3.553(19) 2736. 3.1648 3.5030
70192. 1.45383 3.489(19) 2786. 3.1652 3.4320
70213. 1.45426 3.430(19) 2842. 3.1655 3.3626
70234. 1.45470 3.319(18) 2949. 3.1659 3.3035
70255. 1.45514 3.269(18) 2994. 3.1663 3.2576
70276. 1.45557 3.243(18) 3002. 3.1667 3.2255
70297. 1.45601 3.230(18) 3027. 3.1671 3.2047
70319. 1.45645 3.214(18) 3031. 3.1674 3.1918
70340. 1.45688 3.175(18) 3085. 3.1678 3.1839
70361. 1.45732 3.191(18) 3053. 3.1682 3.1791
70382. 1.45776 3.204(18) 3010. 3.1686 3.1761
70403. 1.45820 3.168(18) 3065. 3.1690 3.1744
70424. 1.45863 3.180(18) 3056. 3.1694 3.1735
70445. 1.45907 3.178(18) 3044. 3.1698 3.1731
70466. 1.45951 3.175(18) 3038. 3.1701 3.1731
70487. 1.45995 3.183(18) 3026. 3.1705 3.1732
70509. 1.46038 3.201(18) 2995. 3.1709 3.1735
70530. 1.46082 3.191(18) 3012. 3.1713 3.1739
70551. 1.46126 3.172(18) 3045. 3.1717 3.1747
70572. 1.46170 3.171(18) 3019. 3.1721 3.1754
70593. 1.46214 3.165(18) 3021. 3.1725 3.1763
70614. 1.46258 3.163(18) 3026. 3.1729 3.1775
70636. 1.46302 3.180(18) 2982. 3.1733 3.1797
70657. 1.46345 3.167(18) 3014. 3.1738 3.1859
70678. 1.46389 3.229(18) 2934. 3.1742 3.2077
70699. 1.46433 3.272(19) 2907. 3.1746 3.2681
70720. 1.46477 3.410(19) 2781. 3.1750 3.3774
70742. 1.46521 3.554(19) 2632. 3.1754 3.4910
70763. 1.46565 3.696(20) 2474. 3.1758 3.5273
70784. 1.46609 3.677(20) 2484. 3.1762 3.4752
70805. 1.46653 3.530(20) 2630. 3.1766 3.3909
70827. 1.46697 3.418(19) 2728. 3.1771 3.3181
70848. 1.46741 3.343(19) 2780. 3.1775 3.2676
70869. 1.46785 3.233(19) 2883. 3.1779 3.2362
70890. 1.46829 3.219(19) 2901. 3.1783 3.2162
70912. 1.46873 3.193(18) 2942. 3.1788 3.2046
70933. 1.46917 3.184(18) 2950. 3.1792 3.1976
70954. 1.46961 3.229(19) 2876. 3.1796 3.1939
70975. 1.47006 3.240(19) 2885. 3.1800 3.1927
70997. 1.47050 3.213(19) 2910. 3.1805 3.1953
71018. 1.47094 3.243(19) 2904. 3.1809 3.2088
71039. 1.47138 3.228(19) 2910. 3.1813 3.2474
71061. 1.47182 3.282(19) 2860. 3.1818 3.3172
71082. 1.47226 3.359(19) 2775. 3.1822 3.3889
71103. 1.47270 3.434(19) 2702. 3.1826 3.4121
71125. 1.47315 3.386(19) 2758. 3.1831 3.3846
71146. 1.47359 3.334(19) 2817. 3.1835 3.3501
71167. 1.47403 3.313(19) 2828. 3.1840 3.3400
71189. 1.47447 3.286(19) 2867. 3.1844 3.3461
71210. 1.47492 3.290(19) 2840. 3.1848 3.3391
71231. 1.47536 3.247(19) 2910. 3.1853 3.3116
71253. 1.47580 3.278(19) 2890. 3.1857 3.2792
71274. 1.47624 3.238(18) 2932. 3.1862 3.2552
71296. 1.47669 3.215(18) 2963. 3.1866 3.2446
71317. 1.47713 3.337(19) 2822. 3.1871 3.2587
71338. 1.47757 3.420(19) 2786. 3.1875 3.3420
71360. 1.47802 3.697(20) 2549. 3.1880 3.5823
71381. 1.47846 4.078(21) 2284. 3.1885 4.0188
71403. 1.47890 4.505(22) 2014. 3.1889 4.4972
71424. 1.47935 4.794(23) 1850. 3.1894 4.7404
71445. 1.47979 4.695(23) 1899. 3.1898 4.6643
71467. 1.48023 4.380(22) 2066. 3.1903 4.3713
71488. 1.48068 4.047(21) 2280. 3.1908 4.0239
71510. 1.48112 3.699(20) 2548. 3.1912 3.7353
71531. 1.48157 3.504(19) 2704. 3.1917 3.5358
71553. 1.48201 3.398(19) 2802. 3.1922 3.4098
71574. 1.48246 3.316(19) 2861. 3.1926 3.3353
71596. 1.48290 3.287(19) 2900. 3.1931 3.3008
71617. 1.48335 3.291(19) 2878. 3.1936 3.3040
71639. 1.48379 3.323(19) 2850. 3.1940 3.3345
71660. 1.48424 3.346(19) 2805. 3.1945 3.3591
71682. 1.48468 3.413(19) 2718. 3.1950 3.3494
71703. 1.48513 3.361(19) 2780. 3.1955 3.3142
71725. 1.48557 3.308(19) 2838. 3.1959 3.2769
71746. 1.48602 3.276(19) 2863. 3.1964 3.2491
71768. 1.48646 3.249(19) 2885. 3.1969 3.2311
71789. 1.48691 3.207(19) 2914. 3.1974 3.2200
71811. 1.48736 3.218(19) 2906. 3.1978 3.2133
71832. 1.48780 3.196(18) 2926. 3.1983 3.2093
71854. 1.48825 3.238(19) 2855. 3.1988 3.2069
71875. 1.48870 3.221(19) 2875. 3.1993 3.2056
71897. 1.48914 3.172(18) 2923. 3.1998 3.2049
71918. 1.48959 3.209(19) 2856. 3.2003 3.2047
71940. 1.49004 3.211(19) 2861. 3.2008 3.2057
71962. 1.49048 3.212(19) 2853. 3.2013 3.2061
71983. 1.49093 3.210(19) 2843. 3.2017 3.2057
72005. 1.49138 3.211(19) 2835. 3.2022 3.2068
72026. 1.49183 3.211(19) 2835. 3.2027 3.2091
72048. 1.49227 3.245(19) 2786. 3.2032 3.2182
72070. 1.49272 3.255(19) 2777. 3.2037 3.2441
72091. 1.49317 3.299(19) 2726. 3.2042 3.2944
72113. 1.49362 3.335(19) 2678. 3.2047 3.3526
72134. 1.49407 3.356(19) 2651. 3.2052 3.3785
72156. 1.49451 3.333(19) 2677. 3.2057 3.3582
72178. 1.49496 3.363(20) 2619. 3.2062 3.3172
72199. 1.49541 3.329(19) 2653. 3.2067 3.2802
72221. 1.49586 3.274(19) 2701. 3.2072 3.2549
72243. 1.49631 3.266(19) 2703. 3.2077 3.2393
72264. 1.49676 3.269(19) 2671. 3.2082 3.2304
72286. 1.49721 3.267(19) 2682. 3.2087 3.2257
72308. 1.49766 3.230(19) 2716. 3.2092 3.2237
72329. 1.49811 3.291(19) 2657. 3.2098 3.2237
72351. 1.49855 3.278(19) 2652. 3.2103 3.2256
72373. 1.49900 3.293(19) 2639. 3.2108 3.2309
72395. 1.49945 3.291(19) 2664. 3.2113 3.2507
72416. 1.49990 3.383(20) 2598. 3.2118 3.3197
72438. 1.50035 3.566(20) 2460. 3.2123 3.5144
72460. 1.50080 3.827(21) 2262. 3.2128 3.8729
72481. 1.50125 4.119(22) 2051. 3.2133 4.2510
72503. 1.50171 4.282(23) 1923. 3.2139 4.3765
72525. 1.50216 4.157(22) 2002. 3.2144 4.2017
72547. 1.50261 3.912(21) 2177. 3.2149 3.9148
72569. 1.50306 3.709(21) 2306. 3.2154 3.6711
72590. 1.50351 3.546(20) 2420. 3.2159 3.5055
72612. 1.50396 3.396(20) 2570. 3.2165 3.4034
72634. 1.50441 3.353(20) 2608. 3.2170 3.3425
72656. 1.50486 3.337(20) 2600. 3.2175 3.3074
72677. 1.50531 3.300(19) 2641. 3.2180 3.2884
72699. 1.50577 3.286(19) 2667. 3.2186 3.2797
72721. 1.50622 3.266(19) 2681. 3.2191 3.2780
72743. 1.50667 3.265(19) 2684. 3.2196 3.2815
72765. 1.50712 3.285(19) 2674. 3.2201 3.2884
72787. 1.50757 3.311(19) 2650. 3.2207 3.2988
72808. 1.50803 3.320(19) 2637. 3.2212 3.3137
72830. 1.50848 3.338(19) 2633. 3.2217 3.3427
72852. 1.50893 3.437(20) 2589. 3.2223 3.4222
72874. 1.50938 3.621(20) 2482. 3.2228 3.6395
72896. 1.50984 4.044(21) 2213. 3.2233 4.0627
72918. 1.51029 4.550(23) 1900. 3.2239 4.5616
72939. 1.51074 4.892(24) 1725. 3.2244 4.8045
72961. 1.51120 4.812(24) 1756. 3.2249 4.6796
72983. 1.51165 4.493(23) 1913. 3.2255 4.4385
73005. 1.51210 4.300(22) 2029. 3.2260 4.3493
73027. 1.51256 4.356(22) 1997. 3.2265 4.4675
73049. 1.51301 4.583(23) 1887. 3.2271 4.6850
73071. 1.51346 4.970(24) 1748. 3.2276 5.0051
73093. 1.51392 5.609(26) 1510. 3.2282 5.5413
73115. 1.51437 6.279(28) 1280. 3.2287 6.0543
73137. 1.51483 6.380(29) 1225. 3.2292 6.0444
73159. 1.51528 5.646(26) 1437. 3.2298 5.5022
73181. 1.51574 4.866(24) 1727. 3.2303 4.8231
73203. 1.51619 4.271(22) 2014. 3.2309 4.2868
73224. 1.51665 3.934(21) 2216. 3.2314 3.9571
73246. 1.51710 3.799(21) 2300. 3.2320 3.8167
73268. 1.51756 3.828(21) 2293. 3.2325 3.8208
73290. 1.51801 3.918(21) 2186. 3.2331 3.8732
73312. 1.51847 4.030(22) 2104. 3.2336 3.8838
73334. 1.51892 4.008(22) 2145. 3.2342 3.8967
73356. 1.51938 3.968(21) 2188. 3.2347 3.9938
73378. 1.51983 4.052(22) 2118. 3.2353 4.1276
73400. 1.52029 4.075(22) 2105. 3.2358 4.1774
73422. 1.52075 4.017(22) 2146. 3.2364 4.1435
73444. 1.52120 3.978(22) 2146. 3.2369 4.0663
73466. 1.52166 3.913(22) 2163. 3.2375 3.9278
73489. 1.52212 3.729(21) 2281. 3.2380 3.7465
73511. 1.52257 3.566(20) 2407. 3.2386 3.5794
73533. 1.52303 3.442(20) 2496. 3.2391 3.4578
73555. 1.52349 3.398(20) 2518. 3.2397 3.3812
73577. 1.52394 3.326(20) 2566. 3.2402 3.3331
73599. 1.52440 3.294(20) 2597. 3.2408 3.3038
73621. 1.52486 3.273(20) 2600. 3.2413 3.2861
73643. 1.52532 3.286(20) 2586. 3.2419 3.2757
73665. 1.52577 3.260(20) 2586. 3.2425 3.2698
73687. 1.52623 3.241(20) 2611. 3.2430 3.2670
73709. 1.52669 3.246(20) 2583. 3.2436 3.2665
73731. 1.52715 3.274(20) 2559. 3.2441 3.2694
73754. 1.52761 3.329(20) 2517. 3.2447 3.2834
73776. 1.52806 3.357(20) 2490. 3.2452 3.3356
73798. 1.52852 3.477(20) 2397. 3.2458 3.4733
73820. 1.52898 3.680(21) 2245. 3.2464 3.7044
73842. 1.52944 3.859(22) 2122. 3.2469 3.9143
73864. 1.52990 3.881(22) 2089. 3.2475 3.9511
73886. 1.53036 3.745(21) 2182. 3.2480 3.8225
73909. 1.53082 3.602(21) 2289. 3.2486 3.6491
73931. 1.53128 3.459(20) 2388. 3.2492 3.5112
73953. 1.53174 3.368(20) 2455. 3.2497 3.4227
73975. 1.53220 3.360(20) 2466. 3.2503 3.3765
73997. 1.53266 3.407(20) 2435. 3.2509 3.3789
74019. 1.53312 3.568(21) 2342. 3.2514 3.4929
74042. 1.53358 3.965(22) 2094. 3.2520 3.8457
74064. 1.53404 4.559(24) 1761. 3.2526 4.4735
74086. 1.53450 5.168(26) 1479. 3.2531 5.0833
74108. 1.53496 5.249(26) 1436. 3.2537 5.2214
74131. 1.53542 4.829(25) 1606. 3.2543 4.8740
74153. 1.53588 4.315(23) 1851. 3.2548 4.3763
74175. 1.53634 3.899(22) 2091. 3.2554 3.9679
74197. 1.53680 3.611(21) 2287. 3.2560 3.6964
74220. 1.53726 3.446(20) 2411. 3.2565 3.5287
74242. 1.53772 3.376(20) 2462. 3.2571 3.4269
74264. 1.53818 3.351(20) 2457. 3.2577 3.3650
74286. 1.53865 3.279(20) 2531. 3.2582 3.3274
74309. 1.53911 3.284(20) 2525. 3.2588 3.3044
74331. 1.53957 3.271(20) 2545. 3.2594 3.2902
74353. 1.54003 3.271(20) 2554. 3.2599 3.2828
74376. 1.54049 3.254(20) 2579. 3.2605 3.2775
74398. 1.54096 3.257(20) 2567. 3.2611 3.2743
74420. 1.54142 3.247(20) 2574. 3.2616 3.2718
74443. 1.54188 3.233(20) 2600. 3.2622 3.2714
74465. 1.54234 3.245(20) 2575. 3.2628 3.2709
74487. 1.54281 3.257(20) 2580. 3.2634 3.2709
74510. 1.54327 3.228(20) 2606. 3.2639 3.2711
74532. 1.54373 3.264(20) 2565. 3.2645 3.2715
74554. 1.54419 3.254(20) 2582. 3.2651 3.2720
74577. 1.54466 3.260(20) 2567. 3.2656 3.2728
74599. 1.54512 3.285(20) 2533. 3.2662 3.2736
74621. 1.54559 3.302(20) 2516. 3.2668 3.2747
74644. 1.54605 3.256(20) 2546. 3.2674 3.2759
74666. 1.54651 3.252(20) 2560. 3.2679 3.2755
74689. 1.54698 3.292(20) 2511. 3.2685 3.2775
74711. 1.54744 3.260(20) 2553. 3.2691 3.2798
74733. 1.54791 3.262(20) 2553. 3.2696 3.2828
74756. 1.54837 3.305(20) 2503. 3.2702 3.2868
74778. 1.54883 3.289(20) 2519. 3.2708 3.2929
74801. 1.54930 3.246(20) 2586. 3.2714 3.3071
74823. 1.54976 3.324(20) 2491. 3.2719 3.3568
74846. 1.55023 3.467(20) 2388. 3.2725 3.5177
74868. 1.55069 3.776(21) 2179. 3.2731 3.8827
74890. 1.55116 4.273(23) 1869. 3.2736 4.3990
74913. 1.55162 4.698(25) 1646. 3.2742 4.7731
74935. 1.55209 4.790(25) 1613. 3.2748 4.8080
74958. 1.55256 4.724(24) 1671. 3.2754 4.6852
74980. 1.55302 4.719(25) 1656. 3.2759 4.5926
75003. 1.55349 4.689(25) 1637. 3.2765 4.4667
75025. 1.55395 4.405(24) 1762. 3.2771 4.2240
75048. 1.55442 4.090(23) 1908. 3.2777 3.9377
75070. 1.55489 3.771(22) 2090. 3.2782 3.7017
75093. 1.55535 3.591(21) 2202. 3.2788 3.5423
75115. 1.55582 3.455(21) 2293. 3.2794 3.4433
75138. 1.55629 3.407(21) 2307. 3.2799 3.3833
75160. 1.55675 3.372(21) 2321. 3.2805 3.3469
75183. 1.55722 3.278(20) 2408. 3.2811 3.3249
75206. 1.55769 3.360(21) 2313. 3.2817 3.3116
75228. 1.55816 3.311(21) 2364. 3.2822 3.3036
75251. 1.55862 3.287(21) 2376. 3.2828 3.2989
75273. 1.55909 3.318(21) 2330. 3.2834 3.2962
75296. 1.55956 3.304(21) 2361. 3.2840 3.2951
75318. 1.56003 3.307(21) 2344. 3.2845 3.2960
75341. 1.56049 3.318(21) 2320. 3.2851 3.3029
75364. 1.56096 3.304(21) 2342. 3.2857 3.3271
75386. 1.56143 3.362(21) 2297. 3.2862 3.3817
75409. 1.56190 3.449(21) 2211. 3.2868 3.4565
75432. 1.56237 3.437(21) 2222. 3.2874 3.5044
75454. 1.56284 3.443(21) 2214. 3.2879 3.4918
75477. 1.56331 3.440(21) 2209. 3.2885 3.4408
75499. 1.56378 3.392(21) 2245. 3.2891 3.3901
75522. 1.56424 3.346(21) 2281. 3.2897 3.3531
75545. 1.56471 3.336(21) 2296. 3.2902 3.3299
75567. 1.56518 3.320(21) 2295. 3.2908 3.3153
75590. 1.56565 3.286(21) 2335. 3.2914 3.3073
75613. 1.56612 3.308(21) 2323. 3.2919 3.3028
75635. 1.56659 3.317(21) 2306. 3.2925 3.3003
75658. 1.56706 3.312(21) 2316. 3.2931 3.2991
75681. 1.56753 3.270(21) 2359. 3.2936 3.2986
75704. 1.56800 3.299(21) 2323. 3.2942 3.2987
75726. 1.56847 3.290(21) 2331. 3.2948 3.2991
75749. 1.56894 3.325(21) 2296. 3.2954 3.2997
75772. 1.56942 3.307(21) 2316. 3.2959 3.3005
75794. 1.56989 3.296(21) 2327. 3.2965 3.3015
75817. 1.57036 3.316(21) 2313. 3.2971 3.3027
75840. 1.57083 3.306(21) 2319. 3.2976 3.3041
75863. 1.57130 3.357(21) 2290. 3.2982 3.3058
75885. 1.57177 3.345(21) 2299. 3.2988 3.3079
75908. 1.57224 3.341(21) 2314. 3.2993 3.3106
75931. 1.57272 3.345(21) 2319. 3.2999 3.3144
75954. 1.57319 3.321(21) 2351. 3.3004 3.3211
75977. 1.57366 3.412(21) 2270. 3.3010 3.3403
75999. 1.57413 3.495(21) 2218. 3.3016 3.4082
76022. 1.57460 3.706(22) 2101. 3.3021 3.6060
76045. 1.57508 4.037(23) 1919. 3.3027 3.9978
76068. 1.57555 4.457(24) 1693. 3.3033 4.4738
76091. 1.57602 4.676(25) 1589. 3.3038 4.7319
76113. 1.57649 4.668(25) 1584. 3.3044 4.6124
76136. 1.57697 4.352(24) 1728. 3.3050 4.2753
76159. 1.57744 3.982(23) 1913. 3.3055 3.9399
76182. 1.57791 3.757(22) 2036. 3.3061 3.6985
76205. 1.57839 3.567(21) 2167. 3.3066 3.5464
76228. 1.57886 3.484(21) 2215. 3.3072 3.4545
76250. 1.57933 3.410(21) 2278. 3.3078 3.3993
76273. 1.57981 3.374(21) 2281. 3.3083 3.3661
76296. 1.58028 3.357(21) 2287. 3.3089 3.3462
76319. 1.58076 3.319(21) 2323. 3.3094 3.3342
76342. 1.58123 3.334(21) 2308. 3.3100 3.3269
76365. 1.58171 3.314(21) 2306. 3.3106 3.3225
76388. 1.58218 3.337(21) 2280. 3.3111 3.3199
76411. 1.58265 3.358(21) 2247. 3.3117 3.3184
76434. 1.58313 3.312(21) 2297. 3.3122 3.3175
76457. 1.58360 3.333(21) 2276. 3.3128 3.3171
76480. 1.58408 3.328(21) 2269. 3.3133 3.3169
76502. 1.58456 3.345(21) 2242. 3.3139 3.3170
76525. 1.58503 3.314(21) 2270. 3.3144 3.3171
76548. 1.58551 3.329(21) 2246. 3.3150 3.3175
76571. 1.58598 3.319(21) 2255. 3.3155 3.3180
76594. 1.58646 3.319(21) 2250. 3.3161 3.3184
76617. 1.58693 3.285(21) 2278. 3.3167 3.3188
76640. 1.58741 3.308(21) 2235. 3.3172 3.3186
76663. 1.58789 3.384(21) 2176. 3.3178 3.3183
76686. 1.58836 3.345(21) 2210. 3.3183 3.3189
76709. 1.58884 3.340(21) 2190. 3.3189 3.3195
76732. 1.58932 3.327(21) 2206. 3.3194 3.3201
76755. 1.58979 3.284(21) 2228. 3.3200 3.3207
76778. 1.59027 3.331(21) 2190. 3.3205 3.3214
76801. 1.59075 3.335(21) 2170. 3.3211 3.3220
76824. 1.59122 3.298(21) 2201. 3.3216 3.3227
76847. 1.59170 3.349(22) 2161. 3.3221 3.3252
76871. 1.59218 3.333(22) 2154. 3.3227 3.3261
76894. 1.59266 3.333(22) 2150. 3.3232 3.3270
76917. 1.59314 3.363(22) 2130. 3.3238 3.3280
76940. 1.59361 3.364(22) 2122. 3.3243 3.3292
76963. 1.59409 3.387(22) 2102. 3.3249 3.3322
76986. 1.59457 3.328(22) 2162. 3.3254 3.3339
77009. 1.59505 3.340(22) 2152. 3.3260 3.3361
77032. 1.59553 3.367(22) 2112. 3.3265 3.3400
77055. 1.59601 3.390(22) 2111. 3.3270 3.3507
77078. 1.59648 3.405(22) 2096. 3.3276 3.3827
77101. 1.59696 3.478(22) 2054. 3.3281 3.4580
77125. 1.59744 3.574(22) 1996. 3.3287 3.5828
77148. 1.59792 3.666(23) 1934. 3.3292 3.7154
77171. 1.59840 3.701(23) 1904. 3.3297 3.7861
77194. 1.59888 3.657(23) 1939. 3.3303 3.7563
77217. 1.59936 3.610(23) 1964. 3.3308 3.6597
77240. 1.59984 3.517(22) 2047. 3.3313 3.5578
77263. 1.60032 3.440(22) 2095. 3.3319 3.4835
77287. 1.60080 3.395(22) 2130. 3.3324 3.4389
77310. 1.60128 3.388(22) 2133. 3.3329 3.4177
77333. 1.60176 3.395(22) 2144. 3.3335 3.4193
77356. 1.60224 3.445(22) 2139. 3.3340 3.4763
77379. 1.60272 3.678(22) 1992. 3.3345 3.6955
77403. 1.60320 4.251(24) 1719. 3.3351 4.2264
77426. 1.60369 5.122(27) 1365. 3.3356 5.0201
77449. 1.60417 5.799(29) 1151. 3.3361 5.6332
77472. 1.60465 5.755(29) 1177. 3.3367 5.6878
77496. 1.60513 5.405(28) 1304. 3.3372 5.4776
77519. 1.60561 5.352(27) 1343. 3.3377 5.5062
77542. 1.60609 5.605(28) 1242. 3.3382 5.7951
77565. 1.60657 5.749(29) 1179. 3.3388 5.8609
77589. 1.60706 5.394(28) 1274. 3.3393 5.4535
77612. 1.60754 4.780(26) 1484. 3.3398 4.8326
77635. 1.60802 4.217(24) 1722. 3.3403 4.2938
77658. 1.60850 3.847(23) 1901. 3.3409 3.9282
77682. 1.60899 3.627(22) 2016. 3.3414 3.7029
77705. 1.60947 3.469(22) 2127. 3.3419 3.5675
77728. 1.60995 3.432(22) 2145. 3.3424 3.4863
77752. 1.61044 3.385(22) 2147. 3.3430 3.4376
77775. 1.61092 3.391(22) 2156. 3.3435 3.4093
77798. 1.61140 3.384(22) 2150. 3.3440 3.3950
77822. 1.61189 3.327(21) 2213. 3.3445 3.3985
77845. 1.61237 3.427(22) 2130. 3.3450 3.4410
77868. 1.61285 3.538(22) 2058. 3.3455 3.5515
77892. 1.61334 3.713(23) 1927. 3.3461 3.7137
77915. 1.61382 3.850(23) 1825. 3.3466 3.8278
77939. 1.61431 3.838(23) 1825. 3.3471 3.8091
77962. 1.61479 3.720(23) 1898. 3.3476 3.6991
77985. 1.61527 3.555(22) 1999. 3.3481 3.5805
78009. 1.61576 3.471(22) 2046. 3.3486 3.4934
78032. 1.61624 3.419(22) 2065. 3.3491 3.4363
78055. 1.61673 3.365(22) 2107. 3.3496 3.4036
78079. 1.61721 3.341(22) 2115. 3.3502 3.3842
78102. 1.61770 3.306(22) 2136. 3.3507 3.3727
78126. 1.61818 3.298(22) 2154. 3.3512 3.3638
78149. 1.61867 3.307(22) 2134. 3.3517 3.3600
78173. 1.61916 3.319(22) 2112. 3.3522 3.3581
78196. 1.61964 3.300(22) 2119. 3.3527 3.3569
78220. 1.62013 3.329(22) 2088. 3.3532 3.3564
78243. 1.62061 3.309(22) 2107. 3.3537 3.3562
78267. 1.62110 3.318(22) 2089. 3.3542 3.3563
78290. 1.62159 3.346(22) 2056. 3.3547 3.3565
78313. 1.62207 3.335(22) 2074. 3.3552 3.3568
78337. 1.62256 3.318(22) 2074. 3.3557 3.3572
78360. 1.62305 3.275(22) 2107. 3.3562 3.3576
78384. 1.62353 3.282(22) 2099. 3.3567 3.3580
78407. 1.62402 3.304(22) 2074. 3.3572 3.3585
78431. 1.62451 3.325(22) 2056. 3.3577 3.3590
78455. 1.62500 3.318(22) 2059. 3.3582 3.3596
78478. 1.62548 3.316(22) 2064. 3.3587 3.3601
78502. 1.62597 3.320(22) 2078. 3.3592 3.3603
78525. 1.62646 3.310(22) 2080. 3.3597 3.3610
78549. 1.62695 3.335(22) 2042. 3.3602 3.3617
78572. 1.62743 3.301(22) 2077. 3.3607 3.3626
78596. 1.62792 3.259(22) 2099. 3.3612 3.3635
78619. 1.62841 3.298(22) 2078. 3.3616 3.3648
78643. 1.62890 3.303(22) 2074. 3.3621 3.3669
78667. 1.62939 3.345(22) 2047. 3.3626 3.3728
78690. 1.62988 3.371(22) 2045. 3.3631 3.3931
78714. 1.63037 3.428(22) 2025. 3.3636 3.4470
78737. 1.63086 3.592(23) 1910. 3.3641 3.5407
78761. 1.63135 3.712(23) 1834. 3.3646 3.6317
78785. 1.63183 3.769(24) 1799. 3.3651 3.6530
78808. 1.63232 3.696(23) 1847. 3.3655 3.6017
78832. 1.63281 3.519(23) 1964. 3.3660 3.5276
78856. 1.63330 3.434(22) 2021. 3.3665 3.4672
78879. 1.63379 3.379(22) 2064. 3.3670 3.4279
78903. 1.63428 3.330(22) 2095. 3.3675 3.4042
78927. 1.63477 3.331(22) 2082. 3.3680 3.3904
78950. 1.63527 3.322(22) 2091. 3.3684 3.3824
78974. 1.63576 3.272(22) 2151. 3.3689 3.3777
78998. 1.63625 3.313(22) 2102. 3.3694 3.3752
79021. 1.63674 3.291(22) 2143. 3.3699 3.3738
79045. 1.63723 3.291(22) 2131. 3.3703 3.3731
79069. 1.63772 3.320(22) 2108. 3.3708 3.3729
79093. 1.63821 3.320(22) 2100. 3.3713 3.3730
79116. 1.63870 3.332(22) 2103. 3.3718 3.3735
79140. 1.63920 3.317(22) 2123. 3.3722 3.3747
79164. 1.63969 3.302(22) 2133. 3.3727 3.3773
79187. 1.64018 3.307(22) 2125. 3.3732 3.3808
79211. 1.64067 3.352(22) 2090. 3.3737 3.3833
79235. 1.64116 3.337(22) 2095. 3.3741 3.3833
79259. 1.64166 3.318(22) 2119. 3.3746 3.3816
79283. 1.64215 3.305(22) 2112. 3.3751 3.3798
79306. 1.64264 3.330(22) 2091. 3.3755 3.3787
79330. 1.64313 3.282(22) 2115. 3.3760 3.3781
79354. 1.64363 3.274(22) 2129. 3.3765 3.3780
79378. 1.64412 3.304(22) 2106. 3.3769 3.3786
79402. 1.64461 3.309(22) 2114. 3.3774 3.3786
79425. 1.64511 3.317(22) 2091. 3.3779 3.3791
79449. 1.64560 3.337(22) 2058. 3.3783 3.3796
79473. 1.64609 3.296(22) 2088. 3.3788 3.3802
79497. 1.64659 3.284(22) 2085. 3.3792 3.3808
79521. 1.64708 3.291(22) 2079. 3.3797 3.3815
79545. 1.64758 3.269(22) 2097. 3.3802 3.3824
79568. 1.64807 3.322(22) 2049. 3.3806 3.3836
79592. 1.64857 3.266(22) 2084. 3.3811 3.3864
79616. 1.64906 3.307(22) 2052. 3.3815 3.3952
79640. 1.64956 3.351(22) 2038. 3.3820 3.4176
79664. 1.65005 3.434(23) 1948. 3.3824 3.4549
79688. 1.65055 3.481(23) 1879. 3.3829 3.4897
79712. 1.65104 3.461(23) 1887. 3.3834 3.4965
79736. 1.65154 3.507(23) 1871. 3.3838 3.4762
79760. 1.65203 3.458(23) 1914. 3.3843 3.4484
79784. 1.65253 3.453(23) 1907. 3.3847 3.4267
79807. 1.65302 3.434(23) 1854. 3.3852 3.4139
79831. 1.65352 3.405(23) 1828. 3.3856 3.4091
79855. 1.65402 3.427(23) 1812. 3.3861 3.4148
79879. 1.65451 3.446(24) 1776. 3.3865 3.4431
79903. 1.65501 3.533(24) 1686. 3.3870 3.5214
79927. 1.65550 3.670(25) 1586. 3.3874 3.6750
79951. 1.65600 3.883(26) 1443. 3.3879 3.8638
79975. 1.65650 4.039(27) 1339. 3.3883 3.9654
79999. 1.65700 3.919(27) 1390. 3.3888 3.9103
80023. 1.65749 3.746(26) 1456. 3.3892 3.7691
80047. 1.65799 3.644(26) 1504. 3.3896 3.6335
80071. 1.65849 3.488(25) 1586. 3.3901 3.5389
80095. 1.65898 3.405(25) 1631. 3.3905 3.4810
80119. 1.65948 3.359(25) 1649. 3.3910 3.4470
80143. 1.65998 3.364(25) 1641. 3.3914 3.4273
80167. 1.66048 3.356(25) 1641. 3.3919 3.4159
80191. 1.66098 3.348(25) 1659. 3.3923 3.4095
80215. 1.66148 3.343(25) 1656. 3.3927 3.4061
80239. 1.66197 3.301(24) 1693. 3.3932 3.4045
80264. 1.66247 3.372(25) 1636. 3.3936 3.4045
80288. 1.66297 3.369(25) 1648. 3.3941 3.4050
80312. 1.66347 3.350(25) 1657. 3.3945 3.4062
80336. 1.66397 3.358(25) 1664. 3.3949 3.4079
80360. 1.66447 3.380(25) 1638. 3.3954 3.4107
80384. 1.66497 3.371(24) 1668. 3.3958 3.4148
80408. 1.66547 3.377(25) 1659. 3.3962 3.4221
80432. 1.66597 3.385(24) 1673. 3.3967 3.4432
80456. 1.66647 3.466(25) 1640. 3.3971 3.5203
80481. 1.66697 3.712(26) 1526. 3.3975 3.7529
80505. 1.66747 4.117(27) 1386. 3.3980 4.2285
80529. 1.66797 4.863(30) 1140. 3.3984 4.8211
80553. 1.66847 5.388(32) 995. 3.3988 5.1487
80577. 1.66897 5.269(31) 1028. 3.3993 5.0037
80601. 1.66947 4.805(30) 1147. 3.3997 4.5832
80626. 1.66997 4.270(28) 1296. 3.4001 4.1648
80650. 1.67047 3.907(26) 1437. 3.4006 3.8664
80674. 1.67097 3.644(25) 1559. 3.4010 3.6815
80698. 1.67147 3.533(25) 1591. 3.4014 3.5736
80722. 1.67198 3.470(25) 1611. 3.4018 3.5104
80747. 1.67248 3.456(25) 1604. 3.4023 3.4752
80771. 1.67298 3.418(25) 1657. 3.4027 3.4613
80795. 1.67348 3.423(25) 1655. 3.4031 3.4790
80819. 1.67398 3.498(25) 1603. 3.4036 3.5554
80843. 1.67449 3.731(26) 1506. 3.4040 3.6990
80868. 1.67499 3.852(26) 1442. 3.4044 3.8431
80892. 1.67549 3.920(27) 1396. 3.4048 3.8786
80916. 1.67599 3.838(26) 1443. 3.4053 3.7973
80941. 1.67650 3.693(26) 1503. 3.4057 3.6816
80965. 1.67700 3.614(26) 1518. 3.4061 3.5982
80989. 1.67750 3.542(25) 1567. 3.4065 3.5740
81013. 1.67801 3.550(25) 1594. 3.4069 3.6032
81038. 1.67851 3.574(25) 1598. 3.4074 3.6454
81062. 1.67901 3.653(25) 1570. 3.4078 3.6494
81086. 1.67952 3.652(25) 1595. 3.4082 3.6090
81111. 1.68002 3.574(25) 1658. 3.4086 3.5538
81135. 1.68053 3.555(24) 1700. 3.4090 3.5089
81159. 1.68103 3.529(24) 1721. 3.4095 3.4830
81184. 1.68153 3.508(24) 1730. 3.4099 3.4816
81208. 1.68204 3.653(25) 1647. 3.4103 3.5426
81232. 1.68254 3.784(25) 1597. 3.4107 3.7409
81257. 1.68305 4.084(26) 1467. 3.4111 4.1161
81281. 1.68355 4.613(29) 1231. 3.4116 4.5166
81306. 1.68406 4.906(30) 1122. 3.4120 4.6495
81330. 1.68456 4.737(29) 1172. 3.4124 4.4574
81354. 1.68507 4.439(28) 1273. 3.4128 4.1443
81379. 1.68557 4.117(27) 1399. 3.4132 3.8909
81403. 1.68608 3.883(26) 1495. 3.4136 3.7588
81428. 1.68659 3.840(26) 1529. 3.4141 3.7414
81452. 1.68709 3.922(26) 1474. 3.4145 3.7989
81476. 1.68760 3.964(26) 1441. 3.4149 3.8972
81501. 1.68811 4.060(27) 1399. 3.4153 4.0569
81525. 1.68861 4.170(27) 1356. 3.4157 4.2595
81550. 1.68912 4.214(27) 1327. 3.4161 4.3491
81574. 1.68963 4.130(27) 1360. 3.4166 4.2288
81599. 1.69013 3.926(26) 1450. 3.4170 3.9986
81623. 1.69064 3.753(25) 1539. 3.4174 3.7871
81648. 1.69115 3.656(25) 1585. 3.4178 3.6419
81672. 1.69165 3.608(25) 1606. 3.4182 3.5535
81697. 1.69216 3.553(25) 1637. 3.4186 3.5018
81721. 1.69267 3.511(25) 1658. 3.4190 3.4721
81746. 1.69318 3.497(24) 1674. 3.4195 3.4571
81770. 1.69369 3.529(25) 1657. 3.4199 3.4567
81795. 1.69419 3.497(24) 1676. 3.4203 3.4765
81819. 1.69470 3.509(24) 1679. 3.4207 3.5150
81844. 1.69521 3.523(25) 1665. 3.4211 3.5496
81868. 1.69572 3.588(25) 1619. 3.4215 3.5519
81893. 1.69623 3.516(24) 1672. 3.4219 3.5253
81918. 1.69674 3.517(24) 1669. 3.4223 3.4910
81942. 1.69725 3.495(24) 1688. 3.4228 3.4654
81967. 1.69776 3.486(24) 1691. 3.4232 3.4492
81991. 1.69826 3.479(24) 1718. 3.4236 3.4397
82016. 1.69877 3.449(24) 1721. 3.4240 3.4343
82040. 1.69928 3.453(24) 1731. 3.4244 3.4312
82065. 1.69979 3.455(24) 1725. 3.4248 3.4295
82090. 1.70030 3.429(24) 1742. 3.4252 3.4284
82114. 1.70081 3.479(24) 1716. 3.4256 3.4280
82139. 1.70132 3.451(24) 1735. 3.4261 3.4279
82164. 1.70183 3.444(24) 1755. 3.4265 3.4272
82188. 1.70235 3.451(24) 1739. 3.4269 3.4275
82213. 1.70286 3.444(24) 1751. 3.4273 3.4282
82238. 1.70337 3.431(24) 1756. 3.4277 3.4286
82262. 1.70388 3.436(24) 1765. 3.4281 3.4290
82287. 1.70439 3.418(24) 1765. 3.4285 3.4294
82312. 1.70490 3.445(24) 1734. 3.4289 3.4298
82336. 1.70541 3.443(24) 1748. 3.4294 3.4303
82361. 1.70592 3.435(24) 1741. 3.4298 3.4308
82386. 1.70644 3.437(24) 1742. 3.4302 3.4312
82410. 1.70695 3.437(24) 1745. 3.4306 3.4317
82435. 1.70746 3.438(24) 1726. 3.4310 3.4323
82460. 1.70797 3.463(24) 1718. 3.4314 3.4328
82485. 1.70849 3.420(24) 1729. 3.4318 3.4333
82509. 1.70900 3.434(24) 1728. 3.4322 3.4339
82534. 1.70951 3.422(24) 1726. 3.4327 3.4346
82559. 1.71002 3.419(24) 1721. 3.4331 3.4354
82584. 1.71054 3.434(24) 1703. 3.4335 3.4363
82608. 1.71105 3.410(24) 1725. 3.4339 3.4374
82633. 1.71156 3.424(24) 1693. 3.4343 3.4387
82658. 1.71208 3.475(25) 1658. 3.4347 3.4406
82683. 1.71259 3.492(25) 1649. 3.4351 3.4441
82708. 1.71310 3.507(25) 1638. 3.4356 3.4553
82732. 1.71362 3.493(25) 1647. 3.4360 3.4946
82757. 1.71413 3.629(25) 1556. 3.4364 3.5981
82782. 1.71465 3.722(26) 1524. 3.4368 3.7736
82807. 1.71516 3.831(26) 1457. 3.4372 3.9376
82832. 1.71568 3.917(27) 1400. 3.4376 3.9678
82857. 1.71619 3.853(27) 1422. 3.4381 3.8656
82881. 1.71671 3.687(26) 1510. 3.4385 3.7258
82906. 1.71722 3.634(26) 1535. 3.4389 3.6146
82931. 1.71774 3.529(25) 1588. 3.4393 3.5434
82956. 1.71825 3.498(25) 1597. 3.4397 3.5015
82981. 1.71877 3.516(25) 1584. 3.4401 3.4777
83006. 1.71928 3.472(25) 1611. 3.4406 3.4637
83031. 1.71980 3.518(25) 1576. 3.4410 3.4558
83056. 1.72032 3.490(25) 1589. 3.4414 3.4512
83081. 1.72083 3.471(25) 1612. 3.4418 3.4487
83105. 1.72135 3.536(25) 1563. 3.4422 3.4473
83130. 1.72186 3.484(25) 1590. 3.4427 3.4466
83155. 1.72238 3.484(25) 1603. 3.4431 3.4464
83180. 1.72290 3.439(25) 1623. 3.4435 3.4464
83205. 1.72341 3.451(25) 1619. 3.4439 3.4466
83230. 1.72393 3.412(25) 1650. 3.4444 3.4469
83255. 1.72445 3.432(25) 1637. 3.4448 3.4473
83280. 1.72497 3.435(25) 1635. 3.4452 3.4478
83305. 1.72548 3.411(25) 1648. 3.4456 3.4484
83330. 1.72600 3.468(25) 1602. 3.4461 3.4490
83355. 1.72652 3.429(25) 1649. 3.4465 3.4498
83380. 1.72704 3.430(25) 1651. 3.4469 3.4507
83405. 1.72756 3.455(25) 1636. 3.4473 3.4519
83430. 1.72807 3.457(25) 1629. 3.4478 3.4535
83455. 1.72859 3.414(25) 1660. 3.4482 3.4556
83480. 1.72911 3.517(25) 1605. 3.4486 3.4630
83505. 1.72963 3.503(25) 1617. 3.4491 3.4896
83530. 1.73015 3.552(25) 1612. 3.4495 3.5674
83555. 1.73067 3.738(26) 1522. 3.4499 3.7213
83580. 1.73119 3.971(27) 1396. 3.4503 3.8994
83606. 1.73171 4.046(27) 1351. 3.4508 3.9776
83631. 1.73223 4.000(27) 1387. 3.4512 3.9098
83656. 1.73275 3.785(26) 1481. 3.4516 3.7750
83681. 1.73327 3.686(26) 1533. 3.4521 3.6543
83706. 1.73379 3.585(25) 1587. 3.4525 3.5734
83731. 1.73431 3.509(25) 1612. 3.4530 3.5253
83756. 1.73483 3.482(25) 1628. 3.4534 3.4977
83781. 1.73535 3.465(25) 1626. 3.4538 3.4820
83806. 1.73587 3.459(25) 1627. 3.4543 3.4733
83832. 1.73639 3.447(25) 1640. 3.4547 3.4686
83857. 1.73691 3.448(25) 1642. 3.4551 3.4663
83882. 1.73743 3.447(25) 1646. 3.4556 3.4655
83907. 1.73795 3.447(25) 1632. 3.4560 3.4669
83932. 1.73847 3.489(25) 1601. 3.4565 3.4680
83957. 1.73900 3.451(25) 1628. 3.4569 3.4700
83983. 1.73952 3.478(25) 1598. 3.4574 3.4735
84008. 1.74004 3.455(25) 1611. 3.4578 3.4817
84033. 1.74056 3.511(25) 1568. 3.4582 3.5076
84058. 1.74108 3.575(25) 1541. 3.4587 3.5842
84083. 1.74161 3.658(26) 1511. 3.4591 3.7610
84109. 1.74213 3.842(27) 1416. 3.4596 4.0603
84134. 1.74265 4.121(28) 1295. 3.4600 4.4083
84159. 1.74318 4.366(29) 1201. 3.4605 4.6314
84184. 1.74370 4.518(30) 1131. 3.4609 4.5772
84210. 1.74422 4.365(29) 1175. 3.4614 4.3134
84235. 1.74474 4.066(28) 1285. 3.4619 4.0201
84260. 1.74527 3.833(27) 1371. 3.4623 3.8017
84285. 1.74579 3.686(26) 1425. 3.4628 3.6660
84311. 1.74632 3.609(26) 1450. 3.4632 3.5873
84336. 1.74684 3.543(26) 1476. 3.4637 3.5427
84361. 1.74736 3.564(26) 1445. 3.4641 3.5182
84387. 1.74789 3.542(26) 1450. 3.4646 3.5056
84412. 1.74841 3.531(26) 1469. 3.4651 3.5010
84437. 1.74894 3.570(26) 1434. 3.4655 3.5037
84463. 1.74946 3.616(26) 1428. 3.4660 3.5254
84488. 1.74999 3.717(27) 1389. 3.4665 3.6163
84513. 1.75051 4.068(28) 1256. 3.4669 3.8845
84539. 1.75104 4.595(30) 1084. 3.4674 4.3993
84564. 1.75156 5.207(33) 903. 3.4679 4.9733
84589. 1.75209 5.427(34) 848. 3.4683 5.1955
84615. 1.75261 5.070(33) 929. 3.4688 4.9454
84640. 1.75314 4.555(31) 1070. 3.4693 4.4962
84665. 1.75367 4.101(29) 1216. 3.4697 4.1054
84691. 1.75419 3.869(28) 1304. 3.4702 3.8469
84716. 1.75472 3.688(27) 1373. 3.4707 3.6938
84742. 1.75525 3.631(27) 1399. 3.4712 3.6055
84767. 1.75577 3.611(27) 1415. 3.4716 3.5554
84793. 1.75630 3.546(26) 1449. 3.4721 3.5263
84818. 1.75683 3.545(26) 1443. 3.4726 3.5121
84843. 1.75735 3.540(26) 1452. 3.4731 3.5147
84869. 1.75788 3.587(26) 1435. 3.4736 3.5410
84894. 1.75841 3.660(27) 1416. 3.4741 3.6109
84920. 1.75894 3.785(27) 1362. 3.4745 3.7137
84945. 1.75946 3.906(28) 1301. 3.4750 3.7876
84971. 1.75999 3.934(28) 1295. 3.4755 3.7835
84996. 1.76052 3.806(27) 1360. 3.4760 3.7443
85022. 1.76105 3.811(27) 1364. 3.4765 3.7529
85047. 1.76158 3.843(27) 1352. 3.4770 3.8421
85073. 1.76210 3.887(27) 1326. 3.4775 3.9444
85098. 1.76263 3.992(28) 1279. 3.4780 3.9514
85124. 1.76316 3.880(27) 1338. 3.4785 3.8569
85149. 1.76369 3.804(27) 1367. 3.4790 3.7355
85175. 1.76422 3.689(27) 1411. 3.4795 3.6407
85200. 1.76475 3.641(26) 1433. 3.4800 3.5797
85226. 1.76528 3.581(26) 1461. 3.4805 3.5464
85252. 1.76581 3.575(26) 1457. 3.4810 3.5288
85277. 1.76634 3.587(26) 1453. 3.4815 3.5207
85303. 1.76687 3.557(26) 1466. 3.4820 3.5187
85328. 1.76740 3.583(26) 1458. 3.4825 3.5215
85354. 1.76793 3.542(26) 1474. 3.4830 3.5292
85380. 1.76846 3.525(26) 1484. 3.4836 3.5486
85405. 1.76899 3.676(27) 1405. 3.4841 3.6175
85431. 1.76952 3.841(27) 1375. 3.4846 3.8710
85456. 1.77005 4.447(29) 1179. 3.4851 4.5617
85482. 1.77058 5.590(34) 889. 3.4856 5.7773
85508. 1.77111 6.84(4) 665. 3.486 6.977
85533. 1.77165 7.30(4) 599. 3.487 7.270
85559. 1.77218 6.48(4) 705. 3.487 6.582
85585. 1.77271 5.351(33) 898. 3.4877 5.5760
85610. 1.77324 4.541(30) 1087. 3.4882 4.7572
85636. 1.77377 4.073(29) 1222. 3.4888 4.2322
85662. 1.77431 3.805(28) 1322. 3.4893 3.9245
85687. 1.77484 3.706(27) 1354. 3.4898 3.7482
85713. 1.77537 3.600(27) 1380. 3.4904 3.6467
85739. 1.77590 3.601(27) 1370. 3.4909 3.5883
85765. 1.77644 3.554(27) 1388. 3.4914 3.5543
85790. 1.77697 3.563(27) 1384. 3.4920 3.5343
85816. 1.77750 3.518(27) 1401. 3.4925 3.5223
85842. 1.77804 3.513(27) 1397. 3.4931 3.5150
85868. 1.77857 3.513(27) 1392. 3.4936 3.5104
85893. 1.77910 3.487(27) 1397. 3.4942 3.5076
85919. 1.77964 3.510(27) 1380. 3.4947 3.5057
85945. 1.78017 3.530(27) 1372. 3.4953 3.5046
85971. 1.78070 3.529(27) 1366. 3.4958 3.5038
85996. 1.78124 3.494(27) 1386. 3.4964 3.5034
86022. 1.78177 3.544(27) 1351. 3.4969 3.5031
86048. 1.78231 3.535(27) 1360. 3.4975 3.5030
86074. 1.78284 3.519(27) 1360. 3.4980 3.5030
86100. 1.78338 3.541(27) 1350. 3.4986 3.5031
86125. 1.78391 3.548(27) 1352. 3.4992 3.5033
86151. 1.78445 3.526(27) 1362. 3.4997 3.4997
86177. 1.78498 3.491(27) 1385. 3.5003 3.5003
86203. 1.78552 3.511(27) 1381. 3.5009 3.5009
86229. 1.78606 3.492(27) 1383. 3.5014 3.5014
86255. 1.78659 3.477(27) 1379. 3.5020 3.5020
86281. 1.78713 3.545(27) 1354. 3.5026 3.5026
86307. 1.78766 3.524(27) 1365. 3.5032 3.5032
86332. 1.78820 3.509(27) 1385. 3.5037 3.5037
86358. 1.78874 3.500(27) 1383. 3.5043 3.5043
86384. 1.78927 3.540(27) 1370. 3.5049 3.5049
86410. 1.78981 3.542(27) 1371. 3.5055 3.5055
86436. 1.79035 3.479(27) 1404. 3.5061 3.5061
86462. 1.79088 3.549(27) 1374. 3.5067 3.5067
86488. 1.79142 3.526(27) 1387. 3.5073 3.5073
86514. 1.79196 3.572(27) 1367. 3.5079 3.5079
86540. 1.79250 3.524(27) 1390. 3.5085 3.5085
86566. 1.79303 3.538(27) 1386. 3.5091 3.5091
86592. 1.79357 3.514(27) 1403. 3.5096 3.5097
86618. 1.79411 3.524(27) 1403. 3.5103 3.5103
86644. 1.79465 3.548(27) 1390. 3.5109 3.5109
86670. 1.79519 3.570(27) 1368. 3.5115 3.5115
86696. 1.79573 3.497(27) 1423. 3.5121 3.5121
86722. 1.79627 3.507(27) 1409. 3.5127 3.5127
86748. 1.79680 3.542(27) 1400. 3.5133 3.5133
86774. 1.79734 3.545(27) 1400. 3.5139 3.5139
86800. 1.79788 3.500(27) 1421. 3.5145 3.5145
86826. 1.79842 3.543(27) 1395. 3.5151 3.5151
86852. 1.79896 3.508(27) 1419. 3.5158 3.5158
86878. 1.79950 3.523(27) 1402. 3.5164 3.5164
86904. 1.80004 3.553(27) 1395. 3.5170 3.5170
86930. 1.80058 3.519(27) 1402. 3.5176 3.5176
86956. 1.80112 3.500(27) 1402. 3.5183 3.5183
86982. 1.80166 3.526(27) 1387. 3.5189 3.5189
87008. 1.80220 3.511(27) 1389. 3.5195 3.5195
87034. 1.80274 3.537(27) 1372. 3.5202 3.5202
87061. 1.80328 3.521(27) 1376. 3.5208 3.5208
87087. 1.80383 3.529(27) 1365. 3.5214 3.5214
87113. 1.80437 3.489(27) 1385. 3.5221 3.5221
87139. 1.80491 3.521(27) 1359. 3.5227 3.5227
87165. 1.80545 3.555(27) 1331. 3.5234 3.5234
87191. 1.80599 3.499(27) 1353. 3.5240 3.5240
87217. 1.80653 3.514(27) 1335. 3.5247 3.5247
87244. 1.80708 3.530(27) 1341. 3.5253 3.5253
87270. 1.80762 3.515(27) 1344. 3.5260 3.5261
87296. 1.80816 3.545(28) 1321. 3.5266 3.5268
87322. 1.80870 3.530(28) 1314. 3.5273 3.5275
87348. 1.80925 3.552(28) 1297. 3.5280 3.5316
87374. 1.80979 3.567(28) 1281. 3.5286 3.5326
87401. 1.81033 3.576(28) 1269. 3.5293 3.5336
87427. 1.81087 3.538(28) 1288. 3.5300 3.5346
87453. 1.81142 3.578(28) 1263. 3.5306 3.5357
87479. 1.81196 3.540(28) 1271. 3.5313 3.5369
87506. 1.81251 3.506(28) 1306. 3.5320 3.5382
87532. 1.81305 3.518(28) 1285. 3.5327 3.5395
87558. 1.81359 3.552(28) 1270. 3.5333 3.5410
87584. 1.81414 3.545(28) 1266. 3.5340 3.5426
87611. 1.81468 3.578(28) 1260. 3.5347 3.5444
87637. 1.81523 3.515(28) 1282. 3.5354 3.5465
87663. 1.81577 3.535(28) 1278. 3.5361 3.5488
87690. 1.81632 3.531(28) 1273. 3.5368 3.5516
87716. 1.81686 3.502(28) 1298. 3.5375 3.5549
87742. 1.81741 3.545(28) 1273. 3.5382 3.5591
87768. 1.81795 3.539(28) 1278. 3.5389 3.5643
87795. 1.81850 3.541(28) 1283. 3.5396 3.5714
87821. 1.81904 3.561(28) 1275. 3.5403 3.5824
87847. 1.81959 3.667(29) 1227. 3.5410 3.6046
87874. 1.82013 3.664(28) 1243. 3.5417 3.6635
87900. 1.82068 3.872(29) 1176. 3.5424 3.8357
87927. 1.82123 4.306(31) 1061. 3.5431 4.3067
87953. 1.82177 5.214(34) 854. 3.5438 5.3133
87979. 1.82232 6.63(4) 614. 3.545 6.753
88006. 1.82287 7.88(5) 474. 3.545 7.817
88032. 1.82341 7.62(4) 496. 3.546 7.697
88059. 1.82396 6.39(4) 639. 3.547 6.686
88085. 1.82451 5.261(35) 825. 3.5474 5.5606
88111. 1.82506 4.491(32) 1005. 3.5482 4.7376
88138. 1.82560 4.082(30) 1121. 3.5489 4.2357
88164. 1.82615 3.818(29) 1200. 3.5496 3.9487
88191. 1.82670 3.756(29) 1210. 3.5504 3.7866
88217. 1.82725 3.659(28) 1269. 3.5511 3.6947
88244. 1.82780 3.632(28) 1278. 3.5519 3.6421
88270. 1.82834 3.640(28) 1261. 3.5526 3.6117
88297. 1.82889 3.562(28) 1313. 3.5534 3.5939
88323. 1.82944 3.598(28) 1286. 3.5541 3.5833
88350. 1.82999 3.584(28) 1293. 3.5549 3.5770
88376. 1.83054 3.574(28) 1299. 3.5556 3.5730
88403. 1.83109 3.662(28) 1244. 3.5564 3.5706
88429. 1.83164 3.638(28) 1261. 3.5571 3.5690
88456. 1.83219 3.619(28) 1266. 3.5579 3.5681
88482. 1.83274 3.611(28) 1266. 3.5586 3.5676
88509. 1.83329 3.588(28) 1267. 3.5594 3.5673
88535. 1.83384 3.583(28) 1268. 3.5602 3.5673
88562. 1.83439 3.614(28) 1242. 3.5610 3.5674
88588. 1.83494 3.688(29) 1211. 3.5617 3.5676
88615. 1.83549 3.609(28) 1246. 3.5625 3.5679
88642. 1.83604 3.617(28) 1238. 3.5633 3.5682
88668. 1.83659 3.537(28) 1261. 3.5641 3.5687
88695. 1.83714 3.532(28) 1268. 3.5648 3.5655
88721. 1.83769 3.586(29) 1228. 3.5656 3.5664
88748. 1.83824 3.588(29) 1223. 3.5664 3.5673
88775. 1.83880 3.555(28) 1233. 3.5672 3.5684
88801. 1.83935 3.607(29) 1201. 3.5680 3.5695
88828. 1.83990 3.626(29) 1187. 3.5688 3.5706
88855. 1.84045 3.649(29) 1168. 3.5696 3.5721
88881. 1.84100 3.602(29) 1196. 3.5704 3.5744
88908. 1.84156 3.589(29) 1190. 3.5712 3.5806
88935. 1.84211 3.581(29) 1191. 3.5720 3.6002
88961. 1.84266 3.609(29) 1170. 3.5728 3.6467
88988. 1.84321 3.626(29) 1168. 3.5736 3.7172
89015. 1.84377 3.631(29) 1168. 3.5744 3.7749
89041. 1.84432 3.698(30) 1129. 3.5752 3.7745
89068. 1.84487 3.661(30) 1143. 3.5760 3.7292
89095. 1.84543 3.667(30) 1138. 3.5769 3.6765
89121. 1.84598 3.623(30) 1146. 3.5777 3.6378
89148. 1.84654 3.601(29) 1157. 3.5785 3.6146
89175. 1.84709 3.601(29) 1167. 3.5793 3.6020
89202. 1.84764 3.674(30) 1121. 3.5802 3.5955
89228. 1.84820 3.665(30) 1134. 3.5810 3.5924
89255. 1.84875 3.584(29) 1170. 3.5818 3.5914
89282. 1.84931 3.622(30) 1143. 3.5827 3.5918
89309. 1.84986 3.619(29) 1155. 3.5835 3.5937
89336. 1.85042 3.653(30) 1139. 3.5843 3.5996
89362. 1.85097 3.665(30) 1140. 3.5852 3.6145
89389. 1.85153 3.664(30) 1145. 3.5860 3.6408
89416. 1.85208 3.718(30) 1128. 3.5869 3.6692
89443. 1.85264 3.710(30) 1136. 3.5877 3.6816
89470. 1.85319 3.659(29) 1162. 3.5886 3.6739
89496. 1.85375 3.679(29) 1157. 3.5894 3.6587
89523. 1.85431 3.671(29) 1164. 3.5903 3.6493
89550. 1.85486 3.764(30) 1132. 3.5911 3.6595
89577. 1.85542 3.923(30) 1077. 3.5920 3.7340
89604. 1.85598 4.065(31) 1063. 3.5928 3.9944
89631. 1.85653 4.485(32) 948. 3.5937 4.5835
89658. 1.85709 5.11(4) 807. 3.595 5.396
89685. 1.85765 5.75(4) 681. 3.595 5.925
89712. 1.85821 5.97(4) 636. 3.596 5.780
89738. 1.85876 5.39(4) 736. 3.597 5.200
89765. 1.85932 4.743(34) 870. 3.5981 4.6039
89792. 1.85988 4.271(32) 995. 3.5989 4.1851
89819. 1.86044 3.984(31) 1074. 3.5998 3.9355
89846. 1.86100 3.822(30) 1126. 3.6007 3.7947
89873. 1.86155 3.754(30) 1149. 3.6016 3.7161
89900. 1.86211 3.741(29) 1150. 3.6025 3.6721
89927. 1.86267 3.682(29) 1161. 3.6034 3.6473
89954. 1.86323 3.646(29) 1178. 3.6042 3.6332
89981. 1.86379 3.645(29) 1167. 3.6051 3.6252
90008. 1.86435 3.671(29) 1156. 3.6060 3.6206
90035. 1.86491 3.657(29) 1165. 3.6069 3.6180
90062. 1.86547 3.653(29) 1163. 3.6078 3.6166
90089. 1.86603 3.618(29) 1167. 3.6087 3.6160
90116. 1.86659 3.592(29) 1182. 3.6096 3.6156
90143. 1.86715 3.613(29) 1163. 3.6105 3.6157
90170. 1.86771 3.647(30) 1133. 3.6114 3.6159
90197. 1.86827 3.631(30) 1138. 3.6124 3.6163
90224. 1.86883 3.614(29) 1149. 3.6133 3.6168
90251. 1.86939 3.636(30) 1132. 3.6142 3.6174
90278. 1.86995 3.662(30) 1129. 3.6151 3.6180
90305. 1.87051 3.682(30) 1103. 3.6160 3.6186
90333. 1.87107 3.622(30) 1126. 3.6169 3.6193
90360. 1.87163 3.611(30) 1131. 3.6179 3.6179
90387. 1.87219 3.654(30) 1105. 3.6188 3.6189
90414. 1.87276 3.687(30) 1089. 3.6197 3.6198
90441. 1.87332 3.671(30) 1088. 3.6206 3.6207
90468. 1.87388 3.676(30) 1075. 3.6216 3.6217
90495. 1.87444 3.653(30) 1089. 3.6225 3.6226
90522. 1.87501 3.675(30) 1075. 3.6234 3.6235
90550. 1.87557 3.643(30) 1078. 3.6244 3.6245
90577. 1.87613 3.612(30) 1094. 3.6253 3.6254
90604. 1.87669 3.613(30) 1096. 3.6262 3.6276
90631. 1.87726 3.675(31) 1054. 3.6272 3.6286
90658. 1.87782 3.679(31) 1065. 3.6281 3.6297
90686. 1.87838 3.689(31) 1064. 3.6291 3.6308
90713. 1.87895 3.707(31) 1051. 3.6300 3.6319
90740. 1.87951 3.645(30) 1076. 3.6310 3.6331
90767. 1.88008 3.665(31) 1069. 3.6319 3.6343
90794. 1.88064 3.708(31) 1049. 3.6329 3.6356
90822. 1.88120 3.656(30) 1081. 3.6338 3.6369
90849. 1.88177 3.647(30) 1085. 3.6348 3.6399
90876. 1.88233 3.647(30) 1092. 3.6357 3.6419
90903. 1.88290 3.647(30) 1102. 3.6367 3.6452
90931. 1.88346 3.654(30) 1095. 3.6377 3.6529
90958. 1.88403 3.702(31) 1074. 3.6386 3.6697
90985. 1.88459 3.683(30) 1086. 3.6396 3.6955
91013. 1.88516 3.756(31) 1064. 3.6406 3.7177
91040. 1.88572 3.720(30) 1082. 3.6415 3.7213
91067. 1.88629 3.742(31) 1069. 3.6425 3.7092
91094. 1.88686 3.682(30) 1105. 3.6435 3.6948
91122. 1.88742 3.739(30) 1084. 3.6444 3.6876
91149. 1.88799 3.743(30) 1080. 3.6454 3.6962
91176. 1.88855 3.824(31) 1063. 3.6464 3.7523
91204. 1.88912 4.012(31) 1012. 3.6474 3.9358
91231. 1.88969 4.298(33) 930. 3.6484 4.3241
91259. 1.89026 4.632(34) 855. 3.6493 4.8185
91286. 1.89082 4.89(4) 788. 3.650 5.090
91313. 1.89139 4.88(4) 784. 3.651 4.951
91341. 1.89196 4.612(34) 852. 3.6523 4.5862
91368. 1.89253 4.280(33) 931. 3.6533 4.2416
91396. 1.89309 4.064(32) 992. 3.6543 4.0243
91423. 1.89366 4.085(32) 989. 3.6553 3.9633
91450. 1.89423 4.188(32) 970. 3.6563 4.1287
91478. 1.89480 4.554(34) 880. 3.6572 4.5953
91505. 1.89537 5.10(4) 758. 3.658 5.218
91533. 1.89594 5.50(4) 673. 3.659 5.556
91560. 1.89650 5.43(4) 686. 3.660 5.361
91588. 1.89707 5.02(4) 756. 3.661 4.871
91615. 1.89764 4.568(34) 845. 3.6622 4.4070
91643. 1.89821 4.193(33) 929. 3.6632 4.0935
91670. 1.89878 3.999(32) 977. 3.6642 3.9103
91698. 1.89935 3.861(32) 1002. 3.6652 3.8083
91725. 1.89992 3.744(31) 1037. 3.6663 3.7520
91753. 1.90049 3.721(31) 1036. 3.6673 3.7208
91780. 1.90106 3.717(31) 1034. 3.6683 3.7035
91808. 1.90163 3.718(31) 1028. 3.6693 3.6939
91835. 1.90220 3.708(31) 1029. 3.6703 3.6886
91863. 1.90277 3.688(31) 1028. 3.6713 3.6859
91890. 1.90334 3.693(31) 1025. 3.6723 3.6846
91918. 1.90392 3.685(31) 1026. 3.6733 3.6844
91945. 1.90449 3.703(31) 1010. 3.6743 3.6848
91973. 1.90506 3.725(32) 993. 3.6754 3.6846
92001. 1.90563 3.752(32) 979. 3.6764 3.6868
92028. 1.90620 3.718(32) 992. 3.6774 3.6922
92056. 1.90677 3.760(32) 971. 3.6784 3.7110
92083. 1.90735 3.817(32) 955. 3.6794 3.7706
92111. 1.90792 3.945(33) 922. 3.6805 3.9017
92139. 1.90849 4.014(33) 897. 3.6815 4.0799
92166. 1.90906 4.171(34) 846. 3.6825 4.1932
92194. 1.90964 4.172(35) 838. 3.6835 4.1590
92222. 1.91021 4.029(34) 879. 3.6846 4.0295
92249. 1.91078 3.879(33) 932. 3.6856 3.8999
92277. 1.91136 3.792(32) 959. 3.6866 3.8101
92305. 1.91193 3.785(32) 959. 3.6877 3.7575
92332. 1.91250 3.700(32) 989. 3.6887 3.7286
92360. 1.91308 3.718(32) 983. 3.6897 3.7131
92388. 1.91365 3.729(32) 984. 3.6907 3.7049
92415. 1.91422 3.748(32) 986. 3.6918 3.7007
92443. 1.91480 3.782(32) 971. 3.6928 3.6987
92471. 1.91537 3.740(32) 989. 3.6938 3.6979
92499. 1.91595 3.801(32) 975. 3.6949 3.6979
92526. 1.91652 3.794(32) 974. 3.6959 3.6982
92554. 1.91710 3.777(32) 989. 3.6970 3.6988
92582. 1.91767 3.807(32) 976. 3.6980 3.6995
92610. 1.91825 3.784(32) 990. 3.6990 3.7003
92638. 1.91882 3.771(32) 989. 3.7001 3.7019
92665. 1.91940 3.753(32) 1005. 3.7011 3.7029
92693. 1.91998 3.744(31) 1009. 3.7022 3.7039
92721. 1.92055 3.783(32) 997. 3.7032 3.7049
92749. 1.92113 3.773(32) 997. 3.7042 3.7059
92777. 1.92171 3.716(31) 1022. 3.7053 3.7070
92804. 1.92228 3.731(32) 1005. 3.7063 3.7081
92832. 1.92286 3.666(31) 1042. 3.7074 3.7092
92860. 1.92344 3.701(31) 1022. 3.7084 3.7099
92888. 1.92401 3.676(31) 1037. 3.7094 3.7111
92916. 1.92459 3.695(31) 1021. 3.7105 3.7124
92944. 1.92517 3.732(32) 1007. 3.7115 3.7137
92972. 1.92575 3.690(31) 1023. 3.7126 3.7150
92999. 1.92632 3.721(32) 1004. 3.7136 3.7164
93027. 1.92690 3.707(31) 1011. 3.7147 3.7179
93055. 1.92748 3.684(31) 1026. 3.7157 3.7195
93083. 1.92806 3.684(31) 1014. 3.7168 3.7213
93111. 1.92864 3.700(31) 1011. 3.7178 3.7233
93139. 1.92921 3.754(32) 983. 3.7189 3.7256
93167. 1.92979 3.764(32) 977. 3.7199 3.7285
93195. 1.93037 3.723(32) 987. 3.7210 3.7325
93223. 1.93095 3.793(32) 953. 3.7220 3.7407
93251. 1.93153 3.774(32) 966. 3.7230 3.7678
93279. 1.93211 3.831(32) 948. 3.7241 3.8586
93307. 1.93269 4.014(33) 893. 3.7251 4.0791
93335. 1.93327 4.41(4) 785. 3.726 4.419
93363. 1.93385 4.66(4) 725. 3.727 4.693
93391. 1.93443 4.74(4) 698. 3.728 4.693
93419. 1.93501 4.55(4) 738. 3.729 4.468
93447. 1.93559 4.25(4) 804. 3.730 4.202
93475. 1.93617 3.990(34) 864. 3.7314 4.0049
93503. 1.93675 3.898(34) 883. 3.7325 3.8867
93531. 1.93733 3.818(33) 908. 3.7335 3.8211
93559. 1.93792 3.749(33) 920. 3.7346 3.7855
93587. 1.93850 3.735(33) 917. 3.7356 3.7663
93615. 1.93908 3.742(33) 918. 3.7367 3.7561
93643. 1.93966 3.725(33) 919. 3.7377 3.7507
93671. 1.94024 3.699(33) 926. 3.7388 3.7480
93699. 1.94083 3.704(33) 921. 3.7398 3.7468
93728. 1.94141 3.727(33) 911. 3.7409 3.7466
93756. 1.94199 3.674(33) 932. 3.7419 3.7468
93784. 1.94257 3.719(33) 914. 3.7430 3.7474
93812. 1.94316 3.720(33) 926. 3.7440 3.7483
93840. 1.94374 3.748(33) 912. 3.7450 3.7493
93868. 1.94432 3.756(33) 911. 3.7461 3.7506
93896. 1.94491 3.758(33) 913. 3.7471 3.7522
93925. 1.94549 3.762(33) 917. 3.7482 3.7544
93953. 1.94607 3.804(33) 901. 3.7492 3.7601
93981. 1.94666 3.772(33) 924. 3.7503 3.7759
94009. 1.94724 3.813(33) 913. 3.7513 3.8225
94037. 1.94783 3.875(33) 893. 3.7524 3.9181
94066. 1.94841 3.979(34) 871. 3.7534 4.0403
94094. 1.94899 4.032(34) 851. 3.7544 4.1073
94122. 1.94958 4.000(34) 866. 3.7555 4.0727
94150. 1.95016 3.893(33) 902. 3.7565 3.9819
94178. 1.95075 3.815(33) 927. 3.7576 3.8958
94207. 1.95133 3.790(33) 932. 3.7586 3.8383
94235. 1.95192 3.762(33) 944. 3.7596 3.8056
94263. 1.95251 3.732(32) 953. 3.7607 3.7882
94292. 1.95309 3.730(32) 968. 3.7617 3.7794
94320. 1.95368 3.796(33) 935. 3.7628 3.7752
94348. 1.95426 3.759(32) 949. 3.7638 3.7737
94376. 1.95485 3.791(33) 930. 3.7648 3.7737
94405. 1.95544 3.736(32) 963. 3.7659 3.7747
94433. 1.95602 3.687(32) 977. 3.7669 3.7764
94461. 1.95661 3.714(32) 957. 3.7679 3.7789
94490. 1.95720 3.747(33) 944. 3.7690 3.7824
94518. 1.95779 3.792(33) 925. 3.7700 3.7885
94546. 1.95837 3.767(33) 939. 3.7710 3.8053
94575. 1.95896 3.868(33) 909. 3.7720 3.8661
94603. 1.95955 4.101(34) 849. 3.7731 4.0467
94632. 1.96014 4.39(4) 787. 3.774 4.409
94660. 1.96072 4.77(4) 697. 3.775 4.843
94688. 1.96131 5.05(4) 632. 3.776 5.050
94717. 1.96190 5.02(4) 630. 3.777 4.893
94745. 1.96249 4.53(4) 719. 3.778 4.554
94774. 1.96308 4.19(4) 798. 3.779 4.247
94802. 1.96367 3.970(35) 834. 3.7802 4.0446
94830. 1.96426 3.924(35) 839. 3.7813 3.9292
94859. 1.96485 3.819(34) 864. 3.7823 3.8663
94887. 1.96544 3.780(34) 877. 3.7833 3.8324
94916. 1.96603 3.808(34) 855. 3.7843 3.8141
94944. 1.96662 3.729(34) 877. 3.7853 3.8043
94973. 1.96721 3.697(34) 884. 3.7863 3.7990
95001. 1.96780 3.734(34) 866. 3.7874 3.7963
95030. 1.96839 3.715(34) 872. 3.7884 3.7951
95058. 1.96898 3.750(34) 854. 3.7894 3.7956
95087. 1.96957 3.709(34) 867. 3.7904 3.7957
95115. 1.97016 3.735(34) 860. 3.7914 3.7961
95144. 1.97075 3.716(34) 861. 3.7924 3.7967
95172. 1.97134 3.738(34) 845. 3.7934 3.7974
95201. 1.97193 3.750(34) 843. 3.7944 3.7982
95230. 1.97252 3.754(34) 842. 3.7954 3.7991
95258. 1.97312 3.708(34) 858. 3.7964 3.8001
95287. 1.97371 3.775(35) 838. 3.7974 3.8011
95315. 1.97430 3.726(34) 852. 3.7984 3.8022
95344. 1.97489 3.781(35) 835. 3.7994 3.8034
95372. 1.97549 3.734(34) 850. 3.8004 3.8034
95401. 1.97608 3.713(34) 860. 3.8014 3.8049
95430. 1.97667 3.734(34) 855. 3.8024 3.8064
95458. 1.97726 3.762(34) 849. 3.8033 3.8081
95487. 1.97786 3.730(34) 865. 3.8043 3.8101
95516. 1.97845 3.760(34) 858. 3.8053 3.8123
95544. 1.97904 3.828(35) 836. 3.8063 3.8149
95573. 1.97964 3.815(35) 837. 3.8073 3.8183
95602. 1.98023 3.806(34) 848. 3.8083 3.8233
95630. 1.98083 3.813(34) 850. 3.8092 3.8348
95659. 1.98142 3.822(34) 852. 3.8102 3.8747
95688. 1.98202 3.968(35) 822. 3.8112 4.0048
95716. 1.98261 4.20(4) 772. 3.812 4.304
95745. 1.98321 4.62(4) 678. 3.813 4.734
95774. 1.98380 4.95(4) 618. 3.814 5.040
95803. 1.98440 4.96(4) 616. 3.815 4.991
95831. 1.98499 4.57(4) 688. 3.816 4.687
95860. 1.98559 4.31(4) 741. 3.817 4.360
95889. 1.98618 4.02(4) 807. 3.818 4.128
95918. 1.98678 3.943(35) 827. 3.8189 3.9912
95946. 1.98737 3.878(35) 838. 3.8199 3.9167
95975. 1.98797 3.795(34) 854. 3.8208 3.8766
96004. 1.98857 3.805(34) 845. 3.8218 3.8551
96033. 1.98916 3.831(35) 837. 3.8227 3.8436
96062. 1.98976 3.761(34) 853. 3.8237 3.8374
96090. 1.99036 3.707(34) 865. 3.8246 3.8342
96119. 1.99096 3.789(35) 837. 3.8256 3.8326
96148. 1.99155 3.819(35) 819. 3.8265 3.8319
96177. 1.99215 3.83(4) 804. 3.827 3.832
96206. 1.99275 3.83(4) 807. 3.828 3.832
96235. 1.99335 3.80(4) 803. 3.829 3.832
96263. 1.99394 3.759(35) 816. 3.8302 3.8329
96292. 1.99454 3.81(4) 790. 3.831 3.833
96321. 1.99514 3.80(4) 791. 3.832 3.834
96350. 1.99574 3.82(4) 778. 3.833 3.835
96379. 1.99634 3.81(4) 784. 3.834 3.836
96408. 1.99694 3.85(4) 765. 3.835 3.836
96437. 1.99754 3.80(4) 769. 3.836 3.837
96466. 1.99814 3.77(4) 777. 3.837 3.837
96495. 1.99874 3.79(4) 764. 3.838 3.838
96524. 1.99934 3.80(4) 756. 3.839 3.839
96553. 1.99994 3.87(4) 731. 3.839 3.839
96582. 2.00054 3.83(4) 734. 3.840 3.840
96611. 2.00114 3.83(4) 735. 3.841 3.841
96640. 2.00174 3.85(4) 725. 3.842 3.842
96669. 2.00234 3.82(4) 728. 3.843 3.843
96698. 2.00294 3.87(4) 715. 3.844 3.844
96727. 2.00354 3.93(4) 695. 3.845 3.845
96756. 2.00414 3.84(4) 725. 3.846 3.846
96785. 2.00474 3.80(4) 739. 3.847 3.847
96814. 2.00534 3.83(4) 720. 3.847 3.847
96843. 2.00594 3.87(4) 714. 3.848 3.848
96872. 2.00655 3.82(4) 725. 3.849 3.849
96901. 2.00715 3.84(4) 728. 3.850 3.850
96930. 2.00775 3.88(4) 718. 3.851 3.851
96959. 2.00835 3.80(4) 741. 3.852 3.852
96988. 2.00896 3.81(4) 746. 3.853 3.853
97017. 2.00956 3.82(4) 739. 3.854 3.854
97046. 2.01016 3.86(4) 729. 3.854 3.854
97075. 2.01076 3.85(4) 742. 3.855 3.855
97104. 2.01137 3.83(4) 749. 3.856 3.856
97134. 2.01197 3.78(4) 764. 3.857 3.857
97163. 2.01258 3.87(4) 737. 3.858 3.858
97192. 2.01318 3.80(4) 755. 3.859 3.859
97221. 2.01378 3.82(4) 757. 3.860 3.860
97250. 2.01439 3.82(4) 759. 3.860 3.860
97279. 2.01499 3.82(4) 754. 3.861 3.861
97309. 2.01560 3.83(4) 761. 3.862 3.862
97338. 2.01620 3.83(4) 758. 3.863 3.863
97367. 2.01681 3.81(4) 764. 3.864 3.864
97396. 2.01741 3.81(4) 770. 3.865 3.865
97425. 2.01802 3.88(4) 747. 3.865 3.865
97455. 2.01862 3.85(4) 756. 3.866 3.866
97484. 2.01923 3.85(4) 756. 3.867 3.867
97513. 2.01983 3.87(4) 751. 3.868 3.868
97542. 2.02044 3.94(4) 728. 3.869 3.869
97572. 2.02105 3.93(4) 727. 3.870 3.870
97601. 2.02165 3.96(4) 719. 3.870 3.871
97630. 2.02226 3.95(4) 718. 3.871 3.872
97659. 2.02287 3.97(4) 696. 3.872 3.872
97689. 2.02347 3.94(4) 707. 3.873 3.878
97718. 2.02408 3.96(4) 690. 3.874 3.885
97747. 2.02469 3.84(4) 720. 3.874 3.887
97777. 2.02530 3.83(4) 717. 3.875 3.889
97806. 2.02590 3.80(4) 719. 3.876 3.891
97835. 2.02651 3.86(4) 696. 3.877 3.894
97865. 2.02712 3.80(4) 709. 3.878 3.896
97894. 2.02773 3.83(4) 698. 3.878 3.899
97923. 2.02834 3.94(4) 664. 3.879 3.902
97953. 2.02894 4.04(4) 632. 3.880 3.908
97982. 2.02955 4.16(4) 608. 3.881 3.912
98012. 2.03016 4.16(4) 610. 3.881 3.917
98041. 2.03077 4.10(4) 623. 3.882 3.923
98070. 2.03138 4.04(4) 637. 3.883 3.932
98100. 2.03199 4.08(4) 624. 3.884 3.944
98129. 2.03260 4.04(4) 632. 3.884 3.970
98159. 2.03321 4.12(4) 614. 3.885 4.029
98188. 2.03382 4.19(4) 600. 3.886 4.135
98218. 2.03443 4.37(4) 565. 3.887 4.258
98247. 2.03504 4.42(4) 552. 3.887 4.337
98277. 2.03565 4.49(4) 548. 3.888 4.393
98306. 2.03626 4.75(4) 526. 3.889 4.655
98336. 2.03687 5.71(5) 424. 3.890 5.661
98365. 2.03748 8.01(6) 269.4 3.890 8.097
98395. 2.03810 11.71(8) 152.3 3.891 11.936
98424. 2.03871 15.32(10) 99.1 3.892 15.522
98454. 2.03932 16.94(11) 83.8 3.893 16.620
98483. 2.03993 15.36(10) 98.2 3.893 14.694
98513. 2.04054 11.65(8) 153.5 3.894 11.372
98542. 2.04116 8.44(6) 251.4 3.895 8.456
98572. 2.04177 6.48(5) 370. 3.895 6.676
98601. 2.04238 5.68(5) 444. 3.896 6.012
98631. 2.04299 5.56(5) 457. 3.897 6.133
98661. 2.04361 5.86(5) 423. 3.897 6.424
98690. 2.04422 5.97(5) 409. 3.898 6.284
98720. 2.04483 5.60(5) 447. 3.899 5.704
98749. 2.04545 4.94(4) 536. 3.900 5.055
98779. 2.04606 4.53(4) 603. 3.900 4.577
98809. 2.04667 4.20(4) 665. 3.901 4.291
98838. 2.04729 4.06(4) 693. 3.902 4.133
98868. 2.04790 3.99(4) 709. 3.902 4.047
98898. 2.04852 3.92(4) 727. 3.903 3.999
98927. 2.04913 3.89(4) 735. 3.904 3.971
98957. 2.04975 3.90(4) 730. 3.904 3.955
98987. 2.05036 3.89(4) 737. 3.905 3.945
99016. 2.05098 3.92(4) 724. 3.906 3.939
99046. 2.05159 3.87(4) 739. 3.906 3.935
99076. 2.05221 3.90(4) 735. 3.907 3.932
99105. 2.05282 3.93(4) 726. 3.908 3.929
99135. 2.05344 3.88(4) 738. 3.908 3.928
99165. 2.05406 3.90(4) 731. 3.909 3.921
99195. 2.05467 3.89(4) 736. 3.909 3.914
99224. 2.05529 3.90(4) 726. 3.910 3.914
99254. 2.05591 3.82(4) 750. 3.911 3.914
99284. 2.05652 3.87(4) 726. 3.911 3.914
99314. 2.05714 3.84(4) 734. 3.912 3.915
99344. 2.05776 3.82(4) 738. 3.913 3.915
99373. 2.05837 3.83(4) 731. 3.913 3.916
99403. 2.05899 3.88(4) 715. 3.914 3.914
99433. 2.05961 3.90(4) 708. 3.914 3.915
99463. 2.06023 3.85(4) 718. 3.915 3.915
99493. 2.06085 3.97(4) 686. 3.916 3.916
99522. 2.06146 3.91(4) 694. 3.916 3.917
99552. 2.06208 3.93(4) 696. 3.917 3.917
99582. 2.06270 3.96(4) 685. 3.918 3.918
99612. 2.06332 3.99(4) 674. 3.918 3.919
99642. 2.06394 4.01(4) 664. 3.919 3.920
99672. 2.06456 3.99(4) 678. 3.919 3.923
99702. 2.06518 4.02(4) 678. 3.920 3.931
99732. 2.06580 4.02(4) 657. 3.920 3.949
99762. 2.06642 4.03(4) 647. 3.921 3.973
99792. 2.06704 4.04(4) 645. 3.922 3.988
99821. 2.06766 4.08(4) 632. 3.922 3.984
99851. 2.06828 4.06(4) 625. 3.923 3.968
99881. 2.06890 4.01(4) 624. 3.923 3.951
99911. 2.06952 3.93(4) 641. 3.924 3.939
99941. 2.07014 3.98(4) 631. 3.924 3.933
99971. 2.07076 3.95(4) 630. 3.925 3.930
100001. 2.07138 3.93(4) 630. 3.926 3.928
100031. 2.07200 3.87(4) 648. 3.926 3.928
100061. 2.07263 3.91(4) 642. 3.927 3.928
100091. 2.07325 3.98(4) 621. 3.927 3.928
100121. 2.07387 3.91(4) 640. 3.928 3.928
100151. 2.07449 3.89(4) 647. 3.928 3.929
100181. 2.07511 3.86(4) 655. 3.929 3.929
100211. 2.07574 3.92(4) 649. 3.929 3.930
100242. 2.07636 3.92(4) 645. 3.930 3.930
100272. 2.07698 3.92(4) 647. 3.931 3.931
100302. 2.07761 3.90(4) 652. 3.931 3.931
100332. 2.07823 3.94(4) 640. 3.932 3.932
100362. 2.07885 3.92(4) 650. 3.932 3.932
100392. 2.07948 3.87(4) 666. 3.933 3.933
100422. 2.08010 3.89(4) 662. 3.933 3.933
100452. 2.08073 3.96(4) 645. 3.934 3.934
100482. 2.08135 3.91(4) 644. 3.934 3.934
100512. 2.08197 3.96(4) 638. 3.935 3.936
100543. 2.08260 4.02(4) 622. 3.935 3.937
100573. 2.08322 4.00(4) 630. 3.936 3.937
100603. 2.08385 3.94(4) 637. 3.936 3.938
100633. 2.08447 4.01(4) 615. 3.937 3.939
100663. 2.08510 3.93(4) 627. 3.937 3.939
100694. 2.08573 3.92(4) 624. 3.938 3.940
100724. 2.08635 3.93(4) 619. 3.938 3.941
100754. 2.08698 3.96(4) 607. 3.939 3.942
100784. 2.08760 3.96(4) 605. 3.939 3.943
100814. 2.08823 4.00(4) 593. 3.940 3.944
100845. 2.08886 3.89(4) 614. 3.940 3.945
100875. 2.08948 3.97(4) 592. 3.941 3.946
100905. 2.09011 3.98(4) 581. 3.941 3.947
100935. 2.09074 3.94(4) 587. 3.942 3.949
100966. 2.09137 3.97(4) 582. 3.942 3.951
100996. 2.09199 3.97(4) 576. 3.942 3.954
101026. 2.09262 4.00(4) 570. 3.943 3.958
101057. 2.09325 4.02(4) 562. 3.943 3.964
101087. 2.09388 4.12(4) 534. 3.944 3.979
101117. 2.09450 4.07(4) 550. 3.944 4.033
101148. 2.09513 4.29(4) 518. 3.945 4.212
101178. 2.09576 4.60(5) 474. 3.945 4.617
101208. 2.09639 5.23(5) 390. 3.946 5.193
101239. 2.09702 5.88(6) 325.9 3.946 5.597
101269. 2.09765 5.69(5) 345.2 3.947 5.521
101299. 2.09828 5.13(5) 406. 3.947 5.102
101330. 2.09891 4.64(5) 476. 3.947 4.656
101360. 2.09954 4.31(4) 534. 3.948 4.343
101391. 2.10017 4.16(4) 567. 3.948 4.163
101421. 2.10080 4.10(4) 584. 3.949 4.067
101451. 2.10143 4.06(4) 594. 3.949 4.016
101482. 2.10206 4.05(4) 598. 3.950 3.990
101512. 2.10269 4.07(4) 593. 3.950 3.975
101543. 2.10332 4.05(4) 603. 3.950 3.967
101573. 2.10395 4.05(4) 603. 3.951 3.963
101604. 2.10458 4.03(4) 613. 3.951 3.961
101634. 2.10521 4.02(4) 614. 3.952 3.959
101665. 2.10585 4.03(4) 622. 3.952 3.959
101695. 2.10648 4.01(4) 633. 3.953 3.958
101726. 2.10711 4.03(4) 630. 3.953 3.958
101756. 2.10774 4.00(4) 642. 3.953 3.958
101787. 2.10837 4.03(4) 641. 3.954 3.958
101817. 2.10901 4.01(4) 639. 3.954 3.959
101848. 2.10964 3.98(4) 655. 3.955 3.959
101878. 2.11027 3.99(4) 652. 3.955 3.959
101909. 2.11091 3.98(4) 659. 3.955 3.960
101940. 2.11154 3.97(4) 667. 3.956 3.960
101970. 2.11217 3.97(4) 665. 3.956 3.960
102001. 2.11281 4.00(4) 656. 3.957 3.961
102031. 2.11344 4.04(4) 646. 3.957 3.962
102062. 2.11408 4.03(4) 650. 3.957 3.965
102093. 2.11471 4.02(4) 648. 3.958 3.971
102123. 2.11534 4.07(4) 641. 3.958 3.992
102154. 2.11598 4.22(4) 610. 3.959 4.053
102184. 2.11661 4.28(4) 597. 3.959 4.175
102215. 2.11725 4.42(4) 575. 3.959 4.324
102246. 2.11788 4.56(4) 544. 3.960 4.402
102276. 2.11852 4.56(4) 540. 3.960 4.365
102307. 2.11916 4.44(4) 557. 3.961 4.292
102338. 2.11979 4.35(4) 574. 3.961 4.276
102369. 2.12043 4.47(4) 545. 3.961 4.318
102399. 2.12106 4.47(4) 537. 3.962 4.338
102430. 2.12170 4.41(4) 544. 3.962 4.281
102461. 2.12234 4.24(4) 572. 3.963 4.184
102491. 2.12297 4.18(4) 583. 3.963 4.098
102522. 2.12361 4.20(4) 569. 3.963 4.044
102553. 2.12425 4.11(4) 585. 3.964 4.016
102584. 2.12489 4.10(4) 577. 3.964 4.005
102614. 2.12552 4.12(4) 572. 3.964 4.003
102645. 2.12616 4.10(4) 575. 3.965 4.008
102676. 2.12680 4.07(4) 577. 3.965 4.017
102707. 2.12744 4.12(4) 567. 3.965 4.032
102738. 2.12808 4.15(4) 561. 3.966 4.051
102768. 2.12871 4.09(4) 572. 3.966 4.074
102799. 2.12935 4.10(4) 570. 3.967 4.103
102830. 2.12999 4.13(4) 564. 3.967 4.138
102861. 2.13063 4.11(4) 570. 3.967 4.179
102892. 2.13127 4.17(4) 560. 3.968 4.225
102923. 2.13191 4.18(4) 558. 3.968 4.277
102954. 2.13255 4.21(4) 559. 3.968 4.333
102985. 2.13319 4.22(4) 559. 3.969 4.393
103015. 2.13383 4.28(4) 553. 3.969 4.456
103046. 2.13447 4.32(4) 551. 3.970 4.519
103077. 2.13511 4.43(4) 532. 3.970 4.581
103108. 2.13575 4.56(4) 514. 3.970 4.639
103139. 2.13639 4.66(4) 503. 3.971 4.691
103170. 2.13703 4.66(4) 506. 3.971 4.735
103201. 2.13767 4.64(4) 504. 3.971 4.770
103232. 2.13831 4.52(4) 525. 3.972 4.793
103263. 2.13896 4.60(4) 513. 3.972 4.804
103294. 2.13960 4.65(4) 508. 3.972 4.801
103325. 2.14024 4.67(4) 513. 3.973 4.786
103356. 2.14088 4.61(4) 529. 3.973 4.759
103387. 2.14153 4.48(4) 550. 3.973 4.720
103418. 2.14217 4.40(4) 562. 3.974 4.673
103449. 2.14281 4.42(4) 554. 3.974 4.619
103480. 2.14345 4.30(4) 575. 3.974 4.560
103511. 2.14410 4.26(4) 588. 3.975 4.498
103542. 2.14474 4.25(4) 587. 3.975 4.435
103573. 2.14538 4.21(4) 596. 3.976 4.374
103604. 2.14603 4.25(4) 585. 3.976 4.316
103635. 2.14667 4.24(4) 584. 3.976 4.262
103666. 2.14732 4.19(4) 596. 3.977 4.213
103697. 2.14796 4.23(4) 583. 3.977 4.170
103729. 2.14860 4.19(4) 589. 3.977 4.132
103760. 2.14925 4.13(4) 593. 3.978 4.100
103791. 2.14989 4.14(4) 582. 3.978 4.074
103822. 2.15054 4.16(4) 581. 3.978 4.052
103853. 2.15118 4.15(4) 581. 3.979 4.035
103884. 2.15183 4.12(4) 579. 3.979 4.021
103915. 2.15248 4.09(4) 585. 3.979 4.010
103947. 2.15312 4.13(4) 568. 3.980 4.002
103978. 2.15377 4.06(4) 578. 3.980 3.996
104009. 2.15441 4.13(4) 559. 3.980 3.992
104040. 2.15506 4.02(4) 578. 3.981 3.989
104071. 2.15571 4.12(4) 553. 3.981 3.987
104103. 2.15635 4.08(4) 559. 3.982 3.986
104134. 2.15700 4.01(4) 567. 3.982 3.985
104165. 2.15765 4.00(4) 568. 3.982 3.985
104196. 2.15830 4.04(4) 554. 3.983 3.984
104228. 2.15894 4.08(4) 543. 3.983 3.984
104259. 2.15959 4.04(4) 551. 3.983 3.984
104290. 2.16024 4.05(4) 551. 3.984 3.985
104321. 2.16089 3.99(4) 565. 3.984 3.985
104353. 2.16154 4.00(4) 560. 3.984 3.984
104384. 2.16218 3.96(4) 567. 3.985 3.985
104415. 2.16283 4.01(4) 565. 3.985 3.985
104447. 2.16348 4.02(4) 561. 3.985 3.985
104478. 2.16413 4.03(4) 558. 3.986 3.986
104509. 2.16478 4.06(4) 556. 3.986 3.986
104541. 2.16543 4.03(4) 566. 3.986 3.986
104572. 2.16608 4.01(4) 569. 3.987 3.987
104603. 2.16673 4.02(4) 570. 3.987 3.987
104635. 2.16738 4.02(4) 579. 3.988 3.988
104666. 2.16803 4.03(4) 576. 3.988 3.988
104698. 2.16868 4.06(4) 569. 3.988 3.988
104729. 2.16933 4.05(4) 575. 3.989 3.989
104760. 2.16998 4.02(4) 591. 3.989 3.989
104792. 2.17063 4.06(4) 589. 3.989 3.989
104823. 2.17128 4.02(4) 601. 3.990 3.990
104855. 2.17194 4.02(4) 595. 3.990 3.990
104886. 2.17259 3.97(4) 615. 3.990 3.990
104918. 2.17324 3.97(4) 608. 3.991 3.991
104949. 2.17389 4.02(4) 601. 3.991 3.991
104981. 2.17454 4.06(4) 592. 3.992 3.992
105012. 2.17520 3.99(4) 608. 3.992 3.992
105044. 2.17585 4.03(4) 596. 3.992 3.992
105075. 2.17650 4.01(4) 604. 3.993 3.993
105107. 2.17716 3.96(4) 618. 3.993 3.993
105138. 2.17781 3.94(4) 621. 3.993 3.993
105170. 2.17846 3.92(4) 624. 3.994 3.994
105201. 2.17912 4.00(4) 601. 3.994 3.994
105233. 2.17977 3.94(4) 611. 3.994 3.994
105264. 2.18042 3.98(4) 600. 3.995 3.995
105296. 2.18108 3.98(4) 596. 3.995 3.995
105328. 2.18173 4.00(4) 581. 3.996 3.996
105359. 2.18239 4.00(4) 583. 3.996 3.996
105391. 2.18304 3.98(4) 589. 3.996 3.996
105422. 2.18370 3.96(4) 584. 3.997 3.997
105454. 2.18435 4.02(4) 567. 3.997 3.997
105486. 2.18501 3.94(4) 578. 3.998 3.998
105517. 2.18566 3.99(4) 568. 3.998 3.998
105549. 2.18632 3.92(4) 578. 3.998 3.998
105581. 2.18698 3.99(4) 556. 3.999 3.999
105612. 2.18763 4.00(4) 548. 3.999 3.999
105644. 2.18829 4.00(4) 551. 3.999 3.999
105676. 2.18894 3.96(4) 554. 4.000 4.000
105707. 2.18960 4.01(4) 542. 4.000 4.000
105739. 2.19026 4.03(4) 537. 4.001 4.001
105771. 2.19092 4.00(4) 543. 4.001 4.001
105803. 2.19157 3.98(4) 541. 4.001 4.001
105834. 2.19223 4.01(4) 538. 4.002 4.002
105866. 2.19289 3.98(4) 540. 4.002 4.002
105898. 2.19355 3.99(4) 546. 4.003 4.003
105930. 2.19420 4.03(4) 539. 4.003 4.003
105961. 2.19486 4.05(4) 535. 4.003 4.003
105993. 2.19552 3.96(4) 556. 4.004 4.004
106025. 2.19618 3.96(4) 554. 4.004 4.004
106057. 2.19684 3.96(4) 557. 4.005 4.005
106089. 2.19750 3.95(4) 566. 4.005 4.005
106120. 2.19816 3.95(4) 563. 4.005 4.005
106152. 2.19882 3.91(4) 578. 4.006 4.006
106184. 2.19948 3.96(4) 573. 4.006 4.006
106216. 2.20014 3.89(4) 590. 4.007 4.007
106248. 2.20080 4.01(4) 567. 4.007 4.007
106280. 2.20146 3.97(4) 571. 4.007 4.007
106312. 2.20212 3.96(4) 583. 4.008 4.008
106343. 2.20278 4.00(4) 577. 4.008 4.008
106375. 2.20344 3.98(4) 577. 4.009 4.009
106407. 2.20410 3.92(4) 589. 4.009 4.009
106439. 2.20476 3.88(4) 603. 4.009 4.010
106471. 2.20542 3.96(4) 585. 4.010 4.010
106503. 2.20609 3.97(4) 583. 4.010 4.010
106535. 2.20675 4.00(4) 581. 4.011 4.011
106567. 2.20741 3.97(4) 586. 4.011 4.011
106599. 2.20807 4.00(4) 574. 4.011 4.012
106631. 2.20873 3.99(4) 576. 4.012 4.012
106663. 2.20940 4.03(4) 568. 4.012 4.013
106695. 2.21006 3.96(4) 578. 4.013 4.013
106727. 2.21072 3.93(4) 580. 4.013 4.014
106759. 2.21139 3.99(4) 566. 4.014 4.014
106791. 2.21205 4.02(4) 553. 4.014 4.015
106823. 2.21271 3.91(4) 577. 4.014 4.015
106855. 2.21338 3.97(4) 556. 4.015 4.016
106887. 2.21404 3.99(4) 551. 4.015 4.017
106919. 2.21471 4.02(4) 540. 4.016 4.020
106951. 2.21537 4.05(4) 525. 4.016 4.026
106983. 2.21604 4.04(4) 523. 4.017 4.036
107015. 2.21670 4.00(4) 530. 4.017 4.045
107047. 2.21737 4.03(4) 517. 4.017 4.048
107080. 2.21803 4.00(4) 517. 4.018 4.047
107112. 2.21870 4.04(4) 511. 4.018 4.054
107144. 2.21936 4.11(4) 494. 4.019 4.076
107176. 2.22003 4.10(5) 494. 4.019 4.106
107208. 2.22070 4.13(5) 485. 4.020 4.119
107240. 2.22136 4.10(5) 486. 4.020 4.104
107273. 2.22203 4.12(5) 479. 4.020 4.077
107305. 2.22269 4.10(5) 486. 4.021 4.054
107337. 2.22336 4.04(4) 494. 4.021 4.039
107369. 2.22403 4.01(4) 500. 4.022 4.031
107401. 2.22470 4.03(4) 495. 4.022 4.027
107434. 2.22536 4.02(4) 497. 4.023 4.026
107466. 2.22603 4.04(4) 494. 4.023 4.025
107498. 2.22670 4.03(4) 495. 4.023 4.025
107530. 2.22737 4.01(4) 504. 4.024 4.025
107562. 2.22804 4.04(4) 498. 4.024 4.025
107595. 2.22870 4.03(4) 507. 4.025 4.025
107627. 2.22937 4.06(4) 500. 4.025 4.026
107659. 2.23004 4.01(4) 511. 4.026 4.026
107692. 2.23071 4.06(4) 506. 4.026 4.026
107724. 2.23138 4.02(4) 512. 4.026 4.027
107756. 2.23205 3.98(4) 523. 4.027 4.027
107789. 2.23272 4.00(4) 523. 4.027 4.028
107821. 2.23339 4.07(4) 516. 4.028 4.028
107853. 2.23406 4.06(4) 519. 4.028 4.028
107886. 2.23473 4.07(4) 518. 4.029 4.029
107918. 2.23540 4.09(4) 512. 4.029 4.029
107950. 2.23607 4.04(4) 521. 4.030 4.030
107983. 2.23674 4.08(4) 519. 4.030 4.030
108015. 2.23741 4.04(4) 526. 4.030 4.030
108048. 2.23809 4.05(4) 527. 4.031 4.031
108080. 2.23876 4.08(4) 520. 4.031 4.031
108112. 2.23943 4.03(4) 525. 4.032 4.032
108145. 2.24010 4.13(4) 504. 4.032 4.032
108177. 2.24077 4.15(4) 498. 4.033 4.033
108210. 2.24145 4.13(4) 498. 4.033 4.033
108242. 2.24212 4.06(4) 511. 4.033 4.033
108275. 2.24279 4.10(4) 500. 4.034 4.034
108307. 2.24346 4.08(4) 502. 4.034 4.036
108340. 2.24414 4.05(4) 503. 4.035 4.036
108372. 2.24481 4.07(5) 492. 4.035 4.037
108405. 2.24548 4.06(5) 493. 4.036 4.038
108437. 2.24616 4.07(5) 488. 4.036 4.038
108470. 2.24683 4.14(5) 471. 4.036 4.039
108502. 2.24751 4.14(5) 463. 4.037 4.040
108535. 2.24818 4.09(5) 467. 4.037 4.040
108567. 2.24885 4.17(5) 451. 4.038 4.041
108600. 2.24953 4.15(5) 452. 4.038 4.042
108632. 2.25020 4.17(5) 448. 4.039 4.043
108665. 2.25088 4.20(5) 434. 4.039 4.044
108698. 2.25155 4.20(5) 432. 4.039 4.045
108730. 2.25223 4.10(5) 449. 4.040 4.047
108763. 2.25291 4.11(5) 441. 4.040 4.048
108796. 2.25358 4.13(5) 440. 4.041 4.050
108828. 2.25426 4.06(5) 451. 4.041 4.053
108861. 2.25493 4.04(5) 454. 4.041 4.056
108893. 2.25561 4.11(5) 441. 4.042 4.061
108926. 2.25629 4.21(5) 426. 4.042 4.070
108959. 2.25697 4.09(5) 445. 4.043 4.099
108992. 2.25764 4.26(5) 428. 4.043 4.203
109024. 2.25832 4.58(5) 393. 4.043 4.500
109057. 2.25900 5.03(5) 353. 4.044 5.062
109090. 2.25968 5.72(6) 294.7 4.044 5.698
109122. 2.26035 6.20(6) 260.1 4.045 5.957
109155. 2.26103 5.80(6) 288.2 4.045 5.670
109188. 2.26171 5.09(5) 348.5 4.045 5.135
109221. 2.26239 4.63(5) 403. 4.046 4.671
109253. 2.26307 4.36(5) 432. 4.046 4.385
109286. 2.26375 4.21(5) 458. 4.047 4.246
109319. 2.26443 4.20(5) 464. 4.047 4.207
109352. 2.26511 4.19(5) 464. 4.047 4.225
109385. 2.26578 4.28(5) 448. 4.048 4.247
109417. 2.26646 4.20(5) 464. 4.048 4.230
109450. 2.26714 4.15(5) 475. 4.048 4.182
109483. 2.26783 4.12(5) 482. 4.049 4.132
109516. 2.26851 4.13(5) 474. 4.049 4.097
109549. 2.26919 4.05(4) 496. 4.049 4.077
109582. 2.26987 4.09(5) 485. 4.050 4.066
109614. 2.27055 4.08(5) 490. 4.050 4.061
109647. 2.27123 4.04(5) 490. 4.050 4.058
109680. 2.27191 4.12(5) 472. 4.051 4.057
109713. 2.27259 4.08(5) 484. 4.051 4.056
109746. 2.27327 4.05(5) 487. 4.051 4.056
109779. 2.27396 3.97(4) 494. 4.052 4.056
109812. 2.27464 4.04(5) 479. 4.052 4.056
109845. 2.27532 4.07(5) 472. 4.052 4.058
109878. 2.27600 4.11(5) 465. 4.053 4.063
109911. 2.27669 4.06(5) 464. 4.053 4.069
109944. 2.27737 4.00(5) 476. 4.053 4.074
109977. 2.27805 4.11(5) 452. 4.054 4.074
110010. 2.27874 4.13(5) 444. 4.054 4.069
110043. 2.27942 4.10(5) 443. 4.054 4.063
110076. 2.28011 4.10(5) 446. 4.054 4.060
110109. 2.28079 4.08(5) 443. 4.055 4.058
110142. 2.28147 4.08(5) 439. 4.055 4.057
110175. 2.28216 4.04(5) 444. 4.055 4.056
110208. 2.28284 4.13(5) 423. 4.056 4.058
110241. 2.28353 4.03(5) 442. 4.056 4.058
110274. 2.28421 4.07(5) 431. 4.056 4.058
110307. 2.28490 4.12(5) 423. 4.056 4.058
110340. 2.28558 4.00(5) 441. 4.057 4.059
110373. 2.28627 4.05(5) 431. 4.057 4.059
110406. 2.28696 4.06(5) 431. 4.057 4.060
110440. 2.28764 4.05(5) 433. 4.057 4.060
110473. 2.28833 4.08(5) 426. 4.058 4.061
110506. 2.28902 4.04(5) 433. 4.058 4.062
110539. 2.28970 4.09(5) 430. 4.058 4.062
110572. 2.29039 4.07(5) 433. 4.058 4.063
110605. 2.29108 4.08(5) 438. 4.058 4.064
110638. 2.29176 4.05(5) 444. 4.059 4.065
110672. 2.29245 4.07(5) 445. 4.059 4.067
110705. 2.29314 4.17(5) 431. 4.059 4.068
110738. 2.29383 4.07(5) 451. 4.059 4.071
110771. 2.29452 4.07(5) 447. 4.059 4.074
110805. 2.29520 4.06(5) 453. 4.059 4.079
110838. 2.29589 4.07(5) 456. 4.060 4.090
110871. 2.29658 4.12(5) 454. 4.060 4.128
110904. 2.29727 4.29(5) 440. 4.060 4.260
110938. 2.29796 4.74(5) 390. 4.060 4.607
110971. 2.29865 5.44(6) 325.8 4.060 5.201
111004. 2.29934 6.20(6) 269.3 4.060 5.779
111037. 2.30003 6.31(6) 261.4 4.060 5.907
111071. 2.30072 5.82(6) 297.0 4.060 5.537
111104. 2.30141 5.14(5) 350.6 4.060 5.006
111137. 2.30210 4.69(5) 392. 4.061 4.586
111171. 2.30279 4.40(5) 422. 4.061 4.336
111204. 2.30348 4.17(5) 453. 4.061 4.204
111237. 2.30417 4.05(5) 467. 4.061 4.139
111271. 2.30487 4.06(5) 459. 4.061 4.105
111304. 2.30556 4.07(5) 458. 4.061 4.088
111338. 2.30625 4.03(5) 455. 4.061 4.079
111371. 2.30694 4.09(5) 442. 4.061 4.074
111404. 2.30763 4.02(5) 452. 4.061 4.070
111438. 2.30833 4.04(5) 444. 4.061 4.068
111471. 2.30902 4.06(5) 437. 4.061 4.067
111505. 2.30971 4.09(5) 429. 4.061 4.066
111538. 2.31040 4.03(5) 437. 4.061 4.065
111572. 2.31110 4.06(5) 427. 4.061 4.065
111605. 2.31179 4.10(5) 417. 4.061 4.064
111639. 2.31248 4.06(5) 417. 4.061 4.064
111672. 2.31318 4.05(5) 416. 4.061 4.063
111706. 2.31387 3.95(5) 434. 4.061 4.063
111739. 2.31457 4.09(5) 406. 4.061 4.063
111773. 2.31526 4.03(5) 417. 4.060 4.062
111806. 2.31596 4.13(5) 398. 4.060 4.060
111840. 2.31665 4.04(5) 409. 4.060 4.060
111873. 2.31735 3.99(5) 415. 4.060 4.060
111907. 2.31804 4.07(5) 404. 4.060 4.060
111940. 2.31874 4.03(5) 409. 4.060 4.060
111974. 2.31943 4.10(5) 401. 4.060 4.060
112007. 2.32013 4.09(5) 406. 4.060 4.060
112041. 2.32083 4.00(5) 420. 4.059 4.059
112075. 2.32152 4.08(5) 410. 4.059 4.059
112108. 2.32222 4.06(5) 412. 4.059 4.059
112142. 2.32291 4.05(5) 420. 4.059 4.059
112176. 2.32361 4.01(5) 426. 4.059 4.059
112209. 2.32431 4.01(5) 427. 4.058 4.059
112243. 2.32501 4.00(5) 436. 4.058 4.059
112277. 2.32570 4.02(5) 435. 4.058 4.059
112310. 2.32640 3.97(5) 448. 4.058 4.059
112344. 2.32710 3.97(5) 449. 4.057 4.059
112378. 2.32780 4.00(5) 447. 4.057 4.059
112411. 2.32850 4.06(5) 443. 4.057 4.059
112445. 2.32920 4.00(5) 454. 4.057 4.059
112479. 2.32989 4.06(5) 448. 4.056 4.060
112513. 2.33059 4.03(5) 453. 4.056 4.062
112546. 2.33129 4.11(5) 445. 4.056 4.070
112580. 2.33199 4.08(5) 450. 4.055 4.086
112614. 2.33269 4.08(5) 455. 4.055 4.107
112648. 2.33339 4.16(5) 441. 4.055 4.120
112681. 2.33409 4.13(5) 443. 4.054 4.115
112715. 2.33479 4.14(5) 440. 4.054 4.099
112749. 2.33549 4.10(5) 441. 4.053 4.083
112783. 2.33619 4.05(5) 449. 4.053 4.073
112817. 2.33689 4.02(5) 451. 4.053 4.068
112851. 2.33760 4.07(5) 439. 4.052 4.067
112884. 2.33830 3.98(5) 453. 4.052 4.069
112918. 2.33900 4.09(5) 432. 4.051 4.079
112952. 2.33970 4.14(5) 421. 4.051 4.115
112986. 2.34040 4.15(5) 424. 4.050 4.204
113020. 2.34111 4.46(5) 384. 4.050 4.370
113054. 2.34181 4.91(5) 333.2 4.049 4.604
113088. 2.34251 5.26(6) 299.7 4.049 4.887
113122. 2.34321 5.43(6) 285.1 4.048 5.193
113156. 2.34392 5.47(6) 280.2 4.048 5.398
113190. 2.34462 5.51(6) 272.6 4.047 5.323
113224. 2.34532 5.16(6) 297.0 4.046 5.001
113258. 2.34603 4.73(5) 332.2 4.046 4.636
113292. 2.34673 4.36(5) 371. 4.045 4.368
113325. 2.34744 4.16(5) 393. 4.045 4.213
113359. 2.34814 4.03(5) 407. 4.044 4.132
113394. 2.34884 3.94(5) 418. 4.043 4.092
113428. 2.34955 3.95(5) 416. 4.043 4.071
113462. 2.35025 3.96(5) 416. 4.042 4.060
113496. 2.35096 4.00(5) 404. 4.041 4.054
113530. 2.35166 3.90(5) 424. 4.041 4.050
113564. 2.35237 3.94(5) 422. 4.040 4.047
113598. 2.35308 3.94(5) 422. 4.039 4.045
113632. 2.35378 4.05(5) 405. 4.039 4.043
113666. 2.35449 3.96(5) 424. 4.038 4.042
113700. 2.35520 3.96(5) 428. 4.037 4.041
113734. 2.35590 4.00(5) 421. 4.036 4.039
113768. 2.35661 3.95(5) 433. 4.036 4.038
113802. 2.35732 3.88(5) 448. 4.035 4.037
113837. 2.35802 3.93(5) 444. 4.034 4.036
113871. 2.35873 3.98(5) 434. 4.033 4.035
113905. 2.35944 3.94(5) 450. 4.032 4.034
113939. 2.36015 3.96(5) 446. 4.032 4.033
113973. 2.36085 3.97(5) 452. 4.031 4.031
114007. 2.36156 3.98(5) 444. 4.030 4.030
114042. 2.36227 4.02(5) 440. 4.029 4.029
114076. 2.36298 3.97(5) 450. 4.028 4.028
114110. 2.36369 3.97(5) 449. 4.027 4.027
114144. 2.36440 4.02(5) 446. 4.026 4.026
114179. 2.36511 4.02(5) 447. 4.025 4.025
114213. 2.36582 3.98(5) 451. 4.024 4.024
114247. 2.36653 3.98(5) 449. 4.023 4.023
114281. 2.36724 3.97(5) 445. 4.023 4.023
114316. 2.36795 3.97(5) 447. 4.022 4.022
114350. 2.36866 4.03(5) 430. 4.021 4.021
114384. 2.36937 3.97(5) 442. 4.020 4.020
114418. 2.37008 3.99(5) 434. 4.019 4.019
114453. 2.37079 4.02(5) 427. 4.018 4.018
114487. 2.37150 4.03(5) 421. 4.017 4.017
114521. 2.37221 4.03(5) 417. 4.015 4.015
114556. 2.37293 3.99(5) 420. 4.014 4.015
114590. 2.37364 3.97(5) 420. 4.013 4.014
114625. 2.37435 4.07(5) 399. 4.012 4.013
114659. 2.37506 3.99(5) 410. 4.011 4.012
114693. 2.37578 4.02(5) 402. 4.010 4.011
114728. 2.37649 4.04(5) 395. 4.009 4.010
114762. 2.37720 4.01(5) 397. 4.008 4.009
114797. 2.37792 4.05(5) 390. 4.007 4.008
114831. 2.37863 4.02(5) 394. 4.006 4.007
114866. 2.37934 3.96(5) 399. 4.004 4.006
114900. 2.38006 3.98(5) 399. 4.003 4.005
114934. 2.38077 4.01(5) 388. 4.002 4.004
114969. 2.38148 4.05(5) 383. 4.001 4.003
115003. 2.38220 3.96(5) 402. 4.000 4.002
115038. 2.38291 3.97(5) 401. 3.999 4.001
115072. 2.38363 4.02(5) 394. 3.997 4.000
115107. 2.38434 4.00(5) 399. 3.996 4.000
115141. 2.38506 4.00(5) 402. 3.995 4.000
115176. 2.38578 4.01(5) 404. 3.994 4.000
115211. 2.38649 3.96(5) 418. 3.992 4.001
115245. 2.38721 3.98(5) 414. 3.991 4.005
115280. 2.38792 4.03(5) 414. 3.990 4.024
115314. 2.38864 4.02(5) 420. 3.989 4.089
115349. 2.38936 4.04(5) 419. 3.987 4.246
115384. 2.39007 4.19(5) 403. 3.986 4.487
115418. 2.39079 4.35(5) 383. 3.985 4.680
115453. 2.39151 4.51(5) 364. 3.983 4.677
115487. 2.39223 4.39(5) 380. 3.982 4.504
115522. 2.39294 4.23(5) 405. 3.981 4.299
115557. 2.39366 4.11(5) 421. 3.979 4.150
115591. 2.39438 4.06(5) 429. 3.978 4.065
115626. 2.39510 4.03(5) 434. 3.977 4.022
115661. 2.39582 3.98(5) 440. 3.975 4.014
115695. 2.39654 4.01(5) 434. 3.974 4.004
115730. 2.39726 3.97(5) 444. 3.972 3.999
115765. 2.39797 3.94(5) 445. 3.971 3.996
115800. 2.39869 3.93(5) 444. 3.970 3.995
115834. 2.39941 3.93(5) 440. 3.968 3.994
115869. 2.40013 3.96(5) 434. 3.967 3.995
115904. 2.40085 3.94(5) 436. 3.966 3.996
115939. 2.40157 3.90(5) 437. 3.964 3.997
115973. 2.40230 3.94(5) 429. 3.963 3.999
116008. 2.40302 3.94(5) 425. 3.961 4.003
116043. 2.40374 3.94(5) 423. 3.960 4.007
116078. 2.40446 3.99(5) 412. 3.958 4.012
116113. 2.40518 3.95(5) 413. 3.957 4.019
116147. 2.40590 3.99(5) 407. 3.956 4.029
116182. 2.40662 3.94(5) 412. 3.954 4.042
116217. 2.40735 3.99(5) 400. 3.953 4.059
116252. 2.40807 4.01(5) 392. 3.951 4.085
116287. 2.40879 4.03(5) 389. 3.950 4.123
116322. 2.40951 4.12(5) 377. 3.948 4.200
116357. 2.41024 4.53(5) 335.0 3.947 4.446
116392. 2.41096 5.58(6) 258.6 3.945 5.347
116426. 2.41168 7.90(8) 157.0 3.944 7.958
116461. 2.41241 12.67(12) 73.2 3.942 13.073
116496. 2.41313 18.50(16) 38.2 3.941 19.159
116531. 2.41385 21.27(18) 29.93 3.940 22.058
116566. 2.41458 18.34(16) 38.6 3.938 19.706
116601. 2.41530 13.05(12) 68.9 3.937 14.616
116636. 2.41603 8.78(9) 130.2 3.935 10.007
116671. 2.41675 6.37(7) 211.5 3.934 7.082
116706. 2.41748 5.06(6) 290.7 3.932 5.534
116741. 2.41820 4.48(5) 342.9 3.931 4.770
116776. 2.41893 4.28(5) 361. 3.929 4.396
116811. 2.41966 4.13(5) 386. 3.928 4.207
116846. 2.42038 4.06(5) 395. 3.926 4.108
116881. 2.42111 4.00(5) 403. 3.925 4.052
116916. 2.42183 3.96(5) 412. 3.923 4.019
116952. 2.42256 3.93(5) 419. 3.922 3.998
116987. 2.42329 3.93(5) 418. 3.921 3.983
117022. 2.42402 3.96(5) 414. 3.919 3.971
117057. 2.42474 3.93(5) 419. 3.918 3.962
117092. 2.42547 3.97(5) 416. 3.916 3.955
117127. 2.42620 3.96(5) 422. 3.915 3.949
117162. 2.42693 3.91(5) 427. 3.913 3.944
117197. 2.42765 3.87(5) 434. 3.912 3.939
117232. 2.42838 4.00(5) 412. 3.911 3.935
117268. 2.42911 3.92(5) 423. 3.909 3.931
117303. 2.42984 3.94(5) 418. 3.908 3.928
117338. 2.43057 3.97(5) 415. 3.906 3.906
117373. 2.43130 3.93(5) 420. 3.905 3.905
117408. 2.43203 3.96(5) 408. 3.904 3.904
117444. 2.43276 3.95(5) 405. 3.902 3.902
117479. 2.43349 3.97(5) 397. 3.901 3.901
117514. 2.43422 3.92(5) 398. 3.899 3.899
117549. 2.43495 3.95(5) 395. 3.898 3.898
117585. 2.43568 3.92(5) 388. 3.897 3.897
117620. 2.43641 3.93(5) 387. 3.895 3.895
117655. 2.43714 4.03(5) 371. 3.894 3.894
117691. 2.43787 3.93(5) 381. 3.893 3.893
117726. 2.43860 3.98(5) 370. 3.892 3.892
117761. 2.43934 4.07(5) 353. 3.890 3.890
117796. 2.44007 3.98(5) 362. 3.889 3.889
117832. 2.44080 4.00(5) 356. 3.888 3.888
117867. 2.44153 4.02(5) 352. 3.886 3.886
117903. 2.44226 3.99(5) 357. 3.885 3.885
117938. 2.44300 4.02(5) 347.5 3.884 3.884
117973. 2.44373 4.00(5) 349.9 3.883 3.883
118009. 2.44446 4.06(5) 341.8 3.882 3.882
118044. 2.44520 4.04(5) 346.8 3.880 3.880
118079. 2.44593 4.03(5) 346.6 3.879 3.879
118115. 2.44667 4.00(5) 351. 3.878 3.878
118150. 2.44740 4.02(5) 354. 3.877 3.877
118186. 2.44813 4.00(5) 356. 3.876 3.876
118221. 2.44887 3.98(5) 359. 3.875 3.875
118257. 2.44960 3.99(5) 358. 3.874 3.874
118292. 2.45034 3.98(5) 364. 3.873 3.873
118328. 2.45107 4.11(5) 347.5 3.871 3.871
118363. 2.45181 4.04(5) 361. 3.870 3.870
118399. 2.45254 3.99(5) 371. 3.869 3.869
118434. 2.45328 4.09(5) 356. 3.868 3.868
118470. 2.45402 4.00(5) 372. 3.867 3.867
118505. 2.45475 4.01(5) 373. 3.866 3.866
118541. 2.45549 4.10(5) 360. 3.865 3.865
118576. 2.45623 4.04(5) 372. 3.865 3.879
118612. 2.45696 4.05(5) 371. 3.864 3.879
118648. 2.45770 3.94(5) 385. 3.863 3.879
118683. 2.45844 3.98(5) 385. 3.862 3.880
118719. 2.45918 4.02(5) 377. 3.861 3.881
118754. 2.45991 4.10(5) 363. 3.860 3.882
118790. 2.46065 4.02(5) 375. 3.859 3.884
118826. 2.46139 4.03(5) 372. 3.859 3.886
118861. 2.46213 3.98(5) 375. 3.858 3.888
118897. 2.46287 3.96(5) 377. 3.857 3.891
118933. 2.46361 3.98(5) 370. 3.856 3.895
118968. 2.46435 4.01(5) 367. 3.856 3.901
119004. 2.46509 3.97(5) 365. 3.855 3.907
119040. 2.46582 4.00(5) 358. 3.854 3.916
119075. 2.46656 4.04(5) 351. 3.854 3.927
119111. 2.46730 4.02(5) 352. 3.853 3.942
119147. 2.46804 4.03(5) 347.7 3.852 3.963
119183. 2.46879 4.06(5) 341.0 3.852 3.992
119218. 2.46953 4.24(6) 318.6 3.851 4.043
119254. 2.47027 4.51(6) 293.5 3.851 4.178
119290. 2.47101 4.98(6) 261.6 3.850 4.669
119326. 2.47175 6.49(7) 180.9 3.850 6.272
119361. 2.47249 9.40(10) 103.2 3.849 9.995
119397. 2.47323 14.19(14) 51.5 3.849 15.521
119433. 2.47398 18.79(18) 31.21 3.848 19.824
119469. 2.47472 18.95(18) 30.30 3.848 19.587
119505. 2.47546 15.39(15) 42.8 3.848 15.565
119541. 2.47620 10.96(12) 74.4 3.847 10.912
119576. 2.47695 7.87(9) 125.0 3.847 7.583
119612. 2.47769 5.96(7) 190.0 3.847 5.727
119648. 2.47843 5.00(6) 237.8 3.846 4.805
119684. 2.47918 4.50(6) 273.4 3.846 4.361
119720. 2.47992 4.22(6) 303.2 3.846 4.144
119756. 2.48066 4.05(6) 319.1 3.846 4.034
119792. 2.48141 4.11(6) 311.4 3.845 3.974
119828. 2.48215 4.08(6) 308.0 3.845 3.940
119864. 2.48290 3.99(6) 318.9 3.845 3.919
119900. 2.48364 3.98(6) 319.8 3.845 3.905
119936. 2.48439 3.99(6) 314.4 3.845 3.895
119972. 2.48513 4.04(6) 308.0 3.845 3.888
120008. 2.48588 3.95(6) 320.0 3.845 3.882
120044. 2.48663 3.97(6) 318.2 3.845 3.877
120080. 2.48737 3.85(5) 332.9 3.845 3.874
120116. 2.48812 3.86(5) 333.6 3.845 3.870
120152. 2.48887 3.91(6) 327.0 3.845 3.868
120188. 2.48961 3.89(6) 329.3 3.845 3.866
120224. 2.49036 3.94(6) 322.4 3.845 3.864
120260. 2.49111 3.90(6) 328.7 3.845 3.862
120296. 2.49185 3.83(5) 336.5 3.845 3.845
120332. 2.49260 3.78(5) 335.0 3.845 3.845
120368. 2.49335 3.78(5) 339.5 3.845 3.845
120404. 2.49410 3.90(6) 322.8 3.845 3.845
120440. 2.49485 3.86(6) 324.1 3.846 3.845
120477. 2.49559 3.85(6) 323.0 3.846 3.846
120513. 2.49634 3.89(6) 317.5 3.846 3.846
120549. 2.49709 3.92(6) 309.0 3.846 3.846
120585. 2.49784 3.93(6) 303.7 3.846 3.846
120621. 2.49859 3.83(6) 309.6 3.846 3.846
120657. 2.49934 3.83(6) 308.9 3.847 3.847
120694. 2.50009 3.82(6) 308.6 3.847 3.847
120730. 2.50084 3.83(6) 298.4 3.847 3.847
120766. 2.50159 3.88(6) 294.5 3.847 3.847
120802. 2.50234 3.82(6) 296.8 3.848 3.848
120838. 2.50309 3.86(6) 289.5 3.848 3.848
120875. 2.50384 3.83(6) 294.2 3.848 3.848
120911. 2.50460 3.76(6) 295.7 3.848 3.848
120947. 2.50535 3.83(6) 285.0 3.849 3.849
120984. 2.50610 3.81(6) 289.7 3.849 3.849
121020. 2.50685 3.82(6) 284.7 3.849 3.849
121056. 2.50760 3.76(6) 290.2 3.849 3.849
121092. 2.50836 3.85(6) 281.2 3.850 3.850
121129. 2.50911 3.83(6) 285.5 3.850 3.850
121165. 2.50986 3.80(6) 286.6 3.850 3.850
121201. 2.51061 3.85(6) 281.6 3.850 3.850
121238. 2.51137 3.81(6) 289.7 3.851 3.851
121274. 2.51212 3.80(6) 291.4 3.851 3.851
121311. 2.51287 3.70(6) 302.5 3.851 3.851
121347. 2.51363 3.75(6) 298.2 3.851 3.851
121383. 2.51438 3.80(6) 295.7 3.851 3.855
121420. 2.51514 3.74(6) 303.5 3.851 3.855
121456. 2.51589 3.62(6) 312.0 3.851 3.856
121493. 2.51665 3.70(6) 311.3 3.851 3.856
121529. 2.51740 3.72(6) 313.3 3.852 3.856
121566. 2.51816 3.75(6) 314.5 3.852 3.857
121602. 2.51891 3.70(5) 330.7 3.851 3.857
121638. 2.51967 3.79(6) 326.8 3.851 3.858
121675. 2.52043 3.85(6) 322.2 3.851 3.859
121711. 2.52118 3.77(6) 329.5 3.851 3.859
121748. 2.52194 3.82(6) 322.4 3.851 3.860
121785. 2.52269 3.74(5) 335.2 3.851 3.861
121821. 2.52345 3.74(6) 328.8 3.850 3.863
121858. 2.52421 3.71(5) 334.7 3.850 3.864
121894. 2.52497 3.73(5) 337.7 3.850 3.866
121931. 2.52572 3.69(5) 334.3 3.849 3.869
121967. 2.52648 3.68(5) 333.7 3.849 3.873
122004. 2.52724 3.80(6) 314.2 3.848 3.878
122041. 2.52800 3.72(6) 320.2 3.847 3.885
122077. 2.52876 3.79(6) 312.2 3.847 3.898
122114. 2.52952 3.85(6) 306.1 3.846 3.934
122150. 2.53027 4.09(6) 284.2 3.845 4.063
122187. 2.53103 4.52(6) 249.7 3.844 4.488
122224. 2.53179 5.35(7) 195.3 3.843 5.482
122260. 2.53255 6.50(8) 145.7 3.842 6.975
122297. 2.53331 7.67(10) 110.4 3.840 8.168
122334. 2.53407 7.89(10) 103.3 3.839 8.142
122370. 2.53483 7.07(9) 120.5 3.837 7.063
122407. 2.53559 5.94(8) 153.8 3.836 5.784
122444. 2.53636 4.91(7) 200.3 3.834 4.859
122481. 2.53712 4.37(7) 231.6 3.832 4.343
122517. 2.53788 4.04(6) 254.1 3.830 4.088
122554. 2.53864 3.90(6) 264.4 3.828 3.965
122591. 2.53940 3.84(6) 268.6 3.826 3.905
122628. 2.54016 3.75(6) 272.1 3.824 3.874
122664. 2.54093 3.80(6) 265.2 3.821 3.855
122701. 2.54169 3.68(6) 279.8 3.818 3.844
122738. 2.54245 3.71(6) 277.6 3.816 3.836
122775. 2.54321 3.67(6) 276.8 3.813 3.829
122812. 2.54398 3.80(6) 265.6 3.809 3.823
122849. 2.54474 3.79(6) 262.3 3.806 3.818
122885. 2.54550 3.71(6) 272.9 3.802 3.813
122922. 2.54627 3.70(6) 276.9 3.799 3.808
122959. 2.54703 3.77(6) 267.5 3.795 3.803
122996. 2.54779 3.84(6) 261.2 3.791 3.798
123033. 2.54856 3.74(6) 273.6 3.786 3.792
123070. 2.54932 3.75(6) 274.7 3.782 3.787
123107. 2.55009 3.65(6) 277.2 3.777 3.782
123144. 2.55085 3.71(6) 276.9 3.772 3.776
123181. 2.55162 3.72(6) 274.8 3.766 3.766
123218. 2.55239 3.77(6) 267.2 3.761 3.761
123255. 2.55315 3.83(6) 260.6 3.755 3.755
123292. 2.55392 3.75(6) 265.2 3.749 3.749
123328. 2.55468 3.81(6) 258.6 3.743 3.743
123365. 2.55545 3.76(6) 265.9 3.736 3.736
123402. 2.55622 3.86(6) 251.9 3.729 3.729
123440. 2.55698 3.80(6) 253.0 3.722 3.722
123477. 2.55775 3.78(6) 255.3 3.714 3.714
123514. 2.55852 3.91(6) 237.2 3.707 3.707
123551. 2.55929 3.88(6) 239.3 3.698 3.698
123588. 2.56005 3.79(6) 245.7 3.690 3.690
123625. 2.56082 3.74(6) 243.7 3.681 3.681
123662. 2.56159 3.82(7) 233.3 3.672 3.672
123699. 2.56236 3.85(7) 228.5 3.662 3.662
123736. 2.56313 3.87(7) 222.3 3.652 3.652
123773. 2.56390 3.84(7) 219.7 3.642 3.642
123810. 2.56467 3.89(7) 214.3 3.631 3.631
123847. 2.56544 3.90(7) 209.2 3.619 3.619
123885. . 3.82(7) . . .
123922. . 3.84(7) . . .
123959. . 3.88(7) . . .
123996. . 3.95(7) . . .
124033. . 3.81(7) . . .
124071. . 3.81(7) . . .
124108. . 3.80(7) . . .
124145. . 3.74(7) . . .
124182. . 3.75(7) . . .
124220. . 3.82(7) . . .
124257. . 3.84(7) . . .
124294. . 3.87(7) . . .
124331. . 3.90(7) . . .
124369. . 3.86(7) . . .
124406. . 3.90(7) . . .
124443. . 3.83(7) . . .
124481. . 3.89(7) . . .
124518. . 3.84(7) . . .
124555. . 3.77(7) . . .
124593. . 3.89(7) . . .
124630. . 3.74(7) . . .
124667. . 3.77(7) . . .
124705. . 3.86(7) . . .
124742. . 3.92(7) . . .
124780. . 3.96(7) . . .
124817. . 4.26(8) . . .
124855. . 4.58(8) . . .
124892. . 4.89(8) . . .
124929. . 4.67(8) . . .
124967. . 4.33(8) . . .
125005. . -0.001240(22) . . .
loop_
_refln_index_h
_refln_index_k
_refln_index_l
_pd_refln_phase_id
_refln_observed_status
_refln_F_squared_meas
_refln_F_squared_calc
_refln_phase_calc
_refln_d_spacing
_gsas_i100_meas
2 2 -2 1 o 23.513 30.219 0.00 2.53348 21.33
2 2 1 1 o 144.048 141.998 180.00 2.47411 100.00
1 1 4 1 o 154.400 171.335 0.00 2.41368 95.42
3 1 -1 1 o 3.169 5.347 0.00 2.39094 2.48
3 1 -2 1 o 7.403 8.679 180.00 2.34417 5.36
2 2 -3 1 o 1.587 1.561 0.00 2.34297 1.16
3 1 0 1 o 2.719 2.564 0.00 2.34195 1.99
1 3 0 1 o 0.252 0.489 0.00 2.33334 0.18
1 3 -1 1 o 0.000 0.000 0.00 2.31855 0.00
0 2 4 1 o 18.196 15.656 0.00 2.29963 12.16
1 1 -5 1 o 0.427 0.175 0.00 2.27744 0.28
2 2 2 1 o 1.456 1.453 180.00 2.26584 0.95
1 3 1 1 o 19.832 16.797 180.00 2.26011 12.44
1 3 -2 1 o 0.661 0.867 180.00 2.22048 0.40
3 1 -3 1 o 0.000 0.254 180.00 2.21689 0.00
3 1 1 1 o 0.000 0.000 0.00 2.21315 0.00
1 1 0 2 o 0.006 0.006 180.00 2.13870 15.53
1 3 2 1 o 5.238 3.337 180.00 2.12091 2.69
2 2 -4 1 o 7.165 4.437 180.00 2.11772 3.65
2 0 4 1 o 45.829 37.230 0.00 2.09703 10.70
1 3 -3 1 o 1.687 0.733 180.00 2.06699 0.79
3 1 -4 1 o 20.285 25.396 0.00 2.04374 8.81
3 1 2 1 o 95.708 94.904 180.00 2.03934 37.62
2 2 3 1 o 79.173 78.213 0.00 2.03854 31.72
1 1 5 1 o 5.139 3.385 0.00 2.03479 2.27
0 2 5 1 o 10.419 15.599 180.00 1.98381 4.13
0 0 6 1 o 27.815 33.605 180.00 1.96113 5.16
1 3 3 1 o 2.908 4.545 180.00 1.94886 1.10
1 1 -6 1 o 12.951 13.386 180.00 1.93393 4.70
2 0 -6 1 o 19.272 14.232 180.00 1.90900 3.33
2 2 -5 1 o 28.729 26.940 0.00 1.89580 9.54
1 3 -4 1 o 21.158 20.538 0.00 1.89069 7.01
4 0 -2 1 o 4.436 1.997 180.00 1.88525 0.75
3 1 -5 1 o 39.229 36.174 0.00 1.85760 11.98
3 1 3 1 o 0.106 0.073 0.00 1.85319 0.03
4 0 0 1 o 3.490 2.277 0.00 1.85233 0.55
0 4 0 1 o 5.400 6.210 180.00 1.84382 0.83
2 2 4 1 o 69.135 72.058 180.00 1.82290 18.97
0 4 1 1 o 2.881 2.847 180.00 1.82159 0.85
1 3 4 1 o 66.134 69.297 180.00 1.77131 16.46
3 3 -1 1 o 8.725 7.620 0.00 1.76226 2.28
0 4 2 1 o 6.854 5.184 180.00 1.75944 1.79
1 1 6 1 o 35.969 31.002 180.00 1.75185 8.96
4 0 -4 1 o 29.657 32.082 0.00 1.74329 3.63
3 3 -2 1 o 1.033 1.119 0.00 1.74328 0.26
3 3 0 1 o 4.776 5.905 0.00 1.74237 1.20
0 2 6 1 o 10.136 9.539 0.00 1.73150 2.48
1 3 -5 1 o 10.567 10.045 0.00 1.71531 2.50
2 2 -6 1 o 3.605 2.434 180.00 1.69531 0.82
3 3 -3 1 o 15.949 16.154 0.00 1.68899 3.54
3 3 1 1 o 5.797 5.143 0.00 1.68733 1.30
4 2 -1 1 o 30.075 24.588 0.00 1.68378 6.54
3 1 -6 1 o 0.707 0.614 180.00 1.67924 0.16
4 2 -2 1 o 3.759 3.676 180.00 1.67861 0.83
3 1 4 1 o 8.511 8.496 0.00 1.67517 1.85
1 1 -7 1 o 0.780 0.784 0.00 1.67508 0.17
0 4 3 1 o 9.453 9.141 180.00 1.66864 2.02
4 0 2 1 o 56.826 56.431 180.00 1.66825 5.79
2 4 -1 1 o 8.760 11.566 0.00 1.65638 1.82
4 2 0 1 o 0.495 0.593 0.00 1.65525 0.10
2 4 0 1 o 0.085 2.325 0.00 1.65068 0.02
4 2 -3 1 o 0.000 0.192 0.00 1.64063 0.00
2 2 5 1 o 1.496 6.247 180.00 1.63150 0.30
2 4 -2 1 o 0.000 0.003 0.00 1.62994 0.00
2 4 1 1 o 7.600 10.676 0.00 1.61379 1.44
3 3 -4 1 o 0.038 0.051 180.00 1.60854 0.01
3 3 2 1 o 45.397 49.137 0.00 1.60639 8.14
1 3 5 1 o 54.480 54.197 0.00 1.60417 9.68
2 0 6 1 o 11.320 12.847 180.00 1.59854 1.03
4 2 1 1 o 4.552 4.635 180.00 1.59781 0.83
4 2 -4 1 o 21.271 19.525 180.00 1.57605 3.66
2 4 -3 1 o 17.347 15.657 180.00 1.57568 2.99
0 4 4 1 o 4.662 5.263 0.00 1.56230 0.79
1 3 -6 1 o 21.765 19.124 0.00 1.55334 3.55
2 4 2 1 o 36.540 37.512 180.00 1.55158 5.84
1 1 7 1 o 51.491 52.875 0.00 1.53464 7.81
0 2 7 1 o 16.925 18.449 0.00 1.52955 2.61
2 2 -7 1 o 10.216 10.929 0.00 1.52130 1.55
4 2 2 1 o 17.168 18.312 0.00 1.51995 2.59
3 1 -7 1 o 12.336 11.664 180.00 1.51811 1.86
4 0 -6 1 o 0.212 0.207 180.00 1.51703 0.02
3 1 5 1 o 71.672 68.434 180.00 1.51451 10.24
3 3 -5 1 o 22.707 22.946 180.00 1.51294 3.35
3 3 3 1 o 40.182 39.470 180.00 1.51056 5.82
2 0 0 2 o 0.005 0.005 180.00 1.51229 2.02
2 4 -4 1 o 33.087 32.478 0.00 1.50145 4.71
4 2 -5 1 o 5.836 4.740 0.00 1.49387 0.83
5 1 -2 1 o 4.745 4.039 0.00 1.48423 0.66
5 1 -1 1 o 14.542 14.490 0.00 1.47985 1.99
2 0 -8 1 o 77.151 73.778 0.00 1.47902 5.04
1 1 -8 1 o 2.543 3.240 0.00 1.47465 0.35
2 4 3 1 o 6.030 6.426 0.00 1.47243 0.82
0 0 8 1 o 0.043 0.026 180.00 1.47085 0.00
2 2 6 1 o 0.245 0.160 180.00 1.46667 0.03
5 1 -3 1 o 14.733 10.338 180.00 1.46539 1.95
1 3 6 1 o 1.721 1.340 0.00 1.45415 0.22
5 1 0 1 o 10.833 9.663 0.00 1.45283 1.39
0 4 5 1 o 2.345 2.878 180.00 1.45140 0.30
1 5 0 1 o 2.589 4.349 0.00 1.44667 0.33
1 5 -1 1 o 77.350 73.672 0.00 1.44312 9.26
4 0 4 1 o 25.302 7.204 0.00 1.43597 1.56
4 2 3 1 o 0.882 0.268 0.00 1.43083 0.11
1 5 1 1 o 1.745 1.252 0.00 1.42870 0.21
5 1 -4 1 o 6.683 6.431 0.00 1.42583 0.80
1 5 -2 1 o 2.420 1.696 180.00 1.41853 0.29
2 4 -5 1 o 1.650 0.977 180.00 1.41585 0.19
3 3 -6 1 o 26.177 21.275 180.00 1.41181 3.00
3 3 4 1 o 1.804 1.434 0.00 1.40939 0.21
1 3 -7 1 o 6.348 4.997 180.00 1.40934 0.73
5 1 1 1 o 2.613 0.831 0.00 1.40670 0.30
4 2 -6 1 o 13.984 14.224 0.00 1.40296 1.58
1 5 2 1 o 1.647 1.588 0.00 1.39150 0.18
2 4 4 1 o 16.649 17.456 0.00 1.38469 1.78
3 1 -8 1 o 1.630 1.224 0.00 1.37669 0.17
1 5 -3 1 o 0.213 0.174 180.00 1.37594 0.02
3 1 6 1 o 29.568 27.757 0.00 1.37356 3.05
2 2 -8 1 o 4.701 4.733 0.00 1.37273 0.49
5 1 -5 1 o 0.044 0.061 180.00 1.37035 0.00
0 2 8 1 o 0.000 0.117 0.00 1.36618 0.00
1 1 8 1 o 0.000 0.095 180.00 1.36359 0.00
5 1 2 1 o 0.616 6.642 180.00 1.34670 0.06
0 4 6 1 o 0.295 1.053 180.00 1.34334 0.03
1 5 3 1 o 2.482 4.234 0.00 1.33937 0.24
4 2 4 1 o 2.609 2.780 0.00 1.33810 0.25
2 2 7 1 o 0.000 0.057 180.00 1.32626 0.00
2 4 -6 1 o 0.000 0.007 180.00 1.32622 0.00
1 3 7 1 o 0.003 0.008 180.00 1.32258 0.00
4 4 -1 1 o 26.581 31.726 180.00 1.32068 2.37
1 5 -4 1 o 0.195 0.226 180.00 1.32004 0.02
4 4 -2 1 o 0.147 0.187 180.00 1.31818 0.01
1 1 -9 1 o 13.132 17.845 0.00 1.31560 1.16
3 3 -7 1 o 0.748 0.985 180.00 1.31196 0.07
4 2 -7 1 o 13.033 13.494 180.00 1.31029 1.14
3 3 5 1 o 19.037 20.073 180.00 1.30963 1.66
4 4 0 1 o 8.184 8.817 0.00 1.30678 0.71
5 1 -6 1 o 6.586 9.313 180.00 1.30453 0.57
4 4 -3 1 o 6.499 6.797 180.00 1.29955 0.55
2 4 5 1 o 2.347 3.258 180.00 1.29500 0.20
4 0 -8 1 o 7.875 11.269 0.00 1.29340 0.33
5 3 -2 1 o 0.472 1.410 180.00 1.28991 0.04
5 3 -1 1 o 2.611 2.385 0.00 1.28703 0.22
1 3 -8 1 o 10.424 9.411 180.00 1.28360 0.85
5 1 3 1 o 31.509 30.885 0.00 1.27842 2.49
4 4 1 1 o 0.891 0.869 0.00 1.27795 0.07
5 3 -3 1 o 6.261 6.115 180.00 1.27748 0.50
1 5 4 1 o 3.471 3.395 0.00 1.27737 0.28
2 0 8 1 o 62.897 61.795 0.00 1.27717 2.43
3 5 -1 1 o 0.920 2.815 180.00 1.27396 0.07
5 3 0 1 o 26.175 27.121 180.00 1.26914 2.02
4 4 -4 1 o 0.075 0.090 180.00 1.26674 0.01
3 5 -2 1 o 0.435 0.520 180.00 1.26674 0.03
3 5 0 1 o 2.199 3.011 0.00 1.26639 0.17
6 0 -2 1 o 0.000 7.035 180.00 1.26372 0.00
1 5 -5 1 o 0.000 0.536 0.00 1.25588 0.00
3 1 -9 1 o 0.259 0.741 180.00 1.25413 0.02
3 1 7 1 o 23.986 28.801 0.00 1.25142 1.75
5 3 -4 1 o 3.187 3.845 180.00 1.25102 0.24
4 2 5 1 o 0.541 0.751 0.00 1.24709 0.04
2 2 -9 1 o 1.802 2.145 0.00 1.24639 0.13
3 5 -3 1 o 22.857 24.511 180.00 1.24544 1.65
3 5 1 1 o 10.170 9.950 180.00 1.24478 0.74
0 4 7 1 o 5.432 3.710 180.00 1.24221 0.39
5 3 1 1 o 5.390 4.805 0.00 1.23804 0.38
2 4 -7 1 o 0.974 0.884 0.00 1.23778 0.07
4 4 2 1 o 2.944 2.615 180.00 1.23706 0.21
6 0 -4 1 o 1.085 0.892 0.00 1.23619 0.04
6 0 0 1 o 38.754 32.014 0.00 1.23489 1.35
5 1 -7 1 o 33.980 28.603 180.00 1.23359 2.36
0 2 9 1 o 42.786 40.033 180.00 1.23226 2.94
2 1 1 2 o 0.005 0.004 180.00 1.23478 3.49
0 6 0 1 o 1.249 1.994 0.00 1.22921 0.04
1 1 9 1 o 4.746 5.861 180.00 1.22584 0.33
4 0 6 1 o 95.758 98.218 180.00 1.22316 3.10
4 4 -5 1 o 28.548 29.577 0.00 1.22287 1.92
0 6 1 1 o 13.886 14.421 180.00 1.22256 0.94
4 2 -8 1 o 1.380 1.213 180.00 1.22051 0.09
3 3 -8 1 o 11.681 13.620 180.00 1.21743 0.78
3 3 6 1 o 61.021 68.250 180.00 1.21526 3.92
5 3 -5 1 o 4.182 4.995 180.00 1.21304 0.28
3 5 -4 1 o 7.774 9.033 180.00 1.21211 0.51
3 5 2 1 o 10.428 11.343 180.00 1.21119 0.68
1 5 5 1 o 89.846 93.792 180.00 1.21024 5.61
1 3 8 1 o 27.178 24.519 0.00 1.20834 1.75
2 4 6 1 o 1.175 1.001 180.00 1.20782 0.08
2 2 8 1 o 2.891 2.256 0.00 1.20684 0.19
5 1 4 1 o 6.921 5.333 180.00 1.20668 0.45
0 6 2 1 o 13.845 10.642 0.00 1.20323 0.88
2 0 -10 1 o 1.635 0.269 180.00 1.19723 0.05
5 3 2 1 o 3.507 0.700 0.00 1.19655 0.22
6 2 -2 1 o 8.213 1.881 180.00 1.19547 0.51
6 2 -3 1 o 21.035 13.088 180.00 1.18964 1.29
6 2 -1 1 o 0.015 0.010 0.00 1.18906 0.00
1 5 -6 1 o 34.129 26.891 180.00 1.18796 2.06
4 4 3 1 o 3.184 2.529 0.00 1.18756 0.19
1 1 -10 1 o 7.074 4.905 180.00 1.18668 0.43
0 0 10 1 o 14.868 7.117 180.00 1.17668 0.44
1 3 -9 1 o 0.013 0.005 0.00 1.17457 0.00
0 6 3 1 o 0.995 0.615 0.00 1.17296 0.06
6 2 -4 1 o 1.914 1.585 0.00 1.17208 0.11
4 4 -6 1 o 13.554 13.139 180.00 1.17148 0.78
6 2 0 1 o 4.926 5.190 180.00 1.17098 0.28
3 5 -5 1 o 0.897 0.945 180.00 1.16960 0.05
2 6 -1 1 o 8.508 8.823 0.00 1.16868 0.49
3 5 3 1 o 81.713 84.222 0.00 1.16849 4.51
5 3 -6 1 o 2.609 2.322 180.00 1.16668 0.15
2 6 0 1 o 3.082 2.741 180.00 1.16667 0.18
6 0 -6 1 o 28.640 16.309 180.00 1.16219 0.80
5 1 -8 1 o 0.039 0.024 180.00 1.16160 0.00
4 2 6 1 o 0.007 0.005 180.00 1.16096 0.00
6 0 2 1 o 1.124 0.850 180.00 1.16003 0.03
2 6 -2 1 o 17.787 14.531 180.00 1.15928 0.99
2 4 -8 1 o 4.997 4.104 180.00 1.15371 0.27
2 6 1 1 o 2.877 2.431 180.00 1.15343 0.16
0 4 8 1 o 32.560 36.253 0.00 1.14982 1.73
3 1 -10 1 o 0.566 0.312 180.00 1.14829 0.03
5 3 3 1 o 0.724 0.349 0.00 1.14788 0.04
3 1 8 1 o 0.787 0.805 0.00 1.14595 0.04
6 2 -5 1 o 0.263 0.349 0.00 1.14431 0.01
6 2 1 1 o 2.451 2.476 180.00 1.14276 0.13
1 5 6 1 o 8.827 8.018 180.00 1.14179 0.46
2 6 -3 1 o 4.372 3.324 180.00 1.13927 0.23
2 2 -10 1 o 8.068 6.228 180.00 1.13872 0.42
4 2 -9 1 o 0.253 0.237 180.00 1.13622 0.01
5 1 5 1 o 43.254 41.658 180.00 1.13509 2.19
0 6 4 1 o 3.624 3.363 180.00 1.13418 0.19
4 4 4 1 o 0.045 0.057 0.00 1.13292 0.00
3 3 -9 1 o 5.806 7.512 0.00 1.13021 0.29
2 6 2 1 o 8.778 11.227 0.00 1.13006 0.44
3 3 7 1 o 19.373 23.407 0.00 1.12822 0.97
2 4 7 1 o 0.000 0.294 180.00 1.12571 0.00
0 2 10 1 o 3.637 3.607 0.00 1.12099 0.18
3 5 -6 1 o 3.592 3.543 0.00 1.12095 0.18
3 5 4 1 o 5.656 5.137 0.00 1.11974 0.28
1 5 -7 1 o 70.425 63.870 180.00 1.11971 3.35
4 4 -7 1 o 1.084 2.248 180.00 1.11590 0.05
5 3 -7 1 o 2.039 4.774 0.00 1.11510 0.10
1 1 10 1 o 6.668 9.704 180.00 1.11278 0.32
2 6 -4 1 o 0.877 4.160 180.00 1.11024 0.04
1 3 9 1 o 0.138 0.447 180.00 1.10937 0.01
6 2 -6 1 o 1.601 4.998 0.00 1.10845 0.08
6 2 2 1 o 1.202 2.256 0.00 1.10657 0.06
4 0 -10 1 o 10.249 11.596 180.00 1.10512 0.24
2 2 9 1 o 19.770 21.735 0.00 1.10491 0.91
2 6 3 1 o 31.463 26.946 0.00 1.09835 1.42
5 3 4 1 o 34.712 35.632 0.00 1.09510 1.54
5 1 -9 1 o 7.921 8.346 0.00 1.09139 0.35
0 6 5 1 o 26.225 28.091 180.00 1.08954 1.14
4 2 7 1 o 4.630 11.935 180.00 1.08128 0.20
1 1 -11 1 o 0.886 2.221 180.00 1.08026 0.04
1 3 -10 1 o 0.451 1.394 180.00 1.08009 0.02
4 4 5 1 o 0.411 0.502 0.00 1.07608 0.02
2 4 -9 1 o 21.688 23.254 180.00 1.07563 0.90
1 5 7 1 o 0.024 0.025 0.00 1.07469 0.00
2 6 -5 1 o 0.619 0.762 0.00 1.07426 0.03
7 1 -2 1 o 0.763 1.850 180.00 1.07111 0.03
7 1 -3 1 o 2.169 5.866 180.00 1.06988 0.09
3 5 -7 1 o 0.767 1.624 180.00 1.06897 0.03
3 5 5 1 o 9.525 12.814 0.00 1.06771 0.39
6 2 -7 1 o 0.174 0.206 0.00 1.06688 0.01
2 2 0 2 o 0.002 0.003 180.00 1.06935 0.40
0 4 9 1 o 0.041 0.047 0.00 1.06651 0.00
5 1 6 1 o 3.666 4.147 180.00 1.06603 0.15
6 2 3 1 o 5.731 5.761 0.00 1.06479 0.23
7 1 -1 1 o 0.288 0.279 0.00 1.06355 0.01
6 0 -8 1 o 7.511 7.266 0.00 1.06352 0.15
5 3 -8 1 o 23.285 19.675 0.00 1.06108 0.92
6 0 4 1 o 55.836 47.241 0.00 1.06104 1.09
2 6 4 1 o 0.875 0.760 180.00 1.06046 0.03
7 1 -4 1 o 0.018 0.016 180.00 1.05995 0.00
4 4 -8 1 o 1.461 1.496 0.00 1.05886 0.06
4 2 -10 1 o 0.942 0.970 180.00 1.05861 0.04
2 0 10 1 o 125.692 129.155 180.00 1.05848 2.37
5 5 -2 1 o 17.779 17.905 180.00 1.05694 0.70
3 1 -11 1 o 5.883 5.904 180.00 1.05676 0.23
5 5 -1 1 o 15.841 15.267 0.00 1.05535 0.62
3 1 9 1 o 20.060 19.634 180.00 1.05474 0.78
1 5 -8 1 o 21.347 19.936 0.00 1.05346 0.82
3 3 -10 1 o 13.735 12.869 0.00 1.05090 0.53
5 5 -3 1 o 1.202 1.129 180.00 1.05007 0.05
2 4 8 1 o 5.745 5.367 180.00 1.04990 0.22
3 3 8 1 o 6.284 5.678 180.00 1.04911 0.24
4 0 8 1 o 127.845 111.509 0.00 1.04851 2.34
7 1 0 1 o 4.001 3.307 0.00 1.04774 0.15
2 2 -11 1 o 22.633 18.910 180.00 1.04649 0.85
5 5 0 1 o 14.300 11.840 0.00 1.04542 0.54
1 7 0 1 o 2.252 1.905 180.00 1.04312 0.08
6 4 -2 1 o 8.320 7.247 180.00 1.04239 0.31
7 1 -5 1 o 0.999 0.835 0.00 1.04202 0.04
1 7 -1 1 o 1.384 1.107 180.00 1.04179 0.05
0 6 6 1 o 3.918 2.978 0.00 1.04153 0.15
5 3 5 1 o 0.026 0.018 0.00 1.04075 0.00
6 4 -3 1 o 38.266 31.618 0.00 1.03851 1.39
6 4 -1 1 o 1.590 1.346 180.00 1.03813 0.06
1 7 1 1 o 17.057 16.046 180.00 1.03632 0.62
5 5 -4 1 o 6.811 7.774 0.00 1.03523 0.25
2 6 -6 1 o 5.350 4.474 0.00 1.03350 0.19
1 7 -2 1 o 2.546 2.111 0.00 1.03242 0.09
4 6 -1 1 o 15.101 14.527 0.00 1.03087 0.54
4 6 -2 1 o 11.975 11.456 0.00 1.02968 0.43
5 5 1 1 o 55.956 59.675 180.00 1.02783 1.94
0 2 11 1 o 1.274 1.291 180.00 1.02735 0.05
6 4 -4 1 o 4.982 4.496 0.00 1.02677 0.18
6 4 0 1 o 2.789 2.238 0.00 1.02603 0.10
7 1 1 1 o 28.894 22.035 180.00 1.02475 1.00
5 1 -10 1 o 5.089 3.892 180.00 1.02469 0.18
4 6 0 1 o 52.700 41.512 180.00 1.02421 1.82
1 3 10 1 o 0.023 0.020 180.00 1.02348 0.00
6 2 -8 1 o 2.963 3.122 180.00 1.02187 0.10
1 7 2 1 o 27.475 28.975 0.00 1.02186 0.94
4 6 -3 1 o 12.969 14.573 180.00 1.02072 0.45
6 2 4 1 o 8.510 8.871 180.00 1.01967 0.29
4 4 6 1 o 0.926 0.942 0.00 1.01927 0.03
2 6 5 1 o 23.312 22.762 180.00 1.01851 0.79
1 1 11 1 o 14.088 13.700 0.00 1.01844 0.48
2 2 10 1 o 13.440 12.870 0.00 1.01740 0.46
7 1 -6 1 o 4.685 4.521 180.00 1.01728 0.16
3 5 -8 1 o 14.757 16.557 0.00 1.01595 0.50
1 7 -3 1 o 13.156 15.060 180.00 1.01565 0.44
3 5 6 1 o 0.285 0.330 180.00 1.01469 0.01
5 5 -5 1 o 5.722 6.454 0.00 1.01339 0.19
1 5 8 1 o 1.353 1.346 180.00 1.01065 0.05
4 6 1 1 o 20.798 20.566 180.00 1.01016 0.69
4 2 8 1 o 14.928 16.944 180.00 1.00854 0.49
6 4 -5 1 o 0.137 0.144 180.00 1.00795 0.00
6 4 1 1 o 5.335 4.765 180.00 1.00689 0.17
5 3 -9 1 o 0.195 0.174 180.00 1.00676 0.01
4 6 -4 1 o 17.461 17.887 0.00 1.00459 0.56
2 4 -10 1 o 20.985 21.306 180.00 1.00412 0.68
5 5 2 1 o 0.075 0.073 0.00 1.00372 0.00
4 4 -9 1 o 0.023 0.020 180.00 1.00240 0.00
2 0 -12 1 o 12.569 12.492 0.00 1.00203 0.20
5 1 7 1 o 3.461 5.084 0.00 1.00090 0.11
1 7 3 1 o 1.305 2.027 0.00 1.00067 0.04
1 3 -11 1 o 2.939 8.567 0.00 0.99801 0.09
7 1 2 1 o 0.003 0.012 0.00 0.99600 0.00
1 7 -4 1 o 24.969 26.884 180.00 0.99253 0.77
0 6 7 1 o 16.407 17.568 0.00 0.99223 0.51
0 4 10 1 o 5.045 5.447 180.00 0.99190 0.16
1 1 -12 1 o 16.018 18.799 0.00 0.99104 0.49
2 6 -7 1 o 19.402 23.459 180.00 0.98996 0.59
7 3 -2 1 o 5.816 7.013 0.00 0.99078 0.18
7 3 -3 1 o 0.044 0.052 0.00 0.98981 0.00
1 5 -9 1 o 7.836 9.560 0.00 0.99064 0.24
4 6 2 1 o 0.615 0.693 0.00 0.98959 0.02
4 2 -11 1 o 13.456 9.881 180.00 0.98796 0.41
7 1 -7 1 o 0.006 0.004 180.00 0.98720 0.00
5 3 6 1 o 13.432 9.779 0.00 0.98675 0.41
5 5 -6 1 o 0.445 0.421 0.00 0.98589 0.01
7 3 -1 1 o 2.792 4.183 180.00 0.98479 0.08
6 4 -6 1 o 0.497 0.527 0.00 0.98318 0.01
4 6 -5 1 o 4.857 4.953 0.00 0.98229 0.14
7 3 -4 1 o 0.499 0.505 180.00 0.98193 0.01
6 4 2 1 o 11.317 11.427 180.00 0.98187 0.34
2 4 9 1 o 24.570 22.934 180.00 0.98071 0.72
0 0 12 1 o 50.277 45.915 0.00 0.98056 0.73
3 3 -11 1 o 0.974 0.756 180.00 0.97939 0.03
3 3 9 1 o 6.119 7.008 0.00 0.97778 0.18
3 1 -12 1 o 0.151 0.191 0.00 0.97732 0.00
3 1 10 1 o 3.056 4.302 180.00 0.97555 0.09
6 2 -9 1 o 0.062 0.085 0.00 0.97534 0.00
5 5 3 1 o 4.005 4.716 180.00 0.97447 0.12
2 6 6 1 o 16.650 19.498 0.00 0.97443 0.48
1 7 4 1 o 0.768 0.869 180.00 0.97401 0.02
6 2 5 1 o 3.859 4.565 0.00 0.97311 0.11
3 7 -1 1 o 2.187 2.677 0.00 0.97249 0.06
7 3 0 1 o 0.067 0.088 180.00 0.97220 0.00
3 7 -2 1 o 3.409 4.183 0.00 0.96927 0.10
3 7 0 1 o 28.000 34.098 180.00 0.96911 0.79
7 3 -5 1 o 0.040 0.051 180.00 0.96762 0.00
2 2 -12 1 o 3.044 3.998 180.00 0.96696 0.09
1 7 -5 1 o 0.521 0.497 0.00 0.96438 0.01
4 4 7 1 o 3.334 3.163 0.00 0.96407 0.09
4 6 3 1 o 3.712 3.449 0.00 0.96370 0.10
3 5 -9 1 o 56.168 51.635 0.00 0.96359 1.53
7 1 3 1 o 24.016 20.182 0.00 0.96302 0.66
5 1 -11 1 o 1.601 1.147 0.00 0.96238 0.04
3 5 7 1 o 1.156 0.824 0.00 0.96236 0.03
6 0 -10 1 o 12.420 9.203 180.00 0.95974 0.17
3 7 -3 1 o 0.683 0.513 180.00 0.95963 0.02
3 7 1 1 o 2.352 1.861 0.00 0.95932 0.06
6 0 6 1 o 37.767 44.475 180.00 0.95731 0.50
4 6 -6 1 o 0.318 0.295 180.00 0.95505 0.01
4 0 -12 1 o 0.600 0.515 180.00 0.95450 0.01
5 5 -7 1 o 8.995 7.701 0.00 0.95417 0.24
3 1 0 2 o 0.003 0.003 180.00 0.95646 0.74
6 4 -7 1 o 2.992 2.646 180.00 0.95382 0.08
7 3 1 1 o 5.088 4.548 0.00 0.95375 0.14
5 3 -10 1 o 6.373 5.740 0.00 0.95369 0.17
7 1 -8 1 o 0.302 0.289 0.00 0.95332 0.01
6 4 3 1 o 0.396 0.615 0.00 0.95233 0.01
1 5 9 1 o 0.155 0.693 180.00 0.95058 0.00
1 3 11 1 o 2.446 1.746 180.00 0.94865 0.06
4 4 -10 1 o 2.445 1.700 180.00 0.94790 0.06
7 3 -6 1 o 10.622 7.408 0.00 0.94771 0.28
0 2 12 1 o 18.753 13.105 180.00 0.94763 0.49
8 0 -2 1 o 31.239 25.823 180.00 0.94630 0.40
2 6 -8 1 o 10.136 9.362 180.00 0.94535 0.26
3 7 -4 1 o 5.269 4.715 180.00 0.94413 0.14
3 7 2 1 o 0.384 0.352 0.00 0.94370 0.01
1 7 5 1 o 27.870 26.376 0.00 0.94324 0.71
0 6 8 1 o 42.243 40.114 180.00 0.94320 1.07
4 2 9 1 o 29.042 28.997 180.00 0.94264 0.74
8 0 -4 1 o 1.413 1.412 0.00 0.94263 0.02
2 2 11 1 o 2.856 3.190 0.00 0.94176 0.07
5 5 4 1 o 1.980 2.268 180.00 0.94155 0.05
5 1 8 1 o 9.591 10.189 0.00 0.94034 0.24
2 4 -11 1 o 0.583 0.616 0.00 0.93917 0.01
1 1 12 1 o 0.000 0.242 0.00 0.93860 0.00
5 3 7 1 o 0.000 8.865 180.00 0.93442 0.00
4 6 4 1 o 0.000 4.342 180.00 0.93381 0.00
1 7 -6 1 o 0.000 0.038 0.00 0.93258 0.00
1 5 -10 1 o 0.000 3.008 0.00 0.93196 0.00
7 3 2 1 o 18.063 14.765 180.00 0.93044 0.44
2 6 7 1 o 1.675 1.536 0.00 0.92976 0.04
6 2 -10 1 o 0.963 1.375 0.00 0.92880 0.02
7 1 4 1 o 2.407 3.633 0.00 0.92731 0.06
6 2 6 1 o 3.750 5.406 0.00 0.92660 0.09
1 3 -12 1 o 0.264 0.370 0.00 0.92639 0.01
8 0 0 1 o 2.134 2.910 0.00 0.92617 0.03
0 4 11 1 o 48.707 58.515 0.00 0.92527 1.14
4 6 -7 1 o 1.337 1.349 180.00 0.92420 0.03
4 2 -12 1 o 2.216 2.205 0.00 0.92405 0.05
3 7 -5 1 o 21.768 20.967 0.00 0.92362 0.51
7 3 -7 1 o 0.915 0.849 0.00 0.92325 0.02
3 7 3 1 o 25.617 23.209 180.00 0.92308 0.60
0 8 0 1 o 5.898 5.332 180.00 0.92191 0.07
6 4 -8 1 o 0.005 0.007 0.00 0.92125 0.00
5 5 -8 1 o 0.215 0.172 180.00 0.91967 0.01
6 4 4 1 o 0.796 0.629 0.00 0.91964 0.02
0 8 1 1 o 18.564 12.585 0.00 0.91909 0.43
2 4 10 1 o 0.476 0.307 180.00 0.91797 0.01
8 2 -3 1 o 0.140 0.093 0.00 0.91770 0.00
7 1 -9 1 o 17.441 12.693 0.00 0.91708 0.40
8 2 -2 1 o 7.524 6.045 0.00 0.91660 0.17
8 0 -6 1 o 0.078 0.075 0.00 0.91596 0.00
1 1 -13 1 o 4.111 5.080 0.00 0.91522 0.09
3 3 -12 1 o 0.349 0.441 0.00 0.91515 0.01
3 3 10 1 o 0.309 0.500 0.00 0.91370 0.01
8 2 -4 1 o 0.056 0.081 180.00 0.91326 0.00
3 5 -10 1 o 4.987 7.010 180.00 0.91302 0.11
3 5 8 1 o 1.217 1.753 0.00 0.91184 0.03
4 4 8 1 o 11.101 14.984 0.00 0.91145 0.25
0 8 2 1 o 4.809 5.520 0.00 0.91080 0.11
8 2 -1 1 o 0.006 0.006 180.00 0.91000 0.00
1 7 6 1 o 6.493 6.643 0.00 0.90974 0.14
4 0 10 1 o 15.345 15.839 0.00 0.90962 0.17
3 1 -13 1 o 2.368 4.749 0.00 0.90800 0.05
3 1 11 1 o 11.346 11.807 0.00 0.90646 0.25
5 5 5 1 o 1.487 1.471 180.00 0.90634 0.03
5 1 -12 1 o 5.649 3.937 0.00 0.90481 0.12
8 2 -5 1 o 15.367 10.390 0.00 0.90351 0.33
7 3 3 1 o 3.561 2.468 180.00 0.90338 0.08
5 3 -11 1 o 1.388 1.121 0.00 0.90285 0.03
2 0 12 1 o 2.245 2.642 0.00 0.90173 0.02
4 6 5 1 o 0.627 0.693 180.00 0.90120 0.01
2 6 -9 1 o 6.131 6.353 0.00 0.90093 0.13
3 7 -6 1 o 28.160 23.210 0.00 0.89909 0.60
3 7 4 1 o 4.392 3.581 180.00 0.89846 0.09
1 7 -7 1 o 28.302 23.076 0.00 0.89845 0.60
8 2 0 1 o 5.025 4.117 180.00 0.89827 0.11
2 2 -13 1 o 2.256 1.911 180.00 0.89791 0.05
0 8 3 1 o 11.704 10.880 0.00 0.89745 0.25
4 4 -11 1 o 5.419 6.508 0.00 0.89618 0.11
0 6 9 1 o 0.191 0.231 0.00 0.89556 0.00
2 8 -1 1 o 10.516 12.787 180.00 0.89553 0.22
7 3 -8 1 o 0.083 0.103 0.00 0.89536 0.00
1 5 10 1 o 1.990 2.865 0.00 0.89486 0.04
2 8 0 1 o 1.647 2.991 180.00 0.89463 0.03
2 8 -2 1 o 0.536 6.915 0.00 0.89128 0.01
4 6 -8 1 o 0.052 0.554 180.00 0.89101 0.00
7 1 5 1 o 0.000 0.116 180.00 0.89015 0.00
8 2 -6 1 o 0.015 0.057 0.00 0.88895 0.00
2 8 1 1 o 3.325 11.216 180.00 0.88861 0.07
6 4 -9 1 o 0.002 0.004 0.00 0.88672 0.00
8 0 2 1 o 7.124 10.012 180.00 0.88643 0.07
2 6 8 1 o 2.050 2.326 0.00 0.88565 0.04
6 4 5 1 o 2.297 2.817 180.00 0.88505 0.05
5 3 8 1 o 4.524 5.982 180.00 0.88458 0.09
5 1 9 1 o 0.002 0.003 0.00 0.88456 0.00
5 5 -9 1 o 0.164 0.211 0.00 0.88362 0.00
6 2 -11 1 o 0.005 0.006 0.00 0.88332 0.00
4 2 10 1 o 5.151 5.656 180.00 0.88315 0.10
1 3 12 1 o 9.090 9.921 0.00 0.88313 0.18
2 8 -3 1 o 17.044 14.817 0.00 0.88209 0.34
8 2 1 1 o 5.451 4.722 180.00 0.88198 0.11
6 2 7 1 o 19.622 17.589 0.00 0.88119 0.39
6 6 -2 1 o 26.046 23.377 0.00 0.88113 0.51
2 4 -12 1 o 2.016 1.728 0.00 0.88041 0.04
7 1 -10 1 o 1.105 0.898 0.00 0.87973 0.02
0 8 4 1 o 1.010 0.821 180.00 0.87972 0.02
0 2 13 1 o 0.655 0.571 180.00 0.87904 0.01
6 6 -3 1 o 1.876 1.732 180.00 0.87879 0.04
6 6 -1 1 o 2.198 2.171 0.00 0.87855 0.04
2 8 2 1 o 0.362 0.401 180.00 0.87779 0.01
1 5 -11 1 o 1.591 1.756 180.00 0.87769 0.03
2 2 12 1 o 0.718 1.569 0.00 0.87592 0.01
1 7 7 1 o 2.632 2.899 0.00 0.87469 0.05
7 3 4 1 o 6.086 3.993 180.00 0.87370 0.12
7 5 -2 1 o 1.074 0.625 180.00 0.87276 0.02
7 5 -3 1 o 9.487 6.033 180.00 0.87209 0.18
8 0 -8 1 o 6.918 4.898 0.00 0.87164 0.07
6 6 -4 1 o 22.231 15.756 180.00 0.87164 0.42
3 7 -7 1 o 0.304 0.218 180.00 0.87160 0.01
6 6 0 1 o 1.635 1.312 0.00 0.87118 0.03
3 7 5 1 o 10.966 9.482 180.00 0.87091 0.21
8 2 -7 1 o 1.210 1.196 180.00 0.87026 0.02
1 1 13 1 o 30.152 29.983 180.00 0.87021 0.56
5 5 6 1 o 3.664 3.714 180.00 0.87000 0.07
2 2 2 2 o 0.003 0.002 180.00 0.87312 0.18
7 5 -1 1 o 14.712 14.941 0.00 0.86865 0.27
2 8 -4 1 o 4.578 4.564 180.00 0.86841 0.09
4 6 6 1 o 0.011 0.009 180.00 0.86704 0.00
7 5 -4 1 o 2.094 1.767 0.00 0.86669 0.04
4 2 -13 1 o 6.959 6.067 0.00 0.86639 0.13
0 4 12 1 o 1.231 1.176 180.00 0.86575 0.02
7 3 -9 1 o 0.042 0.044 0.00 0.86514 0.00
5 7 -2 1 o 9.725 10.297 0.00 0.86504 0.18
3 5 -11 1 o 5.664 6.038 180.00 0.86494 0.10
5 7 -1 1 o 2.780 2.909 180.00 0.86417 0.05
3 5 9 1 o 47.797 48.152 180.00 0.86383 0.86
1 3 -13 1 o 2.849 2.785 180.00 0.86357 0.05
1 7 -8 1 o 0.579 0.552 180.00 0.86313 0.01
2 8 3 1 o 6.979 6.765 180.00 0.86268 0.13
6 0 -12 1 o 2.286 2.233 0.00 0.86227 0.02
4 4 9 1 o 1.597 1.516 0.00 0.86193 0.03
8 2 2 1 o 3.959 3.734 0.00 0.86188 0.07
2 4 11 1 o 0.020 0.017 0.00 0.86126 0.00
5 7 -3 1 o 1.940 1.684 0.00 0.86126 0.04
6 0 8 1 o 29.632 23.040 180.00 0.86007 0.27
6 6 -5 1 o 7.304 5.669 0.00 0.86003 0.13
2 0 -14 1 o 31.005 24.039 180.00 0.86001 0.28
7 5 0 1 o 0.763 0.591 180.00 0.85997 0.01
6 6 1 1 o 0.053 0.042 0.00 0.85938 0.00
5 7 0 1 o 2.079 1.975 0.00 0.85869 0.04
0 8 5 1 o 4.499 4.426 0.00 0.85839 0.08
2 6 -10 1 o 31.788 29.172 0.00 0.85765 0.56
3 3 -13 1 o 0.084 0.075 180.00 0.85750 0.00
7 5 -5 1 o 6.361 4.978 0.00 0.85680 0.11
4 6 -9 1 o 4.604 3.529 0.00 0.85658 0.08
3 3 11 1 o 0.043 0.034 0.00 0.85620 0.00
5 3 -12 1 o 2.776 4.422 180.00 0.85481 0.05
5 7 -4 1 o 0.250 1.695 180.00 0.85301 0.00
7 1 6 1 o 0.430 2.834 180.00 0.85262 0.01
5 1 -13 1 o 0.094 0.681 0.00 0.85198 0.00
6 4 -10 1 o 0.029 0.105 180.00 0.85132 0.00
2 8 -5 1 o 1.343 3.388 0.00 0.85086 0.02
1 1 -14 1 o 0.943 1.646 180.00 0.85003 0.02
0 6 10 1 o 4.485 7.721 180.00 0.85000 0.08
6 4 6 1 o 0.582 0.821 180.00 0.84962 0.01
5 7 1 1 o 2.513 2.665 0.00 0.84886 0.04
8 2 -8 1 o 1.425 1.332 180.00 0.84827 0.02
4 4 -12 1 o 13.723 12.407 0.00 0.84765 0.23
3 1 -14 1 o 1.743 1.516 180.00 0.84719 0.03
7 5 1 1 o 3.606 3.119 0.00 0.84712 0.06
5 5 -10 1 o 1.265 1.092 180.00 0.84709 0.02
3 1 12 1 o 5.245 6.640 0.00 0.84583 0.09
6 6 -6 1 o 1.451 0.984 180.00 0.84449 0.02
2 8 4 1 o 3.185 1.968 0.00 0.84395 0.05
6 6 2 1 o 0.017 0.011 180.00 0.84367 0.00
1 5 11 1 o 4.071 2.584 0.00 0.84355 0.07
2 6 9 1 o 8.367 5.660 180.00 0.84293 0.14
7 5 -6 1 o 4.282 2.900 180.00 0.84289 0.07
8 4 -3 1 o 0.046 0.031 180.00 0.84275 0.00
7 3 5 1 o 0.097 0.067 0.00 0.84242 0.00
7 1 -11 1 o 5.355 3.792 180.00 0.84224 0.09
3 7 -8 1 o 0.503 0.363 0.00 0.84213 0.01
8 4 -2 1 o 0.073 0.056 180.00 0.84189 0.00
3 7 6 1 o 13.470 11.570 0.00 0.84141 0.22
5 7 -5 1 o 0.837 0.851 180.00 0.84067 0.01
0 0 14 1 o 3.866 4.027 180.00 0.84048 0.03
6 2 -12 1 o 0.685 0.641 180.00 0.83962 0.01
8 4 -4 1 o 5.243 4.676 0.00 0.83930 0.09
1 7 8 1 o 11.957 10.422 180.00 0.83911 0.20
8 2 3 1 o 1.000 0.849 180.00 0.83881 0.02
5 3 9 1 o 0.202 0.160 180.00 0.83767 0.00
6 2 8 1 o 11.865 9.285 0.00 0.83759 0.19
2 2 -14 1 o 7.434 5.767 0.00 0.83754 0.12
9 1 -3 1 o 3.135 2.207 180.00 0.83704 0.05
8 4 -1 1 o 3.360 2.305 0.00 0.83677 0.05
5 7 2 1 o 0.097 0.084 0.00 0.83513 0.00
9 1 -4 1 o 0.403 0.352 0.00 0.83508 0.01
4 0 -14 1 o 10.400 9.160 180.00 0.83502 0.08
9 1 -2 1 o 0.120 0.110 180.00 0.83478 0.00
0 8 6 1 o 1.200 1.176 180.00 0.83432 0.02
8 0 4 1 o 16.153 16.128 0.00 0.83412 0.13
7 3 -10 1 o 3.244 3.249 180.00 0.83357 0.05
5 5 7 1 o 46.282 46.270 0.00 0.83350 0.73
5 1 10 1 o 9.583 9.570 180.00 0.83344 0.15
4 6 7 1 o 6.823 8.392 0.00 0.83229 0.11
8 4 -5 1 o 3.763 5.250 180.00 0.83172 0.06
7 5 2 1 o 0.655 0.942 0.00 0.83066 0.01
2 8 -6 1 o 0.688 0.958 0.00 0.83017 0.01
4 2 11 1 o 33.208 41.072 0.00 0.82951 0.52
9 1 -5 1 o 2.660 2.975 0.00 0.82899 0.04
4 8 -1 1 o 11.929 13.028 0.00 0.82881 0.19
9 1 -1 1 o 10.729 11.368 0.00 0.82840 0.17
4 8 -2 1 o 0.123 0.128 180.00 0.82819 0.00
1 5 -12 1 o 3.682 3.646 180.00 0.82778 0.06
8 4 0 1 o 4.078 3.877 0.00 0.82762 0.06
1 7 -9 1 o 1.895 1.760 0.00 0.82755 0.03
2 4 -13 1 o 27.796 23.899 0.00 0.82734 0.43
6 6 -7 1 o 12.126 7.656 180.00 0.82567 0.19
7 5 -7 1 o 9.398 6.005 180.00 0.82554 0.14
1 3 13 1 o 5.640 3.626 180.00 0.82546 0.09
4 8 0 1 o 3.923 2.540 0.00 0.82534 0.06
5 7 -6 1 o 8.630 5.930 0.00 0.82477 0.13
6 6 3 1 o 1.470 1.029 0.00 0.82470 0.02
8 2 -9 1 o 0.012 0.015 180.00 0.82380 0.00
4 8 -3 1 o 4.234 6.785 0.00 0.82351 0.06
2 8 5 1 o 0.000 0.001 0.00 0.82235 0.00
4 6 -10 1 o 0.000 1.829 0.00 0.82182 0.00
8 4 -6 1 o 6.141 5.702 180.00 0.82031 0.09
3 5 -12 1 o 0.000 0.000 180.00 0.81973 0.00
0 2 14 1 o 0.483 0.497 180.00 0.81947 0.01
9 1 -6 1 o 0.208 0.238 180.00 0.81903 0.00
3 5 10 1 o 0.946 1.127 180.00 0.81869 0.01
2 2 13 1 o 13.842 16.398 180.00 0.81822 0.21
9 1 0 1 o 0.001 0.001 180.00 0.81818 0.00
5 7 3 1 o 19.558 22.741 0.00 0.81805 0.29
4 8 1 1 o 0.848 0.970 0.00 0.81793 0.01
8 0 -10 1 o 2.364 2.690 180.00 0.81697 0.02
2 6 -11 1 o 0.049 0.063 180.00 0.81611 0.00
6 4 -11 1 o 0.385 0.494 180.00 0.81589 0.01
4 4 10 1 o 17.227 21.928 180.00 0.81575 0.25
7 1 7 1 o 0.620 0.772 0.00 0.81552 0.01
4 8 -4 1 o 1.002 1.195 180.00 0.81497 0.01
8 4 1 1 o 0.100 0.120 0.00 0.81483 0.00
1 9 0 1 o 0.115 0.146 180.00 0.81451 0.00
4 2 -14 1 o 0.231 0.305 0.00 0.81440 0.00
6 4 7 1 o 3.119 4.394 180.00 0.81421 0.05
1 9 -1 1 o 1.852 2.935 180.00 0.81387 0.03
8 2 4 1 o 0.723 1.189 180.00 0.81357 0.01
0 4 13 1 o 3.009 3.412 180.00 0.81251 0.04
3 7 -9 1 o 6.504 6.364 180.00 0.81158 0.09
1 9 1 1 o 0.376 0.372 180.00 0.81126 0.01
7 5 3 1 o 0.025 0.025 180.00 0.81124 0.00
1 1 14 1 o 0.647 0.646 180.00 0.81100 0.01
5 5 -11 1 o 15.791 15.815 180.00 0.81086 0.23
3 7 7 1 o 11.327 11.346 0.00 0.81084 0.16
7 3 6 1 o 5.018 4.908 0.00 0.81040 0.07
2 4 12 1 o 8.521 7.772 0.00 0.81005 0.12
5 3 -13 1 o 0.796 0.686 180.00 0.80985 0.01
1 9 -2 1 o 0.316 0.246 180.00 0.80939 0.00
0 8 7 1 o 0.748 0.664 0.00 0.80832 0.01
1 3 -14 1 o 9.516 8.564 180.00 0.80817 0.13
2 8 -7 1 o 1.365 1.284 0.00 0.80710 0.02
0 6 11 1 o 4.758 4.624 0.00 0.80694 0.07
4 8 2 1 o 0.638 0.625 0.00 0.80690 0.01
5 7 -7 1 o 3.978 4.548 180.00 0.80593 0.06
3 2 1 2 o 0.002 0.002 180.00 0.80835 0.55
3 3 -14 1 o 0.300 0.349 180.00 0.80573 0.00
9 1 -7 1 o 0.423 0.497 180.00 0.80562 0.01
8 4 -7 1 o 0.060 0.071 0.00 0.80556 0.00
7 5 -8 1 o 1.010 1.206 0.00 0.80542 0.01
7 1 -12 1 o 0.593 0.712 0.00 0.80538 0.01
3 3 12 1 o 0.597 0.823 180.00 0.80456 0.01
9 1 1 1 o 3.456 4.771 180.00 0.80454 0.05
6 6 -8 1 o 0.518 0.707 180.00 0.80427 0.01
1 9 2 1 o 3.116 4.253 180.00 0.80427 0.04
1 7 9 1 o 15.604 18.679 180.00 0.80376 0.22
5 1 -14 1 o 0.543 0.630 180.00 0.80366 0.01
6 6 4 1 o 0.442 0.463 0.00 0.80320 0.01
4 8 -5 1 o 10.407 10.661 180.00 0.80292 0.14
4 4 -13 1 o 0.686 0.741 180.00 0.80249 0.01
2 6 10 1 o 3.921 4.766 180.00 0.80209 0.05
7 3 -11 1 o 0.000 0.000 0.00 0.80147 0.00
1 9 -3 1 o 0.188 0.235 180.00 0.80123 0.00
4 0 12 1 o 0.277 0.302 180.00 0.79927 0.00
8 4 2 1 o 0.188 0.201 180.00 0.79890 0.00
2 8 6 1 o 2.324 2.408 0.00 0.79862 0.03
5 7 4 1 o 18.122 17.904 180.00 0.79829 0.24
6 2 -13 1 o 4.498 4.340 0.00 0.79813 0.06
4 6 8 1 o 0.020 0.019 180.00 0.79772 0.00
8 2 -10 1 o 0.188 0.177 0.00 0.79763 0.00
5 5 8 1 o 1.757 1.661 0.00 0.79755 0.02
9 3 -3 1 o 1.241 1.265 0.00 0.79698 0.02
1 5 12 1 o 1.752 1.842 0.00 0.79648 0.02
6 2 9 1 o 30.032 30.762 180.00 0.79621 0.40
9 3 -4 1 o 0.902 0.756 180.00 0.79529 0.01
9 3 -2 1 o 0.001 0.000 180.00 0.79503 0.00
5 3 10 1 o 0.208 0.158 0.00 0.79387 0.00
1 9 3 1 o 1.064 0.817 0.00 0.79381 0.01
3 1 -15 1 o 6.705 5.397 180.00 0.79352 0.09
1 1 -15 1 o 14.106 11.533 180.00 0.79341 0.19
4 8 3 1 o 0.034 0.029 180.00 0.79268 0.00
1 7 -10 1 o 9.988 8.115 0.00 0.79241 0.13
3 1 13 1 o 11.470 9.102 0.00 0.79232 0.15
9 3 -5 1 o 1.266 1.043 180.00 0.79002 0.02
1 9 -4 1 o 7.796 6.613 0.00 0.78973 0.10
7 5 4 1 o 9.562 7.949 0.00 0.78955 0.12
9 3 -1 1 o 1.207 0.998 180.00 0.78951 0.02
9 1 -8 1 o 1.773 1.389 0.00 0.78927 0.02
8 4 -8 1 o 0.061 0.041 0.00 0.78803 0.00
9 1 2 1 o 3.792 2.565 180.00 0.78800 0.05
4 8 -6 1 o 1.326 0.900 0.00 0.78784 0.02
4 6 -11 1 o 0.208 0.150 180.00 0.78742 0.00
8 2 5 1 o 7.811 5.545 180.00 0.78694 0.10
5 1 11 1 o 4.549 3.006 180.00 0.78673 0.06
5 7 -8 1 o 18.066 14.353 180.00 0.78481 0.23
2 0 14 1 o 2.583 1.935 180.00 0.78449 0.02
2 2 -15 1 o 0.834 0.600 180.00 0.78440 0.01
7 5 -9 1 o 1.138 0.451 180.00 0.78321 0.01
2 8 -8 1 o 0.001 0.000 0.00 0.78237 0.00
1 5 -13 1 o 0.000 0.000 0.00 0.78204 0.00
9 3 -6 1 o 0.062 0.057 0.00 0.78139 0.00
0 8 8 1 o 1.143 1.108 180.00 0.78115 0.01
4 2 12 1 o 4.230 4.111 0.00 0.78113 0.05
6 4 -12 1 o 1.272 1.248 0.00 0.78108 0.02
6 6 -9 1 o 2.781 2.768 0.00 0.78099 0.03
3 7 -10 1 o 0.027 0.028 180.00 0.78067 0.00
9 3 0 1 o 1.855 1.923 0.00 0.78065 0.02
8 4 3 1 o 0.004 0.005 0.00 0.78042 0.00
1 9 4 1 o 16.060 17.414 180.00 0.78030 0.20
3 7 8 1 o 0.005 0.006 0.00 0.77993 0.00
6 6 5 1 o 16.824 20.061 180.00 0.77984 0.21
3 9 -1 1 o 1.698 2.085 0.00 0.77953 0.02
6 4 8 1 o 8.625 10.510 0.00 0.77944 0.11
7 1 8 1 o 2.516 3.064 0.00 0.77944 0.03
2 4 -14 1 o 1.113 1.348 0.00 0.77940 0.01
7 3 7 1 o 0.630 0.440 0.00 0.77834 0.01
3 9 -2 1 o 1.639 1.246 0.00 0.77786 0.02
3 9 0 1 o 1.684 1.320 0.00 0.77778 0.02
3 5 -13 1 o 0.551 0.474 0.00 0.77753 0.01
2 6 -12 1 o 2.669 2.826 0.00 0.77667 0.03
4 8 4 1 o 11.991 11.095 180.00 0.77579 0.15
3 5 11 1 o 0.441 0.466 0.00 0.77656 0.01
5 7 5 1 o 6.261 6.594 180.00 0.77648 0.08
6 0 -14 1 o 0.492 0.440 0.00 0.77566 0.00
5 5 -12 1 o 0.055 0.047 180.00 0.77552 0.00
8 0 6 1 o 1.642 1.673 0.00 0.77623 0.01
1 9 -5 1 o 0.215 0.176 0.00 0.77533 0.00
1 3 14 1 o 0.050 0.073 0.00 0.77441 0.00
6 0 10 1 o 1.874 4.818 180.00 0.77374 0.01
2 8 7 1 o 2.534 7.125 0.00 0.77346 0.03
4 4 11 1 o 1.719 3.959 180.00 0.77292 0.02
3 9 -3 1 o 0.596 1.344 0.00 0.77285 0.01
3 9 1 1 o 0.735 1.686 180.00 0.77269 0.01
9 1 -9 1 o 0.080 0.098 0.00 0.77055 0.00
8 2 -11 1 o 0.085 0.088 180.00 0.77049 0.00
4 8 -7 1 o 0.257 0.180 180.00 0.77026 0.00
9 3 -7 1 o 1.845 1.025 0.00 0.76972 0.02
7 1 -13 1 o 0.107 0.059 0.00 0.76965 0.00
7 3 -12 1 o 1.400 0.782 180.00 0.76951 0.02
1 7 10 1 o 2.353 1.386 0.00 0.76923 0.03
9 1 3 1 o 0.045 0.027 0.00 0.76914 0.00
9 3 1 1 o 1.608 1.188 0.00 0.76878 0.02
8 4 -9 1 o 0.124 0.113 180.00 0.76829 0.00
5 3 -14 1 o 0.001 0.001 0.00 0.76801 0.00
4 2 -15 1 o 2.328 2.228 0.00 0.76749 0.03
2 2 14 1 o 6.591 6.522 180.00 0.76732 0.08
0 2 15 1 o 5.801 5.787 0.00 0.76728 0.07
0 6 12 1 o 12.535 14.783 0.00 0.76654 0.15
7 5 5 1 o 12.773 14.702 180.00 0.76623 0.15
0 4 14 1 o 1.038 1.184 180.00 0.76477 0.01
3 9 -4 1 o 0.773 0.905 0.00 0.76469 0.01
3 9 2 1 o 11.575 14.395 0.00 0.76446 0.13
1 9 5 1 o 0.002 0.003 180.00 0.76422 0.00
4 6 9 1 o 3.429 4.971 180.00 0.76389 0.04
2 4 13 1 o 7.791 11.847 0.00 0.76376 0.09
2 6 11 1 o 8.764 15.795 0.00 0.76342 0.10
5 5 9 1 o 0.004 0.068 0.00 0.76265 0.00
5 7 -9 1 o 0.000 0.098 0.00 0.76206 0.00
4 4 -14 1 o 0.001 0.001 180.00 0.76065 0.00
8 4 4 1 o 0.114 0.067 180.00 0.75997 0.00
8 2 6 1 o 1.536 1.025 180.00 0.75958 0.02
7 5 -10 1 o 1.321 0.896 180.00 0.75955 0.01
5 1 -15 1 o 0.965 0.659 180.00 0.75954 0.01
1 1 15 1 o 0.950 0.785 180.00 0.75925 0.01
3 3 -15 1 o 0.036 0.032 180.00 0.75915 0.00
6 2 -14 1 o 0.006 0.006 0.00 0.75905 0.00
1 3 -15 1 o 0.550 0.517 180.00 0.75905 0.01
8 0 -12 1 o 2.456 2.881 0.00 0.75852 0.01
1 9 -6 1 o 14.496 17.025 0.00 0.75851 0.16
1 7 -11 1 o 7.831 9.492 180.00 0.75824 0.09
3 3 13 1 o 2.321 2.809 180.00 0.75809 0.03
10 0 -4 1 o 8.458 10.205 0.00 0.75762 0.05
6 2 10 1 o 0.466 0.626 0.00 0.75725 0.01
4 8 5 1 o 1.785 2.530 180.00 0.75679 0.02
2 8 -9 1 o 1.379 1.801 0.00 0.75663 0.02
6 6 -10 1 o 0.201 0.240 0.00 0.75647 0.00
9 3 -8 1 o 1.861 1.812 180.00 0.75542 0.02
10 0 -2 1 o 2.906 2.721 180.00 0.75528 0.02
6 6 6 1 o 0.005 0.005 0.00 0.75528 0.00
7 7 -2 1 o 0.103 0.095 180.00 0.75505 0.00
7 7 -3 1 o 0.230 0.242 180.00 0.75462 0.00
9 3 2 1 o 4.215 4.815 0.00 0.75431 0.05
4 6 -12 1 o 5.318 6.497 180.00 0.75390 0.06
4 0 0 2 o 0.001 0.001 180.00 0.75615 0.03
3 9 -5 1 o 0.290 0.385 0.00 0.75367 0.00
0 8 9 1 o 1.460 2.330 180.00 0.75344 0.02
1 5 13 1 o 0.017 0.028 0.00 0.75340 0.00
3 9 3 1 o 0.333 0.580 180.00 0.75337 0.00
5 7 6 1 o 0.812 1.718 0.00 0.75327 0.01
5 3 11 1 o 0.016 0.042 0.00 0.75319 0.00
2 0 -16 1 o 0.000 0.754 0.00 0.75252 0.00
7 7 -1 1 o 0.000 0.026 0.00 0.75239 0.00
7 7 -4 1 o 0.000 2.627 180.00 0.75111 0.00
4 8 -8 1 o 0.322 1.039 180.00 0.75072 0.00
8 6 -3 1 o 0.845 1.712 180.00 0.75044 0.01
9 1 -10 1 o 0.037 0.061 180.00 0.75004 0.00
3 7 -11 1 o 1.078 1.718 180.00 0.74998 0.01
8 6 -2 1 o 1.544 2.362 180.00 0.74984 0.02
3 7 9 1 o 0.000 0.000 180.00 0.74925 0.00
9 1 4 1 o 0.691 0.920 0.00 0.74852 0.01
8 6 -4 1 o 1.518 2.567 180.00 0.74801 0.02
10 0 -6 1 o 0.406 0.698 180.00 0.74760 0.00
2 8 8 1 o 10.727 18.281 180.00 0.74751 0.11
6 4 -13 1 o 0.005 0.008 180.00 0.74734 0.00
8 4 -10 1 o 0.142 0.238 180.00 0.74694 0.00
7 3 8 1 o 0.319 0.554 180.00 0.74679 0.00
7 7 0 1 o 1.408 2.495 180.00 0.74673 0.01
8 6 -1 1 o 0.654 1.334 0.00 0.74621 0.01
1 9 6 1 o 1.677 3.421 0.00 0.74607 0.02
3 1 -16 1 o 0.023 0.048 0.00 0.74589 0.00
6 4 9 1 o 2.343 4.801 0.00 0.74576 0.02
3 1 14 1 o 10.255 18.955 180.00 0.74482 0.11
6 8 -2 1 o 0.006 0.011 0.00 0.74478 0.00
7 1 9 1 o 1.434 2.570 180.00 0.74475 0.01
7 7 -5 1 o 0.041 0.071 180.00 0.74465 0.00
5 1 12 1 o 9.131 13.846 0.00 0.74409 0.09
1 1 -16 1 o 1.336 1.926 0.00 0.74379 0.01
6 8 -3 1 o 5.109 6.709 180.00 0.74337 0.05
6 8 -1 1 o 1.100 1.434 180.00 0.74323 0.01
8 2 -12 1 o 0.277 0.379 180.00 0.74296 0.00
8 6 -5 1 o 0.066 0.104 0.00 0.74262 0.00
10 2 -3 1 o 0.083 0.135 0.00 0.74249 0.00
10 2 -4 1 o 1.638 2.610 180.00 0.74212 0.02
7 5 6 1 o 6.321 9.912 180.00 0.74190 0.06
5 5 -13 1 o 0.366 0.620 0.00 0.74148 0.00
10 0 0 1 o 1.211 2.023 0.00 0.74093 0.01
1 5 -14 1 o 0.256 0.332 180.00 0.74019 0.00
3 9 -6 1 o 5.498 7.102 180.00 0.74016 0.06
10 2 -2 1 o 1.165 1.451 0.00 0.73992 0.01
3 9 4 1 o 1.984 2.405 180.00 0.73981 0.02
1 9 -7 1 o 0.506 0.612 0.00 0.73980 0.01
8 6 0 1 o 0.042 0.049 180.00 0.73970 0.00
4 0 -16 1 o 12.500 13.834 0.00 0.73951 0.06
2 6 -13 1 o 8.251 9.110 0.00 0.73950 0.08
6 8 -4 1 o 0.034 0.035 180.00 0.73903 0.00
9 3 -9 1 o 0.498 0.512 180.00 0.73896 0.01
10 2 -5 1 o 0.012 0.012 180.00 0.73881 0.00
6 8 0 1 o 4.538 4.793 180.00 0.73875 0.05
3 5 -14 1 o 0.795 0.884 180.00 0.73831 0.01
7 7 1 1 o 7.743 8.619 180.00 0.73827 0.08
5 7 -10 1 o 0.013 0.015 180.00 0.73825 0.00
7 3 -13 1 o 0.781 0.869 180.00 0.73817 0.01
8 4 5 1 o 6.576 7.302 0.00 0.73813 0.07
9 3 3 1 o 0.296 0.324 180.00 0.73772 0.00
0 10 0 1 o 19.532 21.256 180.00 0.73753 0.10
4 2 13 1 o 0.824 0.894 180.00 0.73742 0.01
3 5 12 1 o 5.473 5.931 0.00 0.73741 0.05
2 2 -16 1 o 0.003 0.003 0.00 0.73732 0.00
4 8 6 1 o 8.915 9.489 0.00 0.73621 0.09
0 10 1 1 o 7.232 7.475 180.00 0.73608 0.07
2 4 -15 1 o 1.133 1.156 180.00 0.73603 0.01
1 7 11 1 o 1.902 1.877 0.00 0.73590 0.02
7 7 -6 1 o 0.063 0.053 0.00 0.73546 0.00
0 0 16 1 o 7.502 6.103 0.00 0.73542 0.04
7 1 -14 1 o 0.955 0.767 180.00 0.73540 0.01
7 5 -11 1 o 0.670 0.424 180.00 0.73503 0.01
10 2 -1 1 o 3.789 2.022 0.00 0.73450 0.04
8 6 -6 1 o 3.789 1.999 0.00 0.73447 0.04
4 4 12 1 o 0.000 0.000 180.00 0.73333 0.00
10 2 -6 1 o 0.883 0.586 0.00 0.73269 0.01
8 2 7 1 o 16.540 14.826 0.00 0.73204 0.16
6 8 -5 1 o 1.404 1.293 180.00 0.73191 0.01
0 10 2 1 o 0.410 0.383 180.00 0.73180 0.00
9 5 -3 1 o 2.643 2.478 180.00 0.73156 0.03
6 8 1 1 o 4.030 3.762 0.00 0.73151 0.04
6 6 -11 1 o 1.104 1.006 180.00 0.73129 0.01
4 6 10 1 o 15.720 14.167 0.00 0.73119 0.15
8 6 1 1 o 3.855 3.548 180.00 0.73053 0.04
2 8 -10 1 o 0.910 0.848 0.00 0.73044 0.01
9 5 -4 1 o 0.395 0.378 0.00 0.73026 0.00
6 6 7 1 o 7.652 7.417 0.00 0.73008 0.07
9 5 -2 1 o 0.594 0.576 180.00 0.73005 0.01
4 8 -9 1 o 1.753 1.722 180.00 0.72978 0.02
5 3 -15 1 o 0.005 0.005 180.00 0.72923 0.00
5 7 7 1 o 2.273 2.345 180.00 0.72920 0.02
5 5 10 1 o 0.808 0.834 180.00 0.72916 0.01
1 3 15 1 o 3.562 3.634 0.00 0.72897 0.03
0 6 13 1 o 16.615 16.599 180.00 0.72885 0.16
9 1 -11 1 o 2.383 2.194 180.00 0.72828 0.02
7 7 2 1 o 20.411 22.092 0.00 0.72730 0.19
2 6 12 1 o 23.550 25.172 180.00 0.72707 0.22
9 1 5 1 o 5.414 5.377 180.00 0.72669 0.05
10 0 -8 1 o 0.145 0.142 0.00 0.72662 0.00
10 2 0 1 o 1.211 1.158 180.00 0.72642 0.01
1 9 7 1 o 0.269 0.256 0.00 0.72637 0.00
9 5 -5 1 o 0.511 0.484 0.00 0.72617 0.00
9 5 -1 1 o 0.501 0.465 180.00 0.72578 0.00
0 8 10 1 o 12.960 11.886 0.00 0.72570 0.12
1 7 -12 1 o 5.801 4.756 180.00 0.72536 0.05
4 2 -16 1 o 0.661 0.461 180.00 0.72507 0.01
0 10 3 1 o 3.100 1.916 180.00 0.72483 0.03
3 9 -7 1 o 0.088 0.051 180.00 0.72459 0.00
8 4 -11 1 o 1.210 0.698 0.00 0.72451 0.01
3 9 5 1 o 0.387 0.218 0.00 0.72420 0.00
10 2 -7 1 o 4.040 2.163 180.00 0.72397 0.04
7 7 -7 1 o 1.520 0.785 0.00 0.72385 0.01
8 6 -7 1 o 1.712 0.877 180.00 0.72383 0.02
2 10 -1 1 o 8.036 4.096 0.00 0.72381 0.07
2 10 0 1 o 0.776 0.352 0.00 0.72333 0.01
6 2 -15 1 o 3.832 2.444 180.00 0.72247 0.04
6 8 -6 1 o 0.086 0.062 0.00 0.72226 0.00
2 2 15 1 o 3.821 2.905 0.00 0.72213 0.04
4 4 -15 1 o 1.542 1.234 180.00 0.72201 0.01
2 4 14 1 o 0.650 0.541 180.00 0.72187 0.01
0 4 15 1 o 5.959 4.995 180.00 0.72184 0.05
6 8 2 1 o 7.481 6.353 0.00 0.72174 0.07
4 6 -13 1 o 1.214 1.031 0.00 0.72159 0.01
2 10 -2 1 o 20.241 17.152 0.00 0.72156 0.19
2 8 9 1 o 28.699 22.970 0.00 0.72128 0.26
0 2 16 1 o 2.297 1.808 0.00 0.72122 0.02
9 3 -10 1 o 0.176 0.125 0.00 0.72082 0.00
5 9 -2 1 o 0.657 0.468 180.00 0.72081 0.01
6 2 11 1 o 0.421 0.299 180.00 0.72079 0.00
5 9 -1 1 o 0.001 0.001 180.00 0.72031 0.00
2 10 1 1 o 6.339 4.769 0.00 0.72014 0.06
3 7 -12 1 o 8.844 7.154 180.00 0.71993 0.08
1 9 -8 1 o 3.212 2.775 180.00 0.71971 0.03
9 3 4 1 o 4.078 3.600 180.00 0.71947 0.04
9 5 -6 1 o 0.149 0.132 180.00 0.71945 0.00
5 1 -16 1 o 0.365 0.309 0.00 0.71927 0.00
3 7 10 1 o 23.857 19.808 0.00 0.71922 0.22
8 6 2 1 o 0.298 0.217 0.00 0.71898 0.00
9 5 0 1 o 0.579 0.395 0.00 0.71887 0.01
5 9 -3 1 o 1.541 0.932 180.00 0.71862 0.01
8 0 8 1 o 23.173 13.451 0.00 0.71798 0.10
3 3 -16 1 o 4.451 2.756 0.00 0.71713 0.04
5 9 0 1 o 7.254 4.495 180.00 0.71713 0.07
7 5 7 1 o 1.027 0.643 0.00 0.71707 0.01
2 10 -3 1 o 8.641 5.951 180.00 0.71666 0.08
10 0 2 1 o 8.186 5.862 180.00 0.71650 0.04
3 3 14 1 o 23.814 18.288 0.00 0.71618 0.21
7 3 9 1 o 5.705 4.430 0.00 0.71611 0.05
10 2 1 1 o 0.119 0.095 180.00 0.71592 0.00
8 2 -13 1 o 0.023 0.018 180.00 0.71553 0.00
5 3 12 1 o 9.158 7.356 180.00 0.71552 0.08
8 4 6 1 o 13.125 10.546 180.00 0.71541 0.12
0 10 4 1 o 0.001 0.001 180.00 0.71539 0.00
1 3 -16 1 o 0.013 0.011 180.00 0.71526 0.00
6 4 -14 1 o 3.412 2.775 180.00 0.71497 0.03
4 8 7 1 o 29.400 24.232 180.00 0.71458 0.26
2 10 2 1 o 0.035 0.029 0.00 0.71435 0.00
7 7 3 1 o 0.503 0.418 0.00 0.71416 0.00
1 5 14 1 o 16.107 13.213 180.00 0.71399 0.14
5 7 -11 1 o 0.013 0.011 0.00 0.71389 0.00
5 9 -4 1 o 2.842 2.257 180.00 0.71381 0.03
1 1 16 1 o 12.744 9.640 0.00 0.71365 0.11
6 4 10 1 o 1.451 1.019 180.00 0.71347 0.01
10 2 -8 1 o 0.910 0.486 180.00 0.71292 0.01
7 1 10 1 o 9.921 6.408 180.00 0.71170 0.09
5 9 1 1 o 6.420 4.470 0.00 0.71137 0.06
8 6 -8 1 o 0.060 0.043 0.00 0.71102 0.00
4 0 14 1 o 45.552 31.692 180.00 0.71069 0.20
3 3 0 2 o 0.002 0.001 180.00 0.71290 0.08
4 1 1 2 o 0.002 0.001 180.00 0.71290 0.17
6 8 -7 1 o 2.702 1.549 0.00 0.71038 0.02
9 5 -7 1 o 1.191 0.638 180.00 0.71031 0.01
7 7 -8 1 o 1.635 0.760 180.00 0.71017 0.01
7 5 -12 1 o 0.639 0.289 0.00 0.71015 0.01
6 8 3 1 o 1.877 0.571 180.00 0.70976 0.02
9 5 1 1 o 1.373 0.358 180.00 0.70957 0.01
2 10 -4 1 o 0.365 0.083 0.00 0.70926 0.00
5 5 -14 1 o 0.591 0.130 180.00 0.70897 0.01
4 8 -10 1 o 2.693 0.863 0.00 0.70792 0.02
7 3 -14 1 o 0.170 0.059 0.00 0.70779 0.00
3 9 -8 1 o 14.850 6.214 180.00 0.70740 0.13
3 9 6 1 o 15.771 7.580 180.00 0.70697 0.13
5 9 -5 1 o 0.788 0.422 180.00 0.70653 0.01
2 10 3 1 o 0.023 0.014 180.00 0.70613 0.00
6 6 -12 1 o 0.183 0.125 0.00 0.70591 0.00
9 1 -12 1 o 0.060 0.045 180.00 0.70576 0.00
1 9 8 1 o 6.436 5.221 0.00 0.70560 0.05
8 6 3 1 o 16.572 14.866 0.00 0.70542 0.14
5 1 13 1 o 21.334 21.733 180.00 0.70516 0.18
5 7 8 1 o 11.795 13.087 180.00 0.70476 0.10
8 2 8 1 o 4.970 5.517 180.00 0.70475 0.04
6 6 8 1 o 12.751 14.167 180.00 0.70470 0.11
2 6 -14 1 o 1.929 2.143 180.00 0.70467 0.02
2 8 -11 1 o 0.256 0.268 180.00 0.70427 0.00
9 1 6 1 o 0.477 0.473 180.00 0.70413 0.00
1 7 12 1 o 25.732 24.233 180.00 0.70403 0.21
0 10 5 1 o 0.002 0.002 0.00 0.70378 0.00
3 1 -17 1 o 9.233 5.503 0.00 0.70340 0.08
10 2 2 1 o 3.021 1.722 0.00 0.70335 0.03
5 9 2 1 o 0.048 0.025 180.00 0.70323 0.00
7 1 -15 1 o 1.656 0.658 180.00 0.70283 0.01
3 1 15 1 o 3.505 1.295 0.00 0.70244 0.03
3 5 -15 1 o 1.180 0.534 180.00 0.70198 0.01
1 5 -15 1 o 0.040 0.019 180.00 0.70190 0.00
8 4 -12 1 o 0.482 0.299 0.00 0.70148 0.00
9 3 -11 1 o 0.052 0.033 0.00 0.70144 0.00
3 5 13 1 o 30.149 20.211 180.00 0.70114 0.25
10 4 -3 1 o 0.015 0.010 180.00 0.70108 0.00
8 0 -14 1 o 2.119 1.442 180.00 0.70088 0.01
10 4 -4 1 o 0.011 0.007 0.00 0.70077 0.00
6 0 -16 1 o 1.540 1.051 0.00 0.70066 0.01
9 3 5 1 o 0.598 0.450 0.00 0.70001 0.00
1 1 -17 1 o 0.174 0.134 180.00 0.69996 0.00
4 6 11 1 o 11.462 9.100 0.00 0.69987 0.09
10 2 -9 1 o 0.174 0.138 0.00 0.69987 0.00
2 10 -5 1 o 0.108 0.095 180.00 0.69961 0.00
7 7 4 1 o 3.550 3.578 180.00 0.69922 0.03
9 5 -8 1 o 0.581 0.608 0.00 0.69903 0.00
6 0 12 1 o 69.269 72.610 0.00 0.69901 0.28
10 4 -2 1 o 1.124 1.189 180.00 0.69892 0.01
1 9 -9 1 o 0.299 0.317 0.00 0.69869 0.00
0 8 11 1 o 23.280 23.335 180.00 0.69834 0.19
9 5 2 1 o 5.573 5.250 180.00 0.69815 0.05
10 4 -5 1 o 0.017 0.015 180.00 0.69798 0.00
4 2 14 1 o 6.943 5.963 0.00 0.69784 0.06
10 0 -10 1 o 1.858 1.475 180.00 0.69732 0.01
5 5 11 1 o 9.215 7.252 0.00 0.69726 0.07
5 9 -6 1 o 0.072 0.055 180.00 0.69701 0.00
4 4 13 1 o 1.974 1.456 180.00 0.69681 0.02
2 4 -16 1 o 2.990 2.192 0.00 0.69673 0.02
6 8 -8 1 o 0.002 0.002 0.00 0.69661 0.00
8 6 -9 1 o 2.075 1.547 0.00 0.69642 0.02
6 8 4 1 o 0.072 0.067 180.00 0.69592 0.00
2 10 4 1 o 11.060 11.051 180.00 0.69575 0.09
2 2 -17 1 o 4.480 4.572 0.00 0.69538 0.04
2 8 10 1 o 2.356 2.326 0.00 0.69519 0.02
7 7 -9 1 o 0.144 0.142 0.00 0.69481 0.00
10 4 -1 1 o 1.332 1.486 180.00 0.69434 0.01
1 7 -13 1 o 0.429 0.517 0.00 0.69399 0.00
0 6 14 1 o 12.643 15.407 0.00 0.69380 0.10
2 0 16 1 o 5.421 6.619 0.00 0.69375 0.02
5 3 -16 1 o 0.226 0.293 180.00 0.69337 0.00
2 6 13 1 o 9.533 13.754 180.00 0.69305 0.07
5 9 3 1 o 0.075 0.112 180.00 0.69294 0.00
10 4 -6 1 o 0.809 1.242 180.00 0.69282 0.01
4 8 8 1 o 0.525 0.832 180.00 0.69235 0.00
8 4 7 1 o 4.268 6.675 180.00 0.69226 0.03
7 5 8 1 o 0.783 1.190 0.00 0.69217 0.01
3 7 -13 1 o 0.076 0.094 0.00 0.69083 0.00
4 6 -14 1 o 0.006 0.008 0.00 0.69072 0.00
0 10 6 1 o 6.339 9.201 0.00 0.69033 0.05
8 6 4 1 o 0.450 0.704 180.00 0.69021 0.00
3 7 11 1 o 0.092 0.148 0.00 0.69015 0.00
5 7 -12 1 o 0.538 0.554 180.00 0.68943 0.00
10 2 3 1 o 2.493 2.148 0.00 0.68904 0.02
3 9 -9 1 o 1.623 1.389 180.00 0.68900 0.01
8 2 -14 1 o 0.574 0.500 0.00 0.68855 0.00
3 9 7 1 o 4.704 4.108 180.00 0.68855 0.04
6 2 -16 1 o 0.087 0.083 180.00 0.68835 0.00
1 3 16 1 o 16.120 15.449 180.00 0.68833 0.12
2 10 -6 1 o 0.003 0.004 0.00 0.68797 0.00
10 4 0 1 o 0.397 0.865 0.00 0.68750 0.00
4 10 -1 1 o 1.622 3.917 180.00 0.68719 0.01
4 10 -2 1 o 0.168 0.342 180.00 0.68684 0.00
6 2 12 1 o 10.911 21.175 180.00 0.68678 0.08
9 5 -9 1 o 1.185 1.497 0.00 0.68593 0.01
4 2 -17 1 o 0.001 0.001 180.00 0.68665 0.00
7 3 10 1 o 2.263 3.828 0.00 0.68659 0.02
11 1 -3 1 o 3.044 3.719 180.00 0.68572 0.02
4 4 -16 1 o 0.281 0.416 180.00 0.68636 0.00
4 8 -11 1 o 0.002 0.003 180.00 0.68558 0.00
5 9 -7 1 o 0.265 0.320 180.00 0.68553 0.00
11 1 -4 1 o 0.009 0.012 0.00 0.68621 0.00
10 4 -7 1 o 0.659 0.795 0.00 0.68542 0.00
7 5 -13 1 o 1.216 1.469 0.00 0.68529 0.01
4 10 0 1 o 0.136 0.165 0.00 0.68521 0.00
10 2 -10 1 o 0.421 0.508 0.00 0.68517 0.00
9 5 3 1 o 7.704 9.169 0.00 0.68493 0.06
10 0 4 1 o 0.326 0.389 0.00 0.68487 0.00
11 1 -5 1 o 0.658 1.059 0.00 0.68438 0.00
1 9 9 1 o 0.997 2.180 0.00 0.68419 0.01
4 10 -3 1 o 0.490 1.151 180.00 0.68416 0.00
6 4 -15 1 o 0.059 0.141 0.00 0.68415 0.00
2 4 15 1 o 0.012 0.120 180.00 0.68387 0.00
2 10 5 1 o 0.000 0.052 180.00 0.68350 0.00
0 4 16 1 o 0.162 1.007 0.00 0.68309 0.00
11 1 -2 1 o 0.000 0.000 0.00 0.68292 0.00
9 1 -13 1 o 0.207 0.739 0.00 0.68289 0.00
7 7 5 1 o 2.420 8.366 0.00 0.68287 0.02
6 4 11 1 o 1.078 2.913 0.00 0.68272 0.01
5 1 -17 1 o 0.644 1.325 0.00 0.68248 0.00
2 2 16 1 o 0.038 0.050 0.00 0.68179 0.00
6 8 -9 1 o 0.223 0.326 0.00 0.68132 0.00
9 1 7 1 o 3.510 5.307 0.00 0.68125 0.03
9 3 -12 1 o 0.020 0.030 0.00 0.68125 0.00
4 10 1 1 o 0.054 0.092 180.00 0.68095 0.00
5 9 4 1 o 9.092 15.840 0.00 0.68081 0.07
6 6 -13 1 o 0.254 0.449 0.00 0.68071 0.00
5 3 13 1 o 3.687 6.510 0.00 0.68071 0.03
6 8 5 1 o 10.872 19.379 0.00 0.68056 0.08
7 1 11 1 o 13.511 24.186 0.00 0.68041 0.10
8 6 -10 1 o 0.742 1.329 0.00 0.68040 0.01
5 7 9 1 o 0.720 1.289 180.00 0.68034 0.01
0 2 17 1 o 0.747 1.336 180.00 0.68028 0.01
11 1 -6 1 o 0.063 0.112 180.00 0.68027 0.00
9 3 6 1 o 0.189 0.304 0.00 0.67978 0.00
6 6 9 1 o 3.209 4.827 180.00 0.67952 0.02
4 10 -4 1 o 5.396 8.621 180.00 0.67924 0.04
3 3 -17 1 o 0.009 0.016 0.00 0.67913 0.00
7 3 -15 1 o 0.097 0.249 0.00 0.67861 0.00
10 4 1 1 o 0.172 0.454 0.00 0.67859 0.00
2 8 -12 1 o 0.446 1.297 180.00 0.67845 0.00
3 3 15 1 o 0.454 1.371 180.00 0.67826 0.00
8 4 -13 1 o 0.019 0.058 0.00 0.67825 0.00
7 7 -10 1 o 0.727 2.086 0.00 0.67813 0.01
5 5 -15 1 o 0.307 0.877 180.00 0.67812 0.00
8 2 9 1 o 0.213 0.569 0.00 0.67804 0.00
1 5 15 1 o 12.235 28.999 0.00 0.67791 0.09
11 1 -1 1 o 0.752 1.746 0.00 0.67789 0.01
1 9 -10 1 o 1.987 3.508 180.00 0.67715 0.01
1 3 -17 1 o 0.000 0.130 0.00 0.67603 0.00
10 4 -8 1 o 0.000 1.040 0.00 0.67602 0.00
0 10 7 1 o 0.009 0.138 180.00 0.67538 0.00
2 10 -7 1 o 0.014 0.262 180.00 0.67467 0.00
4 10 2 1 o 0.342 4.371 0.00 0.67455 0.00
4 2 0 2 o 0.000 0.001 180.00 0.67632 0.01
11 1 -7 1 o 0.372 1.286 180.00 0.67402 0.00
1 7 13 1 o 0.145 0.429 0.00 0.67374 0.00
8 6 5 1 o 1.500 4.421 180.00 0.67373 0.01
10 2 4 1 o 0.172 0.460 180.00 0.67335 0.00
1 1 17 1 o 0.018 0.039 180.00 0.67317 0.00
5 9 -8 1 o 2.353 2.388 0.00 0.67239 0.02
4 10 -5 1 o 1.623 1.472 0.00 0.67222 0.01
2 6 -15 1 o 5.428 4.616 180.00 0.67213 0.04
7 1 -16 1 o 0.266 0.213 0.00 0.67204 0.00
0 8 12 1 o 0.975 0.738 180.00 0.67167 0.01
9 5 -10 1 o 0.337 0.390 180.00 0.67134 0.00
11 1 0 1 o 0.328 1.121 0.00 0.67078 0.00
9 5 4 1 o 3.434 5.855 0.00 0.67025 0.02
4 6 12 1 o 1.106 1.564 180.00 0.67007 0.01
4 8 9 1 o 1.814 2.215 0.00 0.66988 0.01
3 9 -10 1 o 0.235 0.271 0.00 0.66978 0.00
2 10 6 1 o 3.928 4.370 180.00 0.66969 0.03
5 1 14 1 o 0.054 0.058 180.00 0.66958 0.00
2 8 11 1 o 1.494 1.599 180.00 0.66957 0.01
3 9 8 1 o 0.008 0.008 180.00 0.66931 0.00
10 2 -11 1 o 0.034 0.033 180.00 0.66919 0.00
8 4 8 1 o 6.379 5.736 0.00 0.66905 0.04
2 0 -18 1 o 1.735 1.342 180.00 0.66852 0.01
3 5 -16 1 o 0.321 0.254 0.00 0.66836 0.00
10 4 2 1 o 0.486 0.455 180.00 0.66785 0.00
1 11 0 1 o 4.999 4.758 180.00 0.66775 0.03
3 5 14 1 o 3.849 3.578 180.00 0.66759 0.03
7 5 9 1 o 13.845 12.571 180.00 0.66754 0.09
1 11 -1 1 o 2.468 2.049 0.00 0.66740 0.02
5 9 5 1 o 0.071 0.046 0.00 0.66713 0.00
5 5 12 1 o 7.293 4.374 0.00 0.66706 0.05
1 5 -16 1 o 3.356 1.710 0.00 0.66684 0.02
4 10 3 1 o 3.878 2.161 0.00 0.66617 0.03
1 11 1 1 o 8.210 4.868 0.00 0.66596 0.06
11 1 -8 1 o 0.064 0.039 0.00 0.66579 0.00
7 7 6 1 o 7.048 4.348 0.00 0.66548 0.05
3 1 -18 1 o 1.560 0.948 180.00 0.66529 0.01
5 7 -13 1 o 1.644 0.982 0.00 0.66518 0.01
1 11 -2 1 o 13.065 7.545 0.00 0.66492 0.09
10 4 -9 1 o 0.050 0.028 180.00 0.66487 0.00
6 8 -10 1 o 0.646 0.371 0.00 0.66486 0.00
3 1 16 1 o 3.409 1.945 0.00 0.66443 0.02
1 7 -14 1 o 15.961 8.837 0.00 0.66425 0.11
6 8 6 1 o 1.139 0.591 180.00 0.66405 0.01
11 3 -4 1 o 0.280 0.128 180.00 0.66362 0.00
8 6 -11 1 o 0.418 0.188 180.00 0.66332 0.00
4 10 -6 1 o 0.100 0.045 180.00 0.66330 0.00
11 3 -3 1 o 0.870 0.397 0.00 0.66318 0.01
4 4 14 1 o 13.903 6.383 180.00 0.66313 0.09
4 8 -12 1 o 0.295 0.136 180.00 0.66311 0.00
3 7 -14 1 o 3.645 1.746 0.00 0.66289 0.02
10 0 -12 1 o 0.792 0.389 0.00 0.66272 0.00
