#------------------------------------------------------------------------------
#$Date: 2016-02-16 03:10:39 +0200 (Tue, 16 Feb 2016) $
#$Revision: 176453 $
#$URL: svn://www.crystallography.net/cod/cif/7/21/35/7213566.cif $
#------------------------------------------------------------------------------
#
# This file is available in the Crystallography Open Database (COD),
# http://www.crystallography.net/
#
# All data on this site have been placed in the public domain by the
# contributors.
#
data_7213566
loop_
_publ_author_name
'Jones, Richard H.'
'Knight, Kevin S.'
'Marshall, William G.'
'Clews, John'
'Darton, Richard J.'
'Pyatt, Daniel'
'Coles, Simon J.'
'Horton, Peter N.'
_publ_section_title
;
 Colossal thermal expansion and negative thermal expansion in simple
 halogen bonded complexes
;
_journal_issue                   2
_journal_name_full               CrystEngComm
_journal_page_first              237
_journal_paper_doi               10.1039/c3ce41909f
_journal_volume                  16
_journal_year                    2014
_chemical_formula_moiety         'C5 D5 N1 I1 Br1'
_chemical_formula_sum            'C5 Br D5 I N'
_chemical_formula_weight         290.94
_chemical_name_systematic        ' ?'
_space_group_IT_number           14
_symmetry_cell_setting           monoclinic
_symmetry_space_group_name_Hall  '-P 2ybc'
_symmetry_space_group_name_H-M   'P 1 21/c 1'
_cell_angle_alpha                90.0
_cell_angle_beta                 98.2979(9)
_cell_angle_gamma                90.0
_cell_formula_units_Z            4
_cell_length_a                   4.26162(9)
_cell_length_b                   12.71748(28)
_cell_length_c                   13.95174(31)
_cell_measurement_temperature    110
_cell_volume                     748.23(3)
_diffrn_ambient_temperature      110
_diffrn_measurement_device_type  'ISIS HRPD '
_diffrn_radiation_monochromator  TOF
_diffrn_radiation_probe          neutron
_diffrn_radiation_type           neutron
_diffrn_source                   Neutron
_diffrn_source_type              ?Spallation
_exptl_absorpt_correction_T_max  0.87729
_exptl_absorpt_correction_T_min  0.60101
_exptl_crystal_colour            orange
_exptl_crystal_density_diffrn    2.583
_exptl_crystal_density_meas      ?
_exptl_crystal_density_method    'not measured'
_pd_block_id                     2013-07-11T01:56|MOD2A_phase1|richard_Jones||
_pd_calc_method                  'Rietveld Refinement'
_pd_instr_location               'ISIS spallation source, England'
_pd_meas_2theta_fixed            168.33
_pd_meas_number_of_points        4610
_pd_meas_scan_method             tof
_pd_phase_name                   Py-IBr
_pd_proc_info_datetime           2013-07-11T01:56:51
_pd_proc_ls_pref_orient_corr     ' ?'
_pd_proc_ls_prof_R_factor        0.0155
_pd_proc_ls_prof_wR_expected     0.0072
_pd_proc_ls_prof_wR_factor       0.0175
_pd_proc_number_of_points        4610
_pd_spec_mounting                ' ?'
_refine_ls_goodness_of_fit_all   2.88
_refine_ls_number_parameters     143
_refine_ls_R_Fsqd_factor         0.09156
_reflns_d_resolution_high        0.654
_reflns_d_resolution_low         2.539
_reflns_limit_h_max              6
_reflns_limit_h_min              0
_reflns_limit_k_max              19
_reflns_limit_k_min              0
_reflns_limit_l_max              21
_reflns_limit_l_min              -21
_reflns_number_total             2775
_cod_data_source_file            c3ce41909f.txt
_cod_data_source_block           MOD2A_phase_1
_cod_depositor_comments
;
The following automatic conversions were performed:

'_geom_bond_publ_flag' value 'N' changed to 'n' according to
/usr/data/users/saulius/automatic-downloads/current/RSC/lib/dictionaries/cif_core.dic
dictionary named 'cif_core.dic' version 2.4.2 from 2011-04-26 (32
times).

'_geom_angle_publ_flag' value 'N' changed to 'n' according
to
/usr/data/users/saulius/automatic-downloads/current/RSC/lib/dictionaries/cif_core.dic
dictionary named 'cif_core.dic' version 2.4.2 from 2011-04-26 (19
times).

Automatic conversion script
Id: cif_fix_values 2281 2013-09-26 08:29:07Z andrius 

The following automatic conversions were performed:

'_exptl_crystal_density_meas' value 'not measured' was changed to '?'
- the value is perceived as not measured.

Automatic conversion script
Id: cif_fix_values 3008 2015-01-20 13:52:24Z robertas 
;
_cod_original_cell_volume        748.23(4)
_cod_original_sg_symbol_H-M      'P 21/c'
_cod_original_formula_sum        'C5 D5 Br I N'
_cod_database_code               7213566
#BEGIN Tags that were not found in dictionaries:
_gsas_exptl_extinct_corr_t_min   1.00000
_gsas_exptl_extinct_corr_t_max   1.00000
#END Tags that were not found in dictionaries
loop_
_symmetry_equiv_pos_site_id
_symmetry_equiv_pos_as_xyz
1 +x,+y,+z
2 -x,+y+1/2,-z+1/2
-1 -x,-y,-z
-2 +x,-y+1/2,+z+1/2
loop_
_atom_site_aniso_label
_atom_site_aniso_U_11
_atom_site_aniso_U_12
_atom_site_aniso_U_13
_atom_site_aniso_U_22
_atom_site_aniso_U_23
_atom_site_aniso_U_33
I1 0.0267(19) 0.0099(17) -0.0075(18) 0.0667(32) -0.0151(24) 0.0241(25)
Br1 0.0222(16) -0.0139(14) 0.0047(12) 0.0280(25) -0.0048(15) 0.0089(18)
H2 0.0346(20) 0.0034(17) 0.0172(20) 0.0294(26) 0.0123(19) 0.0551(29)
H3 0.0721(27) 0.0185(19) 0.0003(19) 0.0272(24) -0.0115(18) 0.0321(28)
H4 0.0602(23) 0.0296(20) 0.0112(20) 0.0343(25) 0.0172(21) 0.0495(30)
H5 0.0923(30) 0.0217(22) 0.0186(25) 0.068(4) 0.0186(24) 0.0217(29)
H6 0.0644(27) 0.0114(20) 0.0325(24) 0.0274(24) -0.0082(20) 0.0614(35)
loop_
_atom_site_type_symbol
_atom_site_label
_atom_site_fract_x
_atom_site_fract_y
_atom_site_fract_z
_atom_site_occupancy
_atom_site_thermal_displace_type
_atom_site_U_iso_or_equiv
_atom_site_symmetry_multiplicity
I I1 0.2227(6) 0.43340(30) 0.35492(26) 1.0 Uani 0.04027 4
Br Br1 0.0282(5) 0.57618(24) 0.22118(21) 1.0 Uani 0.01943 4
N N1 0.3824(4) 0.30488(16) 0.46939(15) 1.0 Uiso 0.0202(7) 4
C C2 0.5344(8) 0.22158(27) 0.44614(25) 1.0 Uiso 0.0267(10) 4
C C3 0.6229(6) 0.14186(30) 0.51192(26) 1.0 Uiso 0.0232(9) 4
C C4 0.5369(7) 0.14929(26) 0.60454(30) 1.0 Uiso 0.0255(9) 4
C C5 0.3773(8) 0.24032(29) 0.62818(27) 1.0 Uiso 0.0319(9) 4
C C6 0.3078(7) 0.31510(29) 0.55870(26) 1.0 Uiso 0.0220(9) 4
D H2 0.5939(8) 0.22049(24) 0.37319(25) 1.0 Uani 0.03863 4
D H3 0.7453(9) 0.07390(27) 0.48779(25) 1.0 Uani 0.04451 4
D H4 0.6116(7) 0.08569(32) 0.65505(27) 1.0 Uani 0.0477 4
D H5 0.3257(9) 0.24712(35) 0.70119(24) 1.0 Uani 0.05957 4
D H6 0.1875(9) 0.38594(26) 0.57638(27) 1.0 Uani 0.04876 4
loop_
_atom_type_symbol
_atom_type_number_in_cell
I 4.0
Br 4.0
N 4.0
C 20.0
D 20.0
loop_
_geom_angle_atom_site_label_1
_geom_angle_atom_site_label_2
_geom_angle_atom_site_label_3
_geom_angle
_geom_angle_site_symmetry_1
_geom_angle_site_symmetry_3
_geom_angle_publ_flag
Br1 I1 N1 178.28(19) 1_555 1_555 n
I1 N1 C2 120.50(23) 1_555 1_555 n
I1 N1 C6 119.23(24) 1_555 1_555 n
C2 N1 C6 120.24(30) 1_555 1_555 n
N1 C2 C3 121.80(30) 1_555 1_555 n
N1 C2 H2 115.8(4) 1_555 1_555 n
C3 C2 H2 122.4(4) 1_555 1_555 n
C2 C3 C4 118.79(33) 1_555 1_555 n
C2 C3 H3 118.3(4) 1_555 1_555 n
C4 C3 H3 122.8(4) 1_555 1_555 n
C3 C4 C5 118.3(4) 1_555 1_555 n
C3 C4 H4 117.2(4) 1_555 1_555 n
C5 C4 H4 124.5(5) 1_555 1_555 n
C4 C5 C6 118.1(4) 1_555 1_555 n
C4 C5 H5 117.4(5) 1_555 1_555 n
C6 C5 H5 124.4(5) 1_555 1_555 n
N1 C6 C5 122.7(4) 1_555 1_555 n
N1 C6 H6 118.5(4) 1_555 1_555 n
C5 C6 H6 118.8(4) 1_555 1_555 n
loop_
_geom_bond_atom_site_label_1
_geom_bond_atom_site_label_2
_geom_bond_distance
_geom_bond_site_symmetry_2
_geom_bond_publ_flag
I1 Br1 2.649(5) 1_555 n
I1 N1 2.318(4) 1_555 n
Br1 I1 2.649(5) 1_555 n
Br1 H2 2.882(4) 2_655 n
Br1 H4 2.787(4) -2_454 n
N1 I1 2.318(4) 1_555 n
N1 C2 1.3068(34) 1_555 n
N1 C6 1.336(4) 1_555 n
N1 H2 2.029(4) 1_555 n
C2 N1 1.3068(34) 1_555 n
C2 C3 1.383(4) 1_555 n
C2 H2 1.084(4) 1_555 n
C3 C2 1.383(4) 1_555 n
C3 C4 1.396(5) 1_555 n
C3 H3 1.088(4) 1_555 n
C4 C3 1.396(5) 1_555 n
C4 C5 1.406(4) 1_555 n
C4 H4 1.090(4) 1_555 n
C5 C4 1.406(4) 1_555 n
C5 C6 1.360(4) 1_555 n
C5 H5 1.076(4) 1_555 n
C6 N1 1.336(4) 1_555 n
C6 C5 1.360(4) 1_555 n
C6 H6 1.0826(35) 1_555 n
H2 Br1 2.882(4) 2_645 n
H2 N1 2.029(4) 1_555 n
H2 C2 1.084(4) 1_555 n
H3 C3 1.088(4) 1_555 n
H4 Br1 2.787(4) -2_655 n
H4 C4 1.090(4) 1_555 n
H5 C5 1.076(4) 1_555 n
H6 C6 1.0826(35) 1_555 n
loop_
_pd_block_diffractogram_id
2013-07-11T01:56|MOD2A_H_01|richard_Jones|hrpd
2013-07-11T01:56|MOD2A_H_02|richard_Jones|hrpd
loop_
_pd_meas_time_of_flight
_pd_proc_d_spacing
_pd_meas_intensity_total
_pd_proc_ls_weight
_pd_proc_intensity_bkg_calc
_pd_calc_intensity_total
31370.1 . 1.49(5) . . .
31379.6 . 1.42(5) . . .
31389.0 . 1.47(5) . . .
31398.4 . 1.44(5) . . .
31407.8 . 1.48(5) . . .
31417.2 . 1.49(5) . . .
31426.7 . 1.48(5) . . .
31436.1 . 1.46(5) . . .
31445.5 . 1.54(5) . . .
31454.9 . 1.43(5) . . .
31464.4 . 1.42(5) . . .
31473.8 . 1.41(5) . . .
31483.3 . 1.44(5) . . .
31492.7 . 1.54(5) . . .
31502.2 . 1.47(5) . . .
31511.6 . 1.43(4) . . .
31521.1 . 1.55(5) . . .
31530.5 . 1.50(5) . . .
31540.0 . 1.54(5) . . .
31549.4 . 1.48(4) . . .
31558.9 . 1.49(4) . . .
31568.4 . 1.49(4) . . .
31577.8 . 1.51(4) . . .
31587.3 . 1.44(4) . . .
31596.8 0.65431 1.45(4) 534. 1.460 1.517
31606.3 0.65450 1.52(4) 520. 1.460 1.514
31615.8 0.65470 1.50(4) 536. 1.460 1.514
31625.2 0.65490 1.49(4) 539. 1.460 1.517
31634.7 0.65509 1.52(4) 540. 1.460 1.522
31644.2 0.65529 1.51(4) 559. 1.461 1.528
31653.7 0.65548 1.55(4) 552. 1.461 1.533
31663.2 0.65568 1.57(4) 549. 1.461 1.534
31672.7 0.65588 1.55(4) 566. 1.461 1.532
31682.2 0.65608 1.63(4) 546. 1.461 1.529
31691.7 0.65627 1.61(4) 555. 1.461 1.526
31701.2 0.65647 1.46(4) 637. 1.461 1.523
31710.7 0.65667 1.51(4) 610. 1.461 1.519
31720.2 0.65686 1.59(4) 567. 1.461 1.516
31729.8 0.65706 1.43(4) 658. 1.461 1.516
31739.3 0.65726 1.45(4) 656. 1.461 1.518
31748.8 0.65745 1.57(4) 607. 1.461 1.522
31758.3 0.65765 1.55(4) 622. 1.461 1.526
31767.9 0.65785 1.57(4) 621. 1.461 1.530
31777.4 0.65805 1.61(4) 606. 1.461 1.533
31786.9 0.65824 1.54(4) 658. 1.461 1.536
31796.5 0.65844 1.51(4) 673. 1.461 1.539
31806.0 0.65864 1.55(4) 672. 1.461 1.540
31815.5 0.65884 1.57(4) 657. 1.461 1.541
31825.1 0.65903 1.58(4) 671. 1.461 1.543
31834.6 0.65923 1.56(4) 710. 1.461 1.543
31844.2 0.65943 1.50(4) 727. 1.461 1.542
31853.7 0.65963 1.56(4) 724. 1.461 1.537
31863.3 0.65983 1.54(4) 732. 1.461 1.533
31872.8 0.66002 1.53(4) 748. 1.461 1.530
31882.4 0.66022 1.53(4) 755. 1.461 1.531
31892.0 0.66042 1.51(4) 748. 1.461 1.534
31901.5 0.66062 1.62(4) 696. 1.462 1.539
31911.1 0.66082 1.59(4) 734. 1.462 1.543
31920.7 0.66101 1.59(4) 732. 1.462 1.544
31930.3 0.66121 1.56(4) 771. 1.462 1.544
31939.8 0.66141 1.56(4) 779. 1.462 1.543
31949.4 0.66161 1.52(4) 803. 1.462 1.542
31959.0 0.66181 1.501(35) 818. 1.4619 1.5420
31968.6 0.66201 1.55(4) 777. 1.462 1.542
31978.2 0.66221 1.536(35) 817. 1.4621 1.5447
31987.8 0.66240 1.546(34) 844. 1.4622 1.5496
31997.4 0.66260 1.60(4) 795. 1.462 1.555
32007.0 0.66280 1.60(4) 795. 1.462 1.559
32016.6 0.66300 1.583(35) 823. 1.4624 1.5591
32026.2 0.66320 1.560(34) 865. 1.4625 1.5585
32035.8 0.66340 1.537(34) 861. 1.4626 1.5588
32045.4 0.66360 1.592(35) 838. 1.4627 1.5602
32055.0 0.66380 1.540(33) 892. 1.4628 1.5614
32064.6 0.66400 1.607(34) 844. 1.4629 1.5601
32074.2 0.66420 1.67(4) 803. 1.463 1.557
32083.9 0.66439 1.534(33) 892. 1.4630 1.5535
32093.5 0.66459 1.542(33) 902. 1.4631 1.5539
32103.1 0.66479 1.612(34) 867. 1.4632 1.5581
32112.8 0.66499 1.566(33) 910. 1.4634 1.5641
32122.4 0.66519 1.615(34) 869. 1.4635 1.5674
32132.0 0.66539 1.570(33) 927. 1.4636 1.5663
32141.7 0.66559 1.542(32) 987. 1.4637 1.5630
32151.3 0.66579 1.557(32) 956. 1.4638 1.5610
32160.9 0.66599 1.529(32) 978. 1.4639 1.5625
32170.6 0.66619 1.539(32) 966. 1.4640 1.5654
32180.3 0.66639 1.565(32) 979. 1.4641 1.5658
32189.9 0.66659 1.548(31) 1024. 1.4642 1.5632
32199.6 0.66679 1.560(32) 998. 1.4644 1.5603
32209.2 0.66699 1.550(31) 1019. 1.4645 1.5599
32218.9 0.66719 1.572(32) 1000. 1.4646 1.5639
32228.5 0.66739 1.591(32) 1001. 1.4647 1.5722
32238.2 0.66759 1.521(31) 1064. 1.4649 1.5806
32247.9 0.66779 1.570(31) 1042. 1.4650 1.5843
32257.6 0.66799 1.538(31) 1067. 1.4651 1.5830
32267.2 0.66819 1.483(30) 1130. 1.4653 1.5794
32276.9 0.66839 1.586(31) 1029. 1.4654 1.5757
32286.6 0.66859 1.544(30) 1096. 1.4655 1.5717
32296.3 0.66879 1.537(30) 1105. 1.4657 1.5671
32306.0 0.66900 1.563(30) 1089. 1.4658 1.5634
32315.7 0.66920 1.616(31) 1048. 1.4660 1.5611
32325.4 0.66940 1.611(31) 1052. 1.4661 1.5601
32335.1 0.66960 1.589(30) 1086. 1.4663 1.5613
32344.8 0.66980 1.576(30) 1103. 1.4664 1.5650
32354.5 0.67000 1.607(30) 1086. 1.4666 1.5686
32364.2 0.67020 1.577(30) 1143. 1.4667 1.5683
32373.9 0.67040 1.541(29) 1188. 1.4669 1.5633
32383.6 0.67060 1.541(29) 1164. 1.4670 1.5555
32393.3 0.67080 1.523(29) 1216. 1.4672 1.5474
32403.0 0.67101 1.504(28) 1235. 1.4673 1.5409
32412.7 0.67121 1.513(29) 1226. 1.4675 1.5361
32422.5 0.67141 1.549(29) 1198. 1.4677 1.5321
32432.2 0.67161 1.487(28) 1269. 1.4678 1.5283
32441.9 0.67181 1.513(29) 1219. 1.4680 1.5241
32451.7 0.67201 1.522(28) 1246. 1.4682 1.5199
32461.4 0.67221 1.514(28) 1265. 1.4683 1.5163
32471.1 0.67242 1.502(28) 1297. 1.4685 1.5133
32480.9 0.67262 1.511(28) 1318. 1.4687 1.5110
32490.6 0.67282 1.523(28) 1307. 1.4689 1.5101
32500.4 0.67302 1.509(28) 1298. 1.4690 1.5111
32510.1 0.67322 1.496(27) 1324. 1.4692 1.5138
32519.9 0.67343 1.497(27) 1330. 1.4694 1.5171
32529.6 0.67363 1.518(28) 1315. 1.4696 1.5202
32539.4 0.67383 1.538(28) 1320. 1.4698 1.5232
32549.1 0.67403 1.513(27) 1331. 1.4700 1.5268
32558.9 0.67423 1.533(27) 1348. 1.4702 1.5309
32568.7 0.67444 1.514(27) 1368. 1.4704 1.5340
32578.4 0.67464 1.505(27) 1376. 1.4706 1.5353
32588.2 0.67484 1.520(27) 1341. 1.4708 1.5366
32598.0 0.67504 1.460(26) 1478. 1.4710 1.5397
32607.8 0.67525 1.462(26) 1468. 1.4712 1.5450
32617.6 0.67545 1.511(26) 1428. 1.4714 1.5508
32627.3 0.67565 1.562(27) 1357. 1.4716 1.5557
32637.1 0.67586 1.561(27) 1372. 1.4718 1.5586
32646.9 0.67606 1.527(26) 1428. 1.4720 1.5591
32656.7 0.67626 1.550(27) 1402. 1.4722 1.5579
32666.5 0.67646 1.574(27) 1387. 1.4724 1.5561
32676.3 0.67667 1.537(26) 1448. 1.4726 1.5539
32686.1 0.67687 1.508(26) 1484. 1.4728 1.5510
32695.9 0.67707 1.521(26) 1508. 1.4730 1.5476
32705.7 0.67728 1.496(26) 1504. 1.4733 1.5443
32715.5 0.67748 1.515(26) 1527. 1.4735 1.5415
32725.4 0.67768 1.550(26) 1461. 1.4737 1.5390
32735.2 0.67789 1.540(26) 1500. 1.4739 1.5372
32745.0 0.67809 1.512(25) 1540. 1.4742 1.5371
32754.8 0.67829 1.513(25) 1547. 1.4744 1.5379
32764.7 0.67850 1.495(25) 1551. 1.4746 1.5370
32774.5 0.67870 1.489(25) 1582. 1.4749 1.5332
32784.3 0.67890 1.521(26) 1517. 1.4751 1.5283
32794.1 0.67911 1.492(25) 1600. 1.4753 1.5247
32804.0 0.67931 1.463(25) 1631. 1.4756 1.5233
32813.8 0.67952 1.530(25) 1591. 1.4758 1.5242
32823.7 0.67972 1.509(25) 1640. 1.4761 1.5271
32833.5 0.67992 1.538(25) 1571. 1.4763 1.5312
32843.4 0.68013 1.547(25) 1578. 1.4765 1.5353
32853.2 0.68033 1.519(25) 1608. 1.4768 1.5387
32863.1 0.68054 1.543(25) 1576. 1.4770 1.5410
32872.9 0.68074 1.519(25) 1661. 1.4773 1.5416
32882.8 0.68094 1.571(25) 1557. 1.4775 1.5399
32892.7 0.68115 1.545(25) 1652. 1.4778 1.5371
32902.5 0.68135 1.525(25) 1656. 1.4781 1.5345
32912.4 0.68156 1.491(24) 1704. 1.4783 1.5331
32922.3 0.68176 1.544(25) 1660. 1.4786 1.5337
32932.1 0.68197 1.574(25) 1617. 1.4788 1.5376
32942.0 0.68217 1.518(24) 1724. 1.4791 1.5458
32951.9 0.68238 1.567(25) 1664. 1.4794 1.5577
32961.8 0.68258 1.566(25) 1659. 1.4796 1.5707
32971.7 0.68278 1.573(24) 1680. 1.4799 1.5827
32981.6 0.68299 1.584(25) 1655. 1.4802 1.5929
32991.5 0.68319 1.575(24) 1675. 1.4805 1.5996
33001.4 0.68340 1.588(24) 1676. 1.4807 1.6017
33011.3 0.68360 1.602(24) 1671. 1.4810 1.6006
33021.2 0.68381 1.576(24) 1712. 1.4813 1.5982
33031.1 0.68402 1.566(24) 1744. 1.4816 1.5958
33041.0 0.68422 1.598(24) 1704. 1.4819 1.5934
33050.9 0.68443 1.580(24) 1721. 1.4821 1.5904
33060.8 0.68463 1.566(24) 1773. 1.4824 1.5860
33070.7 0.68484 1.615(24) 1689. 1.4827 1.5807
33080.7 0.68504 1.586(24) 1768. 1.4830 1.5747
33090.6 0.68525 1.560(24) 1798. 1.4833 1.5681
33100.5 0.68545 1.603(24) 1717. 1.4836 1.5627
33110.4 0.68566 1.586(24) 1738. 1.4839 1.5607
33120.4 0.68586 1.600(24) 1767. 1.4842 1.5632
33130.3 0.68607 1.562(23) 1838. 1.4845 1.5702
33140.2 0.68628 1.603(24) 1751. 1.4848 1.5791
33150.2 0.68648 1.568(24) 1768. 1.4851 1.5847
33160.1 0.68669 1.511(23) 1922. 1.4854 1.5837
33170.1 0.68689 1.555(23) 1851. 1.4857 1.5802
33180.0 0.68710 1.533(23) 1909. 1.4860 1.5789
33190.0 0.68731 1.560(23) 1883. 1.4863 1.5816
33199.9 0.68751 1.556(23) 1868. 1.4866 1.5866
33209.9 0.68772 1.601(23) 1827. 1.4869 1.5923
33219.9 0.68793 1.564(23) 1885. 1.4873 1.5979
33229.8 0.68813 1.571(23) 1909. 1.4876 1.6036
33239.8 0.68834 1.568(23) 1910. 1.4879 1.6094
33249.8 0.68855 1.567(23) 1897. 1.4882 1.6127
33259.8 0.68875 1.583(23) 1901. 1.4885 1.6108
33269.7 0.68896 1.568(23) 1941. 1.4889 1.6035
33279.7 0.68917 1.599(23) 1890. 1.4892 1.5940
33289.7 0.68937 1.574(23) 1910. 1.4895 1.5849
33299.7 0.68958 1.559(23) 1974. 1.4898 1.5776
33309.7 0.68979 1.583(23) 1922. 1.4902 1.5728
33319.7 0.68999 1.567(23) 1964. 1.4905 1.5705
33329.7 0.69020 1.560(22) 2004. 1.4908 1.5697
33339.7 0.69041 1.550(22) 2022. 1.4912 1.5694
33349.7 0.69061 1.569(22) 2000. 1.4915 1.5703
33359.7 0.69082 1.548(22) 2039. 1.4918 1.5730
33369.7 0.69103 1.567(22) 1980. 1.4922 1.5781
33379.7 0.69124 1.588(23) 1960. 1.4925 1.5859
33389.7 0.69144 1.597(23) 1965. 1.4929 1.5963
33399.7 0.69165 1.627(23) 1958. 1.4932 1.6075
33409.7 0.69186 1.580(22) 2019. 1.4936 1.6149
33419.8 0.69207 1.593(22) 2002. 1.4939 1.6160
33429.8 0.69227 1.605(22) 1994. 1.4943 1.6124
33439.8 0.69248 1.633(23) 1935. 1.4946 1.6070
33449.8 0.69269 1.625(23) 1974. 1.4950 1.6021
33459.9 0.69290 1.594(22) 2044. 1.4953 1.5986
33469.9 0.69311 1.603(22) 2033. 1.4957 1.5960
33480.0 0.69331 1.607(22) 2020. 1.4960 1.5926
33490.0 0.69352 1.584(22) 2137. 1.4964 1.5868
33500.0 0.69373 1.578(22) 2080. 1.4968 1.5792
33510.1 0.69394 1.558(22) 2121. 1.4971 1.5719
33520.2 0.69415 1.591(22) 2100. 1.4975 1.5674
33530.2 0.69435 1.602(22) 2067. 1.4979 1.5667
33540.3 0.69456 1.583(22) 2129. 1.4982 1.5690
33550.3 0.69477 1.608(22) 2118. 1.4986 1.5733
33560.4 0.69498 1.581(22) 2154. 1.4990 1.5782
33570.5 0.69519 1.566(21) 2201. 1.4994 1.5818
33580.5 0.69540 1.617(22) 2057. 1.4997 1.5843
33590.6 0.69561 1.591(21) 2166. 1.5001 1.5885
33600.7 0.69581 1.611(22) 2162. 1.5005 1.5970
33610.8 0.69602 1.652(22) 2036. 1.5009 1.6098
33620.8 0.69623 1.669(22) 2024. 1.5012 1.6239
33630.9 0.69644 1.643(22) 2103. 1.5016 1.6348
33641.0 0.69665 1.648(22) 2098. 1.5020 1.6402
33651.1 0.69686 1.595(21) 2218. 1.5024 1.6387
33661.2 0.69707 1.614(21) 2164. 1.5028 1.6300
33671.3 0.69728 1.640(22) 2133. 1.5032 1.6185
33681.4 0.69749 1.636(22) 2143. 1.5036 1.6092
33691.5 0.69770 1.647(22) 2152. 1.5040 1.6047
33701.6 0.69790 1.631(22) 2155. 1.5044 1.6043
33711.7 0.69811 1.621(21) 2167. 1.5047 1.6039
33721.8 0.69832 1.628(21) 2181. 1.5051 1.6014
33732.0 0.69853 1.629(21) 2189. 1.5055 1.5983
33742.1 0.69874 1.637(21) 2185. 1.5059 1.5974
33752.2 0.69895 1.604(21) 2235. 1.5063 1.5989
33762.3 0.69916 1.612(21) 2265. 1.5067 1.5998
33772.5 0.69937 1.622(21) 2238. 1.5072 1.5972
33782.6 0.69958 1.647(21) 2187. 1.5076 1.5916
33792.7 0.69979 1.630(21) 2231. 1.5080 1.5859
33802.9 0.70000 1.625(21) 2271. 1.5084 1.5825
33813.0 0.70021 1.612(21) 2274. 1.5088 1.5821
33823.1 0.70042 1.590(21) 2346. 1.5092 1.5843
33833.3 0.70063 1.620(21) 2275. 1.5096 1.5882
33843.4 0.70084 1.652(21) 2208. 1.5100 1.5926
33853.6 0.70105 1.625(21) 2271. 1.5104 1.5959
33863.8 0.70126 1.624(21) 2280. 1.5109 1.5971
33873.9 0.70147 1.624(21) 2317. 1.5113 1.5980
33884.1 0.70168 1.640(21) 2310. 1.5117 1.6004
33894.2 0.70189 1.644(21) 2289. 1.5121 1.6039
33904.4 0.70211 1.638(21) 2324. 1.5125 1.6073
33914.6 0.70232 1.668(21) 2250. 1.5130 1.6089
33924.8 0.70253 1.650(21) 2307. 1.5134 1.6081
33934.9 0.70274 1.646(21) 2328. 1.5138 1.6063
33945.1 0.70295 1.624(21) 2374. 1.5143 1.6043
33955.3 0.70316 1.643(21) 2354. 1.5147 1.6017
33965.5 0.70337 1.647(21) 2307. 1.5151 1.5981
33975.7 0.70358 1.649(21) 2330. 1.5155 1.5937
33985.9 0.70379 1.602(20) 2421. 1.5160 1.5899
33996.1 0.70400 1.609(20) 2434. 1.5164 1.5887
34006.3 0.70421 1.635(20) 2404. 1.5169 1.5919
34016.5 0.70443 1.576(20) 2534. 1.5173 1.6000
34026.7 0.70464 1.628(20) 2426. 1.5177 1.6104
34036.9 0.70485 1.632(20) 2413. 1.5182 1.6192
34047.1 0.70506 1.625(20) 2461. 1.5186 1.6243
34057.3 0.70527 1.639(20) 2417. 1.5191 1.6258
34067.5 0.70548 1.619(20) 2450. 1.5195 1.6247
34077.7 0.70570 1.629(20) 2483. 1.5200 1.6213
34088.0 0.70591 1.630(20) 2482. 1.5204 1.6162
34098.2 0.70612 1.598(20) 2540. 1.5209 1.6102
34108.4 0.70633 1.603(20) 2495. 1.5213 1.6037
34118.7 0.70654 1.622(20) 2483. 1.5218 1.5972
34128.9 0.70675 1.590(20) 2591. 1.5222 1.5916
34139.1 0.70697 1.641(20) 2486. 1.5227 1.5883
34149.4 0.70718 1.629(20) 2504. 1.5231 1.5883
34159.6 0.70739 1.599(20) 2563. 1.5236 1.5914
34169.9 0.70760 1.651(20) 2489. 1.5240 1.5973
34180.1 0.70782 1.666(20) 2475. 1.5245 1.6048
34190.4 0.70803 1.665(20) 2485. 1.5250 1.6120
34200.6 0.70824 1.652(20) 2470. 1.5254 1.6193
34210.9 0.70845 1.664(20) 2500. 1.5259 1.6277
34221.1 0.70867 1.672(20) 2504. 1.5264 1.6369
34231.4 0.70888 1.669(20) 2477. 1.5268 1.6448
34241.7 0.70909 1.659(20) 2522. 1.5273 1.6486
34252.0 0.70930 1.638(20) 2563. 1.5278 1.6464
34262.2 0.70952 1.643(20) 2602. 1.5282 1.6395
34272.5 0.70973 1.645(20) 2582. 1.5287 1.6295
34282.8 0.70994 1.596(19) 2702. 1.5292 1.6189
34293.1 0.71016 1.622(20) 2629. 1.5296 1.6105
34303.4 0.71037 1.591(19) 2714. 1.5301 1.6058
34313.7 0.71058 1.634(20) 2616. 1.5306 1.6055
34323.9 0.71080 1.637(19) 2654. 1.5311 1.6099
34334.2 0.71101 1.605(19) 2676. 1.5316 1.6185
34344.5 0.71122 1.655(20) 2573. 1.5320 1.6294
34354.8 0.71144 1.676(20) 2600. 1.5325 1.6403
34365.2 0.71165 1.665(20) 2622. 1.5330 1.6485
34375.5 0.71186 1.682(20) 2626. 1.5335 1.6523
34385.8 0.71208 1.660(19) 2652. 1.5340 1.6537
34396.1 0.71229 1.657(19) 2651. 1.5344 1.6563
34406.4 0.71250 1.661(19) 2648. 1.5349 1.6604
34416.7 0.71272 1.654(19) 2707. 1.5354 1.6628
34427.1 0.71293 1.680(19) 2659. 1.5359 1.6616
34437.4 0.71315 1.680(19) 2638. 1.5364 1.6582
34447.7 0.71336 1.656(19) 2736. 1.5369 1.6540
34458.1 0.71357 1.667(19) 2671. 1.5374 1.6492
34468.4 0.71379 1.640(19) 2753. 1.5379 1.6440
34478.7 0.71400 1.627(19) 2767. 1.5384 1.6385
34489.1 0.71422 1.651(19) 2753. 1.5389 1.6332
34499.4 0.71443 1.646(19) 2748. 1.5394 1.6286
34509.8 0.71464 1.639(19) 2747. 1.5399 1.6256
34520.1 0.71486 1.649(19) 2774. 1.5404 1.6253
34530.5 0.71507 1.605(19) 2895. 1.5409 1.6279
34540.8 0.71529 1.641(19) 2774. 1.5414 1.6311
34551.2 0.71550 1.659(19) 2776. 1.5419 1.6328
34561.6 0.71572 1.657(19) 2771. 1.5424 1.6329
34571.9 0.71593 1.642(19) 2824. 1.5429 1.6334
34582.3 0.71615 1.640(19) 2874. 1.5434 1.6349
34592.7 0.71636 1.679(19) 2757. 1.5439 1.6363
34603.1 0.71658 1.660(19) 2828. 1.5444 1.6372
34613.4 0.71679 1.661(19) 2857. 1.5449 1.6384
34623.8 0.71701 1.632(19) 2916. 1.5454 1.6396
34634.2 0.71722 1.654(19) 2857. 1.5459 1.6387
34644.6 0.71744 1.619(18) 2943. 1.5464 1.6349
34655.0 0.71765 1.633(18) 2939. 1.5469 1.6303
34665.4 0.71787 1.641(19) 2914. 1.5475 1.6278
34675.8 0.71808 1.624(18) 2946. 1.5480 1.6288
34686.2 0.71830 1.690(19) 2803. 1.5485 1.6336
34696.6 0.71851 1.638(18) 3000. 1.5490 1.6411
34707.0 0.71873 1.686(19) 2877. 1.5495 1.6490
34717.4 0.71895 1.652(18) 2948. 1.5500 1.6553
34727.8 0.71916 1.634(18) 3026. 1.5505 1.6594
34738.3 0.71938 1.633(18) 3009. 1.5511 1.6620
34748.7 0.71959 1.648(18) 3010. 1.5516 1.6616
34759.1 0.71981 1.639(18) 3038. 1.5521 1.6560
34769.5 0.72003 1.651(18) 3020. 1.5526 1.6467
34780.0 0.72024 1.641(18) 3041. 1.5532 1.6368
34790.4 0.72046 1.650(18) 3045. 1.5537 1.6284
34800.8 0.72067 1.630(18) 3074. 1.5542 1.6228
34811.3 0.72089 1.641(18) 3068. 1.5547 1.6202
34821.7 0.72111 1.631(18) 3076. 1.5553 1.6203
34832.2 0.72132 1.635(18) 3094. 1.5558 1.6228
34842.6 0.72154 1.626(18) 3141. 1.5563 1.6278
34853.1 0.72176 1.635(18) 3157. 1.5568 1.6343
34863.5 0.72197 1.637(18) 3131. 1.5574 1.6393
34874.0 0.72219 1.662(18) 3084. 1.5579 1.6414
34884.4 0.72241 1.652(18) 3122. 1.5584 1.6426
34894.9 0.72262 1.616(18) 3225. 1.5590 1.6453
34905.4 0.72284 1.671(18) 3089. 1.5595 1.6499
34915.8 0.72306 1.671(18) 3079. 1.5600 1.6547
34926.3 0.72327 1.657(18) 3123. 1.5606 1.6566
34936.8 0.72349 1.668(18) 3114. 1.5611 1.6533
34947.3 0.72371 1.663(18) 3151. 1.5617 1.6461
34957.8 0.72392 1.653(18) 3198. 1.5622 1.6382
34968.2 0.72414 1.684(18) 3072. 1.5627 1.6312
34978.7 0.72436 1.673(18) 3149. 1.5633 1.6253
34989.2 0.72458 1.634(17) 3282. 1.5638 1.6208
34999.7 0.72479 1.647(18) 3216. 1.5644 1.6187
35010.2 0.72501 1.650(18) 3197. 1.5649 1.6202
35020.7 0.72523 1.644(18) 3247. 1.5654 1.6260
35031.2 0.72545 1.643(17) 3280. 1.5660 1.6357
35041.7 0.72566 1.670(18) 3218. 1.5665 1.6477
35052.3 0.72588 1.673(18) 3215. 1.5671 1.6593
35062.8 0.72610 1.651(17) 3292. 1.5676 1.6677
35073.3 0.72632 1.626(17) 3389. 1.5682 1.6728
35084. 0.72654 1.666(17) 3274. 1.5687 1.6763
35094. 0.72675 1.629(17) 3384. 1.5693 1.6783
35105. 0.72697 1.631(17) 3389. 1.5698 1.6781
35115. 0.72719 1.636(17) 3355. 1.5704 1.6751
35126. 0.72741 1.668(17) 3285. 1.5709 1.6693
35136. 0.72763 1.667(17) 3302. 1.5715 1.6613
35147. 0.72784 1.663(17) 3289. 1.5720 1.6524
35158. 0.72806 1.651(17) 3356. 1.5726 1.6450
35168. 0.72828 1.627(17) 3436. 1.5731 1.6406
35179. 0.72850 1.641(17) 3392. 1.5737 1.6390
35189. 0.72872 1.630(17) 3472. 1.5742 1.6396
35200. 0.72894 1.610(17) 3519. 1.5748 1.6417
35210. 0.72916 1.636(17) 3410. 1.5753 1.6439
35221. 0.72937 1.635(17) 3505. 1.5759 1.6463
35231. 0.72959 1.644(17) 3452. 1.5764 1.6496
35242. 0.72981 1.664(17) 3426. 1.5770 1.6538
35253. 0.73003 1.664(17) 3420. 1.5776 1.6593
35263. 0.73025 1.651(17) 3477. 1.5781 1.6662
35274. 0.73047 1.668(17) 3466. 1.5787 1.6723
35284. 0.73069 1.676(17) 3413. 1.5792 1.6756
35295. 0.73091 1.637(17) 3494. 1.5798 1.6754
35306. 0.73113 1.633(17) 3552. 1.5804 1.6731
35316. 0.73135 1.639(17) 3571. 1.5809 1.6701
35327. 0.73157 1.674(17) 3471. 1.5815 1.6670
35337. 0.73179 1.649(17) 3508. 1.5820 1.6639
35348. 0.73201 1.626(17) 3645. 1.5826 1.6623
35359. 0.73223 1.649(17) 3573. 1.5832 1.6644
35369. 0.73244 1.652(17) 3571. 1.5837 1.6720
35380. 0.73266 1.702(17) 3426. 1.5843 1.6849
35390. 0.73288 1.680(17) 3530. 1.5849 1.6992
35401. 0.73310 1.672(17) 3550. 1.5854 1.7093
35412. 0.73332 1.729(17) 3399. 1.5860 1.7117
35422. 0.73354 1.708(17) 3496. 1.5866 1.7054
35433. 0.73376 1.690(17) 3529. 1.5871 1.6933
35443. 0.73398 1.666(17) 3588. 1.5877 1.6804
35454. 0.73420 1.651(17) 3625. 1.5883 1.6706
35465. 0.73443 1.693(17) 3518. 1.5888 1.6642
35475. 0.73465 1.663(17) 3616. 1.5894 1.6610
35486. 0.73487 1.635(16) 3728. 1.5900 1.6596
35497. 0.73509 1.657(17) 3651. 1.5905 1.6593
35507. 0.73531 1.673(17) 3652. 1.5911 1.6605
35518. 0.73553 1.672(17) 3612. 1.5917 1.6643
35529. 0.73575 1.663(16) 3685. 1.5923 1.6703
35539. 0.73597 1.642(16) 3729. 1.5928 1.6767
35550. 0.73619 1.669(16) 3692. 1.5934 1.6817
35561. 0.73641 1.626(16) 3855. 1.5940 1.6843
35571. 0.73663 1.643(16) 3757. 1.5945 1.6837
35582. 0.73685 1.640(16) 3778. 1.5951 1.6796
35593. 0.73707 1.672(16) 3748. 1.5957 1.6728
35603. 0.73730 1.683(16) 3676. 1.5963 1.6656
35614. 0.73752 1.699(17) 3630. 1.5968 1.6594
35625. 0.73774 1.654(16) 3776. 1.5974 1.6551
35635. 0.73796 1.640(16) 3851. 1.5980 1.6532
35646. 0.73818 1.640(16) 3866. 1.5986 1.6540
35657. 0.73840 1.631(16) 3842. 1.5992 1.6569
35667. 0.73862 1.640(16) 3846. 1.5997 1.6605
35678. 0.73885 1.619(16) 3921. 1.6003 1.6645
35689. 0.73907 1.622(16) 3935. 1.6009 1.6684
35700. 0.73929 1.641(16) 3875. 1.6015 1.6709
35710. 0.73951 1.648(16) 3856. 1.6020 1.6726
35721. 0.73973 1.660(16) 3871. 1.6026 1.6754
35732. 0.73995 1.671(16) 3841. 1.6032 1.6800
35742. 0.74018 1.683(16) 3846. 1.6038 1.6854
35753. 0.74040 1.666(16) 3877. 1.6044 1.6911
35764. 0.74062 1.632(16) 3988. 1.6049 1.6964
35775. 0.74084 1.657(16) 3913. 1.6055 1.7007
35785. 0.74107 1.668(16) 3865. 1.6061 1.7046
35796. 0.74129 1.684(16) 3868. 1.6067 1.7102
35807. 0.74151 1.674(16) 3933. 1.6073 1.7189
35818. 0.74173 1.667(16) 3936. 1.6078 1.7294
35828. 0.74196 1.713(16) 3804. 1.6084 1.7389
35839. 0.74218 1.731(16) 3793. 1.6090 1.7448
35850. 0.74240 1.682(16) 3938. 1.6096 1.7463
35861. 0.74262 1.718(16) 3865. 1.6102 1.7465
35871. 0.74285 1.677(16) 4011. 1.6108 1.7480
35882. 0.74307 1.710(16) 3910. 1.6113 1.7509
35893. 0.74329 1.743(16) 3802. 1.6119 1.7547
35904. 0.74352 1.735(16) 3820. 1.6125 1.7587
35914. 0.74374 1.714(16) 3905. 1.6131 1.7602
35925. 0.74396 1.705(16) 3959. 1.6137 1.7577
35936. 0.74418 1.711(16) 3946. 1.6143 1.7535
35947. 0.74441 1.715(16) 3915. 1.6148 1.7502
35957. 0.74463 1.733(16) 3859. 1.6154 1.7483
35968. 0.74485 1.706(16) 3997. 1.6160 1.7465
35979. 0.74508 1.719(16) 3922. 1.6166 1.7448
35990. 0.74530 1.721(16) 3930. 1.6172 1.7443
36001. 0.74553 1.707(16) 4009. 1.6178 1.7450
36011. 0.74575 1.714(16) 3975. 1.6184 1.7473
36022. 0.74597 1.745(16) 3909. 1.6189 1.7518
36033. 0.74620 1.727(16) 4007. 1.6195 1.7583
36044. 0.74642 1.734(16) 3968. 1.6201 1.7628
36055. 0.74664 1.717(16) 4008. 1.6207 1.7611
36065. 0.74687 1.743(16) 3972. 1.6213 1.7534
36076. 0.74709 1.680(15) 4194. 1.6219 1.7418
36087. 0.74732 1.705(16) 4103. 1.6225 1.7277
36098. 0.74754 1.736(16) 4026. 1.6230 1.7129
36109. 0.74777 1.715(16) 4073. 1.6236 1.6992
36120. 0.74799 1.684(15) 4178. 1.6242 1.6880
36130. 0.74821 1.667(15) 4254. 1.6248 1.6799
36141. 0.74844 1.693(16) 4154. 1.6254 1.6750
36152. 0.74866 1.684(15) 4200. 1.6260 1.6733
36163. 0.74889 1.697(15) 4163. 1.6266 1.6747
36174. 0.74911 1.683(15) 4233. 1.6272 1.6789
36185. 0.74934 1.693(16) 4160. 1.6277 1.6854
36196. 0.74956 1.693(15) 4220. 1.6283 1.6937
36206. 0.74979 1.715(15) 4184. 1.6289 1.7028
36217. 0.75001 1.704(15) 4177. 1.6295 1.7119
36228. 0.75024 1.683(15) 4303. 1.6301 1.7200
36239. 0.75046 1.710(15) 4212. 1.6307 1.7262
36250. 0.75069 1.709(15) 4232. 1.6313 1.7296
36261. 0.75091 1.719(15) 4207. 1.6319 1.7303
36272. 0.75114 1.719(15) 4235. 1.6324 1.7301
36282. 0.75136 1.740(15) 4177. 1.6330 1.7299
36293. 0.75159 1.730(15) 4209. 1.6336 1.7297
36304. 0.75182 1.741(15) 4172. 1.6342 1.7311
36315. 0.75204 1.713(15) 4241. 1.6348 1.7353
36326. 0.75227 1.734(15) 4236. 1.6354 1.7414
36337. 0.75249 1.760(16) 4142. 1.6360 1.7485
36348. 0.75272 1.753(15) 4176. 1.6366 1.7573
36359. 0.75294 1.793(16) 4094. 1.6372 1.7713
36370. 0.75317 1.787(16) 4160. 1.6377 1.7938
36381. 0.75340 1.786(16) 4154. 1.6383 1.8244
36391. 0.75362 1.823(16) 4078. 1.6389 1.8579
36402. 0.75385 1.836(16) 4036. 1.6395 1.8836
36413. 0.75407 1.834(16) 4042. 1.6401 1.8939
36424. 0.75430 1.812(16) 4143. 1.6407 1.8930
36435. 0.75453 1.823(16) 4134. 1.6413 1.8860
36446. 0.75475 1.844(16) 4042. 1.6419 1.8730
36457. 0.75498 1.841(16) 4087. 1.6424 1.8542
36468. 0.75521 1.826(16) 4144. 1.6430 1.8343
36479. 0.75543 1.801(15) 4189. 1.6436 1.8184
36490. 0.75566 1.823(16) 4157. 1.6442 1.8085
36501. 0.75589 1.804(15) 4170. 1.6448 1.8041
36512. 0.75611 1.802(15) 4212. 1.6454 1.8012
36523. 0.75634 1.788(15) 4243. 1.6460 1.7957
36534. 0.75657 1.781(15) 4264. 1.6466 1.7886
36545. 0.75679 1.777(15) 4320. 1.6471 1.7832
36556. 0.75702 1.786(15) 4334. 1.6477 1.7817
36567. 0.75725 1.774(15) 4339. 1.6483 1.7847
36578. 0.75748 1.794(15) 4308. 1.6489 1.7897
36588. 0.75770 1.809(15) 4201. 1.6495 1.7937
36599. 0.75793 1.768(15) 4370. 1.6501 1.7961
36610. 0.75816 1.796(15) 4298. 1.6507 1.7975
36621. 0.75839 1.812(15) 4248. 1.6512 1.7942
36632. 0.75861 1.799(15) 4274. 1.6518 1.7830
36643. 0.75884 1.767(15) 4385. 1.6524 1.7669
36654. 0.75907 1.763(15) 4432. 1.6530 1.7509
36665. 0.75930 1.725(15) 4605. 1.6536 1.7376
36676. 0.75952 1.744(15) 4534. 1.6542 1.7286
36687. 0.75975 1.730(15) 4584. 1.6548 1.7235
36698. 0.75998 1.730(15) 4545. 1.6553 1.7216
36709. 0.76021 1.730(15) 4559. 1.6559 1.7223
36720. 0.76044 1.736(15) 4584. 1.6565 1.7257
36731. 0.76066 1.756(15) 4480. 1.6571 1.7321
36742. 0.76089 1.737(15) 4578. 1.6577 1.7387
36753. 0.76112 1.764(15) 4440. 1.6583 1.7407
36765. 0.76135 1.738(15) 4556. 1.6589 1.7370
36776. 0.76158 1.719(15) 4626. 1.6594 1.7305
36787. 0.76181 1.713(15) 4639. 1.6600 1.7243
36798. 0.76203 1.725(15) 4624. 1.6606 1.7198
36809. 0.76226 1.700(15) 4704. 1.6612 1.7174
36820. 0.76249 1.721(15) 4679. 1.6618 1.7167
36831. 0.76272 1.727(15) 4703. 1.6623 1.7178
36842. 0.76295 1.717(14) 4759. 1.6629 1.7205
36853. 0.76318 1.726(15) 4680. 1.6635 1.7235
36864. 0.76341 1.707(15) 4745. 1.6641 1.7256
36875. 0.76364 1.739(15) 4662. 1.6647 1.7268
36886. 0.76387 1.734(15) 4684. 1.6653 1.7285
36897. 0.76409 1.727(15) 4713. 1.6658 1.7309
36908. 0.76432 1.722(14) 4757. 1.6664 1.7332
36919. 0.76455 1.741(15) 4660. 1.6670 1.7347
36930. 0.76478 1.745(15) 4712. 1.6676 1.7364
36941. 0.76501 1.738(15) 4737. 1.6682 1.7378
36952. 0.76524 1.724(14) 4768. 1.6687 1.7378
36964. 0.76547 1.760(15) 4650. 1.6693 1.7370
36975. 0.76570 1.736(14) 4789. 1.6699 1.7371
36986. 0.76593 1.752(15) 4706. 1.6705 1.7395
36997. 0.76616 1.745(15) 4731. 1.6711 1.7452
37008. 0.76639 1.731(14) 4816. 1.6716 1.7534
37019. 0.76662 1.750(15) 4751. 1.6722 1.7616
37030. 0.76685 1.756(15) 4745. 1.6728 1.7661
37041. 0.76708 1.748(14) 4801. 1.6734 1.7660
37052. 0.76731 1.778(15) 4681. 1.6739 1.7637
37063. 0.76754 1.771(15) 4678. 1.6745 1.7618
37075. 0.76777 1.761(15) 4753. 1.6751 1.7626
37086. 0.76800 1.789(15) 4718. 1.6757 1.7667
37097. 0.76823 1.773(14) 4762. 1.6762 1.7725
37108. 0.76846 1.796(15) 4654. 1.6768 1.7773
37119. 0.76869 1.789(15) 4689. 1.6774 1.7796
37130. 0.76892 1.800(15) 4637. 1.6780 1.7814
37141. 0.76916 1.773(14) 4805. 1.6785 1.7867
37153. 0.76939 1.823(15) 4645. 1.6791 1.7973
37164. 0.76962 1.818(15) 4670. 1.6797 1.8111
37175. 0.76985 1.803(14) 4776. 1.6803 1.8236
37186. 0.77008 1.816(15) 4730. 1.6808 1.8324
37197. 0.77031 1.807(15) 4720. 1.6814 1.8359
37208. 0.77054 1.817(15) 4715. 1.6820 1.8344
37219. 0.77077 1.842(15) 4643. 1.6825 1.8317
37231. 0.77100 1.819(15) 4716. 1.6831 1.8295
37242. 0.77123 1.830(15) 4680. 1.6837 1.8246
37253. 0.77147 1.819(15) 4744. 1.6843 1.8143
37264. 0.77170 1.774(14) 4909. 1.6848 1.8004
37275. 0.77193 1.781(14) 4893. 1.6854 1.7863
37286. 0.77216 1.791(14) 4824. 1.6860 1.7753
37298. 0.77239 1.789(14) 4825. 1.6865 1.7693
37309. 0.77262 1.805(14) 4765. 1.6871 1.7681
37320. 0.77286 1.784(14) 4924. 1.6877 1.7703
37331. 0.77309 1.781(14) 4917. 1.6882 1.7735
37342. 0.77332 1.775(14) 4934. 1.6888 1.7757
37354. 0.77355 1.753(14) 5031. 1.6894 1.7763
37365. 0.77378 1.762(14) 5003. 1.6899 1.7760
37376. 0.77402 1.773(14) 4982. 1.6905 1.7769
37387. 0.77425 1.788(14) 4921. 1.6911 1.7805
37398. 0.77448 1.789(14) 4905. 1.6916 1.7855
37410. 0.77471 1.809(14) 4838. 1.6922 1.7884
37421. 0.77495 1.807(14) 4902. 1.6928 1.7892
37432. 0.77518 1.831(14) 4865. 1.6933 1.7903
37443. 0.77541 1.798(14) 4949. 1.6939 1.7910
37455. 0.77564 1.821(14) 4861. 1.6944 1.7895
37466. 0.77588 1.811(14) 4956. 1.6950 1.7869
37477. 0.77611 1.789(14) 5021. 1.6956 1.7845
37488. 0.77634 1.803(14) 4967. 1.6961 1.7833
37500. 0.77658 1.812(14) 4949. 1.6967 1.7835
37511. 0.77681 1.797(14) 5024. 1.6972 1.7837
37522. 0.77704 1.772(14) 5116. 1.6978 1.7825
37533. 0.77727 1.765(14) 5140. 1.6984 1.7806
37545. 0.77751 1.799(14) 5068. 1.6989 1.7805
37556. 0.77774 1.784(14) 5140. 1.6995 1.7836
37567. 0.77797 1.790(14) 5094. 1.7000 1.7898
37578. 0.77821 1.822(14) 5034. 1.7006 1.7987
37590. 0.77844 1.816(14) 5030. 1.7011 1.8098
37601. 0.77868 1.809(14) 5090. 1.7017 1.8208
37612. 0.77891 1.839(14) 4948. 1.7023 1.8293
37624. 0.77914 1.819(14) 5064. 1.7028 1.8339
37635. 0.77938 1.847(14) 4994. 1.7034 1.8336
37646. 0.77961 1.812(14) 5120. 1.7039 1.8295
37657. 0.77984 1.842(14) 5006. 1.7045 1.8255
37669. 0.78008 1.827(14) 5088. 1.7050 1.8237
37680. 0.78031 1.809(14) 5173. 1.7056 1.8224
37691. 0.78055 1.835(14) 5071. 1.7061 1.8199
37703. 0.78078 1.803(14) 5218. 1.7067 1.8182
37714. 0.78101 1.844(14) 5033. 1.7072 1.8212
37725. 0.78125 1.845(14) 5088. 1.7078 1.8319
37737. 0.78148 1.861(14) 5050. 1.7083 1.8513
37748. 0.78172 1.865(14) 5030. 1.7089 1.8756
37759. 0.78195 1.867(14) 5069. 1.7094 1.8973
37771. 0.78219 1.921(14) 4934. 1.7100 1.9127
37782. 0.78242 1.914(14) 4942. 1.7105 1.9232
37793. 0.78266 1.919(14) 4881. 1.7110 1.9294
37805. 0.78289 1.912(14) 4973. 1.7116 1.9305
37816. 0.78313 1.898(14) 4984. 1.7121 1.9283
37827. 0.78336 1.901(14) 5034. 1.7127 1.9231
37839. 0.78360 1.917(14) 4997. 1.7132 1.9125
37850. 0.78383 1.889(14) 5071. 1.7138 1.8961
37861. 0.78407 1.885(14) 5070. 1.7143 1.8769
37873. 0.78430 1.850(14) 5194. 1.7148 1.8583
37884. 0.78454 1.826(14) 5322. 1.7154 1.8427
37895. 0.78477 1.834(14) 5254. 1.7159 1.8316
37907. 0.78501 1.845(14) 5171. 1.7165 1.8243
37918. 0.78524 1.823(14) 5326. 1.7170 1.8199
37929. 0.78548 1.838(14) 5324. 1.7175 1.8202
37941. 0.78572 1.855(14) 5263. 1.7181 1.8276
37952. 0.78595 1.881(14) 5142. 1.7186 1.8440
37964. 0.78619 1.880(14) 5234. 1.7192 1.8684
37975. 0.78642 1.889(14) 5173. 1.7197 1.8958
37986. 0.78666 1.933(14) 5060. 1.7202 1.9199
37998. 0.78689 1.923(14) 5093. 1.7208 1.9355
38009. 0.78713 1.918(14) 5140. 1.7213 1.9401
38021. 0.78737 1.892(14) 5237. 1.7218 1.9322
38032. 0.78760 1.913(14) 5163. 1.7224 1.9159
38043. 0.78784 1.906(14) 5204. 1.7229 1.8976
38055. 0.78808 1.876(14) 5306. 1.7234 1.8809
38066. 0.78831 1.869(14) 5374. 1.7239 1.8678
38078. 0.78855 1.873(14) 5314. 1.7245 1.8586
38089. 0.78879 1.875(14) 5341. 1.7250 1.8510
38101. 0.78902 1.850(14) 5413. 1.7255 1.8437
38112. 0.78926 1.827(13) 5492. 1.7261 1.8365
38123. 0.78950 1.830(13) 5500. 1.7266 1.8301
38135. 0.78973 1.840(13) 5506. 1.7271 1.8258
38146. 0.78997 1.836(13) 5510. 1.7276 1.8235
38158. 0.79021 1.853(14) 5439. 1.7282 1.8219
38169. 0.79044 1.846(14) 5439. 1.7287 1.8196
38181. 0.79068 1.863(14) 5424. 1.7292 1.8169
38192. 0.79092 1.830(13) 5592. 1.7297 1.8145
38204. 0.79116 1.824(13) 5624. 1.7303 1.8126
38215. 0.79139 1.824(13) 5592. 1.7308 1.8112
38226. 0.79163 1.810(13) 5680. 1.7313 1.8101
38238. 0.79187 1.840(13) 5582. 1.7318 1.8092
38249. 0.79211 1.828(13) 5628. 1.7323 1.8092
38261. 0.79234 1.841(13) 5578. 1.7329 1.8099
38272. 0.79258 1.817(13) 5670. 1.7334 1.8092
38284. 0.79282 1.825(13) 5659. 1.7339 1.8065
38295. 0.79306 1.797(13) 5762. 1.7344 1.8036
38307. 0.79330 1.809(13) 5732. 1.7349 1.8018
38318. 0.79353 1.822(13) 5699. 1.7354 1.8002
38330. 0.79377 1.815(13) 5723. 1.7360 1.7975
38341. 0.79401 1.806(13) 5744. 1.7365 1.7946
38353. 0.79425 1.811(13) 5780. 1.7370 1.7930
38364. 0.79449 1.811(13) 5794. 1.7375 1.7931
38376. 0.79472 1.817(13) 5801. 1.7380 1.7951
38387. 0.79496 1.817(13) 5810. 1.7385 1.7996
38399. 0.79520 1.874(13) 5600. 1.7390 1.8082
38410. 0.79544 1.842(13) 5730. 1.7395 1.8216
38422. 0.79568 1.869(13) 5577. 1.7400 1.8385
38433. 0.79592 1.882(13) 5613. 1.7405 1.8550
38445. 0.79616 1.869(13) 5633. 1.7411 1.8651
38456. 0.79640 1.880(13) 5585. 1.7416 1.8648
38468. 0.79663 1.872(13) 5683. 1.7421 1.8573
38480. 0.79687 1.880(13) 5621. 1.7426 1.8484
38491. 0.79711 1.876(13) 5629. 1.7431 1.8428
38503. 0.79735 1.870(13) 5710. 1.7436 1.8434
38514. 0.79759 1.882(13) 5686. 1.7441 1.8509
38526. 0.79783 1.880(13) 5709. 1.7446 1.8646
38537. 0.79807 1.881(13) 5707. 1.7451 1.8840
38549. 0.79831 1.906(13) 5625. 1.7456 1.9090
38560. 0.79855 1.954(14) 5427. 1.7461 1.9330
38572. 0.79879 1.948(13) 5513. 1.7466 1.9441
38584. 0.79903 1.938(13) 5522. 1.7471 1.9404
38595. 0.79927 1.958(14) 5441. 1.7476 1.9287
38607. 0.79951 1.927(13) 5568. 1.7481 1.9153
38618. 0.79975 1.928(13) 5583. 1.7486 1.9021
38630. 0.79999 1.909(13) 5688. 1.7491 1.8896
38641. 0.80023 1.916(13) 5665. 1.7496 1.8793
38653. 0.80047 1.914(13) 5653. 1.7500 1.8721
38665. 0.80071 1.869(13) 5868. 1.7505 1.8665
38676. 0.80095 1.882(13) 5742. 1.7510 1.8610
38688. 0.80119 1.898(13) 5715. 1.7515 1.8550
38699. 0.80143 1.887(13) 5785. 1.7520 1.8495
38711. 0.80167 1.875(13) 5807. 1.7525 1.8471
38723. 0.80191 1.887(13) 5798. 1.7530 1.8502
38734. 0.80215 1.879(13) 5875. 1.7535 1.8600
38746. 0.80239 1.893(13) 5825. 1.7540 1.8753
38758. 0.80263 1.937(13) 5664. 1.7545 1.8914
38769. 0.80287 1.939(13) 5660. 1.7549 1.9027
38781. 0.80311 1.933(13) 5692. 1.7554 1.9104
38792. 0.80335 1.945(13) 5647. 1.7559 1.9187
38804. 0.80360 1.959(13) 5629. 1.7564 1.9303
38816. 0.80384 1.958(13) 5645. 1.7569 1.9452
38827. 0.80408 1.958(13) 5681. 1.7574 1.9627
38839. 0.80432 1.985(13) 5554. 1.7578 1.9847
38851. 0.80456 1.978(13) 5612. 1.7583 2.0102
38862. 0.80480 1.985(13) 5620. 1.7588 2.0322
38874. 0.80504 1.995(13) 5561. 1.7593 2.0399
38886. 0.80529 1.986(13) 5639. 1.7597 2.0280
38897. 0.80553 1.953(13) 5724. 1.7602 2.0034
38909. 0.80577 1.946(13) 5765. 1.7607 1.9757
38921. 0.80601 1.931(13) 5827. 1.7612 1.9507
38932. 0.80625 1.897(13) 5969. 1.7616 1.9309
38944. 0.80649 1.919(13) 5883. 1.7621 1.9168
38956. 0.80674 1.915(13) 5918. 1.7626 1.9087
38967. 0.80698 1.893(13) 6018. 1.7631 1.9058
38979. 0.80722 1.925(13) 5933. 1.7635 1.9069
38991. 0.80746 1.950(13) 5812. 1.7640 1.9101
39002. 0.80771 1.938(13) 5846. 1.7645 1.9148
39014. 0.80795 1.938(13) 5841. 1.7649 1.9211
39026. 0.80819 1.945(13) 5822. 1.7654 1.9300
39038. 0.80843 1.937(13) 5873. 1.7659 1.9422
39049. 0.80868 1.945(13) 5861. 1.7663 1.9549
39061. 0.80892 1.957(13) 5806. 1.7668 1.9632
39073. 0.80916 1.952(13) 5833. 1.7673 1.9647
39084. 0.80940 1.956(13) 5882. 1.7677 1.9585
39096. 0.80965 1.931(13) 5968. 1.7682 1.9466
39108. 0.80989 1.926(13) 5939. 1.7687 1.9329
39120. 0.81013 1.911(13) 6018. 1.7691 1.9210
39131. 0.81038 1.896(13) 6073. 1.7696 1.9118
39143. 0.81062 1.871(13) 6202. 1.7700 1.9039
39155. 0.81086 1.893(13) 6120. 1.7705 1.8964
39167. 0.81110 1.876(13) 6239. 1.7710 1.8891
39178. 0.81135 1.858(13) 6318. 1.7714 1.8834
39190. 0.81159 1.885(13) 6166. 1.7719 1.8808
39202. 0.81184 1.895(13) 6156. 1.7723 1.8820
39214. 0.81208 1.881(13) 6185. 1.7728 1.8862
39225. 0.81232 1.874(13) 6243. 1.7732 1.8912
39237. 0.81257 1.872(13) 6269. 1.7737 1.8959
39249. 0.81281 1.884(13) 6167. 1.7741 1.8982
39261. 0.81305 1.893(13) 6182. 1.7746 1.8962
39272. 0.81330 1.889(13) 6216. 1.7750 1.8907
39284. 0.81354 1.882(13) 6280. 1.7755 1.8836
39296. 0.81379 1.873(13) 6307. 1.7759 1.8770
39308. 0.81403 1.863(13) 6350. 1.7764 1.8711
39320. 0.81427 1.848(12) 6436. 1.7768 1.8658
39331. 0.81452 1.856(12) 6414. 1.7773 1.8617
39343. 0.81476 1.879(13) 6281. 1.7777 1.8601
39355. 0.81501 1.884(13) 6312. 1.7782 1.8613
39367. 0.81525 1.900(13) 6237. 1.7786 1.8648
39379. 0.81550 1.911(13) 6214. 1.7791 1.8693
39390. 0.81574 1.897(13) 6328. 1.7795 1.8734
39402. 0.81599 1.889(13) 6323. 1.7799 1.8785
39414. 0.81623 1.900(13) 6325. 1.7804 1.8863
39426. 0.81648 1.888(13) 6372. 1.7808 1.8955
39438. 0.81672 1.914(13) 6244. 1.7813 1.9033
39450. 0.81697 1.910(13) 6301. 1.7817 1.9079
39461. 0.81721 1.910(13) 6305. 1.7821 1.9109
39473. 0.81746 1.887(12) 6424. 1.7826 1.9147
39485. 0.81770 1.904(13) 6332. 1.7830 1.9198
39497. 0.81795 1.909(13) 6323. 1.7834 1.9256
39509. 0.81819 1.927(13) 6280. 1.7839 1.9285
39521. 0.81844 1.917(13) 6349. 1.7843 1.9245
39532. 0.81868 1.913(13) 6361. 1.7847 1.9150
39544. 0.81893 1.879(12) 6480. 1.7852 1.9046
39556. 0.81918 1.908(13) 6351. 1.7856 1.8948
39568. 0.81942 1.922(13) 6301. 1.7860 1.8856
39580. 0.81967 1.899(12) 6404. 1.7865 1.8771
39592. 0.81991 1.909(13) 6376. 1.7869 1.8702
39604. 0.82016 1.882(12) 6488. 1.7873 1.8662
39616. 0.82041 1.859(12) 6609. 1.7877 1.8668
39627. 0.82065 1.890(12) 6432. 1.7882 1.8726
39639. 0.82090 1.905(12) 6425. 1.7886 1.8825
39651. 0.82114 1.883(12) 6548. 1.7890 1.8927
39663. 0.82139 1.899(12) 6457. 1.7894 1.8987
39675. 0.82164 1.881(12) 6535. 1.7898 1.8999
39687. 0.82188 1.903(12) 6409. 1.7903 1.8993
39699. 0.82213 1.908(12) 6404. 1.7907 1.8997
39711. 0.82238 1.898(12) 6479. 1.7911 1.9008
39723. 0.82262 1.875(12) 6609. 1.7915 1.8990
39735. 0.82287 1.891(12) 6502. 1.7919 1.8941
39746. 0.82312 1.897(12) 6503. 1.7924 1.8890
39758. 0.82336 1.876(12) 6620. 1.7928 1.8860
39770. 0.82361 1.907(12) 6462. 1.7932 1.8861
39782. 0.82386 1.879(12) 6621. 1.7936 1.8895
39794. 0.82411 1.915(12) 6459. 1.7940 1.8956
39806. 0.82435 1.938(12) 6422. 1.7944 1.9026
39818. 0.82460 1.946(13) 6359. 1.7948 1.9079
39830. 0.82485 1.964(13) 6212. 1.7953 1.9088
39842. 0.82510 1.945(13) 6295. 1.7957 1.9051
39854. 0.82534 1.975(13) 6304. 1.7961 1.8986
39866. 0.82559 1.952(12) 6478. 1.7965 1.8919
39878. 0.82584 1.951(12) 6486. 1.7969 1.8867
39890. 0.82609 1.951(12) 6552. 1.7973 1.8834
39902. 0.82633 1.937(12) 6643. 1.7977 1.8821
39914. 0.82658 1.955(12) 6499. 1.7981 1.8836
39926. 0.82683 1.931(12) 6550. 1.7985 1.8894
39938. 0.82708 1.964(13) 6353. 1.7989 1.8997
39950. 0.82733 1.980(13) 6263. 1.7993 1.9124
39962. 0.82757 1.986(13) 6183. 1.7997 1.9241
39974. 0.82782 1.943(13) 5799. 1.8001 1.9314
39986. 0.82807 1.936(14) 5472. 1.8005 1.9320
39998. 0.82832 1.914(14) 5477. 1.8009 1.9271
40010. 0.82857 1.883(14) 5467. 1.8013 1.9206
40022. 0.82882 1.886(14) 5168. 1.8017 1.9171
40034. 0.82907 1.916(14) 4878. 1.8021 1.9194
40046. 0.82931 1.912(14) 4825. 1.8025 1.9280
40058. 0.82956 1.890(14) 4848. 1.8029 1.9421
40070. 0.82981 1.948(15) 4588. 1.8033 1.9600
40082. 0.83006 1.944(15) 4639. 1.8037 1.9785
40094. 0.83031 1.986(15) 4519. 1.8041 1.9973
40106. 0.83056 2.005(15) 4483. 1.8045 2.0203
40118. 0.83081 2.039(15) 4352. 1.8049 2.0524
40130. 0.83106 2.055(15) 4378. 1.8053 2.0923
40142. 0.83131 2.055(15) 4377. 1.8057 2.1267
40154. 0.83156 2.080(15) 4361. 1.8060 2.1400
40166. 0.83181 2.051(15) 4474. 1.8064 2.1268
40178. 0.83206 2.070(15) 4380. 1.8068 2.0982
40190. 0.83231 2.047(15) 4450. 1.8072 2.0697
40202. 0.83256 2.058(15) 4415. 1.8076 2.0484
40214. 0.83281 2.044(15) 4536. 1.8080 2.0301
40226. 0.83305 2.000(15) 4631. 1.8084 2.0095
40238. 0.83330 1.985(15) 4704. 1.8087 1.9884
40250. 0.83355 1.998(15) 4630. 1.8091 1.9706
40262. 0.83381 1.985(15) 4667. 1.8095 1.9591
40275. 0.83406 1.963(14) 4779. 1.8099 1.9539
40287. 0.83431 1.960(14) 4803. 1.8103 1.9519
40299. 0.83456 1.936(14) 4855. 1.8106 1.9510
40311. 0.83481 1.962(14) 4788. 1.8110 1.9535
40323. 0.83506 1.971(15) 4745. 1.8114 1.9612
40335. 0.83531 1.961(14) 4823. 1.8118 1.9690
40347. 0.83556 1.958(14) 4841. 1.8122 1.9674
40359. 0.83581 1.964(14) 4816. 1.8125 1.9553
40371. 0.83606 1.922(14) 5005. 1.8129 1.9387
40383. 0.83631 1.934(14) 4895. 1.8133 1.9227
40396. 0.83656 1.904(14) 5031. 1.8137 1.9100
40408. 0.83681 1.899(14) 5131. 1.8140 1.9025
40420. 0.83706 1.898(14) 5113. 1.8144 1.9013
40432. 0.83731 1.911(14) 5089. 1.8148 1.9072
40444. 0.83757 1.921(14) 5069. 1.8151 1.9204
40456. 0.83782 1.946(14) 5000. 1.8155 1.9389
40468. 0.83807 1.964(14) 4976. 1.8159 1.9565
40480. 0.83832 1.943(14) 5106. 1.8162 1.9652
40493. 0.83857 1.970(14) 5134. 1.8166 1.9642
40505. 0.83882 1.950(14) 5289. 1.8170 1.9591
40517. 0.83908 1.946(14) 5434. 1.8173 1.9556
40529. 0.83933 1.972(13) 5509. 1.8177 1.9570
40541. 0.83958 1.960(13) 5630. 1.8181 1.9629
40553. 0.83983 1.975(13) 5714. 1.8184 1.9719
40566. 0.84008 1.983(13) 5774. 1.8188 1.9813
40578. 0.84033 1.965(13) 6002. 1.8192 1.9852
40590. 0.84059 1.976(13) 6067. 1.8195 1.9823
40602. 0.84084 1.979(13) 6153. 1.8199 1.9777
40614. 0.84109 1.976(13) 6307. 1.8202 1.9770
40626. 0.84134 1.993(13) 6344. 1.8206 1.9816
40639. 0.84160 2.001(12) 6460. 1.8210 1.9854
40651. 0.84185 1.984(12) 6640. 1.8213 1.9822
40663. 0.84210 2.003(12) 6525. 1.8217 1.9725
40675. 0.84235 1.969(12) 6697. 1.8220 1.9603
40687. 0.84261 1.977(12) 6697. 1.8224 1.9500
40700. 0.84286 1.967(12) 6761. 1.8227 1.9451
40712. 0.84311 1.984(12) 6627. 1.8231 1.9471
40724. 0.84337 1.973(12) 6711. 1.8234 1.9529
40736. 0.84362 1.969(12) 6715. 1.8238 1.9566
40748. 0.84387 1.985(12) 6664. 1.8241 1.9557
40761. 0.84413 1.976(12) 6688. 1.8245 1.9526
40773. 0.84438 2.012(12) 6555. 1.8248 1.9501
40785. 0.84463 1.991(12) 6680. 1.8252 1.9503
40797. 0.84489 1.984(12) 6708. 1.8255 1.9544
40810. 0.84514 1.993(12) 6741. 1.8259 1.9624
40822. 0.84539 1.996(12) 6720. 1.8262 1.9734
40834. 0.84565 1.981(12) 6802. 1.8266 1.9846
40846. 0.84590 1.986(12) 6782. 1.8269 1.9928
40859. 0.84615 2.001(12) 6700. 1.8273 1.9988
40871. 0.84641 2.009(12) 6712. 1.8276 2.0050
40883. 0.84666 2.017(12) 6662. 1.8279 2.0136
40895. 0.84692 2.028(12) 6612. 1.8283 2.0237
40908. 0.84717 2.031(12) 6682. 1.8286 2.0341
40920. 0.84742 2.039(12) 6584. 1.8290 2.0419
40932. 0.84768 2.038(12) 6604. 1.8293 2.0406
40944. 0.84793 2.018(12) 6699. 1.8297 2.0303
40957. 0.84819 2.026(12) 6646. 1.8300 2.0193
40969. 0.84844 2.024(12) 6656. 1.8303 2.0148
40981. 0.84870 2.041(12) 6639. 1.8307 2.0177
40994. 0.84895 2.028(12) 6698. 1.8310 2.0243
41006. 0.84921 2.024(12) 6698. 1.8313 2.0324
41018. 0.84946 2.043(12) 6658. 1.8317 2.0434
41031. 0.84972 2.066(12) 6581. 1.8320 2.0601
41043. 0.84997 2.064(12) 6597. 1.8323 2.0851
41055. 0.85023 2.120(13) 6382. 1.8327 2.1151
41067. 0.85048 2.121(13) 6388. 1.8330 2.1362
41080. 0.85074 2.121(13) 6392. 1.8333 2.1394
41092. 0.85099 2.103(12) 6500. 1.8337 2.1312
41104. 0.85125 2.087(12) 6550. 1.8340 2.1215
41117. 0.85150 2.108(12) 6496. 1.8343 2.1116
41129. 0.85176 2.071(12) 6582. 1.8347 2.0969
41141. 0.85201 2.044(12) 6705. 1.8350 2.0750
41154. 0.85227 2.033(12) 6761. 1.8353 2.0521
41166. 0.85252 2.038(12) 6723. 1.8356 2.0353
41178. 0.85278 2.027(12) 6764. 1.8360 2.0280
41191. 0.85304 2.038(12) 6702. 1.8363 2.0309
41203. 0.85329 2.036(12) 6722. 1.8366 2.0406
41216. 0.85355 2.021(12) 6823. 1.8369 2.0491
41228. 0.85380 2.033(12) 6745. 1.8373 2.0472
41240. 0.85406 2.022(12) 6802. 1.8376 2.0336
41253. 0.85432 2.026(12) 6767. 1.8379 2.0155
41265. 0.85457 1.997(12) 6921. 1.8382 2.0003
41277. 0.85483 1.983(12) 6985. 1.8386 1.9903
41290. 0.85509 1.979(12) 6983. 1.8389 1.9828
41302. 0.85534 1.993(12) 6927. 1.8392 1.9757
41315. 0.85560 1.987(12) 6938. 1.8395 1.9703
41327. 0.85586 1.980(12) 6961. 1.8398 1.9668
41339. 0.85611 1.962(12) 7035. 1.8402 1.9630
41352. 0.85637 1.951(12) 7132. 1.8405 1.9583
41364. 0.85663 1.959(12) 7048. 1.8408 1.9539
41377. 0.85688 1.952(12) 7075. 1.8411 1.9499
41389. 0.85714 1.941(12) 7164. 1.8414 1.9461
41401. 0.85740 1.930(12) 7205. 1.8417 1.9420
41414. 0.85765 1.921(12) 7200. 1.8420 1.9394
41426. 0.85791 1.933(12) 7182. 1.8424 1.9393
41439. 0.85817 1.921(12) 7232. 1.8427 1.9437
41451. 0.85843 1.939(12) 7167. 1.8430 1.9525
41464. 0.85868 1.959(12) 7059. 1.8433 1.9618
41476. 0.85894 1.950(12) 7123. 1.8436 1.9661
41488. 0.85920 1.962(12) 7043. 1.8439 1.9651
41501. 0.85946 1.940(12) 7226. 1.8442 1.9622
41513. 0.85972 1.943(12) 7185. 1.8445 1.9602
41526. 0.85997 1.946(12) 7173. 1.8448 1.9589
41538. 0.86023 1.947(12) 7161. 1.8452 1.9574
41551. 0.86049 1.946(12) 7166. 1.8455 1.9549
41563. 0.86075 1.941(12) 7165. 1.8458 1.9515
41576. 0.86101 1.950(12) 7183. 1.8461 1.9489
41588. 0.86126 1.940(12) 7212. 1.8464 1.9488
41601. 0.86152 1.957(12) 7148. 1.8467 1.9521
41613. 0.86178 1.940(12) 7201. 1.8470 1.9562
41626. 0.86204 1.934(12) 7221. 1.8473 1.9582
41638. 0.86230 1.949(12) 7179. 1.8476 1.9591
41651. 0.86256 1.947(12) 7209. 1.8479 1.9624
41663. 0.86282 1.943(12) 7276. 1.8482 1.9695
41676. 0.86308 1.952(12) 7188. 1.8485 1.9788
41688. 0.86333 1.961(12) 7174. 1.8488 1.9884
41701. 0.86359 1.968(12) 7102. 1.8491 1.9950
41713. 0.86385 1.972(12) 7064. 1.8494 1.9968
41726. 0.86411 1.976(12) 7087. 1.8497 1.9954
41738. 0.86437 1.973(12) 7111. 1.8500 1.9938
41751. 0.86463 1.983(12) 7105. 1.8503 1.9957
41763. 0.86489 1.998(12) 7020. 1.8506 2.0023
41776. 0.86515 2.005(12) 6966. 1.8509 2.0110
41788. 0.86541 2.008(12) 6925. 1.8512 2.0168
41801. 0.86567 1.974(12) 7104. 1.8515 2.0160
41813. 0.86593 1.978(12) 7122. 1.8518 2.0090
41826. 0.86619 1.978(12) 7059. 1.8521 2.0000
41838. 0.86645 1.982(12) 7090. 1.8524 1.9928
41851. 0.86671 1.958(12) 7157. 1.8527 1.9898
41863. 0.86697 1.971(12) 7115. 1.8530 1.9911
41876. 0.86723 1.988(12) 7113. 1.8533 1.9943
41889. 0.86749 1.967(12) 7158. 1.8536 1.9998
41901. 0.86775 1.996(12) 6998. 1.8539 2.0102
41914. 0.86801 2.017(12) 6915. 1.8541 2.0234
41926. 0.86827 2.024(12) 6943. 1.8544 2.0322
41939. 0.86853 2.005(12) 6970. 1.8547 2.0336
41951. 0.86879 1.992(12) 7056. 1.8550 2.0305
41964. 0.86905 1.977(12) 7160. 1.8553 2.0253
41977. 0.86931 1.981(12) 7069. 1.8556 2.0174
41989. 0.86957 1.982(12) 7096. 1.8559 2.0067
42002. 0.86983 1.973(12) 7104. 1.8562 1.9955
42014. 0.87010 1.978(12) 7056. 1.8565 1.9863
42027. 0.87036 1.942(12) 7268. 1.8567 1.9801
42040. 0.87062 1.967(12) 7166. 1.8570 1.9773
42052. 0.87088 1.960(12) 7244. 1.8573 1.9774
42065. 0.87114 1.956(12) 7227. 1.8576 1.9791
42077. 0.87140 1.975(12) 7172. 1.8579 1.9802
42090. 0.87166 1.969(12) 7210. 1.8582 1.9802
42103. 0.87192 2.023(12) 7002. 1.8585 1.9805
42115. 0.87219 2.044(12) 6858. 1.8587 1.9832
42128. 0.87245 2.051(12) 6829. 1.8590 1.9916
42141. 0.87271 2.071(12) 6811. 1.8593 2.0105
42153. 0.87297 2.082(12) 6750. 1.8596 2.0452
42166. 0.87323 2.143(12) 6606. 1.8599 2.0986
42179. 0.87350 2.239(13) 6214. 1.8602 2.1670
42191. 0.87376 2.298(13) 6105. 1.8604 2.2315
42204. 0.87402 2.282(13) 6165. 1.8607 2.2601
42217. 0.87428 2.249(13) 6260. 1.8610 2.2416
42229. 0.87454 2.210(13) 6387. 1.8613 2.1960
42242. 0.87481 2.162(12) 6538. 1.8616 2.1453
42255. 0.87507 2.108(12) 6749. 1.8618 2.1006
42267. 0.87533 2.089(12) 6775. 1.8621 2.0650
42280. 0.87559 2.068(12) 6845. 1.8624 2.0391
42293. 0.87586 2.063(12) 6854. 1.8627 2.0223
42305. 0.87612 2.009(12) 7097. 1.8630 2.0121
42318. 0.87638 2.010(12) 7077. 1.8632 2.0054
42331. 0.87665 1.981(12) 7220. 1.8635 2.0006
42343. 0.87691 1.995(12) 7119. 1.8638 1.9963
42356. 0.87717 2.005(12) 7085. 1.8641 1.9926
42369. 0.87744 1.972(12) 7285. 1.8643 1.9905
42381. 0.87770 1.960(12) 7280. 1.8646 1.9905
42394. 0.87796 1.999(12) 7138. 1.8649 1.9922
42407. 0.87823 1.979(12) 7199. 1.8652 1.9951
42420. 0.87849 1.959(12) 7376. 1.8654 1.9950
42432. 0.87875 1.955(12) 7355. 1.8657 1.9884
42445. 0.87902 1.955(12) 7355. 1.8660 1.9775
42458. 0.87928 1.962(12) 7311. 1.8663 1.9663
42471. 0.87954 1.931(12) 7435. 1.8665 1.9577
42483. 0.87981 1.954(12) 7333. 1.8668 1.9530
42496. 0.88007 1.942(12) 7385. 1.8671 1.9532
42509. 0.88034 1.952(12) 7393. 1.8674 1.9597
42522. 0.88060 1.966(12) 7332. 1.8676 1.9748
42534. 0.88086 2.007(12) 7142. 1.8679 2.0021
42547. 0.88113 2.036(12) 7119. 1.8682 2.0458
42560. 0.88139 2.116(12) 6838. 1.8684 2.1081
42573. 0.88166 2.172(12) 6634. 1.8687 2.1848
42585. 0.88192 2.225(12) 6449. 1.8690 2.2550
42598. 0.88219 2.276(13) 6268. 1.8692 2.2887
42611. 0.88245 2.261(13) 6286. 1.8695 2.2828
42624. 0.88272 2.218(12) 6473. 1.8698 2.2586
42637. 0.88298 2.210(12) 6550. 1.8701 2.2371
42649. 0.88325 2.214(12) 6475. 1.8703 2.2275
42662. 0.88351 2.226(12) 6424. 1.8706 2.2272
42675. 0.88378 2.229(12) 6454. 1.8709 2.2296
42688. 0.88404 2.225(12) 6484. 1.8711 2.2275
42700. 0.88431 2.168(12) 6671. 1.8714 2.2120
42713. 0.88457 2.175(12) 6596. 1.8717 2.1820
42726. 0.88484 2.132(12) 6738. 1.8719 2.1444
42739. 0.88510 2.104(12) 6811. 1.8722 2.1069
42752. 0.88537 2.079(12) 6966. 1.8725 2.0755
42765. 0.88563 2.070(12) 6956. 1.8727 2.0544
42777. 0.88590 2.068(12) 6965. 1.8730 2.0446
42790. 0.88617 2.059(12) 7028. 1.8732 2.0441
42803. 0.88643 2.061(12) 7039. 1.8735 2.0469
42816. 0.88670 2.075(12) 6938. 1.8738 2.0472
42829. 0.88696 2.060(12) 7020. 1.8740 2.0456
42842. 0.88723 2.060(12) 6994. 1.8743 2.0458
42854. 0.88750 2.062(12) 6996. 1.8746 2.0473
42867. 0.88776 2.072(12) 6945. 1.8748 2.0468
42880. 0.88803 2.072(12) 6938. 1.8751 2.0413
42893. 0.88830 2.033(12) 7101. 1.8754 2.0313
42906. 0.88856 2.017(12) 7158. 1.8756 2.0218
42919. 0.88883 1.990(12) 7329. 1.8759 2.0172
42932. 0.88910 2.007(12) 7243. 1.8761 2.0185
42945. 0.88936 1.989(12) 7269. 1.8764 2.0241
42957. 0.88963 1.994(12) 7215. 1.8767 2.0289
42970. 0.88990 1.997(12) 7214. 1.8769 2.0264
42983. 0.89016 1.992(12) 7206. 1.8772 2.0171
42996. 0.89043 1.969(12) 7323. 1.8775 2.0065
43009. 0.89070 1.970(12) 7368. 1.8777 1.9996
43022. 0.89096 1.996(12) 7159. 1.8780 1.9999
43035. 0.89123 1.982(12) 7269. 1.8782 2.0090
43048. 0.89150 2.001(12) 7228. 1.8785 2.0268
43061. 0.89177 2.033(12) 7084. 1.8788 2.0512
43074. 0.89203 2.058(12) 7051. 1.8790 2.0772
43086. 0.89230 2.076(12) 6869. 1.8793 2.0973
43099. 0.89257 2.082(12) 6944. 1.8795 2.1121
43112. 0.89284 2.123(12) 6789. 1.8798 2.1286
43125. 0.89311 2.142(12) 6711. 1.8800 2.1493
43138. 0.89337 2.144(12) 6713. 1.8803 2.1682
43151. 0.89364 2.156(12) 6666. 1.8806 2.1804
43164. 0.89391 2.181(12) 6562. 1.8808 2.1893
43177. 0.89418 2.139(12) 6770. 1.8811 2.1949
43190. 0.89445 2.154(12) 6666. 1.8813 2.1963
43203. 0.89471 2.172(12) 6596. 1.8816 2.1961
43216. 0.89498 2.155(12) 6617. 1.8819 2.1917
43229. 0.89525 2.134(12) 6753. 1.8821 2.1842
43242. 0.89552 2.137(12) 6714. 1.8824 2.1829
43255. 0.89579 2.149(12) 6679. 1.8826 2.1939
43268. 0.89606 2.160(12) 6612. 1.8829 2.2108
43281. 0.89633 2.137(12) 6714. 1.8831 2.2144
43294. 0.89660 2.126(12) 6746. 1.8834 2.1944
43307. 0.89686 2.117(12) 6795. 1.8837 2.1602
43320. 0.89713 2.087(12) 6835. 1.8839 2.1253
43333. 0.89740 2.067(12) 6950. 1.8842 2.0977
43346. 0.89767 2.041(12) 7057. 1.8844 2.0780
43359. 0.89794 2.019(12) 7109. 1.8847 2.0610
43372. 0.89821 2.036(12) 7030. 1.8849 2.0433
43385. 0.89848 2.025(12) 7064. 1.8852 2.0272
43398. 0.89875 2.014(12) 7131. 1.8854 2.0160
43411. 0.89902 2.012(12) 7174. 1.8857 2.0125
43424. 0.89929 2.013(12) 7142. 1.8860 2.0188
43437. 0.89956 2.004(12) 7215. 1.8862 2.0351
43450. 0.89983 2.039(12) 7032. 1.8865 2.0553
43463. 0.90010 2.053(12) 6957. 1.8867 2.0676
43476. 0.90037 2.073(12) 6911. 1.8870 2.0684
43489. 0.90064 2.054(12) 6977. 1.8872 2.0628
43502. 0.90091 2.051(12) 7016. 1.8875 2.0531
43515. 0.90118 2.031(12) 7110. 1.8877 2.0409
43528. 0.90145 2.033(12) 7119. 1.8880 2.0293
43541. 0.90172 2.013(12) 7175. 1.8882 2.0217
43554. 0.90199 2.019(12) 7138. 1.8885 2.0181
43567. 0.90226 2.028(12) 7099. 1.8888 2.0161
43580. 0.90253 1.999(12) 7246. 1.8890 2.0128
43593. 0.90280 2.010(12) 7169. 1.8893 2.0071
43607. 0.90307 1.991(12) 7238. 1.8895 2.0007
43620. 0.90335 1.972(12) 7325. 1.8898 1.9950
43633. 0.90362 1.985(12) 7238. 1.8900 1.9910
43646. 0.90389 1.974(12) 7272. 1.8903 1.9869
43659. 0.90416 1.973(12) 7328. 1.8905 1.9799
43672. 0.90443 1.938(12) 7497. 1.8908 1.9712
43685. 0.90470 1.946(12) 7450. 1.8910 1.9633
43698. 0.90497 1.922(12) 7555. 1.8913 1.9584
43711. 0.90525 1.950(12) 7374. 1.8916 1.9568
43724. 0.90552 1.957(12) 7413. 1.8918 1.9568
43738. 0.90579 1.971(12) 7330. 1.8921 1.9562
43751. 0.90606 1.950(12) 7460. 1.8923 1.9542
43764. 0.90633 1.971(12) 7325. 1.8926 1.9511
43777. 0.90660 1.947(12) 7495. 1.8928 1.9478
43790. 0.90688 1.947(12) 7474. 1.8931 1.9457
43803. 0.90715 1.945(12) 7500. 1.8933 1.9460
43816. 0.90742 1.948(12) 7476. 1.8936 1.9494
43829. 0.90769 1.966(12) 7431. 1.8938 1.9553
43843. 0.90797 1.970(12) 7455. 1.8941 1.9620
43856. 0.90824 1.976(12) 7413. 1.8943 1.9682
43869. 0.90851 1.987(12) 7330. 1.8946 1.9722
43882. 0.90878 1.994(12) 7291. 1.8949 1.9748
43895. 0.90906 1.986(12) 7382. 1.8951 1.9785
43908. 0.90933 1.962(12) 7428. 1.8954 1.9853
43922. 0.90960 1.977(12) 7363. 1.8956 1.9962
43935. 0.90987 1.994(12) 7298. 1.8959 2.0091
43948. 0.91015 2.015(12) 7251. 1.8961 2.0178
43961. 0.91042 2.010(12) 7248. 1.8964 2.0194
43974. 0.91069 2.008(12) 7305. 1.8966 2.0163
43988. 0.91097 1.982(12) 7406. 1.8969 2.0100
44001. 0.91124 1.997(12) 7326. 1.8971 2.0021
44014. 0.91151 2.006(12) 7276. 1.8974 1.9958
44027. 0.91179 1.962(12) 7506. 1.8976 1.9927
44040. 0.91206 1.961(12) 7510. 1.8979 1.9909
44054. 0.91233 1.962(12) 7477. 1.8982 1.9863
44067. 0.91261 1.951(12) 7523. 1.8984 1.9785
44080. 0.91288 1.945(11) 7599. 1.8987 1.9697
44093. 0.91316 1.948(12) 7548. 1.8989 1.9622
44106. 0.91343 1.957(12) 7489. 1.8992 1.9570
44120. 0.91370 1.942(11) 7585. 1.8994 1.9539
44133. 0.91398 1.950(12) 7553. 1.8997 1.9525
44146. 0.91425 1.943(12) 7543. 1.8999 1.9518
44159. 0.91453 1.935(11) 7618. 1.9002 1.9519
44173. 0.91480 1.935(11) 7602. 1.9004 1.9541
44186. 0.91508 1.938(11) 7644. 1.9007 1.9595
44199. 0.91535 1.951(11) 7568. 1.9009 1.9681
44212. 0.91562 1.975(12) 7479. 1.9012 1.9777
44226. 0.91590 1.966(11) 7580. 1.9015 1.9857
44239. 0.91617 1.949(11) 7623. 1.9017 1.9910
44252. 0.91645 1.975(12) 7522. 1.9020 1.9941
44265. 0.91672 1.969(12) 7493. 1.9022 1.9962
44279. 0.91700 1.957(11) 7598. 1.9025 1.9988
44292. 0.91727 1.963(12) 7545. 1.9027 2.0042
44305. 0.91755 1.980(12) 7480. 1.9030 2.0140
44319. 0.91782 1.996(12) 7461. 1.9032 2.0287
44332. 0.91810 1.989(12) 7490. 1.9035 2.0478
44345. 0.91838 2.031(12) 7261. 1.9038 2.0712
44359. 0.91865 2.042(12) 7274. 1.9040 2.0957
44372. 0.91893 2.054(12) 7228. 1.9043 2.1165
44385. 0.91920 2.077(12) 7122. 1.9045 2.1322
44398. 0.91948 2.068(12) 7173. 1.9048 2.1400
44412. 0.91975 2.062(12) 7194. 1.9050 2.1391
44425. 0.92003 2.071(12) 7127. 1.9053 2.1337
44438. 0.92031 2.071(12) 7188. 1.9056 2.1280
44452. 0.92058 2.075(12) 7110. 1.9058 2.1254
44465. 0.92086 2.090(12) 7033. 1.9061 2.1247
44478. 0.92114 2.066(12) 7214. 1.9063 2.1184
44492. 0.92141 2.053(12) 7250. 1.9066 2.1029
44505. 0.92169 2.039(12) 7259. 1.9068 2.0838
44518. 0.92196 2.048(12) 7235. 1.9071 2.0672
44532. 0.92224 2.029(12) 7315. 1.9074 2.0543
44545. 0.92252 2.035(12) 7324. 1.9076 2.0438
44559. 0.92279 2.049(12) 7271. 1.9079 2.0358
44572. 0.92307 2.024(12) 7344. 1.9081 2.0318
44585. 0.92335 2.052(12) 7209. 1.9084 2.0347
44599. 0.92363 2.051(12) 7231. 1.9087 2.0479
44612. 0.92390 2.062(12) 7219. 1.9089 2.0733
44625. 0.92418 2.082(12) 7198. 1.9092 2.1084
44639. 0.92446 2.138(12) 6972. 1.9094 2.1463
44652. 0.92473 2.178(12) 6773. 1.9097 2.1758
44666. 0.92501 2.202(12) 6723. 1.9100 2.1842
44679. 0.92529 2.204(12) 6719. 1.9102 2.1702
44692. 0.92557 2.158(12) 6883. 1.9105 2.1461
44706. 0.92585 2.141(12) 6939. 1.9107 2.1245
44719. 0.92612 2.130(12) 6986. 1.9110 2.1122
44733. 0.92640 2.119(12) 7026. 1.9113 2.1102
44746. 0.92668 2.108(12) 7101. 1.9115 2.1159
44759. 0.92696 2.137(12) 6962. 1.9118 2.1314
44773. 0.92724 2.160(12) 6885. 1.9120 2.1552
44786. 0.92751 2.170(12) 6827. 1.9123 2.1851
44800. 0.92779 2.179(12) 6794. 1.9126 2.2145
44813. 0.92807 2.185(12) 6731. 1.9128 2.2312
44827. 0.92835 2.180(12) 6773. 1.9131 2.2263
44840. 0.92863 2.158(12) 6886. 1.9134 2.2043
44854. 0.92891 2.154(12) 6879. 1.9136 2.1761
44867. 0.92918 2.152(12) 6918. 1.9139 2.1529
44880. 0.92946 2.126(12) 7011. 1.9141 2.1434
44894. 0.92974 2.152(12) 6915. 1.9144 2.1536
44907. 0.93002 2.186(12) 6818. 1.9147 2.1866
44921. 0.93030 2.211(12) 6741. 1.9149 2.2397
44934. 0.93058 2.246(12) 6610. 1.9152 2.2976
44948. 0.93086 2.272(12) 6513. 1.9155 2.3331
44961. 0.93114 2.279(12) 6498. 1.9157 2.3330
44975. 0.93142 2.273(12) 6570. 1.9160 2.3102
44988. 0.93170 2.279(12) 6520. 1.9163 2.2853
45002. 0.93198 2.267(12) 6557. 1.9165 2.2682
45015. 0.93226 2.251(12) 6627. 1.9168 2.2557
45029. 0.93254 2.254(12) 6612. 1.9171 2.2367
45042. 0.93282 2.243(12) 6671. 1.9173 2.2075
45056. 0.93310 2.221(12) 6693. 1.9176 2.1744
45069. 0.93338 2.162(12) 6890. 1.9179 2.1433
45083. 0.93366 2.148(12) 6940. 1.9181 2.1168
45096. 0.93394 2.120(12) 7062. 1.9184 2.0956
45110. 0.93422 2.097(12) 7152. 1.9187 2.0816
45123. 0.93450 2.110(12) 7092. 1.9189 2.0775
45137. 0.93478 2.093(12) 7141. 1.9192 2.0850
45151. 0.93506 2.124(12) 7027. 1.9195 2.1031
45164. 0.93534 2.120(12) 7052. 1.9197 2.1243
45178. 0.93562 2.145(12) 6978. 1.9200 2.1390
45191. 0.93590 2.133(12) 7044. 1.9203 2.1473
45205. 0.93618 2.169(12) 6918. 1.9206 2.1537
45218. 0.93646 2.194(12) 6804. 1.9208 2.1608
45232. 0.93674 2.223(12) 6705. 1.9211 2.1717
45245. 0.93702 2.244(12) 6644. 1.9214 2.1843
45259. 0.93730 2.267(12) 6572. 1.9216 2.1954
45273. 0.93759 2.299(12) 6488. 1.9219 2.2029
45286. 0.93787 2.306(12) 6470. 1.9222 2.2021
45300. 0.93815 2.312(12) 6443. 1.9225 2.1933
45313. 0.93843 2.291(12) 6471. 1.9227 2.1806
45327. 0.93871 2.250(12) 6667. 1.9230 2.1665
45341. 0.93899 2.230(12) 6720. 1.9233 2.1563
45354. 0.93927 2.199(12) 6848. 1.9235 2.1545
45368. 0.93956 2.200(12) 6790. 1.9238 2.1598
45381. 0.93984 2.191(12) 6890. 1.9241 2.1619
45395. 0.94012 2.199(12) 6795. 1.9244 2.1516
45409. 0.94040 2.166(12) 6964. 1.9246 2.1306
45422. 0.94068 2.155(12) 6995. 1.9249 2.1069
45436. 0.94097 2.119(12) 7117. 1.9252 2.0868
45449. 0.94125 2.115(12) 7156. 1.9255 2.0743
45463. 0.94153 2.117(12) 7116. 1.9258 2.0705
45477. 0.94181 2.105(12) 7197. 1.9260 2.0730
45490. 0.94210 2.112(12) 7142. 1.9263 2.0754
45504. 0.94238 2.103(12) 7228. 1.9266 2.0751
45518. 0.94266 2.088(12) 7248. 1.9269 2.0755
45531. 0.94295 2.095(12) 7229. 1.9271 2.0794
45545. 0.94323 2.115(12) 7173. 1.9274 2.0854
45559. 0.94351 2.120(12) 7138. 1.9277 2.0894
45572. 0.94379 2.122(12) 7147. 1.9280 2.0908
45586. 0.94408 2.124(12) 7126. 1.9283 2.0922
45600. 0.94436 2.133(12) 7140. 1.9285 2.0980
45613. 0.94464 2.131(12) 7137. 1.9288 2.1121
45627. 0.94493 2.140(12) 7114. 1.9291 2.1368
45641. 0.94521 2.170(12) 6963. 1.9294 2.1722
45654. 0.94549 2.202(12) 6873. 1.9297 2.2102
45668. 0.94578 2.236(12) 6782. 1.9300 2.2413
45682. 0.94606 2.269(12) 6660. 1.9302 2.2694
45696. 0.94635 2.280(12) 6681. 1.9305 2.3016
45709. 0.94663 2.335(12) 6483. 1.9308 2.3423
45723. 0.94691 2.440(13) 6183. 1.9311 2.3901
45737. 0.94720 2.464(13) 6125. 1.9314 2.4290
45750. 0.94748 2.470(13) 6137. 1.9317 2.4428
45764. 0.94777 2.490(13) 6094. 1.9319 2.4392
45778. 0.94805 2.471(13) 6161. 1.9322 2.4362
45792. 0.94834 2.472(13) 6131. 1.9325 2.4374
45805. 0.94862 2.474(13) 6081. 1.9328 2.4287
45819. 0.94890 2.443(13) 6194. 1.9331 2.4004
45833. 0.94919 2.413(13) 6243. 1.9334 2.3624
45847. 0.94947 2.375(13) 6390. 1.9337 2.3311
45860. 0.94976 2.353(12) 6447. 1.9340 2.3184
45874. 0.95004 2.356(12) 6481. 1.9342 2.3317
45888. 0.95033 2.389(13) 6372. 1.9345 2.3723
45902. 0.95061 2.443(13) 6214. 1.9348 2.4365
45915. 0.95090 2.502(13) 6052. 1.9351 2.5081
45929. 0.95119 2.527(13) 5972. 1.9354 2.5624
45943. 0.95147 2.525(13) 5990. 1.9357 2.5817
45957. 0.95176 2.530(13) 5974. 1.9360 2.5678
45970. 0.95204 2.519(13) 6026. 1.9363 2.5441
45984. 0.95233 2.503(13) 6065. 1.9366 2.5326
45998. 0.95261 2.535(13) 5947. 1.9369 2.5374
46012. 0.95290 2.543(13) 5971. 1.9372 2.5490
46026. 0.95319 2.546(13) 5919. 1.9374 2.5581
46039. 0.95347 2.559(13) 5891. 1.9377 2.5611
46053. 0.95376 2.514(13) 5987. 1.9380 2.5514
46067. 0.95404 2.462(13) 6145. 1.9383 2.5234
46081. 0.95433 2.461(13) 6129. 1.9386 2.4809
46095. 0.95462 2.406(13) 6282. 1.9389 2.4358
46109. 0.95490 2.399(13) 6289. 1.9392 2.3939
46122. 0.95519 2.364(13) 6397. 1.9395 2.3532
46136. 0.95548 2.322(12) 6533. 1.9398 2.3169
46150. 0.95576 2.294(12) 6583. 1.9401 2.2900
46164. 0.95605 2.281(12) 6589. 1.9404 2.2708
46178. 0.95634 2.237(12) 6748. 1.9407 2.2521
46192. 0.95662 2.229(12) 6774. 1.9410 2.2314
46205. 0.95691 2.211(12) 6810. 1.9413 2.2107
46219. 0.95720 2.204(12) 6861. 1.9416 2.1918
46233. 0.95748 2.188(12) 6907. 1.9419 2.1762
46247. 0.95777 2.175(12) 6892. 1.9422 2.1648
46261. 0.95806 2.168(12) 6901. 1.9425 2.1565
46275. 0.95835 2.164(12) 6955. 1.9428 2.1504
46289. 0.95863 2.184(12) 6840. 1.9431 2.1478
46303. 0.95892 2.159(12) 6969. 1.9434 2.1505
46317. 0.95921 2.170(12) 6926. 1.9437 2.1601
46330. 0.95950 2.190(12) 6881. 1.9440 2.1786
46344. 0.95979 2.221(12) 6721. 1.9443 2.2104
46358. 0.96007 2.263(12) 6624. 1.9446 2.2593
46372. 0.96036 2.317(12) 6465. 1.9449 2.3180
46386. 0.96065 2.352(13) 6345. 1.9452 2.3635
46400. 0.96094 2.352(13) 6335. 1.9455 2.3742
46414. 0.96123 2.338(13) 6380. 1.9459 2.3494
46428. 0.96151 2.331(12) 6440. 1.9462 2.3081
46442. 0.96180 2.296(12) 6529. 1.9465 2.2701
46456. 0.96209 2.297(12) 6478. 1.9468 2.2447
46470. 0.96238 2.267(12) 6595. 1.9471 2.2308
46484. 0.96267 2.284(12) 6512. 1.9474 2.2177
46497. 0.96296 2.261(12) 6588. 1.9477 2.2006
46511. 0.96325 2.201(12) 6821. 1.9480 2.1849
46525. 0.96354 2.183(12) 6872. 1.9483 2.1742
46539. 0.96382 2.166(12) 6942. 1.9486 2.1659
46553. 0.96411 2.169(12) 6887. 1.9489 2.1568
46567. 0.96440 2.154(12) 6963. 1.9493 2.1491
46581. 0.96469 2.149(12) 6953. 1.9496 2.1471
46595. 0.96498 2.173(12) 6866. 1.9499 2.1497
46609. 0.96527 2.164(12) 6886. 1.9502 2.1508
46623. 0.96556 2.144(12) 6983. 1.9505 2.1493
46637. 0.96585 2.178(12) 6826. 1.9508 2.1501
46651. 0.96614 2.193(12) 6782. 1.9511 2.1535
46665. 0.96643 2.199(12) 6806. 1.9515 2.1546
46679. 0.96672 2.187(12) 6834. 1.9518 2.1526
46693. 0.96701 2.171(12) 6870. 1.9521 2.1525
46707. 0.96730 2.179(12) 6837. 1.9524 2.1561
46721. 0.96759 2.166(12) 6905. 1.9527 2.1598
46735. 0.96788 2.182(12) 6830. 1.9531 2.1610
46749. 0.96817 2.170(12) 6909. 1.9534 2.1617
46763. 0.96846 2.175(12) 6889. 1.9537 2.1639
46777. 0.96875 2.205(12) 6763. 1.9540 2.1650
46791. 0.96904 2.191(12) 6815. 1.9543 2.1651
46805. 0.96933 2.204(12) 6819. 1.9547 2.1667
46819. 0.96963 2.201(12) 6808. 1.9550 2.1668
46833. 0.96992 2.218(12) 6711. 1.9553 2.1611
46847. 0.97021 2.207(12) 6780. 1.9556 2.1522
46862. 0.97050 2.189(12) 6822. 1.9559 2.1456
46876. 0.97079 2.170(12) 6972. 1.9563 2.1453
46890. 0.97108 2.188(12) 6889. 1.9566 2.1550
46904. 0.97137 2.212(12) 6796. 1.9569 2.1758
46918. 0.97166 2.251(12) 6682. 1.9572 2.2040
46932. 0.97196 2.281(12) 6567. 1.9576 2.2345
46946. 0.97225 2.328(12) 6462. 1.9579 2.2628
46960. 0.97254 2.349(13) 6368. 1.9582 2.2835
46974. 0.97283 2.349(12) 6421. 1.9585 2.3018
46988. 0.97312 2.372(13) 6338. 1.9589 2.3347
47002. 0.97341 2.434(13) 6170. 1.9592 2.3978
47016. 0.97371 2.531(13) 5931. 1.9595 2.4965
47030. 0.97400 2.662(13) 5607. 1.9599 2.6132
47045. 0.97429 2.739(14) 5432. 1.9602 2.7000
47059. 0.97458 2.746(14) 5457. 1.9605 2.7282
47073. 0.97488 2.740(14) 5481. 1.9609 2.7249
47087. 0.97517 2.712(13) 5568. 1.9612 2.7326
47101. 0.97546 2.736(13) 5497. 1.9615 2.7709
47115. 0.97575 2.773(14) 5357. 1.9619 2.8113
47129. 0.97605 2.755(14) 5422. 1.9622 2.7983
47143. 0.97634 2.677(13) 5593. 1.9625 2.7262
47158. 0.97663 2.599(13) 5782. 1.9629 2.6322
47172. 0.97693 2.515(13) 6044. 1.9632 2.5489
47186. 0.97722 2.502(13) 6065. 1.9635 2.4937
47200. 0.97751 2.513(13) 6011. 1.9639 2.4667
47214. 0.97781 2.523(13) 5961. 1.9642 2.4515
47228. 0.97810 2.508(13) 5980. 1.9645 2.4309
47243. 0.97839 2.482(13) 6036. 1.9649 2.4017
47257. 0.97869 2.440(13) 6139. 1.9652 2.3738
47271. 0.97898 2.395(13) 6296. 1.9656 2.3558
47285. 0.97927 2.388(13) 6287. 1.9659 2.3425
47299. 0.97957 2.370(13) 6330. 1.9662 2.3236
47313. 0.97986 2.319(12) 6564. 1.9666 2.3012
47328. 0.98015 2.332(12) 6508. 1.9669 2.2844
47342. 0.98045 2.368(13) 6368. 1.9673 2.2746
47356. 0.98074 2.354(13) 6361. 1.9676 2.2634
47370. 0.98104 2.338(12) 6428. 1.9679 2.2466
47384. 0.98133 2.319(12) 6463. 1.9683 2.2314
47399. 0.98163 2.303(12) 6552. 1.9686 2.2262
47413. 0.98192 2.289(12) 6565. 1.9690 2.2337
47427. 0.98222 2.302(12) 6550. 1.9693 2.2478
47441. 0.98251 2.316(12) 6520. 1.9697 2.2585
47456. 0.98280 2.330(12) 6418. 1.9700 2.2609
47470. 0.98310 2.325(12) 6455. 1.9704 2.2599
47484. 0.98339 2.346(12) 6412. 1.9707 2.2656
47498. 0.98369 2.378(13) 6294. 1.9711 2.2872
47513. 0.98399 2.410(13) 6223. 1.9714 2.3261
47527. 0.98428 2.442(13) 6117. 1.9718 2.3700
47541. 0.98458 2.464(13) 6052. 1.9721 2.3994
47555. 0.98487 2.454(13) 6056. 1.9725 2.4052
47570. 0.98517 2.413(13) 6157. 1.9728 2.3876
47584. 0.98546 2.395(13) 6227. 1.9732 2.3570
47598. 0.98576 2.342(12) 6409. 1.9735 2.3303
47612. 0.98605 2.344(13) 6367. 1.9739 2.3189
47627. 0.98635 2.347(12) 6410. 1.9742 2.3308
47641. 0.98665 2.392(13) 6313. 1.9746 2.3735
47655. 0.98694 2.456(13) 6132. 1.9749 2.4493
47670. 0.98724 2.539(13) 5855. 1.9753 2.5414
47684. 0.98753 2.575(13) 5714. 1.9756 2.6085
47698. 0.98783 2.583(13) 5706. 1.9760 2.6188
47713. 0.98813 2.546(13) 5817. 1.9764 2.5773
47727. 0.98842 2.473(13) 5992. 1.9767 2.5039
47741. 0.98872 2.416(13) 6153. 1.9771 2.4206
47755. 0.98902 2.352(13) 6324. 1.9774 2.3440
47770. 0.98931 2.313(12) 6423. 1.9778 2.2806
47784. 0.98961 2.254(12) 6603. 1.9781 2.2297
47798. 0.98991 2.237(12) 6612. 1.9785 2.1893
47813. 0.99020 2.209(12) 6693. 1.9789 2.1587
47827. 0.99050 2.163(12) 6916. 1.9792 2.1376
47842. 0.99080 2.173(12) 6823. 1.9796 2.1259
47856. 0.99110 2.172(12) 6808. 1.9799 2.1243
47870. 0.99139 2.131(12) 7035. 1.9803 2.1338
47885. 0.99169 2.179(12) 6822. 1.9807 2.1557
47899. 0.99199 2.208(12) 6770. 1.9810 2.1910
47913. 0.99229 2.260(12) 6600. 1.9814 2.2405
47928. 0.99258 2.325(13) 6378. 1.9818 2.3014
47942. 0.99288 2.379(13) 6220. 1.9821 2.3577
47956. 0.99318 2.392(13) 6181. 1.9825 2.3856
47971. 0.99348 2.379(13) 6226. 1.9829 2.3766
47985. 0.99378 2.344(13) 6310. 1.9832 2.3445
48000. 0.99407 2.306(12) 6416. 1.9836 2.3062
48014. 0.99437 2.281(12) 6460. 1.9840 2.2732
48028. 0.99467 2.239(12) 6634. 1.9843 2.2481
48043. 0.99497 2.220(12) 6665. 1.9847 2.2280
48057. 0.99527 2.234(12) 6598. 1.9851 2.2125
48072. 0.99557 2.226(12) 6660. 1.9854 2.2034
48086. 0.99586 2.222(12) 6678. 1.9858 2.2023
48101. 0.99616 2.214(12) 6733. 1.9862 2.2053
48115. 0.99646 2.226(12) 6650. 1.9866 2.2029
48129. 0.99676 2.214(12) 6682. 1.9869 2.1917
48144. 0.99706 2.218(12) 6658. 1.9873 2.1789
48158. 0.99736 2.187(12) 6772. 1.9877 2.1728
48173. 0.99766 2.201(12) 6726. 1.9881 2.1791
48187. 0.99796 2.225(12) 6611. 1.9884 2.1990
48202. 0.99826 2.225(12) 6623. 1.9888 2.2244
48216. 0.99856 2.217(12) 6678. 1.9892 2.2414
48231. 0.99886 2.227(12) 6657. 1.9896 2.2470
48245. 0.99916 2.227(12) 6660. 1.9899 2.2449
48259. 0.99946 2.247(12) 6567. 1.9903 2.2334
48274. 0.99976 2.244(12) 6585. 1.9907 2.2158
48288. 1.00006 2.211(12) 6734. 1.9911 2.2006
48303. 1.00036 2.205(12) 6675. 1.9915 2.1944
48317. 1.00066 2.209(12) 6751. 1.9918 2.1976
48332. 1.00096 2.220(12) 6626. 1.9922 2.2027
48346. 1.00126 2.224(12) 6642. 1.9926 2.2013
48361. 1.00156 2.189(12) 6796. 1.9930 2.1920
48375. 1.00186 2.172(12) 6825. 1.9934 2.1801
48390. 1.00216 2.151(12) 6952. 1.9937 2.1735
48404. 1.00246 2.164(12) 6914. 1.9941 2.1781
48419. 1.00276 2.197(12) 6786. 1.9945 2.1949
48433. 1.00306 2.214(12) 6687. 1.9949 2.2153
48448. 1.00336 2.234(12) 6604. 1.9953 2.2223
48463. 1.00366 2.201(12) 6754. 1.9957 2.2107
48477. 1.00396 2.184(12) 6812. 1.9960 2.1900
48492. 1.00427 2.178(12) 6796. 1.9964 2.1701
48506. 1.00457 2.157(12) 6900. 1.9968 2.1567
48521. 1.00487 2.140(12) 7005. 1.9972 2.1524
48535. 1.00517 2.148(12) 6966. 1.9976 2.1588
48550. 1.00547 2.186(12) 6870. 1.9980 2.1766
48564. 1.00577 2.232(12) 6686. 1.9984 2.2027
48579. 1.00608 2.239(12) 6732. 1.9988 2.2297
48594. 1.00638 2.277(12) 6565. 1.9992 2.2541
48608. 1.00668 2.309(12) 6460. 1.9995 2.2775
48623. 1.00698 2.328(13) 6398. 1.9999 2.2996
48637. 1.00728 2.344(13) 6302. 2.0003 2.3100
48652. 1.00759 2.319(12) 6409. 2.0007 2.2990
48667. 1.00789 2.286(12) 6546. 2.0011 2.2737
48681. 1.00819 2.256(12) 6609. 2.0015 2.2472
48696. 1.00849 2.228(12) 6704. 2.0019 2.2287
48710. 1.00880 2.230(12) 6672. 2.0023 2.2219
48725. 1.00910 2.226(12) 6726. 2.0027 2.2262
48740. 1.00940 2.207(12) 6822. 2.0031 2.2381
48754. 1.00970 2.211(12) 6773. 2.0035 2.2518
48769. 1.01001 2.228(12) 6704. 2.0039 2.2636
48783. 1.01031 2.214(12) 6838. 2.0043 2.2804
48798. 1.01061 2.285(12) 6553. 2.0047 2.3142
48813. 1.01092 2.334(12) 6438. 2.0051 2.3726
48827. 1.01122 2.435(13) 6117. 2.0055 2.4474
48842. 1.01152 2.523(13) 5860. 2.0059 2.5057
48857. 1.01183 2.511(13) 5946. 2.0063 2.5199
48871. 1.01213 2.516(13) 5903. 2.0067 2.5035
48886. 1.01243 2.476(13) 6064. 2.0071 2.4812
48901. 1.01274 2.454(13) 6114. 2.0075 2.4601
48915. 1.01304 2.400(13) 6239. 2.0079 2.4335
48930. 1.01335 2.382(13) 6289. 2.0083 2.4026
48945. 1.01365 2.364(13) 6315. 2.0087 2.3722
48959. 1.01395 2.334(12) 6444. 2.0091 2.3416
48974. 1.01426 2.306(12) 6476. 2.0095 2.3096
48989. 1.01456 2.257(12) 6590. 2.0099 2.2807
49003. 1.01487 2.223(12) 6722. 2.0103 2.2580
49018. 1.01517 2.203(12) 6802. 2.0107 2.2450
49033. 1.01548 2.159(12) 6921. 2.0111 2.2343
49048. 1.01578 2.175(12) 6827. 2.0115 2.2245
49062. 1.01609 2.160(12) 6939. 2.0119 2.2181
49077. 1.01639 2.181(12) 6834. 2.0123 2.2165
49092. 1.01670 2.177(12) 6887. 2.0127 2.2182
49106. 1.01700 2.190(12) 6768. 2.0131 2.2187
49121. 1.01731 2.177(12) 6832. 2.0135 2.2118
49136. 1.01761 2.180(12) 6823. 2.0139 2.1962
49151. 1.01792 2.192(12) 6729. 2.0144 2.1773
49165. 1.01822 2.175(12) 6805. 2.0148 2.1610
49180. 1.01853 2.159(12) 6831. 2.0152 2.1506
49195. 1.01883 2.172(12) 6810. 2.0156 2.1474
49210. 1.01914 2.174(12) 6829. 2.0160 2.1527
49224. 1.01944 2.184(12) 6793. 2.0164 2.1671
49239. 1.01975 2.213(12) 6692. 2.0168 2.1890
49254. 1.02006 2.203(12) 6700. 2.0172 2.2143
49269. 1.02036 2.224(12) 6681. 2.0176 2.2338
49283. 1.02067 2.226(12) 6642. 2.0181 2.2379
49298. 1.02097 2.229(12) 6616. 2.0185 2.2286
49313. 1.02128 2.236(12) 6602. 2.0189 2.2159
49328. 1.02159 2.242(12) 6572. 2.0193 2.2085
49343. 1.02189 2.228(12) 6610. 2.0197 2.2128
49357. 1.02220 2.254(12) 6536. 2.0201 2.2321
49372. 1.02251 2.282(12) 6492. 2.0205 2.2664
49387. 1.02281 2.330(13) 6328. 2.0210 2.3105
49402. 1.02312 2.360(13) 6205. 2.0214 2.3567
49417. 1.02343 2.398(13) 6121. 2.0218 2.4005
49432. 1.02373 2.433(13) 6043. 2.0222 2.4446
49446. 1.02404 2.489(13) 5884. 2.0226 2.4904
49461. 1.02435 2.540(13) 5770. 2.0230 2.5388
49476. 1.02466 2.571(13) 5670. 2.0235 2.5830
49491. 1.02496 2.587(13) 5651. 2.0239 2.5998
49506. 1.02527 2.543(13) 5766. 2.0243 2.5687
49521. 1.02558 2.492(13) 5834. 2.0247 2.5001
49535. 1.02589 2.453(13) 5963. 2.0251 2.4199
49550. 1.02619 2.357(13) 6242. 2.0256 2.3460
49565. 1.02650 2.295(12) 6407. 2.0260 2.2853
49580. 1.02681 2.245(12) 6548. 2.0264 2.2398
49595. 1.02712 2.204(12) 6682. 2.0268 2.2084
49610. 1.02743 2.199(12) 6689. 2.0273 2.1879
49625. 1.02774 2.178(12) 6758. 2.0277 2.1734
49640. 1.02804 2.158(12) 6836. 2.0281 2.1612
49654. 1.02835 2.166(12) 6746. 2.0285 2.1499
49669. 1.02866 2.144(12) 6849. 2.0290 2.1389
49684. 1.02897 2.134(12) 6880. 2.0294 2.1290
49699. 1.02928 2.119(12) 7003. 2.0298 2.1214
49714. 1.02959 2.113(12) 6966. 2.0302 2.1172
49729. 1.02990 2.121(12) 6963. 2.0307 2.1172
49744. 1.03021 2.144(12) 6873. 2.0311 2.1227
49759. 1.03051 2.136(12) 6937. 2.0315 2.1361
49774. 1.03082 2.170(12) 6794. 2.0319 2.1608
49789. 1.03113 2.225(12) 6622. 2.0324 2.1990
49804. 1.03144 2.302(13) 6387. 2.0328 2.2474
49819. 1.03175 2.351(13) 6262. 2.0332 2.2917
49833. 1.03206 2.382(13) 6170. 2.0336 2.3193
49848. 1.03237 2.390(13) 6178. 2.0341 2.3316
49863. 1.03268 2.401(13) 6118. 2.0345 2.3306
49878. 1.03299 2.345(13) 6254. 2.0349 2.3127
49893. 1.03330 2.317(12) 6431. 2.0354 2.2807
49908. 1.03361 2.270(12) 6500. 2.0358 2.2426
49923. 1.03392 2.206(12) 6735. 2.0362 2.2062
49938. 1.03423 2.177(12) 6778. 2.0367 2.1755
49953. 1.03454 2.163(12) 6869. 2.0371 2.1519
49968. 1.03485 2.116(12) 7034. 2.0375 2.1348
49983. 1.03516 2.105(12) 7023. 2.0380 2.1231
49998. 1.03547 2.090(12) 7104. 2.0384 2.1151
50013. 1.03578 2.097(12) 7061. 2.0388 2.1101
50028. 1.03609 2.089(12) 7101. 2.0393 2.1074
50043. 1.03641 2.084(12) 7129. 2.0397 2.1067
50058. 1.03672 2.092(12) 7170. 2.0401 2.1078
50073. 1.03703 2.091(12) 7110. 2.0406 2.1115
50088. 1.03734 2.117(12) 6975. 2.0410 2.1183
50103. 1.03765 2.119(12) 6987. 2.0414 2.1297
50118. 1.03796 2.137(12) 6920. 2.0419 2.1474
50133. 1.03827 2.164(12) 6800. 2.0423 2.1740
50148. 1.03858 2.189(12) 6791. 2.0427 2.2091
50163. 1.03890 2.216(12) 6737. 2.0432 2.2500
50178. 1.03921 2.281(12) 6510. 2.0436 2.2928
50194. 1.03952 2.334(13) 6366. 2.0440 2.3318
50209. 1.03983 2.324(12) 6420. 2.0445 2.3606
50224. 1.04014 2.361(13) 6265. 2.0449 2.3677
50239. 1.04046 2.352(13) 6286. 2.0454 2.3487
50254. 1.04077 2.304(12) 6489. 2.0458 2.3172
50269. 1.04108 2.279(12) 6540. 2.0462 2.2886
50284. 1.04139 2.252(12) 6629. 2.0467 2.2726
50299. 1.04170 2.286(12) 6522. 2.0471 2.2733
50314. 1.04202 2.284(12) 6515. 2.0475 2.2882
50329. 1.04233 2.268(12) 6532. 2.0480 2.3035
50344. 1.04264 2.299(12) 6421. 2.0484 2.3006
50359. 1.04296 2.268(12) 6571. 2.0489 2.2778
50375. 1.04327 2.219(12) 6684. 2.0493 2.2468
50390. 1.04358 2.178(12) 6834. 2.0497 2.2168
50405. 1.04389 2.168(12) 6832. 2.0502 2.1923
50420. 1.04421 2.147(12) 6961. 2.0506 2.1736
50435. 1.04452 2.143(12) 6931. 2.0511 2.1599
50450. 1.04483 2.114(12) 7059. 2.0515 2.1504
50465. 1.04515 2.110(12) 7038. 2.0520 2.1455
50480. 1.04546 2.134(12) 7000. 2.0524 2.1456
50496. 1.04578 2.104(12) 7111. 2.0528 2.1518
50511. 1.04609 2.148(12) 6942. 2.0533 2.1661
50526. 1.04640 2.185(12) 6790. 2.0537 2.1920
50541. 1.04672 2.230(12) 6681. 2.0542 2.2332
50556. 1.04703 2.287(12) 6512. 2.0546 2.2907
50571. 1.04735 2.363(13) 6275. 2.0551 2.3555
50587. 1.04766 2.403(13) 6156. 2.0555 2.4083
50602. 1.04797 2.426(13) 6100. 2.0559 2.4367
50617. 1.04829 2.416(13) 6145. 2.0564 2.4428
50632. 1.04860 2.413(13) 6105. 2.0568 2.4363
50647. 1.04892 2.403(13) 6162. 2.0573 2.4307
50662. 1.04923 2.408(13) 6131. 2.0577 2.4336
50678. 1.04955 2.414(13) 6108. 2.0582 2.4426
50693. 1.04986 2.404(13) 6143. 2.0586 2.4563
50708. 1.05018 2.434(13) 6075. 2.0591 2.4720
50723. 1.05049 2.440(13) 6061. 2.0595 2.4831
50738. 1.05081 2.448(13) 5983. 2.0600 2.4823
50754. 1.05112 2.458(13) 5960. 2.0604 2.4650
50769. 1.05144 2.426(13) 6010. 2.0609 2.4356
50784. 1.05175 2.382(13) 6180. 2.0613 2.4040
50799. 1.05207 2.354(13) 6265. 2.0617 2.3817
50815. 1.05238 2.358(13) 6236. 2.0622 2.3800
50830. 1.05270 2.383(13) 6149. 2.0626 2.4069
50845. 1.05302 2.468(13) 5940. 2.0631 2.4616
50860. 1.05333 2.558(13) 5689. 2.0635 2.5271
50876. 1.05365 2.575(13) 5630. 2.0640 2.5661
50891. 1.05396 2.560(13) 5678. 2.0644 2.5558
50906. 1.05428 2.514(13) 5797. 2.0649 2.5121
50921. 1.05460 2.439(13) 6023. 2.0653 2.4606
50937. 1.05491 2.428(13) 6007. 2.0658 2.4208
50952. 1.05523 2.413(13) 6072. 2.0662 2.4060
50967. 1.05555 2.423(13) 6043. 2.0667 2.4243
50983. 1.05586 2.475(13) 5900. 2.0671 2.4778
50998. 1.05618 2.531(13) 5710. 2.0676 2.5511
51013. 1.05650 2.541(13) 5695. 2.0680 2.6009
51028. 1.05681 2.539(13) 5741. 2.0685 2.5943
51044. 1.05713 2.492(13) 5837. 2.0689 2.5476
51059. 1.05745 2.448(13) 5925. 2.0694 2.4907
51074. 1.05777 2.439(13) 5902. 2.0698 2.4395
51090. 1.05808 2.396(13) 6034. 2.0703 2.3979
51105. 1.05840 2.360(13) 6155. 2.0707 2.3647
51120. 1.05872 2.349(13) 6128. 2.0712 2.3363
51136. 1.05904 2.308(13) 6272. 2.0716 2.3080
51151. 1.05935 2.275(13) 6384. 2.0721 2.2798
51166. 1.05967 2.226(12) 6544. 2.0725 2.2546
51182. 1.05999 2.216(12) 6592. 2.0730 2.2345
51197. 1.06031 2.211(12) 6589. 2.0734 2.2215
51212. 1.06063 2.227(12) 6518. 2.0739 2.2173
51228. 1.06094 2.204(12) 6642. 2.0743 2.2233
51243. 1.06126 2.232(12) 6530. 2.0748 2.2387
51259. 1.06158 2.231(12) 6535. 2.0752 2.2605
51274. 1.06190 2.260(12) 6432. 2.0757 2.2830
51289. 1.06222 2.259(12) 6430. 2.0761 2.2987
51305. 1.06254 2.274(13) 6375. 2.0766 2.3008
51320. 1.06286 2.246(12) 6545. 2.0770 2.2926
51336. 1.06317 2.274(13) 6369. 2.0775 2.2828
51351. 1.06349 2.259(12) 6453. 2.0779 2.2734
51366. 1.06381 2.241(12) 6501. 2.0784 2.2614
51382. 1.06413 2.223(12) 6537. 2.0788 2.2471
51397. 1.06445 2.190(12) 6683. 2.0793 2.2347
51413. 1.06477 2.186(12) 6687. 2.0798 2.2260
51428. 1.06509 2.188(12) 6612. 2.0802 2.2207
51443. 1.06541 2.170(12) 6741. 2.0807 2.2184
51459. 1.06573 2.167(12) 6762. 2.0811 2.2200
51474. 1.06605 2.159(12) 6800. 2.0816 2.2269
51490. 1.06637 2.178(12) 6729. 2.0820 2.2395
51505. 1.06669 2.192(12) 6671. 2.0825 2.2577
51521. 1.06701 2.208(12) 6662. 2.0829 2.2812
51536. 1.06733 2.239(12) 6538. 2.0834 2.3079
51552. 1.06765 2.236(12) 6580. 2.0838 2.3265
51567. 1.06797 2.231(12) 6597. 2.0843 2.3304
51582. 1.06829 2.255(12) 6493. 2.0847 2.3266
51598. 1.06861 2.269(12) 6441. 2.0852 2.3259
51613. 1.06893 2.270(12) 6453. 2.0856 2.3372
51629. 1.06925 2.303(13) 6371. 2.0861 2.3685
51644. 1.06957 2.329(13) 6305. 2.0865 2.4252
51660. 1.06989 2.411(13) 6063. 2.0870 2.5029
51675. 1.07022 2.494(13) 5866. 2.0874 2.5740
51691. 1.07054 2.540(13) 5747. 2.0879 2.6041
51706. 1.07086 2.537(13) 5723. 2.0883 2.5887
51722. 1.07118 2.486(13) 5850. 2.0888 2.5442
51737. 1.07150 2.438(13) 5967. 2.0893 2.4880
51753. 1.07182 2.376(13) 6160. 2.0897 2.4333
51768. 1.07214 2.324(13) 6324. 2.0902 2.3889
51784. 1.07246 2.314(13) 6357. 2.0906 2.3586
51800. 1.07279 2.307(13) 6349. 2.0911 2.3407
51815. 1.07311 2.275(12) 6485. 2.0915 2.3305
51831. 1.07343 2.276(12) 6443. 2.0920 2.3253
51846. 1.07375 2.281(12) 6480. 2.0924 2.3275
51862. 1.07407 2.297(12) 6400. 2.0929 2.3371
51877. 1.07440 2.305(13) 6376. 2.0933 2.3476
51893. 1.07472 2.327(13) 6281. 2.0938 2.3525
51908. 1.07504 2.301(13) 6395. 2.0942 2.3565
51924. 1.07536 2.313(13) 6326. 2.0947 2.3695
51940. 1.07569 2.354(13) 6195. 2.0951 2.3949
51955. 1.07601 2.353(13) 6183. 2.0956 2.4198
51971. 1.07633 2.383(13) 6093. 2.0960 2.4245
51986. 1.07666 2.373(13) 6161. 2.0965 2.4081
52002. 1.07698 2.323(13) 6300. 2.0969 2.3830
52018. 1.07730 2.295(12) 6419. 2.0974 2.3615
52033. 1.07763 2.302(13) 6360. 2.0978 2.3501
52049. 1.07795 2.323(13) 6253. 2.0983 2.3482
52064. 1.07827 2.330(13) 6236. 2.0987 2.3536
52080. 1.07860 2.395(13) 5993. 2.0992 2.3638
52096. 1.07892 2.404(13) 6021. 2.0996 2.3681
52111. 1.07924 2.378(13) 6120. 2.1001 2.3569
52127. 1.07957 2.351(13) 6180. 2.1006 2.3357
52143. 1.07989 2.314(13) 6303. 2.1010 2.3152
52158. 1.08021 2.288(13) 6348. 2.1015 2.3036
52174. 1.08054 2.296(13) 6320. 2.1019 2.3073
52189. 1.08086 2.322(13) 6279. 2.1024 2.3301
52205. 1.08119 2.373(13) 6141. 2.1028 2.3745
52221. 1.08151 2.433(13) 5947. 2.1033 2.4335
52236. 1.08184 2.460(13) 5902. 2.1037 2.4885
52252. 1.08216 2.507(13) 5767. 2.1042 2.5248
52268. 1.08249 2.494(13) 5789. 2.1046 2.5464
52283. 1.08281 2.535(13) 5673. 2.1051 2.5569
52299. 1.08314 2.539(13) 5698. 2.1055 2.5583
52315. 1.08346 2.562(13) 5619. 2.1060 2.5622
52331. 1.08379 2.580(13) 5603. 2.1064 2.5748
52346. 1.08411 2.630(14) 5456. 2.1068 2.5903
52362. 1.08444 2.644(14) 5445. 2.1073 2.6107
52378. 1.08476 2.685(14) 5319. 2.1077 2.6370
52393. 1.08509 2.697(14) 5293. 2.1082 2.6458
52409. 1.08541 2.651(14) 5362. 2.1086 2.6129
52425. 1.08574 2.574(13) 5513. 2.1091 2.5476
52441. 1.08606 2.461(13) 5839. 2.1095 2.4729
52456. 1.08639 2.412(13) 5943. 2.1100 2.4042
52472. 1.08672 2.351(13) 6100. 2.1104 2.3481
52488. 1.08704 2.267(13) 6344. 2.1109 2.3063
52503. 1.08737 2.247(12) 6408. 2.1113 2.2770
52519. 1.08769 2.230(12) 6401. 2.1118 2.2586
52535. 1.08802 2.230(12) 6414. 2.1122 2.2477
52551. 1.08835 2.212(12) 6485. 2.1127 2.2399
52567. 1.08867 2.182(12) 6618. 2.1131 2.2331
52582. 1.08900 2.159(12) 6664. 2.1136 2.2274
52598. 1.08933 2.170(12) 6569. 2.1140 2.2233
52614. 1.08965 2.170(12) 6600. 2.1144 2.2223
52630. 1.08998 2.187(12) 6546. 2.1149 2.2269
52645. 1.09031 2.202(12) 6508. 2.1153 2.2392
52661. 1.09064 2.236(13) 6354. 2.1158 2.2601
52677. 1.09096 2.250(13) 6316. 2.1162 2.2858
52693. 1.09129 2.270(13) 6265. 2.1167 2.3060
52709. 1.09162 2.278(13) 6269. 2.1171 2.3151
52724. 1.09195 2.268(13) 6264. 2.1176 2.3192
52740. 1.09227 2.312(13) 6111. 2.1180 2.3270
52756. 1.09260 2.289(13) 6266. 2.1184 2.3482
52772. 1.09293 2.342(13) 6119. 2.1189 2.3941
52788. 1.09326 2.428(13) 5915. 2.1193 2.4769
52804. 1.09358 2.557(13) 5566. 2.1198 2.6054
52819. 1.09391 2.731(14) 5175. 2.1202 2.7654
52835. 1.09424 2.898(14) 4819. 2.1207 2.9004
52851. 1.09457 2.978(15) 4696. 2.1211 2.9581
52867. 1.09490 2.973(15) 4706. 2.1215 2.9333
52883. 1.09523 2.884(14) 4847. 2.1220 2.8464
52899. 1.09555 2.764(14) 5101. 2.1224 2.7332
52915. 1.09588 2.621(14) 5423. 2.1229 2.6238
52930. 1.09621 2.522(13) 5633. 2.1233 2.5330
52946. 1.09654 2.445(13) 5810. 2.1237 2.4656
52962. 1.09687 2.392(13) 5956. 2.1242 2.4215
52978. 1.09720 2.352(13) 6050. 2.1246 2.3964
52994. 1.09753 2.330(13) 6110. 2.1251 2.3832
53010. 1.09786 2.345(13) 6097. 2.1255 2.3769
53026. 1.09819 2.339(13) 6092. 2.1259 2.3721
53042. 1.09852 2.320(13) 6192. 2.1264 2.3626
53058. 1.09885 2.315(13) 6130. 2.1268 2.3491
53074. 1.09918 2.294(13) 6223. 2.1272 2.3340
53089. 1.09951 2.301(13) 6191. 2.1277 2.3154
53105. 1.09984 2.268(13) 6324. 2.1281 2.2928
53121. 1.10017 2.267(13) 6298. 2.1286 2.2694
53137. 1.10050 2.234(13) 6376. 2.1290 2.2488
53153. 1.10083 2.215(12) 6463. 2.1294 2.2329
53169. 1.10116 2.196(12) 6516. 2.1299 2.2219
53185. 1.10149 2.186(12) 6534. 2.1303 2.2162
53201. 1.10182 2.191(12) 6539. 2.1307 2.2163
53217. 1.10215 2.203(12) 6492. 2.1312 2.2228
53233. 1.10248 2.215(12) 6442. 2.1316 2.2358
53249. 1.10281 2.219(12) 6414. 2.1320 2.2517
53265. 1.10314 2.222(13) 6380. 2.1325 2.2614
53281. 1.10347 2.209(12) 6505. 2.1329 2.2609
53297. 1.10380 2.220(12) 6446. 2.1333 2.2530
53313. 1.10413 2.229(13) 6369. 2.1338 2.2437
53329. 1.10446 2.196(12) 6529. 2.1342 2.2353
53345. 1.10480 2.204(12) 6468. 2.1346 2.2301
53361. 1.10513 2.215(12) 6445. 2.1350 2.2288
53377. 1.10546 2.229(13) 6399. 2.1355 2.2321
53393. 1.10579 2.231(13) 6393. 2.1359 2.2411
53409. 1.10612 2.263(13) 6232. 2.1363 2.2583
53425. 1.10645 2.276(13) 6285. 2.1368 2.2883
53441. 1.10679 2.300(13) 6248. 2.1372 2.3385
53457. 1.10712 2.395(13) 6005. 2.1376 2.4181
53473. 1.10745 2.504(13) 5735. 2.1380 2.5327
53489. 1.10778 2.638(14) 5356. 2.1385 2.6680
53505. 1.10812 2.750(14) 5110. 2.1389 2.7791
53521. 1.10845 2.789(14) 5046. 2.1393 2.8297
53537. 1.10878 2.744(14) 5163. 2.1397 2.8130
53553. 1.10911 2.690(14) 5245. 2.1402 2.7466
53569. 1.10945 2.617(14) 5399. 2.1406 2.6637
53585. 1.10978 2.560(13) 5527. 2.1410 2.5875
53601. 1.11011 2.513(13) 5628. 2.1414 2.5244
53618. 1.11045 2.463(13) 5771. 2.1419 2.4749
53634. 1.11078 2.436(13) 5769. 2.1423 2.4411
53650. 1.11111 2.410(13) 5895. 2.1427 2.4267
53666. 1.11145 2.422(13) 5849. 2.1431 2.4299
53682. 1.11178 2.402(13) 5899. 2.1436 2.4376
53698. 1.11211 2.398(13) 5875. 2.1440 2.4322
53714. 1.11245 2.404(13) 5837. 2.1444 2.4124
53730. 1.11278 2.376(13) 5930. 2.1448 2.3891
53746. 1.11311 2.360(13) 5968. 2.1452 2.3705
53762. 1.11345 2.367(13) 5914. 2.1456 2.3633
53779. 1.11378 2.392(13) 5824. 2.1461 2.3726
53795. 1.11412 2.431(13) 5751. 2.1465 2.4015
53811. 1.11445 2.505(13) 5546. 2.1469 2.4469
53827. 1.11478 2.553(14) 5458. 2.1473 2.4947
53843. 1.11512 2.593(14) 5383. 2.1477 2.5322
53859. 1.11545 2.616(14) 5326. 2.1481 2.5635
53875. 1.11579 2.661(14) 5225. 2.1486 2.5974
53892. 1.11612 2.691(14) 5144. 2.1490 2.6225
53908. 1.11646 2.691(14) 5130. 2.1494 2.6188
53924. 1.11679 2.644(14) 5211. 2.1498 2.5911
53940. 1.11713 2.570(14) 5360. 2.1502 2.5519
53956. 1.11746 2.528(14) 5461. 2.1506 2.5055
53973. 1.11780 2.443(13) 5641. 2.1510 2.4557
53989. 1.11813 2.394(13) 5785. 2.1514 2.4067
54005. 1.11847 2.364(13) 5839. 2.1519 2.3624
54021. 1.11881 2.325(13) 5915. 2.1523 2.3257
54037. 1.11914 2.268(13) 6123. 2.1527 2.2978
54054. 1.11948 2.258(13) 6164. 2.1531 2.2786
54070. 1.11981 2.264(13) 6124. 2.1535 2.2678
54086. 1.12015 2.273(13) 6092. 2.1539 2.2658
54102. 1.12048 2.279(13) 6043. 2.1543 2.2735
54118. 1.12082 2.282(13) 6029. 2.1547 2.2907
54135. 1.12116 2.282(13) 6060. 2.1551 2.3127
54151. 1.12149 2.319(13) 5945. 2.1555 2.3283
54167. 1.12183 2.325(13) 5895. 2.1559 2.3300
54183. 1.12217 2.322(13) 5925. 2.1563 2.3191
54200. 1.12250 2.322(13) 5896. 2.1567 2.3029
54216. 1.12284 2.296(13) 5971. 2.1571 2.2882
54232. 1.12318 2.262(13) 6103. 2.1575 2.2789
54248. 1.12351 2.292(13) 6000. 2.1579 2.2779
54265. 1.12385 2.298(13) 5991. 2.1583 2.2848
54281. 1.12419 2.351(13) 5862. 2.1587 2.2965
54297. 1.12453 2.361(13) 5803. 2.1591 2.3052
54314. 1.12486 2.365(13) 5764. 2.1595 2.3059
54330. 1.12520 2.345(13) 5874. 2.1599 2.2988
54346. 1.12554 2.301(13) 5985. 2.1603 2.2881
54362. 1.12588 2.303(13) 6009. 2.1607 2.2777
54379. 1.12621 2.268(13) 6107. 2.1611 2.2699
54395. 1.12655 2.299(13) 5981. 2.1615 2.2663
54411. 1.12689 2.308(13) 5906. 2.1619 2.2677
54428. 1.12723 2.277(13) 6076. 2.1623 2.2754
54444. 1.12757 2.325(13) 5933. 2.1627 2.2922
54460. 1.12790 2.348(13) 5895. 2.1631 2.3222
54477. 1.12824 2.400(13) 5746. 2.1635 2.3707
54493. 1.12858 2.474(13) 5555. 2.1639 2.4415
54509. 1.12892 2.549(14) 5394. 2.1643 2.5258
54526. 1.12926 2.625(14) 5209. 2.1647 2.5942
54542. 1.12960 2.636(14) 5199. 2.1650 2.6235
54559. 1.12994 2.651(14) 5160. 2.1654 2.6197
54575. 1.13028 2.633(14) 5201. 2.1658 2.5999
54591. 1.13062 2.610(14) 5249. 2.1662 2.5849
54608. 1.13095 2.622(14) 5265. 2.1666 2.5953
54624. 1.13129 2.650(14) 5282. 2.1670 2.6481
54640. 1.13163 2.791(14) 4976. 2.1674 2.7543
54657. 1.13197 2.960(15) 4639. 2.1677 2.9079
54673. 1.13231 3.111(15) 4399. 2.1681 3.0789
54690. 1.13265 3.255(15) 4170. 2.1685 3.2195
54706. 1.13299 3.309(16) 4098. 2.1689 3.2860
54722. 1.13333 3.291(16) 4107. 2.1693 3.2638
54739. 1.13367 3.157(15) 4308. 2.1697 3.1630
54755. 1.13401 3.071(15) 4435. 2.1700 3.0160
54772. 1.13435 2.930(15) 4657. 2.1704 2.8633
54788. 1.13469 2.793(14) 4908. 2.1708 2.7277
54805. 1.13503 2.667(14) 5171. 2.1712 2.6167
54821. 1.13537 2.554(14) 5424. 2.1716 2.5299
54837. 1.13571 2.517(14) 5472. 2.1719 2.4626
54854. 1.13606 2.448(13) 5633. 2.1723 2.4107
54870. 1.13640 2.407(13) 5724. 2.1727 2.3716
54887. 1.13674 2.367(13) 5828. 2.1731 2.3431
54903. 1.13708 2.336(13) 5906. 2.1734 2.3226
54920. 1.13742 2.314(13) 5956. 2.1738 2.3101
54936. 1.13776 2.316(13) 5943. 2.1742 2.3052
54953. 1.13810 2.328(13) 5904. 2.1745 2.3100
54969. 1.13844 2.300(13) 6031. 2.1749 2.3256
54986. 1.13879 2.336(13) 5888. 2.1753 2.3546
55002. 1.13913 2.360(13) 5779. 2.1756 2.3952
55019. 1.13947 2.387(13) 5736. 2.1760 2.4351
55035. 1.13981 2.379(13) 5780. 2.1764 2.4580
55052. 1.14015 2.388(13) 5776. 2.1767 2.4628
55068. 1.14049 2.369(13) 5813. 2.1771 2.4604
55085. 1.14084 2.382(13) 5770. 2.1775 2.4651
55101. 1.14118 2.415(13) 5745. 2.1778 2.4905
55118. 1.14152 2.530(14) 5422. 2.1782 2.5446
55134. 1.14186 2.629(14) 5180. 2.1786 2.6167
55151. 1.14221 2.674(14) 5073. 2.1789 2.6654
55167. 1.14255 2.677(14) 5048. 2.1793 2.6571
55184. 1.14289 2.610(14) 5191. 2.1796 2.6054
55200. 1.14324 2.560(14) 5311. 2.1800 2.5394
55217. 1.14358 2.457(13) 5557. 2.1804 2.4776
55234. 1.14392 2.439(13) 5572. 2.1807 2.4271
55250. 1.14426 2.386(13) 5710. 2.1811 2.3882
55267. 1.14461 2.360(13) 5791. 2.1814 2.3593
55283. 1.14495 2.336(13) 5818. 2.1818 2.3392
55300. 1.14530 2.346(13) 5766. 2.1821 2.3271
55317. 1.14564 2.357(13) 5716. 2.1825 2.3233
55333. 1.14598 2.350(13) 5730. 2.1828 2.3266
55350. 1.14633 2.353(13) 5759. 2.1832 2.3370
55366. 1.14667 2.370(13) 5679. 2.1835 2.3544
55383. 1.14701 2.355(13) 5731. 2.1839 2.3769
55400. 1.14736 2.402(13) 5604. 2.1842 2.4075
55416. 1.14770 2.436(13) 5517. 2.1846 2.4534
55433. 1.14805 2.469(14) 5472. 2.1849 2.5170
55449. 1.14839 2.569(14) 5194. 2.1853 2.5852
55466. 1.14874 2.599(14) 5116. 2.1856 2.6323
55483. 1.14908 2.631(14) 5054. 2.1860 2.6496
55499. 1.14943 2.667(14) 4977. 2.1863 2.6480
55516. 1.14977 2.665(14) 4979. 2.1867 2.6403
55533. 1.15012 2.647(14) 5041. 2.1870 2.6412
55549. 1.15046 2.670(14) 5013. 2.1873 2.6617
55566. 1.15081 2.739(14) 4840. 2.1877 2.7103
55583. 1.15115 2.793(14) 4766. 2.1880 2.7990
55599. 1.15150 2.933(15) 4504. 2.1884 2.9274
55616. 1.15184 3.129(15) 4172. 2.1887 3.0609
55633. 1.15219 3.252(16) 3968. 2.1890 3.1525
55649. 1.15253 3.265(16) 3974. 2.1894 3.1837
55666. 1.15288 3.255(16) 3954. 2.1897 3.1565
55683. 1.15323 3.117(16) 4157. 2.1900 3.0805
55699. 1.15357 2.996(15) 4352. 2.1904 2.9790
55716. 1.15392 2.889(15) 4541. 2.1907 2.8826
55733. 1.15426 2.833(15) 4626. 2.1910 2.8174
55750. 1.15461 2.789(15) 4719. 2.1914 2.7962
55766. 1.15496 2.796(15) 4710. 2.1917 2.8124
55783. 1.15530 2.840(15) 4629. 2.1920 2.8371
55800. 1.15565 2.837(15) 4603. 2.1924 2.8425
55817. 1.15600 2.791(15) 4677. 2.1927 2.8133
55833. 1.15634 2.739(14) 4787. 2.1930 2.7488
55850. 1.15669 2.642(14) 4976. 2.1933 2.6661
55867. 1.15704 2.578(14) 5111. 2.1937 2.5854
55884. 1.15738 2.540(14) 5160. 2.1940 2.5175
55900. 1.15773 2.479(14) 5365. 2.1943 2.4664
55917. 1.15808 2.443(14) 5409. 2.1946 2.4328
55934. 1.15843 2.450(14) 5360. 2.1949 2.4151
55951. 1.15877 2.454(14) 5409. 2.1953 2.4113
55967. 1.15912 2.450(14) 5344. 2.1956 2.4149
55984. 1.15947 2.449(14) 5386. 2.1959 2.4178
56001. 1.15982 2.449(14) 5397. 2.1962 2.4172
56018. 1.16017 2.428(14) 5448. 2.1965 2.4172
56035. 1.16051 2.458(14) 5395. 2.1968 2.4252
56051. 1.16086 2.462(14) 5396. 2.1972 2.4498
56068. 1.16121 2.516(14) 5251. 2.1975 2.4981
56085. 1.16156 2.596(14) 5115. 2.1978 2.5729
56102. 1.16191 2.710(14) 4837. 2.1981 2.6675
56119. 1.16226 2.828(15) 4661. 2.1984 2.7791
56136. 1.16260 2.964(15) 4418. 2.1987 2.8894
56152. 1.16295 3.056(15) 4247. 2.1990 2.9440
56169. 1.16330 2.999(15) 4347. 2.1993 2.9127
56186. 1.16365 2.874(15) 4583. 2.1996 2.8275
56203. 1.16400 2.754(14) 4773. 2.1999 2.7301
56220. 1.16435 2.677(14) 4933. 2.2002 2.6459
56237. 1.16470 2.593(14) 5104. 2.2005 2.5874
56254. 1.16505 2.566(14) 5157. 2.2008 2.5597
56270. 1.16540 2.572(14) 5168. 2.2011 2.5644
56287. 1.16575 2.635(14) 5019. 2.2014 2.5975
56304. 1.16610 2.695(14) 4909. 2.2017 2.6452
56321. 1.16645 2.741(14) 4839. 2.2020 2.6982
56338. 1.16680 2.798(15) 4731. 2.2023 2.7646
56355. 1.16715 2.872(15) 4558. 2.2026 2.8370
56372. 1.16750 2.902(15) 4491. 2.2029 2.8695
56389. 1.16785 2.839(15) 4604. 2.2032 2.8313
56406. 1.16820 2.732(14) 4808. 2.2035 2.7461
56423. 1.16855 2.668(14) 4934. 2.2038 2.6491
56439. 1.16890 2.587(14) 5112. 2.2041 2.5608
56456. 1.16925 2.513(14) 5286. 2.2044 2.4893
56473. 1.16960 2.480(14) 5324. 2.2047 2.4353
56490. 1.16995 2.465(14) 5322. 2.2050 2.3973
56507. 1.17030 2.441(14) 5389. 2.2052 2.3729
56524. 1.17065 2.419(14) 5418. 2.2055 2.3602
56541. 1.17101 2.383(13) 5549. 2.2058 2.3565
56558. 1.17136 2.388(13) 5509. 2.2061 2.3580
56575. 1.17171 2.391(14) 5483. 2.2064 2.3657
56592. 1.17206 2.420(14) 5438. 2.2067 2.3828
56609. 1.17241 2.471(14) 5295. 2.2069 2.4115
56626. 1.17276 2.506(14) 5232. 2.2072 2.4437
56643. 1.17312 2.534(14) 5140. 2.2075 2.4625
56660. 1.17347 2.529(14) 5165. 2.2078 2.4621
56677. 1.17382 2.516(14) 5205. 2.2081 2.4473
56694. 1.17417 2.500(14) 5226. 2.2083 2.4214
56711. 1.17452 2.477(14) 5248. 2.2086 2.3906
56728. 1.17488 2.411(14) 5449. 2.2089 2.3615
56745. 1.17523 2.408(14) 5412. 2.2092 2.3376
56762. 1.17558 2.384(14) 5474. 2.2094 2.3199
56779. 1.17593 2.355(13) 5512. 2.2097 2.3080
56796. 1.17629 2.349(13) 5568. 2.2100 2.3015
56813. 1.17664 2.365(13) 5498. 2.2102 2.2995
56830. 1.17699 2.367(14) 5456. 2.2105 2.3021
56847. 1.17735 2.382(14) 5417. 2.2108 2.3089
56864. 1.17770 2.379(14) 5425. 2.2110 2.3162
56881. 1.17805 2.372(14) 5430. 2.2113 2.3223
56898. 1.17841 2.395(14) 5382. 2.2116 2.3272
56915. 1.17876 2.367(14) 5470. 2.2118 2.3304
56933. 1.17911 2.403(14) 5365. 2.2121 2.3332
56950. 1.17947 2.401(14) 5348. 2.2123 2.3382
56967. 1.17982 2.427(14) 5306. 2.2126 2.3482
56984. 1.18018 2.416(14) 5340. 2.2129 2.3661
57001. 1.18053 2.457(14) 5255. 2.2131 2.3953
57018. 1.18088 2.516(14) 5107. 2.2134 2.4431
57035. 1.18124 2.548(14) 5040. 2.2136 2.5208
57052. 1.18159 2.637(14) 4842. 2.2139 2.6415
57069. 1.18195 2.754(15) 4636. 2.2141 2.8033
57086. 1.18230 2.901(15) 4335. 2.2144 2.9640
57104. 1.18266 3.000(16) 4161. 2.2146 3.0489
57121. 1.18301 2.967(15) 4244. 2.2149 3.0300
57138. 1.18337 2.912(15) 4311. 2.2151 2.9415
57155. 1.18372 2.809(15) 4491. 2.2154 2.8335
57172. 1.18408 2.750(15) 4593. 2.2156 2.7411
57189. 1.18443 2.717(15) 4641. 2.2159 2.6826
57206. 1.18479 2.692(15) 4687. 2.2161 2.6659
57224. 1.18514 2.724(15) 4607. 2.2164 2.6869
57241. 1.18550 2.736(15) 4598. 2.2166 2.7179
57258. 1.18585 2.741(15) 4585. 2.2168 2.7150
57275. 1.18621 2.705(15) 4679. 2.2171 2.6693
57292. 1.18657 2.644(14) 4778. 2.2173 2.6040
57309. 1.18692 2.583(14) 4902. 2.2176 2.5406
57327. 1.18728 2.539(14) 5014. 2.2178 2.4894
57344. 1.18763 2.514(14) 5039. 2.2180 2.4523
57361. 1.18799 2.497(14) 5079. 2.2183 2.4250
57378. 1.18835 2.471(14) 5127. 2.2185 2.4031
57396. 1.18870 2.436(14) 5215. 2.2187 2.3873
57413. 1.18906 2.436(14) 5231. 2.2190 2.3805
57430. 1.18942 2.455(14) 5167. 2.2192 2.3851
57447. 1.18977 2.477(14) 5114. 2.2194 2.4013
57464. 1.19013 2.458(14) 5156. 2.2196 2.4258
57482. 1.19049 2.465(14) 5166. 2.2199 2.4541
57499. 1.19085 2.505(14) 5071. 2.2201 2.4858
57516. 1.19120 2.525(14) 5054. 2.2203 2.5140
57533. 1.19156 2.535(14) 5028. 2.2205 2.5239
57551. 1.19192 2.550(14) 4970. 2.2208 2.5103
57568. 1.19228 2.529(14) 5040. 2.2210 2.4809
57585. 1.19263 2.519(14) 5104. 2.2212 2.4470
57602. 1.19299 2.483(14) 5211. 2.2214 2.4167
57620. 1.19335 2.475(14) 5174. 2.2216 2.3911
57637. 1.19371 2.482(14) 5112. 2.2219 2.3687
57654. 1.19407 2.426(14) 5278. 2.2221 2.3497
57672. 1.19442 2.393(14) 5342. 2.2223 2.3351
57689. 1.19478 2.390(14) 5325. 2.2225 2.3256
57706. 1.19514 2.391(14) 5357. 2.2227 2.3216
57724. 1.19550 2.363(14) 5446. 2.2229 2.3236
57741. 1.19586 2.381(14) 5391. 2.2231 2.3334
57758. 1.19622 2.418(14) 5320. 2.2234 2.3537
57776. 1.19658 2.434(14) 5328. 2.2236 2.3887
57793. 1.19693 2.482(14) 5174. 2.2238 2.4409
57810. 1.19729 2.550(14) 5013. 2.2240 2.5074
57828. 1.19765 2.626(14) 4884. 2.2242 2.5789
57845. 1.19801 2.670(14) 4793. 2.2244 2.6434
57862. 1.19837 2.695(15) 4748. 2.2246 2.6936
57880. 1.19873 2.700(15) 4723. 2.2248 2.7232
57897. 1.19909 2.672(14) 4787. 2.2250 2.7125
57914. 1.19945 2.623(14) 4852. 2.2252 2.6605
57932. 1.19981 2.573(14) 4972. 2.2254 2.5901
57949. 1.20017 2.528(14) 5064. 2.2256 2.5210
57966. 1.20053 2.494(14) 5112. 2.2258 2.4628
57984. 1.20089 2.445(14) 5242. 2.2260 2.4178
58001. 1.20125 2.427(14) 5264. 2.2262 2.3856
58019. 1.20161 2.415(14) 5301. 2.2264 2.3644
58036. 1.20197 2.412(14) 5293. 2.2266 2.3521
58053. 1.20233 2.403(14) 5307. 2.2267 2.3476
58071. 1.20269 2.392(14) 5365. 2.2269 2.3511
58088. 1.20305 2.428(14) 5281. 2.2271 2.3625
58106. 1.20342 2.396(14) 5345. 2.2273 2.3786
58123. 1.20378 2.415(14) 5295. 2.2275 2.3936
58141. 1.20414 2.442(14) 5217. 2.2277 2.4019
58158. 1.20450 2.421(14) 5243. 2.2279 2.4006
58175. 1.20486 2.444(14) 5166. 2.2281 2.3945
58193. 1.20522 2.411(14) 5245. 2.2282 2.3912
58210. 1.20558 2.432(14) 5196. 2.2284 2.3972
58228. 1.20595 2.461(14) 5155. 2.2286 2.4186
58245. 1.20631 2.520(14) 5035. 2.2288 2.4613
58263. 1.20667 2.568(14) 4932. 2.2290 2.5293
58280. 1.20703 2.652(15) 4737. 2.2291 2.6139
58298. 1.20739 2.698(15) 4659. 2.2293 2.6877
58315. 1.20776 2.730(15) 4593. 2.2295 2.7356
58333. 1.20812 2.755(15) 4535. 2.2297 2.7687
58350. 1.20848 2.763(15) 4533. 2.2298 2.7893
58368. 1.20884 2.719(15) 4605. 2.2300 2.7877
58385. 1.20921 2.691(15) 4664. 2.2302 2.7647
58403. 1.20957 2.664(15) 4677. 2.2303 2.7250
58420. 1.20993 2.625(14) 4758. 2.2305 2.6804
58438. 1.21030 2.612(14) 4813. 2.2307 2.6518
58455. 1.21066 2.617(14) 4785. 2.2308 2.6573
58473. 1.21102 2.702(15) 4652. 2.2310 2.7112
58490. 1.21139 2.833(15) 4391. 2.2312 2.8177
58508. 1.21175 2.995(16) 4125. 2.2313 2.9474
58526. 1.21211 3.078(16) 3959. 2.2315 3.0236
58543. 1.21248 3.025(16) 4069. 2.2316 3.0000
58561. 1.21284 2.963(16) 4123. 2.2318 2.9069
58578. 1.21320 2.831(15) 4357. 2.2320 2.7904
58596. 1.21357 2.699(15) 4589. 2.2321 2.6792
58613. 1.21393 2.618(15) 4705. 2.2323 2.5841
58631. 1.21430 2.522(14) 4900. 2.2324 2.5086
58649. 1.21466 2.480(14) 5001. 2.2326 2.4511
58666. 1.21502 2.417(14) 5181. 2.2327 2.4089
58684. 1.21539 2.428(14) 5060. 2.2329 2.3790
58701. 1.21575 2.399(14) 5165. 2.2330 2.3594
58719. 1.21612 2.340(14) 5331. 2.2332 2.3488
58737. 1.21648 2.343(14) 5333. 2.2333 2.3457
58754. 1.21685 2.383(14) 5227. 2.2335 2.3484
58772. 1.21721 2.367(14) 5248. 2.2336 2.3518
58789. 1.21758 2.361(14) 5266. 2.2338 2.3517
58807. 1.21794 2.346(14) 5305. 2.2339 2.3461
58825. 1.21831 2.334(14) 5354. 2.2341 2.3361
58842. 1.21868 2.345(14) 5266. 2.2342 2.3251
58860. 1.21904 2.315(14) 5386. 2.2343 2.3157
58878. 1.21941 2.290(14) 5461. 2.2345 2.3094
58895. 1.21977 2.277(13) 5532. 2.2346 2.3070
58913. 1.22014 2.281(13) 5517. 2.2348 2.3093
58931. 1.22050 2.264(13) 5547. 2.2349 2.3164
58948. 1.22087 2.290(13) 5499. 2.2350 2.3264
58966. 1.22124 2.289(14) 5466. 2.2352 2.3336
58984. 1.22160 2.283(14) 5485. 2.2353 2.3334
59001. 1.22197 2.296(14) 5477. 2.2354 2.3278
59019. 1.22234 2.295(13) 5494. 2.2356 2.3206
59037. 1.22270 2.296(14) 5466. 2.2357 2.3147
59055. 1.22307 2.313(14) 5387. 2.2358 2.3117
59072. 1.22344 2.324(14) 5373. 2.2360 2.3115
59090. 1.22380 2.304(13) 5491. 2.2361 2.3151
59108. 1.22417 2.343(14) 5365. 2.2362 2.3237
59125. 1.22454 2.335(14) 5408. 2.2363 2.3392
59143. 1.22491 2.355(14) 5380. 2.2365 2.3641
59161. 1.22527 2.385(14) 5298. 2.2366 2.3988
59179. 1.22564 2.400(14) 5250. 2.2367 2.4371
59196. 1.22601 2.423(14) 5173. 2.2368 2.4648
59214. 1.22638 2.413(14) 5218. 2.2369 2.4769
59232. 1.22675 2.410(14) 5241. 2.2371 2.4817
59250. 1.22711 2.429(14) 5198. 2.2372 2.4905
59268. 1.22748 2.447(14) 5144. 2.2373 2.5108
59285. 1.22785 2.468(14) 5117. 2.2374 2.5426
59303. 1.22822 2.487(14) 5067. 2.2375 2.5857
59321. 1.22859 2.546(14) 4954. 2.2376 2.6500
59339. 1.22896 2.667(15) 4709. 2.2377 2.7464
59356. 1.22932 2.786(15) 4507. 2.2379 2.8665
59374. 1.22969 2.893(15) 4307. 2.2380 2.9692
59392. 1.23006 2.924(15) 4257. 2.2381 3.0132
59410. 1.23043 2.905(15) 4299. 2.2382 2.9948
59428. 1.23080 2.861(15) 4399. 2.2383 2.9430
59446. 1.23117 2.804(15) 4477. 2.2384 2.8864
59463. 1.23154 2.796(15) 4482. 2.2385 2.8330
59481. 1.23191 2.759(15) 4559. 2.2386 2.7816
59499. 1.23228 2.753(15) 4591. 2.2387 2.7355
59517. 1.23265 2.801(15) 4499. 2.2388 2.7016
59535. 1.23302 2.850(15) 4479. 2.2389 2.6852
59553. 1.23339 2.987(15) 4168. 2.2390 2.6899
59571. 1.23376 3.050(16) 4024. 2.2391 2.7199
59588. 1.23413 3.042(16) 4012. 2.2392 2.7787
59606. 1.23450 3.044(16) 4019. 2.2393 2.8621
59624. 1.23487 3.177(16) 3789. 2.2394 2.9396
59642. 1.23524 3.256(17) 3671. 2.2395 2.9714
59660. 1.23561 3.244(16) 3733. 2.2396 2.9546
59678. 1.23598 3.152(16) 3867. 2.2397 2.9157
59696. 1.23635 3.031(16) 4061. 2.2398 2.8776
59714. 1.23672 2.946(15) 4238. 2.2399 2.8471
59732. 1.23709 2.890(15) 4325. 2.2400 2.8181
59749. 1.23747 2.854(15) 4318. 2.2400 2.7879
59767. 1.23784 2.831(15) 4312. 2.2401 2.7643
59785. 1.23821 2.807(15) 4404. 2.2402 2.7588
59803. 1.23858 2.847(15) 4402. 2.2403 2.7804
59821. 1.23895 2.876(15) 4376. 2.2404 2.8257
59839. 1.23932 2.946(15) 4282. 2.2405 2.8757
59857. 1.23969 2.936(15) 4327. 2.2406 2.9122
59875. 1.24007 2.974(15) 4256. 2.2406 2.9359
59893. 1.24044 2.932(16) 4091. 2.2407 2.9509
59911. 1.24081 2.869(16) 4018. 2.2408 2.9390
59929. 1.24118 2.779(16) 4084. 2.2409 2.8788
59947. 1.24156 2.706(16) 4131. 2.2410 2.7853
59965. 1.24193 2.639(16) 4108. 2.2410 2.6865
59983. 1.24230 2.547(15) 4174. 2.2411 2.5994
60001. 1.24267 2.497(16) 4132. 2.2412 2.5305
60019. 1.24305 2.449(15) 4170. 2.2413 2.4801
60037. 1.24342 2.449(16) 4072. 2.2413 2.4458
60055. 1.24379 2.397(15) 4166. 2.2414 2.4223
60073. 1.24417 2.373(15) 4201. 2.2415 2.4022
60091. 1.24454 2.356(15) 4280. 2.2415 2.3818
60109. 1.24491 2.305(15) 4336. 2.2416 2.3623
60127. 1.24529 2.286(15) 4396. 2.2417 2.3455
60145. 1.24566 2.296(15) 4346. 2.2418 2.3320
60163. 1.24603 2.280(15) 4380. 2.2418 2.3219
60181. 1.24641 2.293(15) 4375. 2.2419 2.3147
60199. 1.24678 2.294(15) 4362. 2.2419 2.3102
60217. 1.24716 2.260(15) 4465. 2.2420 2.3079
60235. 1.24753 2.260(15) 4480. 2.2421 2.3075
60253. 1.24790 2.283(15) 4408. 2.2421 2.3092
60271. 1.24828 2.295(15) 4369. 2.2422 2.3133
60290. 1.24865 2.289(15) 4428. 2.2423 2.3203
60308. 1.24903 2.309(15) 4356. 2.2423 2.3295
60326. 1.24940 2.319(15) 4377. 2.2424 2.3403
60344. 1.24978 2.307(15) 4406. 2.2424 2.3539
60362. 1.25015 2.322(15) 4391. 2.2425 2.3710
60380. 1.25053 2.342(15) 4354. 2.2425 2.3899
60398. 1.25090 2.390(15) 4244. 2.2426 2.4058
60416. 1.25128 2.390(15) 4207. 2.2427 2.4161
60434. 1.25165 2.416(15) 4190. 2.2427 2.4239
60453. 1.25203 2.407(15) 4221. 2.2428 2.4377
60471. 1.25240 2.426(15) 4206. 2.2428 2.4679
60489. 1.25278 2.484(16) 4100. 2.2429 2.5243
60507. 1.25316 2.547(16) 3962. 2.2429 2.6110
60525. 1.25353 2.623(16) 3889. 2.2430 2.7188
60543. 1.25391 2.735(16) 3744. 2.2430 2.8135
60561. 1.25428 2.824(17) 3571. 2.2430 2.8500
60580. 1.25466 2.797(17) 3658. 2.2431 2.8211
60598. 1.25504 2.732(16) 3731. 2.2431 2.7499
60616. 1.25541 2.641(16) 3873. 2.2432 2.6633
60634. 1.25579 2.535(16) 4129. 2.2432 2.5819
60652. 1.25617 2.462(15) 4217. 2.2433 2.5154
60671. 1.25654 2.405(15) 4312. 2.2433 2.4661
60689. 1.25692 2.398(15) 4356. 2.2433 2.4333
60707. 1.25730 2.372(15) 4352. 2.2434 2.4157
60725. 1.25768 2.346(15) 4410. 2.2434 2.4125
60743. 1.25805 2.378(15) 4430. 2.2435 2.4244
60762. 1.25843 2.408(15) 4467. 2.2435 2.4547
60780. 1.25881 2.486(15) 4394. 2.2435 2.5079
60798. 1.25919 2.551(15) 4375. 2.2436 2.5789
60816. 1.25956 2.671(15) 4205. 2.2436 2.6393
60835. 1.25994 2.682(15) 4254. 2.2436 2.6562
60853. 1.26032 2.670(15) 4352. 2.2437 2.6306
60871. 1.26070 2.554(15) 4707. 2.2437 2.5827
60889. 1.26108 2.482(14) 4940. 2.2437 2.5307
60908. 1.26145 2.425(14) 5115. 2.2438 2.4855
60926. 1.26183 2.384(14) 5184. 2.2438 2.4497
60944. 1.26221 2.353(14) 5255. 2.2438 2.4210
60962. 1.26259 2.344(14) 5239. 2.2439 2.3982
60981. 1.26297 2.311(14) 5383. 2.2439 2.3838
60999. 1.26335 2.325(14) 5304. 2.2439 2.3794
61017. 1.26373 2.323(14) 5325. 2.2439 2.3879
61036. 1.26411 2.337(14) 5325. 2.2440 2.4104
61054. 1.26449 2.379(14) 5200. 2.2440 2.4410
61072. 1.26487 2.407(14) 5136. 2.2440 2.4622
61091. 1.26524 2.413(14) 5078. 2.2440 2.4632
61109. 1.26562 2.437(14) 5022. 2.2440 2.4518
61127. 1.26600 2.386(14) 5151. 2.2441 2.4383
61146. 1.26638 2.395(14) 5092. 2.2441 2.4244
61164. 1.26676 2.371(14) 5194. 2.2441 2.4085
61182. 1.26714 2.355(14) 5207. 2.2441 2.3936
61201. 1.26752 2.386(14) 5102. 2.2441 2.3836
61219. 1.26790 2.408(14) 5023. 2.2442 2.3789
61237. 1.26829 2.379(14) 5123. 2.2442 2.3754
61256. 1.26867 2.388(14) 5095. 2.2442 2.3692
61274. 1.26905 2.358(14) 5184. 2.2442 2.3603
61292. 1.26943 2.360(14) 5178. 2.2442 2.3501
61311. 1.26981 2.356(14) 5118. 2.2442 2.3405
61329. 1.27019 2.337(14) 5145. 2.2442 2.3342
61348. 1.27057 2.330(14) 5217. 2.2443 2.3334
61366. 1.27095 2.323(14) 5205. 2.2443 2.3386
61384. 1.27133 2.310(14) 5282. 2.2443 2.3468
61403. 1.27171 2.324(14) 5175. 2.2443 2.3512
61421. 1.27210 2.347(14) 5096. 2.2443 2.3508
61440. 1.27248 2.346(14) 5087. 2.2443 2.3511
61458. 1.27286 2.347(14) 5094. 2.2443 2.3580
61477. 1.27324 2.345(14) 5125. 2.2443 2.3750
61495. 1.27362 2.386(14) 4984. 2.2443 2.3993
61513. 1.27401 2.412(14) 4911. 2.2443 2.4184
61532. 1.27439 2.417(14) 4904. 2.2443 2.4189
61550. 1.27477 2.381(14) 5009. 2.2443 2.4015
61569. 1.27515 2.327(14) 5117. 2.2443 2.3763
61587. 1.27554 2.320(14) 5099. 2.2443 2.3512
61606. 1.27592 2.292(14) 5173. 2.2443 2.3299
61624. 1.27630 2.278(14) 5206. 2.2443 2.3136
61643. 1.27668 2.263(14) 5207. 2.2443 2.3019
61661. 1.27707 2.266(14) 5218. 2.2443 2.2942
61680. 1.27745 2.288(14) 5168. 2.2443 2.2898
61698. 1.27783 2.278(14) 5144. 2.2443 2.2872
61717. 1.27822 2.253(14) 5211. 2.2443 2.2859
61735. 1.27860 2.271(14) 5161. 2.2443 2.2852
61754. 1.27898 2.258(14) 5211. 2.2443 2.2851
61772. 1.27937 2.260(14) 5205. 2.2443 2.2846
61791. 1.27975 2.290(14) 5077. 2.2443 2.2835
61809. 1.28014 2.277(14) 5123. 2.2443 2.2823
61828. 1.28052 2.275(14) 5148. 2.2443 2.2819
61846. 1.28090 2.269(14) 5163. 2.2443 2.2820
61865. 1.28129 2.276(14) 5119. 2.2443 2.2820
61884. 1.28167 2.260(14) 5188. 2.2443 2.2826
61902. 1.28206 2.276(14) 5151. 2.2443 2.2847
61921. 1.28244 2.260(14) 5184. 2.2443 2.2884
61939. 1.28283 2.250(14) 5193. 2.2443 2.2924
61958. 1.28321 2.282(14) 5063. 2.2442 2.2952
61976. 1.28360 2.283(14) 5109. 2.2442 2.2962
61995. 1.28398 2.281(14) 5129. 2.2442 2.2963
62014. 1.28437 2.276(14) 5176. 2.2442 2.2975
62032. 1.28475 2.306(14) 5037. 2.2442 2.3011
62051. 1.28514 2.289(14) 5113. 2.2442 2.3066
62069. 1.28552 2.319(14) 5018. 2.2442 2.3116
62088. 1.28591 2.320(14) 5045. 2.2442 2.3123
62107. 1.28630 2.318(14) 5050. 2.2441 2.3079
62125. 1.28668 2.273(14) 5179. 2.2441 2.3009
62144. 1.28707 2.277(14) 5157. 2.2441 2.2935
62163. 1.28745 2.262(14) 5181. 2.2441 2.2869
62181. 1.28784 2.276(14) 5127. 2.2441 2.2818
62200. 1.28823 2.252(14) 5236. 2.2440 2.2781
62219. 1.28861 2.229(14) 5321. 2.2440 2.2758
62237. 1.28900 2.249(14) 5251. 2.2440 2.2746
62256. 1.28939 2.235(14) 5265. 2.2440 2.2744
62275. 1.28977 2.241(14) 5228. 2.2440 2.2749
62293. 1.29016 2.233(14) 5304. 2.2439 2.2763
62312. 1.29055 2.222(14) 5331. 2.2439 2.2784
62331. 1.29093 2.270(14) 5173. 2.2439 2.2815
62349. 1.29132 2.274(14) 5163. 2.2439 2.2855
62368. 1.29171 2.258(14) 5225. 2.2439 2.2909
62387. 1.29210 2.266(14) 5202. 2.2438 2.2982
62406. 1.29248 2.289(14) 5135. 2.2438 2.3084
62424. 1.29287 2.318(14) 5074. 2.2438 2.3234
62443. 1.29326 2.312(14) 5105. 2.2438 2.3458
62462. 1.29365 2.345(14) 5033. 2.2437 2.3810
62480. 1.29404 2.418(14) 4831. 2.2437 2.4362
62499. 1.29442 2.506(15) 4702. 2.2437 2.5190
62518. 1.29481 2.618(15) 4491. 2.2437 2.6279
62537. 1.29520 2.719(15) 4327. 2.2436 2.7457
62555. 1.29559 2.856(16) 4078. 2.2436 2.8522
62574. 1.29598 2.952(16) 3921. 2.2436 2.9120
62593. 1.29637 2.943(16) 3938. 2.2435 2.8899
62612. 1.29676 2.888(16) 3984. 2.2435 2.8059
62631. 1.29715 2.726(15) 4272. 2.2435 2.7018
62649. 1.29754 2.625(15) 4425. 2.2435 2.6043
62668. 1.29792 2.543(15) 4582. 2.2434 2.5242
62687. 1.29831 2.450(14) 4779. 2.2434 2.4633
62706. 1.29870 2.432(14) 4816. 2.2434 2.4192
62725. 1.29909 2.384(14) 4887. 2.2433 2.3892
62743. 1.29948 2.336(14) 5029. 2.2433 2.3705
62762. 1.29987 2.325(14) 5041. 2.2433 2.3613
62781. 1.30026 2.316(14) 5061. 2.2432 2.3591
62800. 1.30065 2.317(14) 5032. 2.2432 2.3593
62819. 1.30104 2.330(14) 4956. 2.2432 2.3587
62838. 1.30143 2.311(14) 5008. 2.2431 2.3591
62856. 1.30182 2.296(14) 5034. 2.2431 2.3638
62875. 1.30221 2.334(14) 4917. 2.2431 2.3765
62894. 1.30261 2.367(14) 4874. 2.2430 2.4002
62913. 1.30300 2.387(14) 4859. 2.2430 2.4391
62932. 1.30339 2.468(15) 4683. 2.2429 2.4986
62951. 1.30378 2.550(15) 4518. 2.2429 2.5747
62970. 1.30417 2.613(15) 4362. 2.2429 2.6390
62989. 1.30456 2.681(15) 4201. 2.2428 2.6595
63007. 1.30495 2.644(15) 4308. 2.2428 2.6415
63026. 1.30534 2.592(15) 4425. 2.2428 2.6111
63045. 1.30574 2.555(15) 4469. 2.2427 2.5855
63064. 1.30613 2.563(15) 4412. 2.2427 2.5628
63083. 1.30652 2.524(15) 4508. 2.2426 2.5397
63102. 1.30691 2.507(15) 4519. 2.2426 2.5162
63121. 1.30730 2.457(15) 4616. 2.2426 2.4955
63140. 1.30770 2.438(15) 4672. 2.2425 2.4778
63159. 1.30809 2.456(15) 4580. 2.2425 2.4600
63178. 1.30848 2.422(15) 4656. 2.2424 2.4420
63197. 1.30887 2.415(15) 4663. 2.2424 2.4294
63216. 1.30927 2.397(15) 4727. 2.2424 2.4290
63235. 1.30966 2.429(15) 4654. 2.2423 2.4474
63254. 1.31005 2.481(15) 4559. 2.2423 2.4913
63273. 1.31044 2.556(15) 4435. 2.2422 2.5635
63292. 1.31084 2.635(15) 4265. 2.2422 2.6502
63311. 1.31123 2.715(16) 4114. 2.2421 2.7162
63330. 1.31162 2.709(16) 4109. 2.2421 2.7357
63349. 1.31202 2.700(16) 4133. 2.2421 2.7194
63368. 1.31241 2.655(15) 4196. 2.2420 2.6889
63387. 1.31281 2.595(15) 4308. 2.2420 2.6482
63406. 1.31320 2.534(15) 4415. 2.2419 2.5948
63425. 1.31359 2.468(15) 4572. 2.2419 2.5375
63444. 1.31399 2.448(15) 4589. 2.2418 2.4864
63463. 1.31438 2.410(15) 4674. 2.2418 2.4476
63482. 1.31478 2.388(15) 4728. 2.2418 2.4228
63501. 1.31517 2.393(15) 4675. 2.2417 2.4105
63520. 1.31557 2.361(14) 4770. 2.2417 2.4045
63539. 1.31596 2.365(14) 4775. 2.2416 2.3992
63558. 1.31636 2.374(15) 4726. 2.2416 2.3951
63577. 1.31675 2.367(14) 4761. 2.2415 2.3938
63596. 1.31715 2.387(15) 4712. 2.2415 2.3938
63615. 1.31754 2.396(15) 4677. 2.2414 2.3898
63634. 1.31794 2.377(15) 4742. 2.2414 2.3783
63653. 1.31833 2.350(14) 4806. 2.2413 2.3626
63672. 1.31873 2.327(14) 4840. 2.2413 2.3473
63691. 1.31912 2.318(14) 4878. 2.2412 2.3338
63711. 1.31952 2.292(14) 4975. 2.2412 2.3235
63730. 1.31991 2.300(14) 4921. 2.2411 2.3161
63749. 1.32031 2.304(14) 4933. 2.2411 2.3123
63768. 1.32071 2.312(14) 4888. 2.2410 2.3125
63787. 1.32110 2.299(14) 4925. 2.2410 2.3171
63806. 1.32150 2.304(14) 4946. 2.2410 2.3269
63825. 1.32190 2.334(14) 4828. 2.2409 2.3421
63844. 1.32229 2.349(14) 4824. 2.2409 2.3631
63864. 1.32269 2.382(14) 4773. 2.2408 2.3908
63883. 1.32309 2.417(15) 4679. 2.2408 2.4224
63902. 1.32348 2.441(15) 4640. 2.2407 2.4508
63921. 1.32388 2.478(15) 4567. 2.2407 2.4753
63940. 1.32428 2.477(15) 4562. 2.2406 2.5059
63959. 1.32467 2.499(15) 4533. 2.2406 2.5566
63979. 1.32507 2.592(15) 4349. 2.2405 2.6335
63998. 1.32547 2.658(15) 4248. 2.2405 2.7161
64017. 1.32587 2.737(16) 4078. 2.2404 2.7607
64036. 1.32627 2.721(16) 4109. 2.2404 2.7544
64055. 1.32666 2.733(16) 4086. 2.2403 2.7177
64075. 1.32706 2.700(16) 4142. 2.2403 2.6701
64094. 1.32746 2.682(15) 4164. 2.2402 2.6235
64113. 1.32786 2.604(15) 4314. 2.2402 2.5776
64132. 1.32826 2.545(15) 4387. 2.2401 2.5285
64152. 1.32865 2.500(15) 4490. 2.2401 2.4787
64171. 1.32905 2.416(15) 4646. 2.2400 2.4349
64190. 1.32945 2.374(15) 4713. 2.2400 2.4001
64209. 1.32985 2.356(15) 4756. 2.2399 2.3756
64229. 1.33025 2.360(15) 4725. 2.2399 2.3605
64248. 1.33065 2.318(14) 4815. 2.2398 2.3540
64267. 1.33105 2.338(14) 4758. 2.2398 2.3537
64286. 1.33145 2.322(14) 4821. 2.2397 2.3568
64306. 1.33185 2.322(14) 4805. 2.2397 2.3638
64325. 1.33225 2.323(14) 4789. 2.2396 2.3768
64344. 1.33265 2.336(15) 4753. 2.2396 2.3944
64364. 1.33305 2.364(15) 4687. 2.2395 2.4131
64383. 1.33345 2.401(15) 4601. 2.2395 2.4352
64402. 1.33385 2.436(15) 4486. 2.2394 2.4622
64422. 1.33425 2.457(15) 4470. 2.2394 2.4823
64441. 1.33465 2.450(15) 4486. 2.2393 2.4824
64460. 1.33505 2.435(15) 4510. 2.2393 2.4689
64480. 1.33545 2.418(15) 4532. 2.2392 2.4547
64499. 1.33585 2.428(15) 4469. 2.2392 2.4447
64518. 1.33625 2.420(15) 4495. 2.2391 2.4339
64538. 1.33665 2.397(15) 4535. 2.2391 2.4190
64557. 1.33705 2.392(15) 4532. 2.2390 2.4043
64576. 1.33745 2.375(15) 4569. 2.2390 2.3969
64596. 1.33785 2.409(15) 4479. 2.2389 2.4004
64615. 1.33826 2.400(15) 4498. 2.2389 2.4136
64635. 1.33866 2.411(15) 4475. 2.2388 2.4338
64654. 1.33906 2.463(15) 4357. 2.2388 2.4567
64673. 1.33946 2.453(15) 4377. 2.2387 2.4710
64693. 1.33986 2.442(15) 4402. 2.2387 2.4687
64712. 1.34026 2.452(15) 4392. 2.2386 2.4540
64732. 1.34067 2.425(15) 4441. 2.2386 2.4377
64751. 1.34107 2.463(15) 4339. 2.2385 2.4265
64770. 1.34147 2.424(15) 4403. 2.2385 2.4190
64790. 1.34187 2.399(15) 4475. 2.2384 2.4105
64809. 1.34228 2.421(15) 4431. 2.2384 2.4010
64829. 1.34268 2.397(15) 4478. 2.2383 2.3952
64848. 1.34308 2.395(15) 4475. 2.2383 2.3995
64868. 1.34349 2.452(15) 4344. 2.2382 2.4196
64887. 1.34389 2.471(15) 4315. 2.2382 2.4609
64906. 1.34429 2.525(15) 4210. 2.2381 2.5209
64926. 1.34469 2.615(16) 4058. 2.2381 2.5788
64945. 1.34510 2.639(16) 4017. 2.2380 2.6061
64965. 1.34550 2.634(16) 4024. 2.2380 2.6049
64984. 1.34591 2.630(16) 4034. 2.2379 2.5951
65004. 1.34631 2.610(16) 4090. 2.2379 2.5928
65023. 1.34671 2.600(16) 4124. 2.2378 2.6066
65043. 1.34712 2.640(16) 4025. 2.2378 2.6235
65062. 1.34752 2.632(16) 4033. 2.2377 2.6151
65082. 1.34793 2.561(15) 4181. 2.2377 2.5763
65101. 1.34833 2.502(15) 4271. 2.2376 2.5247
65121. 1.34874 2.466(15) 4345. 2.2376 2.4762
65141. 1.34914 2.432(15) 4397. 2.2375 2.4388
65160. 1.34954 2.398(15) 4471. 2.2375 2.4153
65180. 1.34995 2.390(15) 4507. 2.2375 2.4059
65199. 1.35035 2.399(15) 4475. 2.2374 2.4084
65219. 1.35076 2.438(15) 4360. 2.2374 2.4149
65238. 1.35117 2.388(15) 4495. 2.2373 2.4157
65258. 1.35157 2.403(15) 4448. 2.2373 2.4124
65277. 1.35198 2.435(15) 4393. 2.2372 2.4138
65297. 1.35238 2.432(15) 4429. 2.2372 2.4295
65317. 1.35279 2.460(15) 4371. 2.2371 2.4691
65336. 1.35319 2.511(15) 4297. 2.2371 2.5409
65356. 1.35360 2.608(16) 4110. 2.2371 2.6417
65375. 1.35401 2.729(16) 3906. 2.2370 2.7342
65395. 1.35441 2.769(16) 3858. 2.2370 2.7607
65415. 1.35482 2.763(16) 3858. 2.2369 2.7163
65434. 1.35523 2.642(16) 4056. 2.2369 2.6382
65454. 1.35563 2.580(16) 4154. 2.2368 2.5570
65474. 1.35604 2.490(15) 4317. 2.2368 2.4873
65493. 1.35645 2.427(15) 4419. 2.2368 2.4333
65513. 1.35685 2.414(15) 4440. 2.2367 2.3933
65533. 1.35726 2.355(15) 4555. 2.2367 2.3635
65552. 1.35767 2.347(15) 4538. 2.2366 2.3409
65572. 1.35807 2.318(15) 4603. 2.2366 2.3239
65592. 1.35848 2.289(15) 4681. 2.2365 2.3115
65611. 1.35889 2.305(15) 4634. 2.2365 2.3028
65631. 1.35930 2.293(15) 4662. 2.2365 2.2968
65651. 1.35970 2.295(15) 4660. 2.2364 2.2931
65670. 1.36011 2.271(15) 4703. 2.2364 2.2913
65690. 1.36052 2.270(15) 4728. 2.2364 2.2913
65710. 1.36093 2.272(15) 4695. 2.2363 2.2932
65729. 1.36134 2.288(15) 4648. 2.2363 2.2972
65749. 1.36175 2.287(15) 4648. 2.2362 2.3040
65769. 1.36215 2.322(15) 4561. 2.2362 2.3152
65789. 1.36256 2.339(15) 4513. 2.2362 2.3338
65808. 1.36297 2.354(15) 4497. 2.2361 2.3642
65828. 1.36338 2.425(15) 4331. 2.2361 2.4129
65848. 1.36379 2.447(15) 4315. 2.2361 2.4851
65868. 1.36420 2.536(16) 4137. 2.2360 2.5749
65887. 1.36461 2.592(16) 4037. 2.2360 2.6518
65907. 1.36502 2.617(16) 3983. 2.2360 2.6803
65927. 1.36543 2.618(16) 3980. 2.2359 2.6618
65947. 1.36584 2.632(16) 3930. 2.2359 2.6236
65966. 1.36625 2.614(16) 3963. 2.2359 2.5846
65986. 1.36666 2.546(16) 4071. 2.2358 2.5448
66006. 1.36707 2.514(16) 4128. 2.2358 2.5019
66026. 1.36748 2.456(15) 4231. 2.2358 2.4615
66046. 1.36789 2.394(15) 4363. 2.2357 2.4296
66065. 1.36830 2.410(15) 4283. 2.2357 2.4094
66085. 1.36871 2.391(15) 4309. 2.2357 2.4009
66105. 1.36912 2.392(15) 4322. 2.2356 2.4018
66125. 1.36953 2.407(15) 4298. 2.2356 2.4085
66145. 1.36994 2.426(15) 4249. 2.2356 2.4220
66165. 1.37035 2.463(15) 4166. 2.2355 2.4438
66184. 1.37076 2.486(16) 4144. 2.2355 2.4721
66204. 1.37117 2.515(16) 4079. 2.2355 2.5050
66224. 1.37159 2.554(16) 4033. 2.2355 2.5484
66244. 1.37200 2.650(16) 3864. 2.2354 2.6074
66264. 1.37241 2.728(16) 3697. 2.2354 2.6670
66284. 1.37282 2.766(17) 3617. 2.2354 2.6986
66304. 1.37323 2.734(16) 3699. 2.2354 2.7050
66324. 1.37365 2.752(17) 3670. 2.2353 2.7164
66343. 1.37406 2.769(17) 3653. 2.2353 2.7584
66363. 1.37447 2.794(17) 3605. 2.2353 2.8303
66383. 1.37488 2.852(17) 3507. 2.2353 2.8885
66403. 1.37529 2.834(17) 3542. 2.2352 2.8913
66423. 1.37571 2.788(17) 3617. 2.2352 2.8550
66443. 1.37612 2.770(17) 3627. 2.2352 2.8107
66463. 1.37653 2.741(16) 3697. 2.2352 2.7686
66483. 1.37695 2.694(16) 3764. 2.2351 2.7335
66503. 1.37736 2.674(16) 3795. 2.2351 2.7080
66523. 1.37777 2.668(16) 3784. 2.2351 2.6758
66543. 1.37819 2.622(16) 3844. 2.2351 2.6228
66563. 1.37860 2.555(16) 3955. 2.2351 2.5586
66583. 1.37901 2.447(15) 4169. 2.2350 2.4973
66603. 1.37943 2.444(16) 4115. 2.2350 2.4460
66623. 1.37984 2.383(15) 4256. 2.2350 2.4074
66643. 1.38025 2.349(15) 4319. 2.2350 2.3800
66663. 1.38067 2.366(15) 4272. 2.2350 2.3618
66683. 1.38108 2.328(15) 4403. 2.2350 2.3507
66703. 1.38150 2.349(15) 4347. 2.2349 2.3461
66723. 1.38191 2.349(15) 4351. 2.2349 2.3484
66743. 1.38233 2.377(15) 4307. 2.2349 2.3607
66763. 1.38274 2.411(15) 4210. 2.2349 2.3878
66783. 1.38316 2.428(15) 4229. 2.2349 2.4354
66803. 1.38357 2.520(16) 4041. 2.2349 2.5037
66823. 1.38399 2.587(16) 3922. 2.2349 2.5755
66843. 1.38440 2.641(16) 3803. 2.2349 2.6142
66863. 1.38482 2.637(16) 3833. 2.2348 2.6017
66883. 1.38523 2.606(16) 3860. 2.2348 2.5547
66903. 1.38565 2.501(16) 4058. 2.2348 2.4969
66923. 1.38606 2.447(16) 4160. 2.2348 2.4429
66943. 1.38648 2.377(15) 4314. 2.2348 2.3987
66963. 1.38690 2.357(15) 4316. 2.2348 2.3651
66983. 1.38731 2.337(15) 4378. 2.2348 2.3410
67003. 1.38773 2.315(15) 4389. 2.2348 2.3246
67023. 1.38814 2.311(15) 4412. 2.2348 2.3143
67044. 1.38856 2.326(15) 4384. 2.2348 2.3081
67064. 1.38898 2.310(15) 4393. 2.2348 2.3049
67084. 1.38939 2.325(15) 4336. 2.2348 2.3025
67104. 1.38981 2.321(15) 4368. 2.2348 2.3011
67124. 1.39023 2.299(15) 4411. 2.2348 2.3015
67144. 1.39065 2.306(15) 4394. 2.2348 2.3049
67164. 1.39106 2.338(15) 4316. 2.2348 2.3127
67184. 1.39148 2.320(15) 4363. 2.2348 2.3265
67205. 1.39190 2.365(15) 4270. 2.2348 2.3485
67225. 1.39232 2.430(16) 4138. 2.2348 2.3810
67245. 1.39273 2.482(16) 4041. 2.2348 2.4273
67265. 1.39315 2.509(16) 4012. 2.2348 2.4852
67285. 1.39357 2.555(16) 3940. 2.2348 2.5425
67306. 1.39399 2.613(16) 3824. 2.2348 2.5898
67326. 1.39441 2.664(16) 3739. 2.2348 2.6276
67346. 1.39482 2.692(17) 3662. 2.2348 2.6444
67366. 1.39524 2.666(16) 3698. 2.2348 2.6296
67386. 1.39566 2.634(16) 3754. 2.2348 2.5997
67407. 1.39608 2.594(16) 3819. 2.2348 2.5785
67427. 1.39650 2.605(16) 3834. 2.2348 2.5789
67447. 1.39692 2.629(16) 3746. 2.2348 2.5927
67467. 1.39734 2.624(16) 3743. 2.2348 2.5905
67487. 1.39776 2.584(16) 3788. 2.2349 2.5574
67508. 1.39818 2.583(16) 3761. 2.2349 2.5068
67528. 1.39859 2.488(16) 3939. 2.2349 2.4549
67548. 1.39901 2.456(16) 3950. 2.2349 2.4100
67568. 1.39943 2.402(16) 4079. 2.2349 2.3751
67589. 1.39985 2.378(16) 4087. 2.2349 2.3500
67609. 1.40027 2.380(16) 4042. 2.2349 2.3332
67629. 1.40069 2.350(16) 4124. 2.2350 2.3233
67650. 1.40111 2.384(16) 4042. 2.2350 2.3191
67670. 1.40154 2.364(16) 4099. 2.2350 2.3192
67690. 1.40196 2.362(16) 4099. 2.2350 2.3213
67711. 1.40238 2.378(16) 4051. 2.2350 2.3241
67731. 1.40280 2.366(16) 4072. 2.2350 2.3297
67751. 1.40322 2.394(16) 4031. 2.2351 2.3418
67771. 1.40364 2.402(16) 4018. 2.2351 2.3653
67792. 1.40406 2.462(16) 3886. 2.2351 2.4072
67812. 1.40448 2.511(16) 3826. 2.2351 2.4753
67832. 1.40490 2.640(17) 3602. 2.2352 2.5738
67853. 1.40532 2.702(17) 3515. 2.2352 2.6859
67873. 1.40575 2.799(17) 3378. 2.2352 2.7565
67894. 1.40617 2.795(17) 3365. 2.2352 2.7469
67914. 1.40659 2.748(17) 3395. 2.2353 2.6826
67934. 1.40701 2.654(17) 3593. 2.2353 2.6026
67955. 1.40743 2.584(17) 3661. 2.2353 2.5304
67975. 1.40786 2.493(16) 3826. 2.2353 2.4729
67995. 1.40828 2.426(16) 3931. 2.2354 2.4309
68016. 1.40870 2.397(16) 3974. 2.2354 2.4034
68036. 1.40912 2.368(16) 4028. 2.2354 2.3874
68057. 1.40955 2.370(16) 4012. 2.2355 2.3764
68077. 1.40997 2.350(16) 4057. 2.2355 2.3665
68098. 1.41039 2.331(16) 4098. 2.2355 2.3549
68118. 1.41082 2.338(16) 4074. 2.2356 2.3406
68138. 1.41124 2.334(16) 4087. 2.2356 2.3251
68159. 1.41166 2.320(16) 4102. 2.2356 2.3108
68179. 1.41209 2.311(16) 4154. 2.2357 2.2987
68200. 1.41251 2.322(16) 4126. 2.2357 2.2897
68220. 1.41293 2.304(15) 4163. 2.2358 2.2834
68241. 1.41336 2.299(15) 4171. 2.2358 2.2793
68261. 1.41378 2.300(15) 4164. 2.2358 2.2773
68282. 1.41421 2.305(15) 4182. 2.2359 2.2771
68302. 1.41463 2.320(16) 4117. 2.2359 2.2790
68323. 1.41506 2.287(15) 4223. 2.2360 2.2836
68343. 1.41548 2.337(16) 4086. 2.2360 2.2922
68364. 1.41590 2.324(16) 4144. 2.2361 2.3074
68384. 1.41633 2.364(16) 4075. 2.2361 2.3331
68405. 1.41675 2.416(16) 3993. 2.2361 2.3735
68425. 1.41718 2.476(16) 3877. 2.2362 2.4278
68446. 1.41760 2.523(16) 3754. 2.2362 2.4829
68466. 1.41803 2.533(16) 3763. 2.2363 2.5087
68487. 1.41846 2.493(16) 3854. 2.2363 2.4934
68507. 1.41888 2.471(16) 3859. 2.2364 2.4542
68528. 1.41931 2.461(16) 3884. 2.2364 2.4102
68548. 1.41973 2.406(16) 3974. 2.2365 2.3710
68569. 1.42016 2.377(16) 4009. 2.2366 2.3398
68590. 1.42058 2.332(16) 4127. 2.2366 2.3164
68610. 1.42101 2.344(16) 4065. 2.2367 2.2994
68631. 1.42144 2.313(16) 4158. 2.2367 2.2872
68651. 1.42186 2.289(15) 4198. 2.2368 2.2786
68672. 1.42229 2.279(15) 4221. 2.2368 2.2726
68692. 1.42272 2.263(15) 4267. 2.2369 2.2685
68713. 1.42314 2.272(15) 4219. 2.2370 2.2661
68734. 1.42357 2.257(15) 4264. 2.2370 2.2652
68754. 1.42400 2.276(15) 4178. 2.2371 2.2661
68775. 1.42443 2.276(15) 4189. 2.2371 2.2690
68796. 1.42485 2.280(15) 4186. 2.2372 2.2736
68816. 1.42528 2.310(16) 4096. 2.2373 2.2785
68837. 1.42571 2.287(16) 4158. 2.2373 2.2811
68857. 1.42614 2.293(16) 4159. 2.2374 2.2805
68878. 1.42656 2.310(16) 4092. 2.2375 2.2775
68899. 1.42699 2.316(16) 4061. 2.2375 2.2738
68919. 1.42742 2.308(16) 4057. 2.2376 2.2706
68940. 1.42785 2.295(16) 4096. 2.2377 2.2683
68961. 1.42828 2.310(16) 4041. 2.2378 2.2671
68982. 1.42871 2.296(16) 4076. 2.2378 2.2672
69002. 1.42913 2.309(16) 4043. 2.2379 2.2683
69023. 1.42956 2.349(16) 3981. 2.2380 2.2713
69044. 1.42999 2.328(16) 3988. 2.2381 2.2765
69064. 1.43042 2.331(16) 4018. 2.2381 2.2851
69085. 1.43085 2.315(16) 4029. 2.2382 2.2985
69106. 1.43128 2.360(16) 3920. 2.2383 2.3179
69127. 1.43171 2.362(16) 3920. 2.2384 2.3428
69147. 1.43214 2.368(16) 3913. 2.2384 2.3674
69168. 1.43257 2.384(16) 3849. 2.2385 2.3794
69189. 1.43300 2.406(16) 3793. 2.2386 2.3751
69210. 1.43343 2.414(16) 3763. 2.2387 2.3607
69230. 1.43386 2.430(16) 3684. 2.2388 2.3452
69251. 1.43429 2.497(17) 3580. 2.2389 2.3336
69272. 1.43472 2.575(17) 3415. 2.2389 2.3284
69293. 1.43515 2.624(17) 3378. 2.2390 2.3317
69313. 1.43558 2.585(17) 3493. 2.2391 2.3458
69334. 1.43601 2.562(17) 3563. 2.2392 2.3729
69355. 1.43644 2.557(17) 3597. 2.2393 2.4114
69376. 1.43687 2.579(17) 3532. 2.2394 2.4469
69397. 1.43730 2.541(17) 3605. 2.2395 2.4583
69417. 1.43773 2.506(17) 3650. 2.2396 2.4450
69438. 1.43817 2.440(16) 3746. 2.2397 2.4216
69459. 1.43860 2.455(16) 3723. 2.2398 2.3998
69480. 1.43903 2.389(16) 3814. 2.2399 2.3857
69501. 1.43946 2.349(16) 3932. 2.2400 2.3828
69522. 1.43989 2.388(16) 3862. 2.2401 2.3936
69542. 1.44032 2.405(16) 3821. 2.2402 2.4208
69563. 1.44076 2.458(16) 3730. 2.2403 2.4669
69584. 1.44119 2.514(17) 3614. 2.2404 2.5257
69605. 1.44162 2.619(17) 3487. 2.2405 2.5873
69626. 1.44205 2.710(17) 3361. 2.2406 2.6523
69647. 1.44249 2.839(18) 3189. 2.2407 2.7192
69668. 1.44292 2.875(18) 3166. 2.2408 2.7892
69689. 1.44335 2.955(18) 3076. 2.2409 2.8764
69710. 1.44379 3.012(18) 2993. 2.2410 2.9646
69730. 1.44422 3.004(18) 2989. 2.2411 2.9928
69751. 1.44465 2.898(18) 3142. 2.2412 2.9321
69772. 1.44509 2.777(17) 3299. 2.2413 2.8198
69793. 1.44552 2.657(17) 3464. 2.2414 2.6996
69814. 1.44595 2.579(17) 3551. 2.2415 2.5944
69835. 1.44639 2.528(17) 3632. 2.2417 2.5115
69856. 1.44682 2.454(16) 3763. 2.2418 2.4498
69877. 1.44726 2.418(16) 3821. 2.2419 2.4051
69898. 1.44769 2.380(16) 3916. 2.2420 2.3734
69919. 1.44812 2.366(16) 3948. 2.2421 2.3513
69940. 1.44856 2.382(16) 3910. 2.2422 2.3361
69961. 1.44899 2.356(16) 3953. 2.2424 2.3262
69982. 1.44943 2.345(16) 3976. 2.2425 2.3205
70003. 1.44986 2.336(16) 3994. 2.2426 2.3184
70024. 1.45030 2.340(16) 3997. 2.2427 2.3202
70045. 1.45073 2.328(16) 4044. 2.2428 2.3263
70066. 1.45117 2.367(16) 3932. 2.2430 2.3391
70087. 1.45160 2.403(16) 3875. 2.2431 2.3625
70108. 1.45204 2.432(16) 3817. 2.2432 2.4032
70129. 1.45247 2.482(16) 3783. 2.2433 2.4683
70150. 1.45291 2.562(17) 3629. 2.2435 2.5589
70171. 1.45335 2.610(17) 3541. 2.2436 2.6499
70192. 1.45378 2.579(17) 3654. 2.2437 2.6889
70213. 1.45422 2.549(17) 3663. 2.2439 2.6608
70234. 1.45466 2.515(16) 3691. 2.2440 2.5963
70255. 1.45509 2.445(16) 3843. 2.2441 2.5255
70276. 1.45553 2.438(16) 3816. 2.2443 2.4637
70297. 1.45596 2.405(16) 3862. 2.2444 2.4157
70319. 1.45640 2.398(16) 3874. 2.2445 2.3802
70340. 1.45684 2.390(16) 3878. 2.2447 2.3551
70361. 1.45728 2.356(16) 3953. 2.2448 2.3380
70382. 1.45771 2.333(16) 4006. 2.2450 2.3270
70403. 1.45815 2.326(16) 3971. 2.2451 2.3208
70424. 1.45859 2.324(16) 4018. 2.2452 2.3188
70445. 1.45903 2.325(16) 3993. 2.2454 2.3215
70466. 1.45946 2.356(16) 3938. 2.2455 2.3297
70487. 1.45990 2.373(16) 3892. 2.2457 2.3461
70509. 1.46034 2.359(16) 3929. 2.2458 2.3732
70530. 1.46078 2.400(16) 3859. 2.2460 2.4107
70551. 1.46122 2.435(16) 3771. 2.2461 2.4473
70572. 1.46165 2.478(16) 3690. 2.2463 2.4631
70593. 1.46209 2.470(16) 3705. 2.2464 2.4553
70614. 1.46253 2.453(16) 3722. 2.2466 2.4374
70636. 1.46297 2.438(16) 3739. 2.2467 2.4216
70657. 1.46341 2.434(16) 3751. 2.2469 2.4151
70678. 1.46385 2.432(16) 3766. 2.2470 2.4234
70699. 1.46429 2.476(17) 3665. 2.2472 2.4515
70720. 1.46473 2.479(16) 3682. 2.2473 2.5051
70742. 1.46517 2.547(17) 3551. 2.2475 2.5836
70763. 1.46561 2.591(17) 3504. 2.2477 2.6704
70784. 1.46605 2.686(17) 3328. 2.2478 2.7428
70805. 1.46649 2.744(18) 3263. 2.2480 2.7790
70827. 1.46693 2.764(18) 3217. 2.2481 2.7685
70848. 1.46737 2.715(17) 3290. 2.2483 2.7336
70869. 1.46781 2.722(17) 3291. 2.2485 2.7098
70890. 1.46825 2.722(17) 3315. 2.2486 2.7247
70912. 1.46869 2.764(18) 3245. 2.2488 2.7944
70933. 1.46913 2.848(18) 3139. 2.2490 2.9122
70954. 1.46957 2.998(18) 2945. 2.2491 3.0184
70975. 1.47001 3.036(19) 2894. 2.2493 3.0395
70997. 1.47045 2.934(18) 3016. 2.2495 2.9831
71018. 1.47089 2.861(18) 3097. 2.2496 2.8979
71039. 1.47133 2.791(18) 3176. 2.2498 2.8154
71061. 1.47177 2.732(17) 3280. 2.2500 2.7508
71082. 1.47222 2.624(17) 3405. 2.2502 2.7009
71103. 1.47266 2.580(17) 3474. 2.2503 2.6476
71125. 1.47310 2.528(17) 3557. 2.2505 2.5857
71146. 1.47354 2.458(17) 3644. 2.2507 2.5237
71167. 1.47398 2.418(16) 3716. 2.2509 2.4701
71189. 1.47443 2.362(16) 3841. 2.2511 2.4278
71210. 1.47487 2.337(16) 3877. 2.2512 2.3964
71231. 1.47531 2.344(16) 3857. 2.2514 2.3745
71253. 1.47575 2.327(16) 3916. 2.2516 2.3598
71274. 1.47620 2.321(16) 3884. 2.2518 2.3511
71296. 1.47664 2.293(16) 3934. 2.2520 2.3476
71317. 1.47708 2.299(16) 3953. 2.2522 2.3494
71338. 1.47753 2.297(16) 3957. 2.2523 2.3579
71360. 1.47797 2.319(16) 3914. 2.2525 2.3762
71381. 1.47841 2.361(16) 3831. 2.2527 2.4100
71403. 1.47886 2.388(16) 3841. 2.2529 2.4667
71424. 1.47930 2.489(17) 3648. 2.2531 2.5519
71445. 1.47974 2.664(17) 3341. 2.2533 2.6516
71467. 1.48019 2.693(17) 3293. 2.2535 2.7159
71488. 1.48063 2.671(17) 3342. 2.2537 2.7079
71510. 1.48108 2.574(17) 3515. 2.2539 2.6493
71531. 1.48152 2.508(17) 3592. 2.2541 2.5755
71553. 1.48197 2.459(17) 3645. 2.2543 2.5074
71574. 1.48241 2.434(16) 3675. 2.2545 2.4531
71596. 1.48285 2.387(16) 3760. 2.2547 2.4131
71617. 1.48330 2.322(16) 3916. 2.2549 2.3854
71639. 1.48374 2.342(16) 3848. 2.2551 2.3676
71660. 1.48419 2.315(16) 3904. 2.2553 2.3580
71682. 1.48464 2.320(16) 3877. 2.2555 2.3556
71703. 1.48508 2.338(16) 3817. 2.2557 2.3598
71725. 1.48553 2.308(16) 3911. 2.2559 2.3697
71746. 1.48597 2.338(16) 3825. 2.2561 2.3869
71768. 1.48642 2.358(16) 3767. 2.2563 2.4119
71789. 1.48686 2.364(16) 3768. 2.2565 2.4414
71811. 1.48731 2.371(16) 3749. 2.2567 2.4654
71832. 1.48776 2.422(16) 3681. 2.2569 2.4800
71854. 1.48820 2.440(17) 3614. 2.2572 2.4903
71875. 1.48865 2.491(17) 3522. 2.2574 2.4965
71897. 1.48910 2.500(17) 3517. 2.2576 2.4980
71918. 1.48954 2.516(17) 3494. 2.2578 2.5048
71940. 1.48999 2.534(17) 3473. 2.2580 2.5293
71962. 1.49044 2.612(17) 3348. 2.2582 2.5805
71983. 1.49088 2.690(18) 3206. 2.2585 2.6499
72005. 1.49133 2.715(18) 3175. 2.2587 2.7067
72026. 1.49178 2.755(18) 3120. 2.2589 2.7356
72048. 1.49223 2.753(18) 3104. 2.2591 2.7554
72070. 1.49267 2.748(18) 3102. 2.2593 2.7729
72091. 1.49312 2.784(18) 3034. 2.2596 2.7634
72113. 1.49357 2.734(18) 3113. 2.2598 2.7183
72134. 1.49402 2.686(18) 3173. 2.2600 2.6611
72156. 1.49447 2.620(17) 3273. 2.2602 2.6147
72178. 1.49492 2.596(18) 3254. 2.2605 2.5891
72199. 1.49536 2.592(18) 3252. 2.2607 2.5814
72221. 1.49581 2.556(17) 3302. 2.2609 2.5741
72243. 1.49626 2.527(17) 3337. 2.2612 2.5503
72264. 1.49671 2.474(17) 3411. 2.2614 2.5142
72286. 1.49716 2.451(17) 3465. 2.2616 2.4776
72308. 1.49761 2.401(17) 3543. 2.2619 2.4475
72329. 1.49806 2.401(17) 3535. 2.2621 2.4273
72351. 1.49851 2.372(17) 3557. 2.2623 2.4164
72373. 1.49896 2.398(17) 3537. 2.2626 2.4150
72395. 1.49941 2.397(17) 3509. 2.2628 2.4236
72416. 1.49986 2.398(17) 3542. 2.2630 2.4447
72438. 1.50031 2.487(17) 3381. 2.2633 2.4844
72460. 1.50076 2.521(17) 3338. 2.2635 2.5546
72481. 1.50121 2.650(18) 3170. 2.2638 2.6734
72503. 1.50166 2.777(18) 3021. 2.2640 2.8603
72525. 1.50211 3.102(19) 2657. 2.2642 3.1126
72547. 1.50256 3.360(20) 2416. 2.2645 3.3500
72569. 1.50301 3.486(21) 2307. 2.2647 3.4328
72590. 1.50346 3.392(21) 2370. 2.2650 3.3389
72612. 1.50391 3.168(20) 2589. 2.2652 3.1580
72634. 1.50436 2.953(19) 2799. 2.2655 2.9679
72656. 1.50481 2.759(18) 3024. 2.2657 2.8057
72677. 1.50527 2.573(17) 3295. 2.2660 2.6809
72699. 1.50572 2.537(17) 3275. 2.2662 2.5906
72721. 1.50617 2.503(17) 3332. 2.2665 2.5276
72743. 1.50662 2.453(17) 3421. 2.2667 2.4849
72765. 1.50707 2.415(17) 3484. 2.2670 2.4569
72787. 1.50753 2.401(17) 3505. 2.2672 2.4398
72808. 1.50798 2.396(17) 3529. 2.2675 2.4306
72830. 1.50843 2.413(17) 3478. 2.2678 2.4278
72852. 1.50888 2.419(17) 3502. 2.2680 2.4303
72874. 1.50934 2.435(17) 3491. 2.2683 2.4381
72896. 1.50979 2.485(17) 3405. 2.2685 2.4524
72918. 1.51024 2.508(17) 3366. 2.2688 2.4762
72939. 1.51069 2.582(18) 3258. 2.2691 2.5140
72961. 1.51115 2.603(18) 3207. 2.2693 2.5703
72983. 1.51160 2.626(18) 3188. 2.2696 2.6420
73005. 1.51205 2.662(18) 3144. 2.2699 2.7023
73027. 1.51251 2.699(18) 3046. 2.2701 2.7147
73049. 1.51296 2.701(18) 3074. 2.2704 2.6810
73071. 1.51342 2.679(18) 3093. 2.2707 2.6275
73093. 1.51387 2.599(18) 3233. 2.2709 2.5736
73115. 1.51432 2.530(17) 3335. 2.2712 2.5280
73137. 1.51478 2.461(17) 3424. 2.2715 2.4932
73159. 1.51523 2.456(17) 3406. 2.2717 2.4690
73181. 1.51569 2.435(17) 3457. 2.2720 2.4544
73203. 1.51614 2.417(17) 3488. 2.2723 2.4479
73224. 1.51660 2.407(17) 3492. 2.2726 2.4457
73246. 1.51705 2.393(17) 3520. 2.2728 2.4437
73268. 1.51751 2.404(17) 3483. 2.2731 2.4426
73290. 1.51796 2.405(17) 3492. 2.2734 2.4464
73312. 1.51842 2.435(17) 3449. 2.2737 2.4587
73334. 1.51887 2.444(17) 3421. 2.2740 2.4800
73356. 1.51933 2.456(17) 3399. 2.2742 2.5014
73378. 1.51979 2.473(17) 3349. 2.2745 2.5126
73400. 1.52024 2.506(17) 3290. 2.2748 2.5191
73422. 1.52070 2.479(17) 3358. 2.2751 2.5359
73444. 1.52115 2.529(17) 3285. 2.2754 2.5777
73466. 1.52161 2.612(18) 3180. 2.2756 2.6554
73489. 1.52207 2.732(18) 3000. 2.2759 2.7700
73511. 1.52252 2.872(19) 2830. 2.2762 2.9039
73533. 1.52298 2.959(19) 2723. 2.2765 3.0080
73555. 1.52344 2.958(19) 2725. 2.2768 3.0428
73577. 1.52390 2.925(19) 2773. 2.2771 3.0256
73599. 1.52435 2.847(19) 2842. 2.2774 2.9688
73621. 1.52481 2.740(18) 2971. 2.2777 2.8756
73643. 1.52527 2.692(18) 3014. 2.2780 2.7703
73665. 1.52572 2.627(18) 3097. 2.2783 2.6744
73687. 1.52618 2.596(18) 3105. 2.2785 2.5935
73709. 1.52664 2.538(18) 3178. 2.2788 2.5264
73731. 1.52710 2.471(17) 3275. 2.2791 2.4729
73754. 1.52756 2.442(17) 3300. 2.2794 2.4319
73776. 1.52802 2.398(17) 3372. 2.2797 2.4013
73798. 1.52847 2.421(17) 3294. 2.2800 2.3789
73820. 1.52893 2.382(17) 3367. 2.2803 2.3626
73842. 1.52939 2.354(17) 3415. 2.2806 2.3509
73864. 1.52985 2.347(17) 3415. 2.2809 2.3424
73886. 1.53031 2.375(17) 3347. 2.2812 2.3365
73909. 1.53077 2.348(17) 3413. 2.2815 2.3324
73931. 1.53123 2.325(17) 3455. 2.2818 2.3298
73953. 1.53169 2.321(17) 3470. 2.2821 2.3286
73975. 1.53215 2.369(17) 3374. 2.2824 2.3286
73997. 1.53261 2.367(17) 3355. 2.2828 2.3299
74019. 1.53307 2.374(17) 3336. 2.2831 2.3328
74042. 1.53353 2.334(17) 3440. 2.2834 2.3378
74064. 1.53399 2.334(17) 3413. 2.2837 2.3462
74086. 1.53445 2.357(17) 3370. 2.2840 2.3600
74108. 1.53491 2.374(17) 3351. 2.2843 2.3831
74131. 1.53537 2.413(17) 3314. 2.2846 2.4206
74153. 1.53583 2.435(17) 3301. 2.2849 2.4772
74175. 1.53629 2.518(18) 3146. 2.2852 2.5505
74197. 1.53675 2.618(18) 3023. 2.2855 2.6204
74220. 1.53721 2.610(18) 3037. 2.2859 2.6478
74242. 1.53767 2.589(18) 3083. 2.2862 2.6212
74264. 1.53813 2.547(18) 3109. 2.2865 2.5664
74286. 1.53860 2.481(18) 3217. 2.2868 2.5078
74309. 1.53906 2.446(17) 3269. 2.2871 2.4575
74331. 1.53952 2.403(17) 3321. 2.2874 2.4188
74353. 1.53998 2.403(17) 3336. 2.2878 2.3909
74376. 1.54044 2.380(17) 3364. 2.2881 2.3719
74398. 1.54090 2.357(17) 3390. 2.2884 2.3595
74420. 1.54137 2.357(17) 3396. 2.2887 2.3519
74443. 1.54183 2.358(17) 3393. 2.2891 2.3484
74465. 1.54229 2.355(17) 3400. 2.2894 2.3480
74487. 1.54276 2.363(17) 3394. 2.2897 2.3499
74510. 1.54322 2.390(17) 3339. 2.2900 2.3552
74532. 1.54368 2.376(17) 3353. 2.2904 2.3665
74554. 1.54414 2.382(17) 3352. 2.2907 2.3867
74577. 1.54461 2.402(17) 3341. 2.2910 2.4163
74599. 1.54507 2.437(17) 3267. 2.2913 2.4458
74621. 1.54553 2.461(18) 3234. 2.2917 2.4571
74644. 1.54600 2.456(18) 3237. 2.2920 2.4464
74666. 1.54646 2.423(17) 3290. 2.2923 2.4253
74689. 1.54693 2.390(17) 3365. 2.2927 2.4047
74711. 1.54739 2.378(17) 3351. 2.2930 2.3903
74733. 1.54785 2.398(17) 3305. 2.2933 2.3849
74756. 1.54832 2.401(17) 3303. 2.2937 2.3889
74778. 1.54878 2.423(17) 3282. 2.2940 2.3985
74801. 1.54925 2.419(18) 3253. 2.2943 2.4037
74823. 1.54971 2.401(17) 3302. 2.2947 2.3973
74846. 1.55018 2.408(18) 3261. 2.2950 2.3834
74868. 1.55064 2.387(17) 3286. 2.2953 2.3680
74890. 1.55111 2.365(17) 3298. 2.2957 2.3546
74913. 1.55157 2.365(17) 3290. 2.2960 2.3442
74935. 1.55204 2.338(17) 3321. 2.2963 2.3368
74958. 1.55251 2.381(18) 3239. 2.2967 2.3317
74980. 1.55297 2.366(18) 3243. 2.2970 2.3290
75003. 1.55344 2.356(17) 3282. 2.2974 2.3273
75025. 1.55390 2.356(18) 3263. 2.2977 2.3267
75048. 1.55437 2.357(18) 3246. 2.2981 2.3271
75070. 1.55484 2.348(17) 3288. 2.2984 2.3284
75093. 1.55530 2.362(18) 3255. 2.2987 2.3309
75115. 1.55577 2.357(18) 3238. 2.2991 2.3348
75138. 1.55624 2.388(18) 3168. 2.2994 2.3408
75160. 1.55670 2.389(18) 3182. 2.2998 2.3504
75183. 1.55717 2.427(18) 3093. 2.3001 2.3657
75206. 1.55764 2.451(18) 3069. 2.3005 2.3897
75228. 1.55810 2.455(18) 3087. 2.3008 2.4242
75251. 1.55857 2.546(18) 2942. 2.3012 2.4643
75273. 1.55904 2.569(18) 2922. 2.3015 2.4938
75296. 1.55951 2.557(19) 2909. 2.3019 2.5038
75318. 1.55998 2.538(18) 2932. 2.3022 2.5043
75341. 1.56044 2.553(19) 2910. 2.3026 2.5136
75364. 1.56091 2.569(19) 2878. 2.3029 2.5426
75386. 1.56138 2.545(19) 2917. 2.3033 2.5873
75409. 1.56185 2.532(18) 2926. 2.3036 2.6177
75432. 1.56232 2.581(19) 2840. 2.3040 2.6065
75454. 1.56279 2.549(19) 2893. 2.3044 2.5636
75477. 1.56325 2.510(18) 2947. 2.3047 2.5120
75499. 1.56372 2.461(18) 3023. 2.3051 2.4652
75522. 1.56419 2.451(18) 3036. 2.3054 2.4281
75545. 1.56466 2.439(18) 3034. 2.3058 2.4008
75567. 1.56513 2.414(18) 3073. 2.3061 2.3816
75590. 1.56560 2.390(18) 3110. 2.3065 2.3680
75613. 1.56607 2.399(18) 3088. 2.3069 2.3581
75635. 1.56654 2.405(18) 3059. 2.3072 2.3507
75658. 1.56701 2.355(18) 3182. 2.3076 2.3454
75681. 1.56748 2.384(18) 3110. 2.3080 2.3418
75704. 1.56795 2.383(18) 3116. 2.3083 2.3397
75726. 1.56842 2.419(18) 3032. 2.3087 2.3391
75749. 1.56889 2.385(18) 3098. 2.3090 2.3401
75772. 1.56936 2.366(18) 3154. 2.3094 2.3429
75794. 1.56983 2.405(18) 3072. 2.3098 2.3474
75817. 1.57031 2.410(18) 3058. 2.3101 2.3523
75840. 1.57078 2.414(18) 3047. 2.3105 2.3548
75863. 1.57125 2.413(18) 3067. 2.3109 2.3547
75885. 1.57172 2.370(18) 3134. 2.3112 2.3541
75908. 1.57219 2.393(18) 3116. 2.3116 2.3545
75931. 1.57266 2.380(18) 3115. 2.3120 2.3564
75954. 1.57313 2.405(18) 3095. 2.3123 2.3583
75977. 1.57361 2.435(18) 3021. 2.3127 2.3594
75999. 1.57408 2.413(18) 3062. 2.3131 2.3596
76022. 1.57455 2.387(18) 3106. 2.3135 2.3591
76045. 1.57502 2.375(18) 3129. 2.3138 2.3590
76068. 1.57550 2.414(18) 3064. 2.3142 2.3604
76091. 1.57597 2.423(18) 3057. 2.3146 2.3642
76113. 1.57644 2.463(18) 2973. 2.3150 2.3713
76136. 1.57691 2.441(18) 3035. 2.3153 2.3837
76159. 1.57739 2.423(18) 3066. 2.3157 2.4050
76182. 1.57786 2.466(18) 3011. 2.3161 2.4406
76205. 1.57833 2.513(18) 2950. 2.3165 2.4958
76228. 1.57881 2.596(19) 2836. 2.3168 2.5699
76250. 1.57928 2.671(19) 2717. 2.3172 2.6383
76273. 1.57976 2.687(19) 2715. 2.3176 2.6609
76296. 1.58023 2.644(19) 2763. 2.3180 2.6322
76319. 1.58070 2.601(19) 2814. 2.3183 2.5792
76342. 1.58118 2.544(19) 2883. 2.3187 2.5245
76365. 1.58165 2.503(19) 2918. 2.3191 2.4786
76388. 1.58213 2.477(18) 2937. 2.3195 2.4440
76411. 1.58260 2.477(18) 2931. 2.3199 2.4195
76434. 1.58308 2.459(18) 2968. 2.3202 2.4030
76457. 1.58355 2.429(18) 2993. 2.3206 2.3924
76480. 1.58403 2.422(18) 2998. 2.3210 2.3865
76502. 1.58450 2.440(18) 2956. 2.3214 2.3845
76525. 1.58498 2.466(19) 2904. 2.3218 2.3859
76548. 1.58545 2.453(18) 2922. 2.3222 2.3918
76571. 1.58593 2.449(18) 2935. 2.3226 2.4024
76594. 1.58640 2.436(18) 2950. 2.3229 2.4184
76617. 1.58688 2.490(19) 2861. 2.3233 2.4373
76640. 1.58736 2.532(19) 2797. 2.3237 2.4523
76663. 1.58783 2.522(19) 2804. 2.3241 2.4620
76686. 1.58831 2.483(19) 2867. 2.3245 2.4729
76709. 1.58879 2.534(19) 2789. 2.3249 2.4927
76732. 1.58926 2.568(19) 2735. 2.3253 2.5251
76755. 1.58974 2.590(19) 2717. 2.3256 2.5706
76778. 1.59022 2.660(19) 2654. 2.3260 2.6329
76801. 1.59069 2.734(20) 2580. 2.3264 2.7255
76824. 1.59117 2.910(21) 2375. 2.3268 2.8521
76847. 1.59165 3.044(21) 2235. 2.3272 2.9683
76871. 1.59213 3.106(21) 2185. 2.3276 2.9981
76894. 1.59260 2.977(21) 2304. 2.3280 2.9367
76917. 1.59308 2.890(21) 2379. 2.3284 2.8368
76940. 1.59356 2.799(20) 2442. 2.3288 2.7390
76963. 1.59404 2.695(20) 2542. 2.3292 2.6618
76986. 1.59452 2.624(19) 2647. 2.3296 2.6099
77009. 1.59499 2.593(19) 2670. 2.3300 2.5831
77032. 1.59547 2.589(19) 2683. 2.3304 2.5815
77055. 1.59595 2.638(20) 2627. 2.3308 2.6102
77078. 1.59643 2.708(20) 2553. 2.3311 2.6795
77101. 1.59691 2.813(20) 2463. 2.3315 2.8050
77125. 1.59739 3.007(21) 2280. 2.3319 2.9934
77148. 1.59787 3.180(22) 2142. 2.3323 3.2003
77171. 1.59835 3.374(23) 1967. 2.3327 3.3142
77194. 1.59883 3.331(22) 2005. 2.3331 3.2785
77217. 1.59931 3.158(22) 2159. 2.3335 3.1580
77240. 1.59979 3.003(21) 2304. 2.3339 3.0309
77263. 1.60027 2.936(21) 2372. 2.3343 2.9389
77287. 1.60075 2.931(21) 2352. 2.3347 2.8839
77310. 1.60123 2.933(21) 2329. 2.3351 2.8330
77333. 1.60171 2.838(20) 2422. 2.3355 2.7627
77356. 1.60219 2.734(20) 2543. 2.3359 2.6832
77379. 1.60267 2.663(20) 2628. 2.3363 2.6103
77403. 1.60315 2.575(19) 2714. 2.3367 2.5512
77426. 1.60363 2.518(19) 2785. 2.3371 2.5065
77449. 1.60411 2.494(19) 2807. 2.3375 2.4745
77472. 1.60459 2.473(19) 2848. 2.3379 2.4527
77496. 1.60507 2.469(19) 2833. 2.3384 2.4390
77519. 1.60556 2.425(18) 2923. 2.3388 2.4327
77542. 1.60604 2.473(19) 2838. 2.3392 2.4341
77565. 1.60652 2.466(19) 2845. 2.3396 2.4442
77589. 1.60700 2.470(19) 2840. 2.3400 2.4623
77612. 1.60748 2.464(19) 2856. 2.3404 2.4808
77635. 1.60797 2.478(19) 2831. 2.3408 2.4861
77658. 1.60845 2.491(19) 2809. 2.3412 2.4760
77682. 1.60893 2.476(19) 2825. 2.3416 2.4595
77705. 1.60941 2.423(19) 2893. 2.3420 2.4444
77728. 1.60990 2.436(19) 2881. 2.3424 2.4346
77752. 1.61038 2.456(19) 2854. 2.3428 2.4314
77775. 1.61086 2.457(19) 2856. 2.3432 2.4329
77798. 1.61135 2.460(19) 2837. 2.3436 2.4336
77822. 1.61183 2.458(19) 2840. 2.3440 2.4296
77845. 1.61231 2.424(19) 2879. 2.3445 2.4229
77868. 1.61280 2.448(19) 2843. 2.3449 2.4169
77892. 1.61328 2.420(19) 2892. 2.3453 2.4135
77915. 1.61377 2.406(19) 2914. 2.3457 2.4139
77939. 1.61425 2.437(19) 2842. 2.3461 2.4195
77962. 1.61473 2.450(19) 2827. 2.3465 2.4327
77985. 1.61522 2.480(19) 2806. 2.3469 2.4589
78009. 1.61570 2.513(19) 2739. 2.3473 2.4971
78032. 1.61619 2.575(19) 2655. 2.3478 2.5461
78055. 1.61667 2.622(20) 2615. 2.3482 2.5852
78079. 1.61716 2.648(20) 2552. 2.3486 2.5905
78102. 1.61764 2.565(19) 2658. 2.3490 2.5678
78126. 1.61813 2.596(20) 2588. 2.3494 2.5359
78149. 1.61861 2.551(19) 2641. 2.3498 2.5078
78173. 1.61910 2.512(19) 2680. 2.3502 2.4887
78196. 1.61959 2.523(19) 2645. 2.3507 2.4803
78220. 1.62007 2.497(19) 2701. 2.3511 2.4826
78243. 1.62056 2.507(19) 2683. 2.3515 2.4935
78267. 1.62104 2.522(19) 2652. 2.3519 2.5103
78290. 1.62153 2.551(20) 2610. 2.3523 2.5350
78313. 1.62202 2.569(20) 2586. 2.3527 2.5768
78337. 1.62250 2.657(20) 2506. 2.3531 2.6444
78360. 1.62299 2.691(20) 2469. 2.3536 2.7337
78384. 1.62348 2.718(20) 2438. 2.3540 2.8199
78407. 1.62396 2.791(21) 2342. 2.3544 2.8771
78431. 1.62445 2.824(21) 2322. 2.3548 2.8845
78455. 1.62494 2.783(21) 2348. 2.3552 2.8434
78478. 1.62543 2.719(20) 2404. 2.3557 2.7892
78502. 1.62591 2.738(20) 2402. 2.3561 2.7543
78525. 1.62640 2.736(20) 2418. 2.3565 2.7565
78549. 1.62689 2.813(21) 2331. 2.3569 2.7964
78572. 1.62738 2.882(21) 2254. 2.3573 2.8408
78596. 1.62787 2.892(21) 2235. 2.3578 2.8407
78619. 1.62836 2.823(21) 2322. 2.3582 2.7918
78643. 1.62884 2.735(20) 2398. 2.3586 2.7205
78667. 1.62933 2.616(20) 2546. 2.3590 2.6507
78690. 1.62982 2.575(20) 2569. 2.3595 2.5914
78714. 1.63031 2.509(19) 2666. 2.3599 2.5466
78737. 1.63080 2.484(19) 2675. 2.3603 2.5166
78761. 1.63129 2.463(19) 2712. 2.3607 2.4987
78785. 1.63178 2.444(19) 2739. 2.3611 2.4912
78808. 1.63227 2.464(19) 2727. 2.3616 2.4933
78832. 1.63276 2.487(19) 2680. 2.3620 2.5047
78856. 1.63325 2.523(20) 2630. 2.3624 2.5227
78879. 1.63374 2.528(19) 2635. 2.3628 2.5453
78903. 1.63423 2.560(20) 2615. 2.3633 2.5781
78927. 1.63472 2.655(20) 2518. 2.3637 2.6315
78950. 1.63521 2.739(20) 2445. 2.3641 2.7089
78974. 1.63570 2.769(20) 2412. 2.3645 2.7959
78998. 1.63619 2.853(21) 2337. 2.3650 2.8723
79021. 1.63668 2.832(21) 2355. 2.3654 2.9172
79045. 1.63717 2.817(21) 2371. 2.3658 2.9076
79069. 1.63766 2.776(20) 2405. 2.3662 2.8519
79093. 1.63816 2.691(20) 2489. 2.3667 2.7762
79116. 1.63865 2.646(20) 2528. 2.3671 2.6986
79140. 1.63914 2.591(20) 2585. 2.3675 2.6324
79164. 1.63963 2.541(19) 2646. 2.3680 2.5815
79187. 1.64012 2.523(19) 2670. 2.3684 2.5466
79211. 1.64061 2.487(19) 2741. 2.3688 2.5255
79235. 1.64111 2.507(19) 2697. 2.3692 2.5170
79259. 1.64160 2.496(19) 2682. 2.3697 2.5214
79283. 1.64209 2.510(19) 2673. 2.3701 2.5413
79306. 1.64258 2.532(19) 2642. 2.3705 2.5806
79330. 1.64308 2.570(20) 2616. 2.3710 2.6393
79354. 1.64357 2.666(20) 2496. 2.3714 2.7060
79378. 1.64406 2.708(20) 2442. 2.3718 2.7552
79402. 1.64456 2.739(20) 2399. 2.3723 2.7678
79425. 1.64505 2.701(20) 2440. 2.3727 2.7493
79449. 1.64554 2.684(20) 2445. 2.3731 2.7106
79473. 1.64604 2.599(20) 2535. 2.3735 2.6614
79497. 1.64653 2.553(20) 2587. 2.3740 2.6140
79521. 1.64703 2.548(20) 2562. 2.3744 2.5760
79545. 1.64752 2.489(19) 2648. 2.3748 2.5491
79568. 1.64801 2.467(19) 2648. 2.3753 2.5325
79592. 1.64851 2.445(19) 2658. 2.3757 2.5245
79616. 1.64900 2.436(19) 2693. 2.3761 2.5244
79640. 1.64950 2.485(19) 2638. 2.3766 2.5320
79664. 1.64999 2.526(20) 2576. 2.3770 2.5482
79688. 1.65049 2.518(20) 2542. 2.3774 2.5736
79712. 1.65098 2.576(20) 2459. 2.3779 2.6050
79736. 1.65148 2.593(20) 2471. 2.3783 2.6347
79760. 1.65197 2.628(20) 2431. 2.3788 2.6629
79784. 1.65247 2.619(20) 2480. 2.3792 2.6995
79807. 1.65297 2.704(21) 2313. 2.3796 2.7592
79831. 1.65346 2.756(21) 2251. 2.3801 2.8624
79855. 1.65396 2.936(22) 2058. 2.3805 3.0411
79879. 1.65445 3.290(24) 1796. 2.3809 3.3389
79903. 1.65495 3.855(26) 1467. 2.3814 3.7958
79927. 1.65545 4.541(29) 1161. 2.3818 4.3681
79951. 1.65594 5.027(32) 999. 2.3822 4.7955
79975. 1.65644 4.989(32) 992. 2.3827 4.8080
79999. 1.65694 4.638(30) 1088. 2.3831 4.4907
80023. 1.65743 4.091(28) 1247. 2.3836 4.0665
80047. 1.65793 3.658(27) 1407. 2.3840 3.6734
80071. 1.65843 3.355(25) 1561. 2.3844 3.3629
80095. 1.65893 3.109(24) 1689. 2.3849 3.1395
80119. 1.65942 2.976(24) 1774. 2.3853 2.9909
80143. 1.65992 2.880(23) 1821. 2.3857 2.9040
80167. 1.66042 2.854(23) 1822. 2.3862 2.8695
80191. 1.66092 2.851(23) 1859. 2.3866 2.8790
80215. 1.66142 2.826(23) 1878. 2.3871 2.9107
80239. 1.66192 2.840(23) 1859. 2.3875 2.9254
80264. 1.66241 2.838(23) 1865. 2.3879 2.9107
80288. 1.66291 2.845(23) 1867. 2.3884 2.8921
80312. 1.66341 2.870(23) 1854. 2.3888 2.8991
80336. 1.66391 2.899(23) 1864. 2.3893 2.9557
80360. 1.66441 2.937(23) 1840. 2.3897 3.0801
80384. 1.66491 3.058(24) 1744. 2.3901 3.2678
80408. 1.66541 3.180(24) 1675. 2.3906 3.4455
80432. 1.66591 3.234(25) 1661. 2.3910 3.5113
80456. 1.66641 3.272(25) 1621. 2.3915 3.4799
80481. 1.66691 3.285(25) 1616. 2.3919 3.4385
80505. 1.66741 3.282(25) 1624. 2.3924 3.4405
80529. 1.66791 3.342(25) 1587. 2.3928 3.4831
80553. 1.66841 3.421(25) 1570. 2.3932 3.5590
80577. 1.66891 3.608(26) 1484. 2.3937 3.7078
80601. 1.66941 3.938(27) 1346. 2.3941 3.9534
80626. 1.66991 4.417(30) 1145. 2.3946 4.1881
80650. 1.67041 4.561(30) 1097. 2.3950 4.2125
80674. 1.67091 4.275(29) 1190. 2.3955 4.0155
80698. 1.67142 3.791(27) 1378. 2.3959 3.7338
80722. 1.67192 3.435(25) 1545. 2.3964 3.4691
80747. 1.67242 3.148(24) 1674. 2.3968 3.2505
80771. 1.67292 3.013(24) 1771. 2.3972 3.0728
80795. 1.67342 2.826(23) 1912. 2.3977 2.9319
80819. 1.67392 2.708(23) 1973. 2.3981 2.8256
80843. 1.67443 2.673(22) 2018. 2.3986 2.7495
80868. 1.67493 2.630(22) 2039. 2.3990 2.6981
80892. 1.67543 2.598(22) 2057. 2.3995 2.6669
80916. 1.67593 2.616(22) 2041. 2.3999 2.6532
80941. 1.67644 2.588(22) 2070. 2.4004 2.6601
80965. 1.67694 2.639(22) 2007. 2.4008 2.6873
80989. 1.67744 2.714(23) 1951. 2.4013 2.7468
81013. 1.67795 2.789(23) 1944. 2.4017 2.8497
81038. 1.67845 2.982(23) 1821. 2.4022 2.9960
81062. 1.67895 3.048(24) 1801. 2.4026 3.1447
81086. 1.67946 3.115(24) 1778. 2.4031 3.2376
81111. 1.67996 3.072(23) 1838. 2.4035 3.2645
81135. 1.68047 3.046(23) 1880. 2.4040 3.2232
81159. 1.68097 3.005(23) 1912. 2.4044 3.1276
81184. 1.68147 2.897(22) 2010. 2.4049 3.0184
81208. 1.68198 2.880(22) 1998. 2.4053 2.9285
81232. 1.68248 2.816(22) 2052. 2.4058 2.8778
81257. 1.68299 2.836(22) 2053. 2.4062 2.8796
81281. 1.68349 2.945(23) 1958. 2.4067 2.9432
81306. 1.68400 3.125(23) 1816. 2.4071 3.0625
81330. 1.68450 3.284(24) 1709. 2.4076 3.1784
81354. 1.68501 3.374(25) 1637. 2.4080 3.1980
81379. 1.68551 3.231(24) 1720. 2.4085 3.1151
81403. 1.68602 3.045(23) 1854. 2.4089 2.9911
81428. 1.68653 2.882(23) 1967. 2.4094 2.8728
81452. 1.68703 2.739(22) 2090. 2.4098 2.7807
81476. 1.68754 2.697(22) 2115. 2.4103 2.7201
81501. 1.68805 2.695(22) 2108. 2.4107 2.6918
81525. 1.68855 2.703(22) 2101. 2.4112 2.6959
81550. 1.68906 2.692(22) 2107. 2.4116 2.7304
81574. 1.68956 2.776(22) 2032. 2.4121 2.7772
81599. 1.69007 2.802(22) 2014. 2.4125 2.7952
81623. 1.69058 2.744(22) 2055. 2.4130 2.7671
81648. 1.69109 2.682(22) 2131. 2.4135 2.7147
81672. 1.69159 2.672(22) 2121. 2.4139 2.6616
81697. 1.69210 2.650(22) 2122. 2.4144 2.6200
81721. 1.69261 2.632(22) 2138. 2.4148 2.5938
81746. 1.69312 2.601(21) 2189. 2.4153 2.5819
81770. 1.69362 2.627(22) 2159. 2.4157 2.5776
81795. 1.69413 2.621(21) 2165. 2.4162 2.5696
81819. 1.69464 2.588(21) 2181. 2.4166 2.5542
81844. 1.69515 2.549(21) 2230. 2.4171 2.5361
81868. 1.69566 2.554(21) 2221. 2.4176 2.5197
81893. 1.69617 2.513(21) 2283. 2.4180 2.5044
81918. 1.69668 2.504(21) 2298. 2.4185 2.4959
81942. 1.69719 2.537(21) 2269. 2.4189 2.4896
81967. 1.69769 2.517(21) 2269. 2.4194 2.4856
81991. 1.69820 2.527(21) 2264. 2.4199 2.4834
82016. 1.69871 2.524(21) 2269. 2.4203 2.4826
82040. 1.69922 2.504(21) 2288. 2.4208 2.4830
82065. 1.69973 2.489(21) 2335. 2.4212 2.4843
82090. 1.70024 2.503(21) 2318. 2.4217 2.4867
82114. 1.70075 2.513(21) 2306. 2.4222 2.4899
82139. 1.70126 2.513(21) 2300. 2.4226 2.4943
82164. 1.70177 2.515(21) 2318. 2.4231 2.4999
82188. 1.70228 2.520(21) 2312. 2.4235 2.5068
82213. 1.70280 2.508(21) 2316. 2.4240 2.5161
82238. 1.70331 2.544(21) 2276. 2.4245 2.5281
82262. 1.70382 2.550(21) 2268. 2.4249 2.5443
82287. 1.70433 2.581(21) 2218. 2.4254 2.5670
82312. 1.70484 2.578(21) 2255. 2.4258 2.6003
82336. 1.70535 2.643(21) 2190. 2.4263 2.6511
82361. 1.70586 2.693(22) 2150. 2.4268 2.7273
82386. 1.70637 2.780(22) 2059. 2.4272 2.8378
82410. 1.70689 2.938(23) 1936. 2.4277 2.9836
82435. 1.70740 3.052(23) 1864. 2.4282 3.1324
82460. 1.70791 3.197(24) 1742. 2.4286 3.2195
82485. 1.70842 3.212(24) 1744. 2.4291 3.2386
82509. 1.70894 3.274(24) 1715. 2.4296 3.2517
82534. 1.70945 3.292(24) 1699. 2.4300 3.3046
82559. 1.70996 3.352(25) 1648. 2.4305 3.3826
82584. 1.71048 3.388(25) 1634. 2.4310 3.4424
82608. 1.71099 3.351(25) 1660. 2.4314 3.4942
82633. 1.71150 3.413(25) 1613. 2.4319 3.5363
82658. 1.71202 3.506(26) 1535. 2.4324 3.5255
82683. 1.71253 3.456(25) 1570. 2.4328 3.4541
82708. 1.71304 3.435(25) 1574. 2.4333 3.3437
82732. 1.71356 3.227(24) 1681. 2.4338 3.2273
82757. 1.71407 3.130(24) 1744. 2.4342 3.1414
82782. 1.71459 3.034(23) 1825. 2.4347 3.1110
82807. 1.71510 3.070(24) 1777. 2.4352 3.1593
82832. 1.71561 3.208(24) 1719. 2.4356 3.3177
82857. 1.71613 3.507(25) 1559. 2.4361 3.6266
82881. 1.71664 4.074(28) 1300. 2.4366 4.1027
82906. 1.71716 4.664(30) 1085. 2.4371 4.6207
82931. 1.71767 4.928(32) 1000. 2.4375 4.8579
82956. 1.71819 4.739(31) 1049. 2.4380 4.6837
82981. 1.71871 4.318(29) 1180. 2.4385 4.2869
83006. 1.71922 3.824(27) 1354. 2.4390 3.8607
83031. 1.71974 3.477(26) 1517. 2.4394 3.4983
83056. 1.72025 3.166(24) 1682. 2.4399 3.2219
83081. 1.72077 2.939(23) 1843. 2.4404 3.0229
83105. 1.72129 2.817(23) 1907. 2.4408 2.8824
83130. 1.72180 2.749(23) 1955. 2.4413 2.7842
83155. 1.72232 2.667(22) 2035. 2.4418 2.7155
83180. 1.72284 2.613(22) 2072. 2.4423 2.6677
83205. 1.72335 2.579(22) 2114. 2.4427 2.6353
83230. 1.72387 2.545(22) 2151. 2.4432 2.6153
83255. 1.72439 2.560(22) 2131. 2.4437 2.6063
83280. 1.72490 2.566(22) 2119. 2.4442 2.6065
83305. 1.72542 2.560(22) 2111. 2.4447 2.6119
83330. 1.72594 2.553(22) 2129. 2.4451 2.6105
83355. 1.72646 2.550(22) 2140. 2.4456 2.5977
83380. 1.72697 2.501(21) 2204. 2.4461 2.5798
83405. 1.72749 2.497(21) 2202. 2.4466 2.5620
83430. 1.72801 2.493(21) 2199. 2.4471 2.5472
83455. 1.72853 2.487(21) 2222. 2.4475 2.5361
83480. 1.72905 2.497(21) 2184. 2.4480 2.5282
83505. 1.72957 2.481(21) 2227. 2.4485 2.5228
83530. 1.73009 2.496(21) 2197. 2.4490 2.5190
83555. 1.73061 2.517(22) 2152. 2.4495 2.5169
83580. 1.73112 2.515(22) 2148. 2.4499 2.5160
83606. 1.73164 2.506(21) 2191. 2.4504 2.5163
83631. 1.73216 2.486(21) 2227. 2.4509 2.5176
83656. 1.73268 2.501(21) 2191. 2.4514 2.5201
83681. 1.73320 2.504(21) 2186. 2.4519 2.5238
83706. 1.73372 2.507(21) 2193. 2.4524 2.5290
83731. 1.73424 2.544(22) 2157. 2.4528 2.5360
83756. 1.73476 2.545(22) 2140. 2.4533 2.5456
83781. 1.73528 2.571(22) 2129. 2.4538 2.5589
83806. 1.73581 2.581(22) 2114. 2.4543 2.5777
83832. 1.73633 2.631(22) 2067. 2.4548 2.6058
83857. 1.73685 2.692(22) 2016. 2.4553 2.6497
83882. 1.73737 2.801(23) 1908. 2.4558 2.7205
83907. 1.73789 2.919(23) 1832. 2.4563 2.8341
83932. 1.73841 3.074(24) 1748. 2.4567 3.0058
83957. 1.73893 3.265(25) 1610. 2.4572 3.2193
83983. 1.73945 3.309(25) 1587. 2.4577 3.3743
84008. 1.73998 3.251(25) 1613. 2.4582 3.3715
84033. 1.74050 3.190(25) 1616. 2.4587 3.2482
84058. 1.74102 3.037(24) 1707. 2.4592 3.0898
84083. 1.74154 2.930(24) 1773. 2.4597 2.9466
84109. 1.74207 2.834(23) 1839. 2.4602 2.8358
84134. 1.74259 2.743(23) 1910. 2.4607 2.7572
84159. 1.74311 2.759(23) 1884. 2.4612 2.7049
84184. 1.74363 2.732(23) 1907. 2.4617 2.6725
84210. 1.74416 2.731(23) 1869. 2.4621 2.6551
84235. 1.74468 2.722(23) 1882. 2.4626 2.6495
84260. 1.74520 2.707(23) 1878. 2.4631 2.6555
84285. 1.74573 2.727(23) 1866. 2.4636 2.6716
84311. 1.74625 2.752(23) 1855. 2.4641 2.7017
84336. 1.74678 2.788(24) 1804. 2.4646 2.7529
84361. 1.74730 2.887(24) 1749. 2.4651 2.8396
84387. 1.74782 3.039(25) 1651. 2.4656 2.9858
84412. 1.74835 3.292(26) 1527. 2.4661 3.2236
84437. 1.74887 3.680(28) 1321. 2.4666 3.5710
84463. 1.74940 3.975(29) 1196. 2.4671 3.9526
84488. 1.74992 4.080(30) 1148. 2.4676 4.1493
84513. 1.75045 3.923(29) 1207. 2.4681 4.0584
84539. 1.75097 3.732(28) 1273. 2.4686 3.8093
84564. 1.75150 3.542(27) 1354. 2.4691 3.5449
84589. 1.75202 3.369(26) 1439. 2.4696 3.3390
84615. 1.75255 3.258(26) 1498. 2.4701 3.2182
84640. 1.75308 3.176(25) 1548. 2.4706 3.1875
84665. 1.75360 3.258(26) 1495. 2.4711 3.2270
84691. 1.75413 3.309(26) 1468. 2.4716 3.2719
84716. 1.75465 3.299(26) 1477. 2.4722 3.2555
84742. 1.75518 3.240(26) 1517. 2.4727 3.1854
84767. 1.75571 3.204(26) 1526. 2.4732 3.1126
84793. 1.75623 3.167(25) 1552. 2.4737 3.0696
84818. 1.75676 3.186(26) 1534. 2.4742 3.0478
84843. 1.75729 3.095(25) 1595. 2.4747 3.0079
84869. 1.75781 3.036(25) 1626. 2.4752 2.9388
84894. 1.75834 2.915(24) 1700. 2.4757 2.8620
84920. 1.75887 2.830(24) 1773. 2.4762 2.7965
84945. 1.75940 2.743(23) 1840. 2.4767 2.7486
84971. 1.75993 2.717(23) 1849. 2.4772 2.7176
84996. 1.76045 2.735(23) 1832. 2.4777 2.7077
85022. 1.76098 2.702(23) 1872. 2.4783 2.7180
85047. 1.76151 2.777(23) 1814. 2.4788 2.7551
85073. 1.76204 2.840(24) 1781. 2.4793 2.8315
85098. 1.76257 3.003(24) 1679. 2.4798 2.9647
85124. 1.76310 3.259(26) 1525. 2.4803 3.1625
85149. 1.76363 3.490(27) 1399. 2.4808 3.3734
85175. 1.76415 3.563(27) 1378. 2.4814 3.4674
85200. 1.76468 3.527(27) 1382. 2.4819 3.3965
85226. 1.76521 3.362(26) 1451. 2.4824 3.2400
85252. 1.76574 3.138(25) 1598. 2.4829 3.0759
85277. 1.76627 3.003(25) 1660. 2.4834 2.9406
85303. 1.76680 2.896(24) 1715. 2.4839 2.8435
85328. 1.76733 2.875(24) 1735. 2.4845 2.7831
85354. 1.76786 2.800(24) 1793. 2.4850 2.7565
85380. 1.76839 2.797(24) 1804. 2.4855 2.7640
85405. 1.76892 2.875(24) 1730. 2.4860 2.8075
85431. 1.76946 2.924(24) 1702. 2.4866 2.8779
85456. 1.76999 2.986(25) 1647. 2.4871 2.9323
85482. 1.77052 2.953(25) 1662. 2.4876 2.9240
85508. 1.77105 2.941(25) 1660. 2.4881 2.8651
85533. 1.77158 2.839(24) 1725. 2.4886 2.7915
85559. 1.77211 2.745(24) 1794. 2.4892 2.7249
85585. 1.77264 2.691(23) 1838. 2.4897 2.6729
85610. 1.77317 2.685(23) 1828. 2.4902 2.6350
85636. 1.77371 2.671(23) 1823. 2.4908 2.6087
85662. 1.77424 2.649(23) 1841. 2.4913 2.5910
85687. 1.77477 2.607(23) 1864. 2.4918 2.5796
85713. 1.77530 2.629(23) 1840. 2.4923 2.5724
85739. 1.77584 2.624(23) 1846. 2.4929 2.5674
85765. 1.77637 2.634(23) 1819. 2.4934 2.5636
85790. 1.77690 2.618(23) 1830. 2.4939 2.5610
85816. 1.77744 2.586(23) 1852. 2.4945 2.5599
85842. 1.77797 2.620(23) 1815. 2.4950 2.5604
85868. 1.77850 2.580(23) 1848. 2.4955 2.5626
85893. 1.77904 2.637(24) 1787. 2.4961 2.5669
85919. 1.77957 2.602(23) 1818. 2.4966 2.5739
85945. 1.78010 2.576(23) 1853. 2.4972 2.5851
85971. 1.78064 2.640(24) 1775. 2.4977 2.6030
85996. 1.78117 2.661(24) 1772. 2.4982 2.6318
86022. 1.78171 2.672(24) 1786. 2.4988 2.6754
86048. 1.78224 2.726(24) 1729. 2.4993 2.7353
86074. 1.78278 2.818(25) 1648. 2.4999 2.7914
86100. 1.78331 2.823(25) 1652. 2.5004 2.8127
86125. 1.78385 2.766(24) 1694. 2.5009 2.8006
86151. 1.78438 2.787(24) 1687. 2.5015 2.7787
86177. 1.78492 2.808(25) 1652. 2.5020 2.7670
86203. 1.78545 2.887(25) 1601. 2.5026 2.7782
86229. 1.78599 2.871(25) 1633. 2.5031 2.8246
86255. 1.78652 2.965(25) 1572. 2.5037 2.9224
86281. 1.78706 3.139(26) 1483. 2.5042 3.0890
86307. 1.78760 3.346(27) 1380. 2.5048 3.3179
86332. 1.78813 3.551(28) 1276. 2.5053 3.5169
86358. 1.78867 3.626(28) 1238. 2.5059 3.5560
86384. 1.78921 3.538(28) 1289. 2.5064 3.4480
86410. 1.78974 3.396(27) 1353. 2.5070 3.2931
86436. 1.79028 3.330(27) 1382. 2.5075 3.1635
86462. 1.79082 3.169(26) 1481. 2.5081 3.0943
86488. 1.79135 3.175(26) 1470. 2.5086 3.1013
86514. 1.79189 3.179(26) 1473. 2.5092 3.1825
86540. 1.79243 3.295(27) 1423. 2.5097 3.2869
86566. 1.79297 3.307(27) 1401. 2.5103 3.3143
86592. 1.79350 3.263(27) 1424. 2.5108 3.2320
86618. 1.79404 3.132(26) 1493. 2.5114 3.0983
86644. 1.79458 3.002(25) 1567. 2.5120 2.9664
86670. 1.79512 2.848(24) 1675. 2.5125 2.8588
86696. 1.79566 2.779(24) 1716. 2.5131 2.7805
86722. 1.79620 2.733(24) 1756. 2.5136 2.7256
86748. 1.79674 2.677(24) 1784. 2.5142 2.6888
86774. 1.79728 2.627(23) 1842. 2.5148 2.6665
86800. 1.79781 2.613(23) 1834. 2.5153 2.6552
86826. 1.79835 2.622(23) 1832. 2.5159 2.6543
86852. 1.79889 2.657(24) 1801. 2.5164 2.6654
86878. 1.79943 2.674(24) 1799. 2.5170 2.6933
86904. 1.79997 2.715(24) 1771. 2.5176 2.7470
86930. 1.80051 2.787(24) 1710. 2.5181 2.8347
86956. 1.80105 2.938(25) 1589. 2.5187 2.9495
86982. 1.80159 2.955(25) 1573. 2.5193 3.0388
87008. 1.80213 2.979(25) 1556. 2.5199 3.0420
87034. 1.80268 2.854(25) 1651. 2.5204 2.9754
87061. 1.80322 2.873(25) 1599. 2.5210 2.8887
87087. 1.80376 2.782(25) 1664. 2.5216 2.8130
87113. 1.80430 2.778(24) 1688. 2.5221 2.7608
87139. 1.80484 2.726(24) 1714. 2.5227 2.7348
87165. 1.80538 2.758(25) 1661. 2.5233 2.7325
87191. 1.80592 2.768(25) 1661. 2.5239 2.7409
87217. 1.80646 2.821(25) 1606. 2.5244 2.7358
87244. 1.80701 2.789(25) 1632. 2.5250 2.7116
87270. 1.80755 2.693(24) 1695. 2.5256 2.6789
87296. 1.80809 2.692(24) 1667. 2.5262 2.6481
87322. 1.80863 2.673(24) 1698. 2.5268 2.6234
87348. 1.80918 2.646(24) 1701. 2.5273 2.6053
87374. 1.80972 2.598(24) 1740. 2.5279 2.5927
87401. 1.81026 2.596(24) 1737. 2.5285 2.5868
87427. 1.81081 2.611(24) 1708. 2.5291 2.5816
87453. 1.81135 2.579(24) 1741. 2.5297 2.5789
87479. 1.81189 2.568(24) 1736. 2.5303 2.5785
87506. 1.81244 2.573(24) 1740. 2.5309 2.5800
87532. 1.81298 2.598(24) 1709. 2.5314 2.5850
87558. 1.81352 2.618(24) 1694. 2.5320 2.5949
87584. 1.81407 2.621(24) 1681. 2.5326 2.6121
87611. 1.81461 2.669(25) 1639. 2.5332 2.6390
87637. 1.81516 2.634(24) 1672. 2.5338 2.6722
87663. 1.81570 2.687(25) 1638. 2.5344 2.6945
87690. 1.81625 2.674(25) 1645. 2.5350 2.6914
87716. 1.81679 2.674(25) 1643. 2.5356 2.6708
87742. 1.81734 2.623(24) 1682. 2.5362 2.6462
87768. 1.81788 2.595(24) 1712. 2.5368 2.6249
87795. 1.81843 2.584(24) 1720. 2.5374 2.6089
87821. 1.81897 2.568(24) 1740. 2.5380 2.5980
87847. 1.81952 2.615(24) 1698. 2.5386 2.5911
87874. 1.82006 2.625(24) 1678. 2.5392 2.5874
87900. 1.82061 2.617(24) 1682. 2.5398 2.5859
87927. 1.82116 2.597(24) 1721. 2.5404 2.5863
87953. 1.82170 2.595(24) 1722. 2.5410 2.5884
87979. 1.82225 2.609(24) 1700. 2.5416 2.5923
88006. 1.82280 2.650(24) 1687. 2.5422 2.5984
88032. 1.82334 2.594(24) 1741. 2.5428 2.6075
88059. 1.82389 2.638(24) 1693. 2.5434 2.6216
88085. 1.82444 2.643(24) 1697. 2.5440 2.6444
88111. 1.82499 2.725(25) 1642. 2.5446 2.6819
88138. 1.82553 2.790(25) 1598. 2.5452 2.7438
88164. 1.82608 2.883(25) 1544. 2.5458 2.8329
88191. 1.82663 2.919(26) 1526. 2.5464 2.9313
88217. 1.82718 2.906(26) 1528. 2.5471 2.9814
88244. 1.82772 2.887(26) 1531. 2.5477 2.9556
88270. 1.82827 2.843(25) 1569. 2.5483 2.8880
88297. 1.82882 2.750(25) 1633. 2.5489 2.8155
88323. 1.82937 2.743(25) 1616. 2.5495 2.7550
88350. 1.82992 2.745(25) 1618. 2.5501 2.7106
88376. 1.83047 2.715(25) 1639. 2.5507 2.6798
88403. 1.83102 2.644(24) 1686. 2.5514 2.6612
88429. 1.83157 2.668(25) 1664. 2.5520 2.6504
88456. 1.83212 2.672(25) 1652. 2.5526 2.6444
88482. 1.83267 2.637(24) 1684. 2.5532 2.6421
88509. 1.83322 2.669(25) 1654. 2.5538 2.6432
88535. 1.83377 2.688(25) 1630. 2.5545 2.6481
88562. 1.83432 2.657(24) 1667. 2.5551 2.6575
88588. 1.83487 2.679(25) 1632. 2.5557 2.6720
88615. 1.83542 2.699(25) 1616. 2.5563 2.6957
88642. 1.83597 2.749(25) 1568. 2.5570 2.7339
88668. 1.83652 2.818(26) 1526. 2.5576 2.7973
88695. 1.83707 2.894(26) 1502. 2.5582 2.9028
88721. 1.83762 3.078(27) 1386. 2.5589 3.0693
88748. 1.83817 3.416(29) 1214. 2.5595 3.2930
88775. 1.83872 3.670(30) 1105. 2.5601 3.4865
88801. 1.83928 3.654(30) 1109. 2.5608 3.5192
88828. 1.83983 3.550(30) 1142. 2.5614 3.4014
88855. 1.84038 3.392(29) 1196. 2.5620 3.2295
88881. 1.84093 3.148(28) 1296. 2.5627 3.0681
88908. 1.84148 2.998(27) 1373. 2.5633 2.9408
88935. 1.84204 2.834(26) 1470. 2.5639 2.8489
88961. 1.84259 2.814(26) 1468. 2.5646 2.7873
88988. 1.84314 2.741(26) 1518. 2.5652 2.7449
89015. 1.84370 2.733(26) 1511. 2.5659 2.7171
89041. 1.84425 2.713(26) 1521. 2.5665 2.6988
89068. 1.84480 2.685(25) 1539. 2.5671 2.6874
89095. 1.84536 2.691(26) 1518. 2.5678 2.6807
89121. 1.84591 2.661(25) 1549. 2.5684 2.6777
89148. 1.84646 2.666(25) 1546. 2.5691 2.6778
89175. 1.84702 2.703(26) 1517. 2.5697 2.6808
89202. 1.84757 2.636(25) 1568. 2.5704 2.6869
89228. 1.84813 2.658(25) 1552. 2.5710 2.6957
89255. 1.84868 2.652(25) 1557. 2.5717 2.7077
89282. 1.84923 2.703(26) 1521. 2.5723 2.7239
89309. 1.84979 2.716(26) 1498. 2.5730 2.7454
89336. 1.85034 2.719(26) 1519. 2.5736 2.7741
89362. 1.85090 2.766(26) 1483. 2.5743 2.8129
89389. 1.85146 2.801(26) 1473. 2.5749 2.8673
89416. 1.85201 2.829(26) 1469. 2.5756 2.9472
89443. 1.85257 3.001(27) 1378. 2.5763 3.0719
89470. 1.85312 3.258(28) 1253. 2.5769 3.2761
89496. 1.85368 3.647(30) 1121. 2.5776 3.6130
89523. 1.85423 4.275(33) 931. 2.5782 4.1402
89550. 1.85479 4.93(4) 780. 2.579 4.834
89577. 1.85535 5.53(4) 675. 2.580 5.402
89604. 1.85590 5.52(4) 678. 2.580 5.475
89631. 1.85646 5.14(4) 746. 2.581 5.130
89658. 1.85702 4.671(35) 834. 2.5815 4.6499
89685. 1.85758 4.252(33) 941. 2.5822 4.1856
89712. 1.85813 3.923(31) 1028. 2.5829 3.7897
89738. 1.85869 3.557(29) 1150. 2.5835 3.4811
89765. 1.85925 3.355(28) 1232. 2.5842 3.2544
89792. 1.85981 3.158(27) 1323. 2.5849 3.0937
89819. 1.86036 3.066(27) 1347. 2.5855 2.9817
89846. 1.86092 2.955(27) 1409. 2.5862 2.9042
89873. 1.86148 2.866(26) 1453. 2.5869 2.8506
89900. 1.86204 2.865(26) 1447. 2.5876 2.8155
89927. 1.86260 2.794(26) 1485. 2.5882 2.7909
89954. 1.86316 2.770(26) 1491. 2.5889 2.7753
89981. 1.86372 2.827(26) 1450. 2.5896 2.7666
90008. 1.86427 2.776(26) 1484. 2.5903 2.7631
90035. 1.86483 2.779(26) 1486. 2.5909 2.7645
90062. 1.86539 2.749(26) 1489. 2.5916 2.7712
90089. 1.86595 2.740(26) 1506. 2.5923 2.7844
90116. 1.86651 2.746(26) 1489. 2.5930 2.8066
90143. 1.86707 2.797(26) 1451. 2.5937 2.8418
90170. 1.86763 2.834(26) 1431. 2.5943 2.8985
90197. 1.86819 2.906(27) 1391. 2.5950 2.9924
90224. 1.86875 3.059(28) 1311. 2.5957 3.1504
90251. 1.86931 3.330(29) 1195. 2.5964 3.4075
90278. 1.86988 3.779(31) 1032. 2.5971 3.7810
90305. 1.87044 4.215(33) 892. 2.5978 4.1767
90333. 1.87100 4.465(35) 816. 2.5985 4.3507
90360. 1.87156 4.322(34) 848. 2.5991 4.2242
90387. 1.87212 3.998(33) 938. 2.5998 3.9594
90414. 1.87268 3.692(31) 1024. 2.6005 3.7048
90441. 1.87324 3.465(30) 1099. 2.6012 3.5186
90468. 1.87381 3.358(30) 1127. 2.6019 3.3825
90495. 1.87437 3.172(29) 1205. 2.6026 3.2529
90522. 1.87493 3.048(28) 1254. 2.6033 3.1256
90550. 1.87549 2.980(28) 1285. 2.6040 3.0155
90577. 1.87606 2.822(27) 1380. 2.6047 2.9296
90604. 1.87662 2.768(27) 1408. 2.6054 2.8668
90631. 1.87718 2.740(27) 1422. 2.6061 2.8230
90658. 1.87775 2.765(27) 1384. 2.6068 2.7934
90686. 1.87831 2.700(26) 1430. 2.6075 2.7740
90713. 1.87887 2.746(27) 1398. 2.6082 2.7624
90740. 1.87944 2.715(26) 1425. 2.6089 2.7569
90767. 1.88000 2.672(26) 1465. 2.6096 2.7566
90794. 1.88056 2.738(27) 1419. 2.6103 2.7615
90822. 1.88113 2.760(27) 1404. 2.6110 2.7727
90849. 1.88169 2.719(26) 1435. 2.6117 2.7924
90876. 1.88226 2.795(27) 1386. 2.6124 2.8242
90903. 1.88282 2.870(27) 1340. 2.6131 2.8722
90931. 1.88339 2.936(28) 1316. 2.6138 2.9349
90958. 1.88395 3.017(28) 1280. 2.6145 2.9999
90985. 1.88452 3.117(29) 1226. 2.6152 3.0557
91013. 1.88508 3.121(28) 1251. 2.6159 3.1237
91040. 1.88565 3.275(29) 1181. 2.6167 3.2453
91067. 1.88621 3.544(30) 1087. 2.6174 3.4662
91094. 1.88678 3.837(32) 1004. 2.6181 3.8238
91122. 1.88735 4.289(34) 878. 2.6188 4.2761
91149. 1.88791 4.62(4) 796. 2.620 4.586
91176. 1.88848 4.56(4) 803. 2.620 4.539
91204. 1.88905 4.389(34) 850. 2.6209 4.2447
91231. 1.88961 3.942(32) 961. 2.6217 3.8982
91259. 1.89018 3.626(31) 1064. 2.6224 3.6067
91286. 1.89075 3.444(30) 1129. 2.6231 3.4063
91313. 1.89131 3.315(29) 1175. 2.6238 3.3004
91341. 1.89188 3.260(29) 1195. 2.6245 3.2797
91368. 1.89245 3.219(29) 1206. 2.6253 3.3114
91396. 1.89302 3.326(29) 1156. 2.6260 3.3222
91423. 1.89359 3.304(29) 1157. 2.6267 3.2678
91450. 1.89415 3.171(29) 1213. 2.6274 3.1704
91478. 1.89472 3.039(28) 1283. 2.6281 3.0654
91505. 1.89529 2.896(27) 1351. 2.6289 2.9747
91533. 1.89586 2.856(27) 1349. 2.6296 2.9055
91560. 1.89643 2.845(27) 1353. 2.6303 2.8564
91588. 1.89700 2.828(27) 1347. 2.6310 2.8234
91615. 1.89757 2.760(27) 1399. 2.6318 2.8022
91643. 1.89814 2.731(27) 1407. 2.6325 2.7911
91670. 1.89871 2.752(27) 1401. 2.6332 2.7860
91698. 1.89927 2.736(27) 1402. 2.6340 2.7871
91725. 1.89984 2.771(27) 1360. 2.6347 2.7917
91753. 1.90041 2.775(27) 1357. 2.6354 2.8067
91780. 1.90099 2.843(27) 1324. 2.6362 2.8325
91808. 1.90156 2.871(28) 1320. 2.6369 2.8748
91835. 1.90213 2.969(28) 1247. 2.6376 2.9433
91863. 1.90270 3.034(29) 1230. 2.6383 3.0471
91890. 1.90327 3.227(30) 1130. 2.6391 3.1805
91918. 1.90384 3.329(30) 1088. 2.6398 3.2994
91945. 1.90441 3.472(31) 1017. 2.6406 3.3738
91973. 1.90498 3.506(31) 1014. 2.6413 3.4521
92001. 1.90555 3.654(32) 975. 2.6420 3.6074
92028. 1.90612 3.844(33) 915. 2.6428 3.8915
92056. 1.90670 4.180(35) 818. 2.6435 4.2738
92083. 1.90727 4.41(4) 749. 2.644 4.536
92111. 1.90784 4.38(4) 755. 2.645 4.472
92139. 1.90841 4.12(4) 811. 2.646 4.173
92166. 1.90899 3.756(33) 919. 2.6465 3.8209
92194. 1.90956 3.468(32) 1001. 2.6472 3.5148
92222. 1.91013 3.226(30) 1106. 2.6479 3.2819
92249. 1.91070 3.066(29) 1165. 2.6487 3.1164
92277. 1.91128 2.957(29) 1208. 2.6494 3.0021
92305. 1.91185 2.850(28) 1268. 2.6502 2.9243
92332. 1.91243 2.835(28) 1271. 2.6509 2.8716
92360. 1.91300 2.797(28) 1272. 2.6517 2.8365
92388. 1.91357 2.759(28) 1310. 2.6524 2.8139
92415. 1.91415 2.808(28) 1294. 2.6532 2.7997
92443. 1.91472 2.753(27) 1324. 2.6539 2.7910
92471. 1.91530 2.728(27) 1329. 2.6547 2.7866
92499. 1.91587 2.788(28) 1299. 2.6554 2.7924
92526. 1.91645 2.775(27) 1326. 2.6562 2.8097
92554. 1.91702 2.821(28) 1300. 2.6569 2.8373
92582. 1.91760 2.850(28) 1269. 2.6577 2.8615
92610. 1.91817 2.814(28) 1294. 2.6584 2.8644
92638. 1.91875 2.810(28) 1303. 2.6592 2.8530
92665. 1.91932 2.776(27) 1331. 2.6599 2.8435
92693. 1.91990 2.801(28) 1317. 2.6607 2.8459
92721. 1.92047 2.874(28) 1281. 2.6614 2.8582
92749. 1.92105 2.896(28) 1257. 2.6622 2.8626
92777. 1.92163 2.844(28) 1295. 2.6629 2.8478
92804. 1.92220 2.765(27) 1338. 2.6637 2.8228
92832. 1.92278 2.801(28) 1320. 2.6644 2.7990
92860. 1.92336 2.760(27) 1338. 2.6652 2.7822
92888. 1.92393 2.705(27) 1398. 2.6659 2.7741
92916. 1.92451 2.799(28) 1310. 2.6667 2.7740
92944. 1.92509 2.766(28) 1322. 2.6674 2.7791
92972. 1.92567 2.762(27) 1345. 2.6682 2.7855
92999. 1.92624 2.776(28) 1313. 2.6690 2.7943
93027. 1.92682 2.722(27) 1358. 2.6697 2.8065
93055. 1.92740 2.752(27) 1336. 2.6705 2.8157
93083. 1.92798 2.785(28) 1307. 2.6712 2.8168
93111. 1.92856 2.813(28) 1289. 2.6720 2.8153
93139. 1.92914 2.825(28) 1277. 2.6727 2.8201
93167. 1.92971 2.902(28) 1234. 2.6735 2.8387
93195. 1.93029 2.917(29) 1218. 2.6743 2.8795
93223. 1.93087 3.012(29) 1167. 2.6750 2.9522
93251. 1.93145 3.111(30) 1123. 2.6758 3.0599
93279. 1.93203 3.218(30) 1077. 2.6765 3.1696
93307. 1.93261 3.234(31) 1067. 2.6773 3.2131
93335. 1.93319 3.142(30) 1105. 2.6781 3.1885
93363. 1.93377 3.108(30) 1114. 2.6788 3.1444
93391. 1.93435 3.070(30) 1117. 2.6796 3.1103
93419. 1.93493 2.989(29) 1149. 2.6803 3.0736
93447. 1.93551 2.965(29) 1156. 2.6811 3.0195
93475. 1.93609 2.923(29) 1181. 2.6819 2.9599
93503. 1.93667 2.897(29) 1177. 2.6826 2.9092
93531. 1.93726 2.879(29) 1181. 2.6834 2.8727
93559. 1.93784 2.892(29) 1169. 2.6842 2.8516
93587. 1.93842 2.833(29) 1206. 2.6849 2.8440
93615. 1.93900 2.831(29) 1201. 2.6857 2.8494
93643. 1.93958 2.833(29) 1195. 2.6865 2.8681
93671. 1.94016 2.835(29) 1209. 2.6872 2.9039
93699. 1.94075 2.936(30) 1149. 2.6880 2.9675
93728. 1.94133 3.047(30) 1100. 2.6887 3.0782
93756. 1.94191 3.263(31) 1024. 2.6895 3.2590
93784. 1.94249 3.539(33) 925. 2.6903 3.5082
93812. 1.94308 3.766(34) 855. 2.6910 3.7261
93840. 1.94366 3.774(34) 856. 2.6918 3.7585
93868. 1.94424 3.638(33) 899. 2.6926 3.6180
93896. 1.94483 3.450(32) 962. 2.6933 3.4198
93925. 1.94541 3.234(31) 1043. 2.6941 3.2387
93953. 1.94599 3.047(30) 1116. 2.6949 3.1008
93981. 1.94658 3.009(30) 1129. 2.6956 3.0073
94009. 1.94716 2.916(29) 1174. 2.6964 2.9522
94037. 1.94774 2.977(30) 1134. 2.6972 2.9289
94066. 1.94833 2.943(29) 1156. 2.6979 2.9282
94094. 1.94891 2.917(29) 1182. 2.6987 2.9302
94122. 1.94950 2.939(29) 1165. 2.6995 2.9135
94150. 1.95008 2.916(29) 1184. 2.7002 2.8814
94178. 1.95067 2.831(28) 1232. 2.7010 2.8474
94207. 1.95125 2.816(29) 1226. 2.7018 2.8189
94235. 1.95184 2.763(28) 1249. 2.7025 2.7961
94263. 1.95243 2.757(28) 1262. 2.7033 2.7821
94292. 1.95301 2.754(28) 1256. 2.7041 2.7741
94320. 1.95360 2.741(28) 1278. 2.7048 2.7717
94348. 1.95418 2.749(28) 1266. 2.7056 2.7748
94376. 1.95477 2.710(28) 1293. 2.7064 2.7818
94405. 1.95536 2.723(28) 1290. 2.7071 2.7877
94433. 1.95594 2.733(28) 1270. 2.7079 2.7865
94461. 1.95653 2.786(29) 1224. 2.7087 2.7800
94490. 1.95712 2.745(28) 1260. 2.7094 2.7726
94518. 1.95770 2.774(29) 1228. 2.7102 2.7670
94546. 1.95829 2.750(28) 1254. 2.7110 2.7650
94575. 1.95888 2.732(28) 1263. 2.7117 2.7646
94603. 1.95947 2.757(29) 1225. 2.7125 2.7668
94632. 1.96005 2.771(29) 1208. 2.7133 2.7716
94660. 1.96064 2.777(29) 1204. 2.7140 2.7796
94688. 1.96123 2.741(29) 1231. 2.7148 2.7919
94717. 1.96182 2.816(29) 1192. 2.7155 2.8113
94745. 1.96241 2.855(29) 1163. 2.7163 2.8427
94774. 1.96300 2.877(30) 1149. 2.7171 2.8955
94802. 1.96359 2.979(30) 1105. 2.7178 2.9826
94830. 1.96418 3.099(31) 1053. 2.7186 3.1135
94859. 1.96476 3.258(32) 982. 2.7194 3.2629
94887. 1.96535 3.365(33) 941. 2.7201 3.3401
94916. 1.96594 3.236(32) 984. 2.7209 3.2973
94944. 1.96653 3.141(31) 1018. 2.7217 3.1889
94973. 1.96712 3.054(31) 1034. 2.7224 3.0741
95001. 1.96771 2.979(31) 1063. 2.7232 2.9793
95030. 1.96830 2.918(30) 1089. 2.7239 2.9095
95058. 1.96889 2.823(30) 1134. 2.7247 2.8607
95087. 1.96949 2.809(30) 1126. 2.7255 2.8274
95115. 1.97008 2.786(30) 1143. 2.7262 2.8048
95144. 1.97067 2.803(30) 1117. 2.7270 2.7892
95172. 1.97126 2.748(29) 1150. 2.7278 2.7784
95201. 1.97185 2.774(30) 1136. 2.7285 2.7707
95230. 1.97244 2.800(30) 1114. 2.7293 2.7653
95258. 1.97303 2.753(30) 1140. 2.7300 2.7632
95287. 1.97363 2.778(30) 1128. 2.7308 2.7604
95315. 1.97422 2.733(29) 1152. 2.7316 2.7583
95344. 1.97481 2.753(30) 1145. 2.7323 2.7569
95372. 1.97540 2.750(30) 1139. 2.7331 2.7559
95401. 1.97600 2.719(29) 1161. 2.7338 2.7552
95430. 1.97659 2.718(29) 1178. 2.7346 2.7548
95458. 1.97718 2.716(29) 1172. 2.7353 2.7547
95487. 1.97778 2.694(29) 1173. 2.7361 2.7547
95516. 1.97837 2.781(30) 1125. 2.7369 2.7548
95544. 1.97896 2.734(29) 1165. 2.7376 2.7557
95573. 1.97956 2.763(29) 1150. 2.7384 2.7562
95602. 1.98015 2.725(29) 1168. 2.7391 2.7567
95630. 1.98074 2.712(29) 1180. 2.7399 2.7581
95659. 1.98134 2.708(29) 1193. 2.7406 2.7587
95688. 1.98193 2.737(29) 1165. 2.7414 2.7595
95716. 1.98253 2.695(29) 1189. 2.7421 2.7604
95745. 1.98312 2.790(30) 1134. 2.7429 2.7613
95774. 1.98372 2.736(29) 1172. 2.7436 2.7624
95803. 1.98431 2.737(29) 1175. 2.7444 2.7635
95831. 1.98491 2.709(29) 1190. 2.7451 2.7647
95860. 1.98550 2.726(29) 1164. 2.7459 2.7660
95889. 1.98610 2.714(29) 1185. 2.7466 2.7674
95918. 1.98670 2.719(29) 1178. 2.7474 2.7691
95946. 1.98729 2.720(29) 1168. 2.7481 2.7708
95975. 1.98789 2.733(29) 1160. 2.7489 2.7725
96004. 1.98848 2.799(30) 1121. 2.7496 2.7745
96033. 1.98908 2.771(30) 1128. 2.7504 2.7766
96062. 1.98968 2.740(30) 1139. 2.7511 2.7780
96090. 1.99027 2.809(30) 1100. 2.7519 2.7807
96119. 1.99087 2.787(30) 1110. 2.7526 2.7838
96148. 1.99147 2.774(30) 1096. 2.7533 2.7873
96177. 1.99207 2.806(30) 1084. 2.7541 2.7915
96206. 1.99266 2.814(31) 1069. 2.7548 2.7967
96235. 1.99326 2.757(30) 1092. 2.7556 2.8034
96263. 1.99386 2.806(30) 1083. 2.7563 2.8124
96292. 1.99446 2.836(31) 1054. 2.7570 2.8254
96321. 1.99506 2.808(31) 1059. 2.7578 2.8449
96350. 1.99566 2.867(31) 1031. 2.7585 2.8728
96379. 1.99625 2.876(31) 1014. 2.7593 2.9064
96408. 1.99685 2.925(32) 974. 2.7600 2.9309
96437. 1.99745 2.927(32) 986. 2.7607 2.9368
96466. 1.99805 2.915(32) 990. 2.7615 2.9344
96495. 1.99865 2.943(32) 973. 2.7622 2.9379
96524. 1.99925 2.971(32) 969. 2.7629 2.9574
96553. 1.99985 3.040(33) 932. 2.7637 3.0021
96582. 2.00045 3.139(34) 889. 2.7644 3.0731
96611. 2.00105 3.170(34) 873. 2.7651 3.1535
96640. 2.00165 3.290(35) 826. 2.7658 3.1998
96669. 2.00225 3.300(35) 822. 2.7666 3.2053
96698. 2.00285 3.37(4) 803. 2.767 3.210
96727. 2.00345 3.43(4) 780. 2.768 3.256
96756. 2.00405 3.45(4) 785. 2.769 3.377
96785. 2.00466 3.62(4) 745. 2.769 3.593
96814. 2.00526 3.87(4) 680. 2.770 3.852
96843. 2.00586 3.98(4) 651. 2.771 3.980
96872. 2.00646 4.02(4) 642. 2.772 3.887
96901. 2.00706 3.92(4) 663. 2.772 3.677
96930. 2.00767 3.63(4) 739. 2.773 3.461
96959. 2.00827 3.50(4) 769. 2.774 3.285
96988. 2.00887 3.275(34) 847. 2.7745 3.1581
97017. 2.00947 3.193(34) 862. 2.7752 3.0714
97046. 2.01008 3.119(34) 889. 2.7759 3.0142
97075. 2.01068 3.049(33) 922. 2.7767 2.9776
97104. 2.01128 3.005(33) 924. 2.7774 2.9553
97134. 2.01189 2.941(32) 954. 2.7781 2.9427
97163. 2.01249 2.947(32) 959. 2.7788 2.9387
97192. 2.01309 2.995(33) 941. 2.7795 2.9417
97221. 2.01370 2.979(32) 949. 2.7802 2.9516
97250. 2.01430 2.975(32) 949. 2.7809 2.9687
97279. 2.01491 3.037(33) 923. 2.7816 2.9923
97309. 2.01551 3.075(33) 919. 2.7823 3.0215
97338. 2.01612 3.146(33) 898. 2.7830 3.0608
97367. 2.01672 3.193(34) 888. 2.7837 3.1199
97396. 2.01733 3.387(35) 829. 2.7844 3.2152
97425. 2.01793 3.51(4) 799. 2.785 3.375
97455. 2.01854 3.81(4) 726. 2.786 3.641
97484. 2.01914 4.17(4) 662. 2.787 4.058
97513. 2.01975 4.53(4) 592. 2.787 4.587
97542. 2.02035 4.94(4) 521. 2.788 4.962
97572. 2.02096 5.00(4) 512. 2.789 4.929
97601. 2.02157 4.76(4) 541. 2.789 4.619
97630. 2.02217 4.47(4) 583. 2.790 4.259
97659. 2.02278 4.13(4) 642. 2.791 3.962
97689. 2.02339 3.94(4) 673. 2.791 3.770
97718. 2.02399 3.79(4) 706. 2.792 3.699
97747. 2.02460 3.81(4) 696. 2.793 3.760
97777. 2.02521 4.04(4) 641. 2.793 3.963
97806. 2.02582 4.30(4) 587. 2.794 4.255
97835. 2.02642 4.51(4) 552. 2.795 4.470
97865. 2.02703 4.60(4) 532. 2.795 4.534
97894. 2.02764 4.54(4) 536. 2.796 4.503
97923. 2.02825 4.45(4) 541. 2.797 4.350
97953. 2.02886 4.28(4) 560. 2.798 4.082
97982. 2.02947 4.08(4) 592. 2.798 3.793
98012. 2.03007 3.83(4) 644. 2.799 3.549
98041. 2.03068 3.61(4) 700. 2.800 3.369
98070. 2.03129 3.45(4) 734. 2.800 3.248
98100. 2.03190 3.34(4) 756. 2.801 3.176
98129. 2.03251 3.25(4) 786. 2.802 3.146
98159. 2.03312 3.22(4) 785. 2.802 3.151
98188. 2.03373 3.24(4) 774. 2.803 3.170
98218. 2.03434 3.26(4) 763. 2.804 3.163
98247. 2.03495 3.20(4) 783. 2.804 3.123
98277. 2.03556 3.100(35) 819. 2.8048 3.0704
98306. 2.03617 3.021(34) 841. 2.8055 3.0226
98336. 2.03679 2.949(34) 872. 2.8062 2.9862
98365. 2.03740 2.940(34) 877. 2.8068 2.9613
98395. 2.03801 2.933(34) 868. 2.8075 2.9464
98424. 2.03862 2.911(34) 882. 2.8081 2.9403
98454. 2.03923 2.948(34) 872. 2.8088 2.9426
98483. 2.03984 2.906(33) 899. 2.8094 2.9532
98513. 2.04045 2.916(33) 911. 2.8101 2.9684
98542. 2.04107 2.913(33) 906. 2.8107 2.9784
98572. 2.04168 2.989(34) 879. 2.8114 2.9795
98601. 2.04229 2.971(33) 892. 2.8120 2.9789
98631. 2.04290 2.973(33) 892. 2.8126 2.9840
98661. 2.04352 2.967(33) 901. 2.8133 3.0000
98690. 2.04413 3.021(34) 887. 2.8139 3.0328
98720. 2.04474 3.025(33) 897. 2.8146 3.0928
98749. 2.04536 3.179(34) 857. 2.8152 3.1984
98779. 2.04597 3.268(35) 838. 2.8158 3.3757
98809. 2.04659 3.61(4) 747. 2.816 3.642
98838. 2.04720 3.94(4) 673. 2.817 3.933
98868. 2.04781 4.05(4) 651. 2.818 4.057
98898. 2.04843 4.03(4) 654. 2.818 3.943
98927. 2.04904 3.73(4) 720. 2.819 3.719
98957. 2.04966 3.43(4) 802. 2.820 3.496
98987. 2.05027 3.266(34) 853. 2.8202 3.3207
99016. 2.05089 3.204(34) 859. 2.8208 3.1980
99046. 2.05150 3.112(34) 886. 2.8214 3.1217
99076. 2.05212 3.027(33) 922. 2.8220 3.0813
99105. 2.05273 3.045(33) 914. 2.8227 3.0745
99135. 2.05335 3.104(33) 894. 2.8233 3.1000
99165. 2.05397 3.088(33) 897. 2.8239 3.1446
99195. 2.05458 3.078(33) 899. 2.8245 3.1679
99224. 2.05520 3.094(34) 889. 2.8251 3.1417
99254. 2.05582 2.964(32) 951. 2.8257 3.0870
99284. 2.05643 2.964(33) 937. 2.8263 3.0306
99314. 2.05705 2.907(32) 972. 2.8269 2.9843
99344. 2.05767 2.926(32) 952. 2.8275 2.9503
99373. 2.05828 2.840(32) 992. 2.8281 2.9263
99403. 2.05890 2.886(32) 959. 2.8287 2.9098
99433. 2.05952 2.930(33) 931. 2.8293 2.8984
99463. 2.06014 2.939(33) 923. 2.8299 2.8904
99493. 2.06076 2.875(32) 956. 2.8305 2.8848
99522. 2.06137 2.876(32) 968. 2.8311 2.8808
99552. 2.06199 2.938(33) 936. 2.8317 2.8781
99582. 2.06261 2.924(32) 949. 2.8322 2.8762
99612. 2.06323 2.922(33) 925. 2.8328 2.8750
99642. 2.06385 2.908(33) 930. 2.8334 2.8744
99672. 2.06447 2.917(33) 942. 2.8340 2.8743
99702. 2.06509 2.913(32) 953. 2.8346 2.8746
99732. 2.06571 2.923(33) 915. 2.8351 2.8753
99762. 2.06633 2.893(33) 916. 2.8357 2.8765
99792. 2.06695 2.871(33) 919. 2.8363 2.8762
99821. 2.06757 2.894(33) 901. 2.8368 2.8784
99851. 2.06819 2.940(34) 869. 2.8374 2.8814
99881. 2.06881 2.870(34) 877. 2.8380 2.8852
99911. 2.06943 2.904(34) 859. 2.8385 2.8902
99941. 2.07005 2.947(34) 842. 2.8391 2.8980
99971. 2.07067 2.902(34) 852. 2.8397 2.9071
100001. 2.07129 2.941(34) 841. 2.8402 2.9202
100031. 2.07191 2.967(35) 829. 2.8408 2.9403
100061. 2.07254 2.980(35) 835. 2.8413 2.9725
100091. 2.07316 3.026(35) 815. 2.8419 3.0245
100121. 2.07378 3.09(4) 800. 2.842 3.105
100151. 2.07440 3.16(4) 775. 2.843 3.203
100181. 2.07502 3.24(4) 749. 2.844 3.266
100211. 2.07565 3.23(4) 772. 2.844 3.251
100242. 2.07627 3.14(4) 796. 2.845 3.189
100272. 2.07689 3.13(4) 787. 2.845 3.122
100302. 2.07752 3.10(4) 802. 2.846 3.070
100332. 2.07814 3.038(35) 824. 2.8462 3.0371
100362. 2.07876 3.013(35) 830. 2.8468 3.0221
100392. 2.07939 2.999(35) 834. 2.8473 3.0222
100422. 2.08001 3.026(35) 821. 2.8478 3.0337
100452. 2.08063 3.012(35) 833. 2.8484 3.0544
100482. 2.08126 3.07(4) 811. 2.849 3.090
100512. 2.08188 3.08(4) 805. 2.849 3.154
100543. 2.08251 3.18(4) 780. 2.850 3.268
100573. 2.08313 3.38(4) 735. 2.850 3.462
100603. 2.08376 3.63(4) 663. 2.851 3.753
100633. 2.08438 4.00(4) 581. 2.851 4.063
100663. 2.08501 4.13(4) 556. 2.852 4.179
100694. 2.08563 4.00(4) 577. 2.853 4.041
100724. 2.08626 3.74(4) 628. 2.853 3.792
100754. 2.08689 3.51(4) 661. 2.854 3.552
100784. 2.08751 3.28(4) 720. 2.854 3.363
100814. 2.08814 3.27(4) 710. 2.855 3.229
100845. 2.08876 3.15(4) 740. 2.855 3.138
100875. 2.08939 3.06(4) 770. 2.856 3.077
100905. 2.09002 2.99(4) 787. 2.856 3.038
100935. 2.09065 2.99(4) 778. 2.857 3.012
100966. 2.09127 2.97(4) 782. 2.857 2.997
100996. 2.09190 3.04(4) 745. 2.858 2.989
101026. 2.09253 2.96(4) 776. 2.858 2.987
101057. 2.09316 2.97(4) 767. 2.858 2.993
101087. 2.09378 2.99(4) 758. 2.859 3.006
101117. 2.09441 3.02(4) 746. 2.859 3.027
101148. 2.09504 3.00(4) 753. 2.860 3.046
101178. 2.09567 3.06(4) 726. 2.860 3.058
101208. 2.09630 3.08(4) 721. 2.861 3.064
101239. 2.09693 3.10(4) 719. 2.861 3.077
101269. 2.09756 3.14(4) 724. 2.862 3.105
101299. 2.09819 3.26(4) 695. 2.862 3.156
101330. 2.09881 3.37(4) 682. 2.863 3.247
101360. 2.09944 3.58(4) 638. 2.863 3.405
101391. 2.10007 3.74(4) 623. 2.864 3.661
101421. 2.10070 4.07(4) 561. 2.864 4.020
101451. 2.10134 4.36(4) 513. 2.865 4.346
101482. 2.10197 4.45(4) 501. 2.865 4.442
101512. 2.10260 4.32(4) 525. 2.866 4.336
101543. 2.10323 4.17(4) 553. 2.866 4.130
101573. 2.10386 3.96(4) 590. 2.866 3.876
101604. 2.10449 3.73(4) 636. 2.867 3.631
101634. 2.10512 3.46(4) 708. 2.867 3.434
101665. 2.10575 3.36(4) 738. 2.868 3.291
101695. 2.10638 3.31(4) 756. 2.868 3.191
101726. 2.10702 3.19(4) 789. 2.869 3.124
101756. 2.10765 3.065(35) 833. 2.8691 3.0783
101787. 2.10828 3.051(35) 833. 2.8696 3.0480
101817. 2.10891 3.050(34) 848. 2.8700 3.0279
101848. 2.10955 3.017(34) 853. 2.8704 3.0150
101878. 2.11018 3.053(35) 840. 2.8709 3.0073
101909. 2.11081 2.988(34) 870. 2.8713 3.0038
101940. 2.11145 3.001(34) 855. 2.8717 3.0037
101970. 2.11208 3.001(34) 855. 2.8721 3.0069
102001. 2.11271 2.966(34) 871. 2.8726 3.0135
102031. 2.11335 3.034(34) 845. 2.8730 3.0239
102062. 2.11398 3.090(35) 830. 2.8734 3.0391
102093. 2.11462 3.048(34) 844. 2.8738 3.0606
102123. 2.11525 3.107(35) 829. 2.8742 3.0913
102154. 2.11588 3.21(4) 791. 2.875 3.137
102184. 2.11652 3.21(4) 788. 2.875 3.207
102215. 2.11715 3.31(4) 768. 2.875 3.321
102246. 2.11779 3.41(4) 742. 2.876 3.508
102276. 2.11843 3.68(4) 667. 2.876 3.796
102307. 2.11906 3.90(4) 620. 2.877 4.150
102338. 2.11970 4.11(4) 576. 2.877 4.381
102369. 2.12033 4.18(4) 561. 2.877 4.358
102399. 2.12097 4.12(4) 569. 2.878 4.213
102430. 2.12161 4.03(4) 579. 2.878 4.107
102461. 2.12224 4.01(4) 580. 2.879 4.116
102491. 2.12288 4.12(4) 559. 2.879 4.218
102522. 2.12352 4.32(4) 520. 2.879 4.341
102553. 2.12415 4.49(5) 493. 2.880 4.442
102584. 2.12479 4.57(5) 474. 2.880 4.405
102614. 2.12543 4.38(4) 502. 2.881 4.192
102645. 2.12607 4.06(4) 551. 2.881 3.918
102676. 2.12670 3.75(4) 608. 2.881 3.675
102707. 2.12734 3.49(4) 668. 2.882 3.491
102738. 2.12798 3.29(4) 723. 2.882 3.364
102768. 2.12862 3.24(4) 735. 2.882 3.280
102799. 2.12926 3.22(4) 729. 2.883 3.229
102830. 2.12990 3.20(4) 738. 2.883 3.201
102861. 2.13053 3.22(4) 731. 2.884 3.191
102892. 2.13117 3.22(4) 732. 2.884 3.197
102923. 2.13181 3.25(4) 732. 2.884 3.220
102954. 2.13245 3.25(4) 727. 2.885 3.263
102985. 2.13309 3.34(4) 710. 2.885 3.334
103015. 2.13373 3.43(4) 699. 2.885 3.442
103046. 2.13437 3.55(4) 675. 2.886 3.602
103077. 2.13501 3.76(4) 628. 2.886 3.804
103108. 2.13565 3.93(4) 590. 2.886 3.991
103139. 2.13630 4.10(4) 556. 2.887 4.122
103170. 2.13694 4.11(4) 556. 2.887 4.224
103201. 2.13758 4.09(4) 561. 2.888 4.325
103232. 2.13822 4.00(4) 579. 2.888 4.430
103263. 2.13886 4.13(4) 555. 2.888 4.544
103294. 2.13950 4.34(4) 522. 2.889 4.644
103325. 2.14014 4.30(4) 537. 2.889 4.634
103356. 2.14079 4.23(4) 557. 2.889 4.469
103387. 2.14143 4.07(4) 586. 2.890 4.240
103418. 2.14207 3.94(4) 611. 2.890 4.043
103449. 2.14271 3.86(4) 622. 2.890 3.934
103480. 2.14336 3.92(4) 613. 2.891 3.945
103511. 2.14400 4.15(4) 581. 2.891 4.108
103542. 2.14464 4.49(4) 523. 2.891 4.415
103573. 2.14529 4.78(5) 474. 2.892 4.699
103604. 2.14593 4.73(5) 481. 2.892 4.697
103635. 2.14657 4.43(4) 525. 2.892 4.434
103666. 2.14722 4.02(4) 595. 2.892 4.105
103697. 2.14786 3.83(4) 623. 2.893 3.822
103729. 2.14851 3.64(4) 663. 2.893 3.619
103760. 2.14915 3.55(4) 679. 2.893 3.491
103791. 2.14980 3.54(4) 673. 2.894 3.428
103822. 2.15044 3.54(4) 668. 2.894 3.424
103853. 2.15109 3.60(4) 650. 2.894 3.494
103884. 2.15173 3.74(4) 617. 2.895 3.658
103915. 2.15238 3.87(4) 588. 2.895 3.933
103947. 2.15302 3.99(4) 564. 2.895 4.233
103978. 2.15367 4.01(4) 555. 2.896 4.332
104009. 2.15432 3.89(4) 569. 2.896 4.169
104040. 2.15496 3.60(4) 633. 2.896 3.899
104071. 2.15561 3.50(4) 643. 2.896 3.644
104103. 2.15626 3.32(4) 688. 2.897 3.446
104134. 2.15690 3.29(4) 684. 2.897 3.305
104165. 2.15755 3.20(4) 707. 2.897 3.208
104196. 2.15820 3.14(4) 727. 2.898 3.143
104228. 2.15884 3.07(4) 746. 2.898 3.100
104259. 2.15949 3.10(4) 728. 2.898 3.071
104290. 2.16014 3.09(4) 728. 2.898 3.053
104321. 2.16079 3.10(4) 729. 2.899 3.045
104353. 2.16144 3.06(4) 738. 2.899 3.048
104384. 2.16209 3.10(4) 727. 2.899 3.064
104415. 2.16273 3.11(4) 715. 2.900 3.095
104447. 2.16338 3.07(4) 734. 2.900 3.127
104478. 2.16403 3.13(4) 714. 2.900 3.132
104509. 2.16468 3.10(4) 729. 2.900 3.107
104541. 2.16533 3.04(4) 745. 2.901 3.071
104572. 2.16598 2.97(4) 776. 2.901 3.039
104603. 2.16663 3.01(4) 774. 2.901 3.014
104635. 2.16728 2.96(4) 791. 2.902 2.998
104666. 2.16793 2.96(4) 791. 2.902 2.987
104698. 2.16858 2.96(4) 800. 2.902 2.980
104729. 2.16923 2.96(4) 791. 2.902 2.977
104760. 2.16988 2.911(35) 820. 2.9026 2.9765
104792. 2.17053 2.98(4) 792. 2.903 2.979
104823. 2.17119 3.04(4) 778. 2.903 2.984
104855. 2.17184 3.01(4) 790. 2.903 2.993
104886. 2.17249 2.98(4) 800. 2.904 3.007
104918. 2.17314 2.966(35) 814. 2.9039 3.0311
104949. 2.17379 3.05(4) 786. 2.904 3.072
104981. 2.17444 3.13(4) 767. 2.904 3.140
105012. 2.17510 3.16(4) 754. 2.905 3.252
105044. 2.17575 3.28(4) 717. 2.905 3.407
105075. 2.17640 3.37(4) 700. 2.905 3.541
105107. 2.17706 3.48(4) 671. 2.905 3.557
105138. 2.17771 3.38(4) 700. 2.906 3.473
105170. 2.17836 3.36(4) 698. 2.906 3.355
105201. 2.17902 3.19(4) 745. 2.906 3.242
105233. 2.17967 3.10(4) 764. 2.906 3.151
105264. 2.18032 3.06(4) 762. 2.907 3.086
105296. 2.18098 3.01(4) 784. 2.907 3.041
105328. 2.18163 3.00(4) 779. 2.907 3.010
105359. 2.18229 2.97(4) 787. 2.907 2.988
105391. 2.18294 3.00(4) 764. 2.908 2.974
105422. 2.18360 2.94(4) 784. 2.908 2.963
105454. 2.18425 2.89(4) 812. 2.908 2.955
105486. 2.18491 2.94(4) 777. 2.908 2.950
105517. 2.18556 2.95(4) 768. 2.908 2.945
105549. 2.18622 2.90(4) 793. 2.909 2.942
105581. 2.18687 2.97(4) 754. 2.909 2.939
105612. 2.18753 2.97(4) 752. 2.909 2.937
105644. 2.18819 2.99(4) 742. 2.909 2.935
105676. 2.18884 2.97(4) 743. 2.910 2.933
105707. 2.18950 2.97(4) 742. 2.910 2.932
105739. 2.19016 2.93(4) 756. 2.910 2.931
105771. 2.19081 2.98(4) 740. 2.910 2.930
105803. 2.19147 2.97(4) 737. 2.910 2.929
105834. 2.19213 2.98(4) 737. 2.911 2.929
105866. 2.19279 2.95(4) 752. 2.911 2.928
105898. 2.19344 2.94(4) 753. 2.911 2.928
105930. 2.19410 2.95(4) 747. 2.911 2.927
105961. 2.19476 2.96(4) 745. 2.912 2.927
105993. 2.19542 2.90(4) 759. 2.912 2.927
106025. 2.19608 2.90(4) 773. 2.912 2.927
106057. 2.19674 2.95(4) 753. 2.912 2.926
106089. 2.19740 2.90(4) 770. 2.912 2.926
106120. 2.19806 2.91(4) 769. 2.913 2.926
106152. 2.19872 2.92(4) 774. 2.913 2.926
106184. 2.19937 2.94(4) 776. 2.913 2.926
106216. 2.20004 2.92(4) 775. 2.913 2.926
106248. 2.20069 2.87(4) 804. 2.913 2.926
106280. 2.20136 2.91(4) 793. 2.914 2.926
106312. 2.20202 2.90(4) 791. 2.914 2.926
106343. 2.20268 2.88(4) 800. 2.914 2.927
106375. 2.20334 2.94(4) 782. 2.914 2.927
106407. 2.20400 2.93(4) 783. 2.914 2.927
106439. 2.20466 2.92(4) 787. 2.915 2.927
106471. 2.20532 2.94(4) 775. 2.915 2.927
106503. 2.20598 2.93(4) 788. 2.915 2.928
106535. 2.20665 2.96(4) 770. 2.915 2.928
106567. 2.20731 2.89(4) 802. 2.915 2.929
106599. 2.20797 2.91(4) 787. 2.916 2.929
106631. 2.20863 2.96(4) 773. 2.916 2.929
106663. 2.20929 2.96(4) 767. 2.916 2.930
106695. 2.20996 2.97(4) 764. 2.916 2.931
106727. 2.21062 2.95(4) 761. 2.916 2.931
106759. 2.21128 2.93(4) 767. 2.917 2.932
106791. 2.21195 2.96(4) 751. 2.917 2.933
106823. 2.21261 2.88(4) 782. 2.917 2.935
106855. 2.21327 2.93(4) 756. 2.917 2.936
106887. 2.21394 2.96(4) 749. 2.917 2.937
106919. 2.21460 2.94(4) 738. 2.918 2.939
106951. 2.21527 2.94(4) 729. 2.918 2.941
106983. 2.21593 3.00(4) 711. 2.918 2.943
107015. 2.21660 2.93(4) 738. 2.918 2.946
107047. 2.21726 2.94(4) 725. 2.918 2.949
107080. 2.21793 2.94(4) 712. 2.918 2.954
107112. 2.21859 2.98(4) 704. 2.919 2.959
107144. 2.21926 3.01(4) 694. 2.919 2.966
107176. 2.21992 2.95(4) 708. 2.919 2.974
107208. 2.22059 2.94(4) 700. 2.919 2.986
107240. 2.22126 3.01(4) 678. 2.919 3.002
107273. 2.22192 3.01(4) 678. 2.919 3.025
107305. 2.22259 3.01(4) 684. 2.920 3.061
107337. 2.22326 3.10(4) 662. 2.920 3.115
107369. 2.22392 3.20(4) 634. 2.920 3.211
107401. 2.22459 3.41(4) 585. 2.920 3.370
107434. 2.22526 3.66(4) 534. 2.920 3.596
107466. 2.22593 3.91(5) 486. 2.921 3.801
107498. 2.22659 3.92(5) 484. 2.921 3.824
107530. 2.22726 3.76(4) 517. 2.921 3.681
107562. 2.22793 3.59(4) 552. 2.921 3.493
107595. 2.22860 3.38(4) 592. 2.921 3.330
107627. 2.22927 3.23(4) 634. 2.921 3.209
107659. 2.22994 3.13(4) 662. 2.922 3.126
107692. 2.23061 3.02(4) 680. 2.922 3.070
107724. 2.23128 3.00(4) 689. 2.922 3.032
107756. 2.23194 3.07(4) 672. 2.922 3.006
107789. 2.23261 3.06(4) 677. 2.922 2.988
107821. 2.23328 3.01(4) 698. 2.922 2.976
107853. 2.23395 2.99(4) 705. 2.923 2.966
107886. 2.23463 2.97(4) 710. 2.923 2.959
107918. 2.23530 2.96(4) 716. 2.923 2.954
107950. 2.23597 2.98(4) 704. 2.923 2.950
107983. 2.23664 2.98(4) 708. 2.923 2.947
108015. 2.23731 3.00(4) 697. 2.923 2.944
108048. 2.23798 3.01(4) 702. 2.924 2.942
108080. 2.23865 2.95(4) 724. 2.924 2.940
108112. 2.23932 3.00(4) 700. 2.924 2.939
108145. 2.23999 2.95(4) 717. 2.924 2.938
108177. 2.24067 2.96(4) 716. 2.924 2.937
108210. 2.24134 3.04(4) 680. 2.924 2.936
108242. 2.24201 3.00(4) 682. 2.925 2.935
108275. 2.24268 3.02(4) 682. 2.925 2.935
108307. 2.24336 3.00(4) 680. 2.925 2.934
108340. 2.24403 2.97(4) 684. 2.925 2.934
108372. 2.24470 2.99(4) 670. 2.925 2.934
108405. 2.24538 2.99(4) 675. 2.925 2.934
108437. 2.24605 2.99(4) 659. 2.925 2.933
108470. 2.24672 2.98(4) 660. 2.926 2.933
108502. 2.24740 2.97(4) 660. 2.926 2.933
108535. 2.24807 3.04(4) 633. 2.926 2.933
108567. 2.24875 2.96(4) 650. 2.926 2.934
108600. 2.24942 3.02(4) 642. 2.926 2.934
108632. 2.25010 3.00(4) 643. 2.926 2.934
108665. 2.25077 3.02(4) 627. 2.927 2.934
108698. 2.25145 2.98(4) 634. 2.927 2.935
108730. 2.25212 3.00(4) 631. 2.927 2.935
108763. 2.25280 3.03(4) 617. 2.927 2.935
108796. 2.25347 2.98(4) 633. 2.927 2.936
108828. 2.25415 2.99(4) 625. 2.927 2.937
108861. 2.25483 2.99(4) 624. 2.927 2.938
108893. 2.25550 2.98(4) 625. 2.928 2.939
108926. 2.25618 2.99(4) 621. 2.928 2.940
108959. 2.25686 3.05(4) 609. 2.928 2.942
108992. 2.25753 3.02(4) 620. 2.928 2.945
109024. 2.25821 3.05(4) 614. 2.928 2.948
109057. 2.25889 3.03(4) 620. 2.928 2.952
109090. 2.25957 3.07(4) 613. 2.928 2.957
109122. 2.26025 3.00(4) 635. 2.929 2.966
109155. 2.26092 3.06(4) 624. 2.929 2.979
109188. 2.26160 3.09(4) 615. 2.929 3.001
109221. 2.26228 3.13(4) 612. 2.929 3.038
109253. 2.26296 3.12(4) 619. 2.929 3.096
109286. 2.26364 3.21(4) 597. 2.929 3.168
109319. 2.26432 3.26(4) 588. 2.929 3.209
109352. 2.26500 3.22(4) 596. 2.929 3.188
109385. 2.26568 3.16(4) 612. 2.930 3.134
109417. 2.26636 3.13(4) 633. 2.930 3.079
109450. 2.26704 3.12(4) 630. 2.930 3.036
109483. 2.26772 3.06(4) 644. 2.930 3.005
109516. 2.26840 3.09(4) 634. 2.930 2.985
109549. 2.26908 3.00(4) 661. 2.930 2.971
109582. 2.26976 3.02(4) 662. 2.930 2.962
109614. 2.27044 3.03(4) 657. 2.931 2.955
109647. 2.27112 3.00(4) 664. 2.931 2.951
109680. 2.27180 2.99(4) 660. 2.931 2.948
109713. 2.27248 3.01(4) 652. 2.931 2.946
109746. 2.27317 3.01(4) 653. 2.931 2.944
109779. 2.27385 2.95(4) 675. 2.931 2.943
109812. 2.27453 2.97(4) 662. 2.931 2.942
109845. 2.27521 3.01(4) 643. 2.931 2.941
109878. 2.27590 2.95(4) 655. 2.932 2.941
109911. 2.27658 2.96(4) 647. 2.932 2.940
109944. 2.27726 2.94(4) 651. 2.932 2.939
109977. 2.27794 3.01(4) 619. 2.932 2.939
110010. 2.27863 2.95(4) 640. 2.932 2.939
110043. 2.27931 2.97(4) 639. 2.932 2.939
110076. 2.28000 2.96(4) 634. 2.932 2.939
110109. 2.28068 3.01(4) 610. 2.932 2.939
110142. 2.28136 2.98(4) 610. 2.932 2.939
110175. 2.28205 3.04(4) 600. 2.933 2.939
110208. 2.28273 2.99(4) 598. 2.933 2.939
110241. 2.28342 3.00(4) 595. 2.933 2.939
110274. 2.28410 3.02(4) 584. 2.933 2.940
110307. 2.28479 2.97(4) 609. 2.933 2.940
110340. 2.28547 2.91(4) 627. 2.933 2.940
110373. 2.28616 2.97(4) 599. 2.933 2.940
110406. 2.28685 2.95(4) 610. 2.933 2.941
110440. 2.28753 2.92(4) 613. 2.933 2.941
110473. 2.28822 2.93(4) 615. 2.934 2.942
110506. 2.28891 2.94(4) 618. 2.934 2.942
110539. 2.28959 2.97(4) 607. 2.934 2.943
110572. 2.29028 2.94(4) 625. 2.934 2.944
110605. 2.29097 2.95(4) 617. 2.934 2.944
110638. 2.29165 2.95(4) 619. 2.934 2.945
110672. 2.29234 2.95(4) 624. 2.934 2.946
110705. 2.29303 2.95(4) 621. 2.934 2.948
110738. 2.29372 2.97(4) 624. 2.934 2.949
110771. 2.29440 2.96(4) 631. 2.934 2.951
110805. 2.29509 2.99(4) 619. 2.935 2.954
110838. 2.29578 2.90(4) 648. 2.935 2.957
110871. 2.29647 2.93(4) 643. 2.935 2.962
110904. 2.29716 2.99(4) 628. 2.935 2.968
110938. 2.29785 2.96(4) 641. 2.935 2.978
110971. 2.29854 2.98(4) 634. 2.935 2.994
111004. 2.29923 2.99(4) 642. 2.935 3.020
111037. 2.29992 3.00(4) 633. 2.935 3.059
111071. 2.30061 3.06(4) 616. 2.935 3.101
111104. 2.30130 3.02(4) 635. 2.935 3.115
111137. 2.30199 3.06(4) 612. 2.935 3.097
111171. 2.30268 3.08(4) 606. 2.935 3.067
111204. 2.30337 3.02(4) 622. 2.935 3.042
111237. 2.30406 3.03(4) 611. 2.936 3.026
111271. 2.30475 3.01(4) 623. 2.936 3.019
111304. 2.30544 3.01(4) 621. 2.936 3.021
111338. 2.30614 3.01(4) 613. 2.936 3.034
111371. 2.30683 3.05(4) 606. 2.936 3.060
111404. 2.30752 3.11(4) 587. 2.936 3.108
111438. 2.30821 3.21(4) 559. 2.936 3.186
111471. 2.30891 3.25(4) 549. 2.936 3.278
111505. 2.30960 3.31(4) 529. 2.936 3.322
111538. 2.31029 3.36(4) 511. 2.936 3.294
111572. 2.31098 3.20(4) 548. 2.936 3.239
111605. 2.31168 3.21(4) 543. 2.936 3.197
111639. 2.31237 3.26(4) 526. 2.936 3.185
111672. 2.31307 3.31(4) 510. 2.936 3.200
111706. 2.31376 3.27(4) 519. 2.936 3.209
111739. 2.31445 3.30(4) 511. 2.936 3.192
111773. 2.31515 3.22(4) 522. 2.936 3.167
111806. 2.31584 3.22(4) 525. 2.936 3.157
111840. 2.31654 3.18(4) 530. 2.936 3.178
111873. 2.31723 3.23(4) 516. 2.936 3.236
111907. 2.31793 3.39(5) 483. 2.936 3.308
111940. 2.31862 3.33(5) 494. 2.936 3.329
111974. 2.31932 3.29(4) 511. 2.936 3.280
112007. 2.32001 3.22(4) 522. 2.936 3.208
112041. 2.32071 3.13(4) 547. 2.936 3.145
112075. 2.32141 3.08(4) 554. 2.936 3.100
112108. 2.32210 3.04(4) 566. 2.936 3.074
112142. 2.32280 3.02(4) 576. 2.936 3.065
112176. 2.32350 3.09(4) 565. 2.937 3.072
112209. 2.32419 3.10(4) 565. 2.936 3.099
112243. 2.32489 3.17(4) 554. 2.936 3.156
112277. 2.32559 3.35(4) 516. 2.936 3.248
112310. 2.32629 3.40(4) 506. 2.936 3.341
112344. 2.32699 3.31(4) 534. 2.936 3.359
112378. 2.32768 3.25(4) 540. 2.936 3.297
112411. 2.32838 3.19(4) 558. 2.936 3.212
112445. 2.32908 3.09(4) 584. 2.936 3.138
112479. 2.32978 3.10(4) 586. 2.936 3.083
112513. 2.33048 3.01(4) 614. 2.936 3.046
112546. 2.33118 3.03(4) 606. 2.936 3.021
112580. 2.33188 3.00(4) 617. 2.936 3.007
112614. 2.33258 3.02(4) 608. 2.936 2.997
112648. 2.33328 3.05(4) 601. 2.936 2.993
112681. 2.33398 3.00(4) 616. 2.936 2.992
112715. 2.33468 3.05(4) 598. 2.936 2.995
112749. 2.33538 3.01(4) 599. 2.936 3.005
112783. 2.33608 3.04(4) 596. 2.936 3.024
112817. 2.33678 3.13(4) 571. 2.936 3.058
112851. 2.33748 3.19(4) 563. 2.936 3.110
112884. 2.33818 3.18(4) 562. 2.936 3.161
112918. 2.33888 3.27(4) 533. 2.936 3.168
112952. 2.33959 3.11(4) 573. 2.936 3.132
112986. 2.34029 3.08(4) 573. 2.936 3.085
113020. 2.34099 3.05(4) 568. 2.936 3.045
113054. 2.34169 3.00(4) 585. 2.935 3.015
113088. 2.34239 3.00(4) 570. 2.935 2.994
113122. 2.34310 3.04(4) 554. 2.935 2.981
113156. 2.34380 2.97(4) 581. 2.935 2.972
113190. 2.34450 3.06(4) 553. 2.935 2.965
113224. 2.34521 2.95(4) 578. 2.935 2.961
113258. 2.34591 2.96(4) 575. 2.935 2.958
113292. 2.34661 2.98(4) 567. 2.935 2.955
113325. 2.34732 2.89(4) 585. 2.935 2.953
113359. 2.34802 2.90(4) 582. 2.934 2.952
113394. 2.34873 2.80(4) 605. 2.934 2.950
113428. 2.34943 2.86(4) 584. 2.934 2.950
113462. 2.35014 2.81(4) 605. 2.934 2.949
113496. 2.35084 2.87(4) 588. 2.934 2.948
113530. 2.35155 2.88(4) 584. 2.934 2.948
113564. 2.35225 2.83(4) 604. 2.934 2.947
113598. 2.35296 2.87(4) 591. 2.933 2.947
113632. 2.35367 2.88(4) 587. 2.933 2.946
113666. 2.35437 2.83(4) 608. 2.933 2.946
113700. 2.35508 2.84(4) 618. 2.933 2.946
113734. 2.35578 2.83(4) 615. 2.933 2.946
113768. 2.35649 2.86(4) 602. 2.933 2.946
113802. 2.35720 2.90(4) 601. 2.932 2.946
113837. 2.35791 2.93(4) 590. 2.932 2.946
113871. 2.35861 2.94(4) 587. 2.932 2.946
113905. 2.35932 2.90(4) 607. 2.932 2.946
113939. 2.36003 2.90(4) 609. 2.932 2.946
113973. 2.36074 2.93(4) 597. 2.931 2.946
114007. 2.36145 2.87(4) 620. 2.931 2.947
114042. 2.36215 2.91(4) 609. 2.931 2.947
114076. 2.36286 2.89(4) 623. 2.931 2.947
114110. 2.36357 2.88(4) 618. 2.930 2.948
114144. 2.36428 2.88(4) 622. 2.930 2.948
114179. 2.36499 2.87(4) 622. 2.930 2.949
114213. 2.36570 2.89(4) 614. 2.930 2.950
114247. 2.36641 2.90(4) 611. 2.929 2.951
114281. 2.36712 2.98(4) 589. 2.929 2.952
114316. 2.36783 2.87(4) 631. 2.929 2.953
114350. 2.36854 2.90(4) 612. 2.929 2.955
114384. 2.36925 2.93(4) 598. 2.928 2.957
114418. 2.36996 2.97(4) 578. 2.928 2.959
114453. 2.37067 2.91(4) 592. 2.928 2.961
114487. 2.37138 2.89(4) 602. 2.928 2.964
114521. 2.37210 2.88(4) 596. 2.927 2.967
114556. 2.37281 2.92(4) 580. 2.927 2.971
114590. 2.37352 3.03(4) 542. 2.927 2.976
114625. 2.37423 2.97(4) 562. 2.926 2.982
114659. 2.37494 2.97(4) 566. 2.926 2.989
114693. 2.37566 2.97(4) 556. 2.926 2.998
114728. 2.37637 2.93(4) 566. 2.925 3.009
114762. 2.37708 3.00(4) 548. 2.925 3.024
114797. 2.37780 3.05(4) 529. 2.925 3.043
114831. 2.37851 3.10(4) 515. 2.924 3.070
114866. 2.37922 3.06(4) 528. 2.924 3.107
114900. 2.37994 3.20(4) 497. 2.923 3.161
114934. 2.38065 3.35(5) 473. 2.923 3.247
114969. 2.38137 3.46(5) 450. 2.923 3.388
115003. 2.38208 3.62(5) 427. 2.922 3.619
115038. 2.38279 3.86(5) 399. 2.922 3.959
115072. 2.38351 4.18(5) 359. 2.921 4.290
115107. 2.38422 4.38(5) 335.7 2.921 4.404
115141. 2.38494 4.40(5) 338.5 2.921 4.363
115176. 2.38566 4.36(5) 344.7 2.920 4.359
115211. 2.38637 4.37(5) 345.1 2.920 4.394
115245. 2.38709 4.14(5) 373. 2.919 4.286
115280. 2.38780 3.88(5) 410. 2.919 4.026
115314. 2.38852 3.59(5) 454. 2.918 3.748
115349. 2.38924 3.39(5) 489. 2.918 3.524
115384. 2.38995 3.25(4) 515. 2.917 3.365
115418. 2.39067 3.14(4) 542. 2.917 3.261
115453. 2.39139 3.10(4) 554. 2.916 3.196
115487. 2.39211 3.11(4) 545. 2.916 3.158
115522. 2.39282 3.03(4) 573. 2.915 3.143
115557. 2.39354 3.08(4) 563. 2.915 3.149
115591. 2.39426 3.08(4) 569. 2.914 3.180
115626. 2.39498 3.18(4) 553. 2.914 3.250
115661. 2.39570 3.39(4) 513. 2.913 3.380
115695. 2.39641 3.62(5) 469. 2.913 3.592
115730. 2.39713 3.87(5) 432. 2.912 3.823
115765. 2.39785 3.85(5) 431. 2.912 3.889
115800. 2.39857 3.65(5) 456. 2.911 3.752
115834. 2.39929 3.43(4) 495. 2.910 3.549
115869. 2.40001 3.33(4) 511. 2.910 3.369
115904. 2.40073 3.23(4) 519. 2.909 3.236
115939. 2.40145 3.12(4) 546. 2.909 3.145
115973. 2.40217 3.04(4) 554. 2.908 3.083
116008. 2.40289 2.99(4) 562. 2.907 3.041
116043. 2.40362 2.98(4) 561. 2.907 3.013
116078. 2.40434 2.91(4) 575. 2.906 2.993
116113. 2.40506 2.96(4) 562. 2.906 2.978
116147. 2.40578 2.88(4) 580. 2.905 2.967
116182. 2.40650 2.92(4) 561. 2.904 2.958
116217. 2.40722 2.94(4) 555. 2.904 2.951
116252. 2.40795 2.90(4) 560. 2.903 2.945
116287. 2.40867 2.85(4) 575. 2.902 2.940
116322. 2.40939 2.94(4) 546. 2.901 2.936
116357. 2.41011 2.81(4) 581. 2.901 2.933
116392. 2.41084 2.93(4) 539. 2.900 2.930
116426. 2.41156 2.81(4) 575. 2.899 2.927
116461. 2.41228 2.90(4) 544. 2.899 2.924
116496. 2.41301 2.84(4) 560. 2.898 2.922
116531. 2.41373 2.82(4) 564. 2.897 2.920
116566. 2.41446 2.85(4) 559. 2.896 2.918
116601. 2.41518 2.89(4) 553. 2.896 2.917
116636. 2.41590 2.85(4) 564. 2.895 2.915
116671. 2.41663 2.82(4) 574. 2.894 2.914
116706. 2.41736 2.82(4) 572. 2.893 2.912
116741. 2.41808 2.89(4) 559. 2.892 2.911
116776. 2.41881 2.80(4) 585. 2.892 2.910
116811. 2.41953 2.86(4) 566. 2.891 2.909
116846. 2.42026 2.87(4) 569. 2.890 2.908
116881. 2.42098 2.86(4) 566. 2.889 2.907
116916. 2.42171 2.94(4) 549. 2.888 2.906
116952. 2.42244 2.93(4) 561. 2.887 2.906
116987. 2.42316 2.90(4) 567. 2.887 2.905
117022. 2.42389 2.81(4) 599. 2.886 2.905
117057. 2.42462 2.89(4) 576. 2.885 2.904
117092. 2.42535 2.86(4) 584. 2.884 2.904
117127. 2.42607 2.90(4) 576. 2.883 2.904
117162. 2.42680 2.87(4) 588. 2.882 2.904
117197. 2.42753 2.84(4) 588. 2.881 2.905
117232. 2.42826 2.93(4) 562. 2.880 2.906
117268. 2.42899 2.93(4) 558. 2.879 2.908
117303. 2.42972 2.95(4) 555. 2.878 2.912
117338. 2.43044 2.91(4) 566. 2.877 2.917
117373. 2.43117 2.95(4) 561. 2.876 2.927
117408. 2.43190 3.00(4) 531. 2.875 2.943
117444. 2.43263 2.91(4) 559. 2.875 2.970
117479. 2.43336 2.98(4) 532. 2.874 3.006
117514. 2.43409 3.05(4) 516. 2.873 3.028
117549. 2.43482 3.01(4) 515. 2.872 3.018
117585. 2.43555 3.01(4) 511. 2.870 2.991
117620. 2.43628 3.01(4) 509. 2.869 2.964
117655. 2.43702 2.93(4) 522. 2.868 2.943
117691. 2.43775 2.99(4) 500. 2.867 2.929
117726. 2.43848 2.87(4) 535. 2.866 2.921
117761. 2.43921 2.95(4) 505. 2.865 2.917
117796. 2.43994 3.01(5) 492. 2.864 2.914
117832. 2.44067 3.00(5) 479. 2.863 2.914
117867. 2.44141 2.94(4) 500. 2.862 2.915
117903. 2.44214 2.94(4) 495. 2.861 2.918
117938. 2.44287 2.97(5) 488. 2.860 2.923
117973. 2.44360 3.02(5) 479. 2.859 2.930
118009. 2.44434 3.02(5) 475. 2.858 2.939
118044. 2.44507 2.97(5) 485. 2.856 2.951
118079. 2.44580 3.05(5) 469. 2.855 2.967
118115. 2.44654 3.13(5) 456. 2.854 2.989
118150. 2.44727 3.10(5) 459. 2.853 3.020
118186. 2.44801 3.22(5) 442. 2.852 3.064
118221. 2.44874 3.24(5) 444. 2.851 3.131
118257. 2.44948 3.48(5) 409. 2.849 3.237
118292. 2.45021 3.67(5) 384. 2.848 3.415
118328. 2.45095 3.96(5) 354. 2.847 3.714
118363. 2.45168 4.29(6) 325.7 2.846 4.184
118399. 2.45242 4.75(6) 281.2 2.845 4.700
118434. 2.45315 4.99(6) 260.3 2.843 4.864
118470. 2.45389 4.66(6) 289.3 2.842 4.589
118505. 2.45463 4.23(5) 331.4 2.841 4.167
118541. 2.45536 3.96(5) 364. 2.840 3.801
118576. 2.45610 3.68(5) 399. 2.838 3.545
118612. 2.45684 3.46(5) 426. 2.837 3.392
118648. 2.45757 3.46(5) 428. 2.836 3.328
118683. 2.45831 3.44(5) 430. 2.835 3.333
118719. 2.45905 3.46(5) 431. 2.833 3.345
118754. 2.45979 3.40(5) 436. 2.832 3.293
118790. 2.46052 3.20(5) 466. 2.831 3.199
118826. 2.46126 3.18(5) 471. 2.829 3.107
118861. 2.46200 3.07(5) 492. 2.828 3.034
118897. 2.46274 3.05(5) 491. 2.827 2.982
118933. 2.46348 3.03(5) 491. 2.825 2.946
118968. 2.46422 2.95(4) 506. 2.824 2.920
119004. 2.46496 3.03(5) 484. 2.823 2.901
119040. 2.46570 2.94(4) 507. 2.821 2.887
119075. 2.46644 2.97(5) 486. 2.820 2.876
119111. 2.46718 2.98(5) 484. 2.818 2.867
119147. 2.46792 2.92(4) 498. 2.817 2.860
119183. 2.46866 2.94(5) 481. 2.816 2.854
119218. 2.46940 2.94(5) 478. 2.814 2.848
119254. 2.47014 2.94(5) 474. 2.813 2.844
119290. 2.47088 2.92(5) 474. 2.811 2.840
119326. 2.47162 2.85(5) 482. 2.810 2.836
119361. 2.47236 2.86(5) 479. 2.809 2.832
119397. 2.47310 2.83(5) 487. 2.807 2.829
119433. 2.47385 2.83(4) 495. 2.806 2.826
119469. 2.47459 2.87(5) 481. 2.804 2.824
119505. 2.47533 2.89(5) 477. 2.803 2.824
119541. 2.47607 2.91(5) 465. 2.801 2.821
119576. 2.47682 2.90(5) 469. 2.800 2.819
119612. 2.47756 2.97(5) 455. 2.798 2.817
119648. 2.47830 2.99(5) 429. 2.797 2.815
119684. 2.47905 2.91(5) 451. 2.796 2.814
119720. 2.47979 2.87(5) 465. 2.794 2.812
119756. 2.48053 2.91(5) 449. 2.793 2.811
119792. 2.48128 2.87(5) 456. 2.791 2.810
119828. 2.48202 2.84(5) 459. 2.790 2.808
119864. 2.48277 2.89(5) 448. 2.788 2.807
119900. 2.48351 2.86(5) 445. 2.787 2.805
119936. 2.48426 2.91(5) 437. 2.785 2.804
119972. 2.48500 2.93(5) 426. 2.784 2.803
120008. 2.48575 2.88(5) 438. 2.782 2.802
120044. 2.48650 2.84(5) 452. 2.780 2.800
120080. 2.48724 2.80(5) 462. 2.779 2.799
120116. 2.48799 2.76(5) 458. 2.777 2.799
120152. 2.48873 2.81(5) 459. 2.776 2.798
120188. 2.48948 2.85(5) 452. 2.774 2.798
120224. 2.49023 2.94(5) 425. 2.773 2.797
120260. 2.49098 2.86(5) 440. 2.771 2.798
120296. 2.49172 2.87(5) 445. 2.770 2.798
120332. 2.49247 2.85(5) 440. 2.768 2.799
120368. 2.49322 2.79(5) 462. 2.767 2.801
120404. 2.49397 2.83(5) 446. 2.765 2.804
120440. 2.49471 2.82(5) 444. 2.763 2.808
120477. 2.49546 2.83(5) 430. 2.762 2.815
120513. 2.49621 2.83(5) 440. 2.760 2.824
120549. 2.49696 2.84(5) 429. 2.759 2.839
120585. 2.49771 2.91(5) 421. 2.757 2.863
120621. 2.49846 2.93(5) 404. 2.755 2.903
120657. 2.49921 2.97(5) 403. 2.754 2.970
120694. 2.49996 3.08(5) 378. 2.752 3.074
120730. 2.50071 3.16(5) 361. 2.751 3.207
120766. 2.50146 3.23(5) 345.3 2.749 3.288
120802. 2.50221 3.12(5) 361. 2.748 3.244
120838. 2.50296 3.13(5) 356. 2.746 3.134
120875. 2.50371 3.00(5) 375. 2.744 3.027
120911. 2.50446 2.89(5) 392. 2.743 2.945
120947. 2.50521 2.86(5) 394. 2.741 2.889
120984. 2.50597 2.79(5) 397. 2.740 2.851
121020. 2.50672 2.87(5) 385. 2.738 2.826
121056. 2.50747 2.86(5) 387. 2.736 2.810
121092. 2.50822 2.76(5) 403. 2.735 2.797
121129. 2.50898 2.79(5) 401. 2.733 2.788
121165. 2.50973 2.77(5) 401. 2.732 2.782
121201. 2.51048 2.75(5) 405. 2.730 2.778
121238. 2.51123 2.80(5) 402. 2.728 2.774
121274. 2.51199 2.79(5) 400. 2.727 2.772
121311. 2.51274 2.70(5) 424. 2.725 2.771
121347. 2.51350 2.69(5) 416. 2.724 2.770
121383. 2.51425 2.73(5) 416. 2.722 2.769
121420. 2.51500 2.81(5) 398. 2.721 2.769
121456. 2.51576 2.67(5) 427. 2.719 2.770
121493. 2.51651 2.67(5) 436. 2.717 2.771
121529. 2.51727 2.61(5) 462. 2.716 2.773
121566. 2.51802 2.72(5) 433. 2.714 2.776
121602. 2.51878 2.74(5) 444. 2.713 2.779
121638. 2.51954 2.70(5) 458. 2.711 2.784
121675. 2.52029 2.76(5) 459. 2.710 2.789
121711. 2.52105 2.77(5) 454. 2.708 2.796
121748. 2.52180 2.70(5) 469. 2.706 2.805
121785. 2.52256 2.77(5) 447. 2.705 2.816
121821. 2.52332 2.74(5) 454. 2.703 2.829
121858. 2.52407 2.82(5) 437. 2.702 2.847
121894. 2.52483 2.81(5) 431. 2.700 2.869
121931. 2.52559 2.87(5) 425. 2.699 2.898
121967. 2.52635 2.87(5) 423. 2.697 2.937
122004. 2.52711 2.81(5) 435. 2.696 2.991
122041. 2.52786 2.87(5) 420. 2.694 3.068
122077. 2.52862 3.09(5) 382. 2.693 3.181
122114. 2.52938 3.27(5) 356. 2.691 3.358
122150. 2.53014 3.55(6) 322.9 2.690 3.649
122187. 2.53090 4.21(6) 255.9 2.688 4.137
122224. 2.53166 4.90(7) 206.3 2.687 4.887
122260. 2.53242 5.55(8) 170.1 2.685 5.643
122297. 2.53318 5.43(8) 173.8 2.684 5.819
122334. 2.53394 5.30(7) 178.1 2.682 5.496
122370. 2.53470 5.03(7) 189.3 2.681 5.180
122407. 2.53546 4.89(7) 194.5 2.679 5.121
122444. 2.53622 5.02(7) 184.6 2.678 5.181
122481. 2.53698 4.99(7) 184.0 2.677 5.076
122517. 2.53774 4.77(7) 194.5 2.675 4.888
122554. 2.53850 4.49(7) 206.9 2.674 4.704
122591. 2.53926 4.23(7) 221.4 2.672 4.392
122628. 2.54003 3.72(6) 263.3 2.671 3.991
122664. 2.54079 3.44(6) 289.0 2.669 3.633
122701. 2.54155 3.29(6) 301.9 2.668 3.365
122738. 2.54231 3.09(6) 324.2 2.667 3.178
122775. 2.54308 2.93(5) 347.8 2.665 3.050
122812. 2.54384 2.81(5) 368. 2.664 2.962
122849. 2.54460 2.86(5) 353. 2.663 2.900
122885. 2.54537 2.74(5) 376. 2.661 2.855
122922. 2.54613 2.73(5) 371. 2.660 2.821
122959. 2.54689 2.75(5) 373. 2.659 2.796
122996. 2.54766 2.80(5) 365. 2.657 2.775
123033. 2.54842 2.75(5) 372. 2.656 2.759
123070. 2.54919 2.74(5) 374. 2.655 2.745
123107. 2.54995 2.73(5) 371. 2.653 2.734
123144. 2.55072 2.75(5) 365. 2.652 2.724
123181. 2.55148 2.72(5) 368. 2.651 2.716
123218. 2.55225 2.75(5) 365. 2.650 2.708
123255. 2.55301 2.74(5) 373. 2.648 2.702
123292. 2.55378 2.70(5) 374. 2.647 2.696
123328. 2.55455 2.66(5) 383. 2.646 2.691
123365. 2.55531 2.72(5) 365. 2.645 2.686
123402. 2.55608 2.74(5) 357. 2.643 2.682
123440. 2.55685 2.74(5) 356. 2.642 2.677
123477. 2.55761 2.81(5) 334.6 2.641 2.674
123514. 2.55838 2.75(5) 345.4 2.640 2.671
123551. 2.55915 2.71(5) 348.8 2.639 2.668
123588. 2.55992 2.76(5) 338.7 2.638 2.665
123625. 2.56068 2.78(6) 328.3 2.636 2.662
123662. 2.56145 2.71(5) 332.4 2.635 2.659
123699. 2.56222 2.76(6) 326.8 2.634 2.657
123736. 2.56299 2.79(6) 318.1 2.633 2.655
123773. 2.56376 2.83(6) 302.7 2.632 2.652
123810. 2.56453 2.85(6) 297.7 2.631 2.650
123847. 2.56530 2.88(6) 286.1 2.630 2.648
123885. 2.56607 2.77(6) 298.1 2.629 2.646
123922. . 2.91(6) . . .
123959. . 2.74(6) . . .
123996. . 2.72(6) . . .
124033. . 2.83(6) . . .
124071. . 2.83(6) . . .
124108. . 2.85(6) . . .
124145. . 2.73(6) . . .
124182. . 2.75(6) . . .
124220. . 2.75(6) . . .
124257. . 2.84(6) . . .
124294. . 2.82(6) . . .
124331. . 2.87(6) . . .
124369. . 2.76(6) . . .
124406. . 2.76(6) . . .
124443. . 2.69(6) . . .
124481. . 2.77(6) . . .
124518. . 2.81(6) . . .
124555. . 2.76(6) . . .
124593. . 2.74(6) . . .
124630. . 2.81(6) . . .
124667. . 2.73(6) . . .
124705. . 2.84(6) . . .
124742. . 2.78(6) . . .
124780. . 2.67(6) . . .
124817. . 2.71(6) . . .
124855. . 2.71(6) . . .
124892. . 2.75(6) . . .
124929. . 2.71(6) . . .
124967. . 2.67(6) . . .
125005. . -0.000820(18) . . .
loop_
_refln_index_h
_refln_index_k
_refln_index_l
_pd_refln_phase_id
_refln_observed_status
_refln_F_squared_meas
_refln_F_squared_calc
_refln_phase_calc
_refln_d_spacing
_gsas_i100_meas
1 4 0 1 o 13.741 14.896 180.00 2.53869 19.97
1 4 -1 1 o 21.488 22.729 0.00 2.53633 30.30
0 2 5 1 o 47.117 50.199 180.00 2.53267 58.40
0 5 1 1 o 9.306 8.969 0.00 2.50140 11.52
1 0 4 1 o 1.073 0.954 0.00 2.49991 0.67
1 4 1 1 o 7.585 5.499 180.00 2.45911 10.13
1 1 4 1 o 19.455 15.751 180.00 2.45297 23.05
1 4 -2 1 o 25.241 20.364 0.00 2.45269 31.15
1 1 -5 1 o 2.528 2.384 180.00 2.43401 3.08
1 3 3 1 o 12.997 16.558 0.00 2.39750 15.82
0 5 2 1 o 16.282 20.264 0.00 2.38663 17.38
1 3 -4 1 o 19.400 22.796 0.00 2.38369 21.84
0 4 4 1 o 4.571 4.606 180.00 2.33843 4.63
1 2 4 1 o 8.228 8.424 180.00 2.32657 8.30
1 4 2 1 o 6.840 6.582 180.00 2.31830 7.45
0 3 5 1 o 4.528 3.780 180.00 2.31364 4.25
1 2 -5 1 o 0.026 0.024 180.00 2.31037 0.03
1 4 -3 1 o 7.710 7.259 0.00 2.30936 7.64
0 0 6 1 o 7.400 8.232 0.00 2.30095 3.02
0 1 6 1 o 15.142 7.335 0.00 2.26419 11.87
0 5 3 1 o 27.895 22.271 0.00 2.22610 23.59
1 5 0 1 o 1.368 1.544 180.00 2.17800 1.11
1 5 -1 1 o 13.238 15.387 180.00 2.17650 10.49
0 2 6 1 o 4.409 4.759 0.00 2.16365 3.05
1 0 -6 1 o 0.096 0.110 180.00 2.15482 0.04
1 3 4 1 o 30.326 33.849 0.00 2.15336 23.72
1 4 3 1 o 39.157 39.056 0.00 2.14544 31.67
1 3 -5 1 o 1.601 1.794 0.00 2.14050 1.21
1 1 5 1 o 18.138 20.625 180.00 2.13994 12.31
1 4 -4 1 o 9.497 10.227 180.00 2.13552 7.09
1 5 1 1 o 0.105 0.105 0.00 2.12712 0.08
1 1 -6 1 o 27.911 27.197 0.00 2.12454 20.44
1 5 -2 1 o 13.735 13.911 0.00 2.12296 9.87
0 6 0 1 o 70.320 76.368 180.00 2.11958 23.78
2 0 0 1 o 0.000 0.000 180.00 2.10850 0.00
2 0 -2 1 o 18.174 16.976 180.00 2.10311 8.31
1 1 0 2 o 0.007 0.007 180.00 2.13803 30.26
2 1 -1 1 o 29.876 28.034 180.00 2.10144 28.05
0 6 1 1 o 1.954 1.953 180.00 2.09503 1.28
0 4 5 1 o 35.995 38.368 180.00 2.08472 23.83
2 1 0 1 o 0.405 0.443 0.00 2.08011 0.38
2 1 -2 1 o 8.608 8.650 180.00 2.07493 7.42
1 2 5 1 o 7.025 8.378 180.00 2.05446 4.25
0 5 4 1 o 35.879 37.065 0.00 2.04756 22.59
1 2 -6 1 o 1.648 1.891 0.00 2.04082 1.04
1 5 2 1 o 7.226 6.329 0.00 2.03401 4.76
1 5 -3 1 o 30.174 26.327 180.00 2.02796 18.37
0 6 2 1 o 40.329 36.970 0.00 2.02621 23.69
0 3 6 1 o 1.933 1.753 0.00 2.02226 1.09
2 2 -1 1 o 55.226 50.802 0.00 2.02032 43.45
2 1 1 1 o 0.502 0.423 180.00 2.01506 0.42
2 1 -3 1 o 33.845 29.714 0.00 2.00567 24.74
2 2 0 1 o 7.913 7.015 180.00 2.00134 6.19
2 2 -2 1 o 2.561 2.792 0.00 1.99673 1.86
1 4 4 1 o 18.321 20.281 0.00 1.96518 10.43
1 4 -5 1 o 0.886 1.469 180.00 1.95539 0.48
0 1 7 1 o 5.340 5.610 180.00 1.94894 2.42
2 2 1 1 o 27.028 27.724 0.00 1.94321 19.19
2 0 2 1 o 0.416 0.461 180.00 1.93983 0.15
2 2 -3 1 o 5.054 5.508 180.00 1.93479 3.16
1 3 5 1 o 16.651 16.781 0.00 1.93226 8.36
2 0 -4 1 o 3.220 3.773 0.00 1.92730 0.99
0 6 3 1 o 0.879 1.055 180.00 1.92519 0.44
1 3 -6 1 o 4.003 4.495 0.00 1.92090 2.03
2 1 2 1 o 2.976 3.543 0.00 1.91765 2.03
1 5 3 1 o 0.317 0.386 180.00 1.91424 0.17
1 0 6 1 o 32.084 34.086 180.00 1.90741 6.79
1 5 -4 1 o 50.173 53.114 0.00 1.90719 24.50
2 1 -4 1 o 0.754 0.769 0.00 1.90554 0.44
2 3 -1 1 o 12.287 12.189 0.00 1.90378 7.44
1 6 0 1 o 2.112 2.253 180.00 1.89382 1.01
1 6 -1 1 o 16.072 16.833 180.00 1.89284 7.54
2 3 0 1 o 58.232 57.795 180.00 1.88787 35.14
1 1 6 1 o 0.384 0.381 180.00 1.88631 0.16
2 3 -2 1 o 4.142 4.187 0.00 1.88400 2.34
0 2 7 1 o 1.157 1.180 0.00 1.88371 0.48
1 1 -7 1 o 9.313 10.500 0.00 1.87384 4.26
0 5 5 1 o 65.017 67.226 0.00 1.87074 29.38
0 4 6 1 o 0.150 0.149 0.00 1.86401 0.07
1 6 1 1 o 0.009 0.009 0.00 1.86008 0.00
1 6 -2 1 o 8.959 8.529 180.00 1.85730 3.90
2 2 2 1 o 88.803 87.049 180.00 1.85541 52.40
2 2 -4 1 o 0.093 0.093 180.00 1.84444 0.05
2 3 1 1 o 34.045 30.486 0.00 1.83884 18.92
2 3 -3 1 o 0.220 0.197 0.00 1.83170 0.11
1 2 6 1 o 19.469 19.385 180.00 1.82698 7.37
1 2 -7 1 o 5.922 6.006 180.00 1.81564 2.42
0 6 4 1 o 7.487 6.275 0.00 1.80618 2.97
2 1 3 1 o 15.453 16.529 0.00 1.80163 7.97
0 7 1 1 o 0.477 0.513 0.00 1.80125 0.18
1 6 2 1 o 0.021 0.023 180.00 1.79686 0.01
1 4 5 1 o 1.924 1.861 180.00 1.79283 0.75
1 6 -3 1 o 30.365 29.311 180.00 1.79268 11.64
2 1 -5 1 o 23.604 21.542 0.00 1.78827 10.61
0 3 7 1 o 23.385 21.347 0.00 1.78819 8.30
1 4 -6 1 o 0.015 0.013 0.00 1.78374 0.01
1 5 4 1 o 11.133 10.111 180.00 1.78291 4.45
1 5 -5 1 o 0.428 0.275 180.00 1.77559 0.16
2 4 -1 1 o 17.497 14.794 180.00 1.77001 7.74
2 3 2 1 o 38.688 34.289 180.00 1.76392 18.31
2 4 0 1 o 1.107 0.984 0.00 1.75720 0.49
0 7 2 1 o 14.744 13.076 0.00 1.75695 5.12
2 3 -4 1 o 7.005 6.442 0.00 1.75449 2.89
2 4 -2 1 o 17.811 16.536 180.00 1.75407 7.43
2 2 3 1 o 63.127 61.336 0.00 1.74973 28.78
1 3 6 1 o 47.606 46.871 0.00 1.73944 15.64
2 2 -5 1 o 0.309 0.284 0.00 1.73748 0.12
1 3 -7 1 o 0.022 0.030 180.00 1.72964 0.01
0 0 8 1 o 5.996 9.006 0.00 1.72571 0.86
2 4 1 1 o 93.534 97.308 180.00 1.71746 38.61
1 6 3 1 o 10.163 10.471 0.00 1.71269 3.51
2 4 -3 1 o 23.018 23.910 180.00 1.71163 8.58
0 1 8 1 o 26.987 28.108 0.00 1.71004 7.56
1 6 -4 1 o 28.176 29.303 180.00 1.70763 9.08
0 5 6 1 o 2.095 2.194 0.00 1.70634 0.67
2 0 4 1 o 7.179 5.948 180.00 1.69384 1.38
0 7 3 1 o 16.307 15.949 180.00 1.68986 4.98
1 0 -8 1 o 78.746 75.029 180.00 1.68464 12.03
0 6 5 1 o 1.092 1.208 180.00 1.68132 0.33
1 1 7 1 o 19.736 22.546 0.00 1.68024 5.19
2 0 -6 1 o 1.087 1.245 0.00 1.67998 0.19
2 1 4 1 o 19.638 22.476 0.00 1.67901 7.28
0 4 7 1 o 0.026 0.031 180.00 1.67597 0.01
2 3 3 1 o 4.408 4.910 0.00 1.67238 1.66
1 1 -8 1 o 86.687 87.346 0.00 1.67006 25.68
1 7 0 1 o 0.847 0.897 180.00 1.66852 0.25
1 7 -1 1 o 18.798 20.524 0.00 1.66785 5.48
2 1 -6 1 o 31.108 36.851 180.00 1.66551 10.50
0 2 8 1 o 4.948 5.865 0.00 1.66547 1.29
2 3 -5 1 o 11.965 13.441 180.00 1.66167 3.96
2 4 2 1 o 111.472 112.145 0.00 1.65594 40.23
1 5 5 1 o 3.083 3.730 180.00 1.65123 0.91
2 4 -4 1 o 0.077 0.110 180.00 1.64813 0.02
1 7 1 1 o 4.305 5.293 180.00 1.64532 1.23
1 5 -6 1 o 10.461 12.482 180.00 1.64412 2.97
1 7 -2 1 o 4.132 4.940 180.00 1.64339 1.14
1 2 7 1 o 3.512 4.120 180.00 1.63790 0.87
2 2 4 1 o 14.499 16.543 0.00 1.63676 4.86
1 4 6 1 o 10.683 11.667 0.00 1.63564 2.89
2 5 -1 1 o 1.975 2.154 0.00 1.63335 0.62
1 2 -8 1 o 1.756 1.841 0.00 1.62846 0.48
1 4 -7 1 o 21.422 21.786 180.00 1.62748 5.86
2 2 -6 1 o 14.788 15.936 180.00 1.62424 4.50
2 5 0 1 o 10.303 11.003 0.00 1.62327 3.25
2 5 -2 1 o 2.012 1.909 180.00 1.62080 0.60
1 6 4 1 o 14.038 12.200 180.00 1.61670 3.90
1 6 -5 1 o 2.936 2.491 180.00 1.61123 0.77
0 7 4 1 o 6.984 6.487 180.00 1.60766 1.80
1 7 2 1 o 17.236 15.397 180.00 1.60107 4.53
0 3 8 1 o 17.093 16.102 180.00 1.59835 3.96
1 7 -3 1 o 48.078 45.333 0.00 1.59812 11.96
2 5 1 1 o 37.212 32.825 180.00 1.59178 11.11
0 8 0 1 o 10.500 8.924 180.00 1.58969 1.24
2 5 -3 1 o 4.666 3.402 180.00 1.58714 1.27
2 4 3 1 o 16.092 12.770 180.00 1.57951 4.78
0 8 1 1 o 8.296 6.562 0.00 1.57925 1.92
1 3 7 1 o 1.086 0.578 180.00 1.57393 0.24
2 3 4 1 o 1.267 0.666 180.00 1.57292 0.36
2 4 -5 1 o 2.641 1.290 180.00 1.57048 0.69
1 3 -8 1 o 0.417 0.246 180.00 1.56555 0.10
2 3 -6 1 o 19.149 16.726 180.00 1.56180 4.96
0 6 6 1 o 13.339 9.940 180.00 1.55895 3.08
0 5 7 1 o 0.451 0.326 0.00 1.55858 0.10
2 1 5 1 o 0.296 0.207 0.00 1.55821 0.08
0 8 2 1 o 7.108 5.707 180.00 1.54914 1.55
2 1 -7 1 o 9.489 8.970 0.00 1.54526 2.38
2 5 2 1 o 0.549 0.486 0.00 1.54244 0.15
1 7 3 1 o 0.095 0.088 180.00 1.54066 0.02
1 7 -4 1 o 22.797 23.521 180.00 1.53698 4.94
2 5 -4 1 o 1.968 2.040 0.00 1.53612 0.47
1 5 6 1 o 2.831 2.821 180.00 1.52599 0.61
2 2 5 1 o 17.026 18.497 0.00 1.52426 4.09
0 1 9 1 o 40.689 44.545 180.00 1.52293 7.42
1 0 8 1 o 12.732 14.010 0.00 1.52201 1.13
1 5 -7 1 o 7.017 8.087 180.00 1.51936 1.49
0 7 5 1 o 0.451 0.534 0.00 1.51771 0.09
0 4 8 1 o 1.845 2.185 180.00 1.51669 0.36
1 6 5 1 o 0.497 0.588 180.00 1.51659 0.11
2 2 -7 1 o 20.824 20.861 0.00 1.51213 4.78
1 1 8 1 o 0.001 0.001 0.00 1.51123 0.00
1 6 -6 1 o 0.084 0.081 180.00 1.51108 0.02
1 1 -9 1 o 22.983 24.023 180.00 1.50282 4.57
2 6 -1 1 o 44.945 46.975 0.00 1.50270 10.05
0 8 3 1 o 12.045 12.596 0.00 1.50256 2.37
1 4 7 1 o 11.860 12.903 180.00 1.49578 2.24
2 4 4 1 o 0.083 0.087 0.00 1.49492 0.02
2 6 0 1 o 1.022 1.069 0.00 1.49484 0.23
2 6 -2 1 o 21.431 21.688 0.00 1.49291 4.60
0 2 9 1 o 26.022 26.132 0.00 1.49119 4.48
1 4 -8 1 o 6.021 6.624 0.00 1.48859 1.18
1 8 0 1 o 1.428 1.767 180.00 1.48750 0.27
1 8 -1 1 o 5.573 7.256 0.00 1.48703 1.05
2 4 -6 1 o 0.706 1.005 0.00 1.48536 0.15
1 2 8 1 o 0.014 0.017 180.00 1.48020 0.00
2 5 3 1 o 24.250 29.571 180.00 1.48010 5.51
2 5 -5 1 o 1.939 2.406 180.00 1.47267 0.39
2 3 5 1 o 6.806 8.231 180.00 1.47230 1.44
1 2 -9 1 o 1.788 2.163 0.00 1.47230 0.33
1 8 1 1 o 5.341 5.987 0.00 1.47099 0.99
2 6 1 1 o 0.542 0.590 0.00 1.47014 0.12
1 7 4 1 o 0.792 0.853 0.00 1.46967 0.15
1 8 -2 1 o 49.819 53.585 0.00 1.46961 9.00
2 6 -3 1 o 20.806 21.887 0.00 1.46648 4.12
2 0 0 2 o 0.006 0.007 180.00 1.51182 4.16
1 7 -5 1 o 15.220 16.111 0.00 1.46556 2.78
2 3 -7 1 o 12.798 12.371 180.00 1.46136 2.56
2 0 6 1 o 64.789 68.378 180.00 1.45354 6.06
2 1 6 1 o 30.943 29.037 0.00 1.44414 5.66
0 8 4 1 o 22.077 20.554 180.00 1.44389 3.79
0 6 7 1 o 2.834 2.636 0.00 1.44387 0.49
2 0 -8 1 o 21.922 19.687 0.00 1.44128 2.10
0 3 9 1 o 20.330 18.100 0.00 1.44243 3.18
1 8 2 1 o 0.003 0.002 180.00 1.43912 0.00
1 8 -3 1 o 25.331 15.955 0.00 1.43697 4.22
1 3 8 1 o 12.156 7.127 0.00 1.43248 1.85
2 1 -8 1 o 5.819 3.544 180.00 1.43212 1.08
2 6 2 1 o 0.717 0.432 180.00 1.43100 0.14
0 5 8 1 o 0.170 0.084 180.00 1.42804 0.03
2 6 -4 1 o 1.494 0.896 180.00 1.42595 0.26
0 7 6 1 o 0.011 0.007 0.00 1.42589 0.00
1 3 -9 1 o 2.376 1.532 180.00 1.42532 0.39
3 0 -2 1 o 0.124 0.101 0.00 1.41799 0.01
1 6 6 1 o 28.042 22.699 0.00 1.41784 4.64
2 2 6 1 o 1.183 0.936 0.00 1.41699 0.20
1 6 -7 1 o 0.023 0.017 0.00 1.41252 0.00
1 5 7 1 o 2.435 2.154 180.00 1.41055 0.38
3 1 -1 1 o 0.002 0.002 0.00 1.41047 0.00
2 5 4 1 o 2.004 1.870 0.00 1.40983 0.37
3 1 -2 1 o 1.953 1.858 0.00 1.40926 0.42
2 4 5 1 o 1.449 1.341 180.00 1.40774 0.26
0 9 1 1 o 2.689 2.355 180.00 1.40571 0.40
3 0 0 1 o 30.907 27.039 0.00 1.40567 3.45
2 2 -8 1 o 26.557 23.211 180.00 1.40563 4.59
1 5 -8 1 o 1.076 0.898 180.00 1.40451 0.17
2 5 -6 1 o 2.124 1.529 180.00 1.40180 0.36
2 4 -7 1 o 0.246 0.201 180.00 1.39817 0.04
3 1 0 1 o 19.367 16.582 0.00 1.39716 4.20
1 8 3 1 o 25.184 22.589 180.00 1.39477 3.95
3 1 -3 1 o 9.115 8.157 0.00 1.39363 1.83
1 7 5 1 o 6.973 6.203 0.00 1.39326 1.10
1 8 -4 1 o 1.394 1.221 180.00 1.39204 0.21
1 7 -6 1 o 1.210 1.081 180.00 1.38898 0.18
3 2 -1 1 o 0.962 0.927 180.00 1.38515 0.20
0 9 2 1 o 24.127 23.074 180.00 1.38435 3.45
3 2 -2 1 o 9.348 8.940 180.00 1.38400 1.85
2 7 -1 1 o 0.002 0.002 180.00 1.38246 0.00
0 4 9 1 o 0.401 0.397 180.00 1.38157 0.06
2 6 3 1 o 0.047 0.048 180.00 1.38081 0.01
0 0 10 1 o 0.972 1.003 180.00 1.38057 0.06
0 8 5 1 o 20.125 21.094 0.00 1.37767 2.93
2 7 0 1 o 11.824 12.423 0.00 1.37634 1.88
2 3 6 1 o 5.779 6.010 180.00 1.37496 0.89
2 7 -2 1 o 35.363 36.668 0.00 1.37483 5.44
2 6 -5 1 o 2.057 2.129 180.00 1.37476 0.32
3 0 -4 1 o 0.462 0.447 0.00 1.37289 0.04
1 4 8 1 o 1.525 1.473 0.00 1.37281 0.20
3 2 0 1 o 9.341 8.965 180.00 1.37253 1.87
0 1 10 1 o 19.531 18.737 0.00 1.37250 2.41
1 0 -10 1 o 0.430 0.410 180.00 1.37190 0.03
1 1 9 1 o 6.164 5.923 0.00 1.37100 0.75
3 1 1 1 o 2.896 2.801 180.00 1.37050 0.59
3 2 -3 1 o 2.708 2.705 180.00 1.36918 0.50
1 4 -9 1 o 9.907 10.120 180.00 1.36651 1.40
3 1 -4 1 o 8.739 9.243 180.00 1.36496 1.59
2 3 -8 1 o 24.084 25.718 0.00 1.36457 3.69
1 1 -10 1 o 1.037 1.114 0.00 1.36398 0.14
2 7 1 1 o 0.769 0.798 0.00 1.35699 0.12
2 7 -3 1 o 48.670 48.978 180.00 1.35411 7.01
0 9 3 1 o 8.644 8.852 0.00 1.35081 1.14
0 2 10 1 o 0.281 0.291 0.00 1.34914 0.03
1 2 9 1 o 0.821 0.836 180.00 1.34771 0.10
3 2 1 1 o 19.050 19.180 180.00 1.34724 3.58
3 3 -1 1 o 3.654 3.555 180.00 1.34581 0.65
3 3 -2 1 o 22.940 22.014 180.00 1.34476 3.98
3 2 -4 1 o 1.556 1.518 0.00 1.34197 0.26
1 8 4 1 o 5.108 5.014 0.00 1.34144 0.70
1 2 -10 1 o 0.002 0.002 0.00 1.34104 0.00
3 0 2 1 o 1.829 1.854 180.00 1.34010 0.17
1 9 0 1 o 0.429 0.438 0.00 1.33983 0.06
1 9 -1 1 o 9.434 9.723 0.00 1.33949 1.20
2 1 7 1 o 5.565 5.775 0.00 1.33916 0.72
1 8 -5 1 o 0.101 0.106 0.00 1.33831 0.01
0 6 8 1 o 3.902 4.114 180.00 1.33825 0.50
0 7 7 1 o 3.393 3.724 180.00 1.33624 0.44
2 5 5 1 o 3.917 4.324 0.00 1.33601 0.57
3 3 0 1 o 11.343 13.111 0.00 1.33423 1.99
3 1 2 1 o 3.737 4.679 180.00 1.33272 0.68
3 3 -3 1 o 1.787 2.254 0.00 1.33115 0.29
2 1 -9 1 o 1.562 1.634 180.00 1.32820 0.22
2 5 -7 1 o 2.280 2.341 0.00 1.32782 0.31
1 9 1 1 o 7.629 7.809 0.00 1.32773 0.96
1 9 -2 1 o 8.215 8.351 0.00 1.32672 1.01
2 7 2 1 o 4.582 4.752 0.00 1.32603 0.65
3 1 -5 1 o 30.930 32.580 180.00 1.32560 4.91
1 6 7 1 o 3.462 3.752 180.00 1.32382 0.44
2 6 4 1 o 7.583 8.231 180.00 1.32322 1.09
2 7 -4 1 o 0.187 0.208 0.00 1.32200 0.02
2 4 6 1 o 1.286 1.439 180.00 1.32194 0.17
1 6 -8 1 o 0.670 0.790 0.00 1.31882 0.08
2 2 7 1 o 6.594 7.458 0.00 1.31743 0.81
2 6 -6 1 o 1.745 1.994 0.00 1.31658 0.23
1 7 6 1 o 5.083 5.969 180.00 1.31553 0.64
0 5 9 1 o 0.731 0.863 0.00 1.31357 0.09
0 3 10 1 o 16.128 18.578 0.00 1.31271 1.76
2 4 -8 1 o 0.501 0.577 180.00 1.31270 0.07
1 3 9 1 o 22.539 24.763 180.00 1.31139 2.43
3 2 2 1 o 0.062 0.067 0.00 1.31130 0.01
1 7 -7 1 o 1.907 2.090 180.00 1.31128 0.23
3 3 1 1 o 15.618 17.008 180.00 1.31096 2.59
0 8 6 1 o 5.683 6.287 180.00 1.30790 0.68
0 9 4 1 o 0.503 0.557 180.00 1.30770 0.06
2 2 -9 1 o 3.171 3.494 0.00 1.30699 0.41
3 3 -4 1 o 5.616 6.116 180.00 1.30611 0.84
1 5 8 1 o 4.633 5.042 180.00 1.30604 0.53
1 3 -10 1 o 0.060 0.065 180.00 1.30525 0.01
3 2 -5 1 o 5.000 5.443 180.00 1.30451 0.74
1 9 2 1 o 30.975 34.102 0.00 1.30415 3.70
1 9 -3 1 o 1.736 2.157 180.00 1.30255 0.20
1 5 -9 1 o 2.946 4.030 0.00 1.30060 0.35
3 4 -1 1 o 45.023 46.800 0.00 1.29597 6.74
3 4 -2 1 o 17.944 19.407 0.00 1.29503 2.63
3 1 3 1 o 0.171 0.288 0.00 1.28658 0.03
2 7 3 1 o 0.681 0.946 0.00 1.28579 0.09
3 4 0 1 o 2.035 2.763 0.00 1.28562 0.30
3 0 -6 1 o 1.164 1.527 180.00 1.28487 0.08
2 3 7 1 o 1.038 1.516 180.00 1.28345 0.12
3 4 -3 1 o 0.624 0.977 0.00 1.28287 0.09
1 8 5 1 o 0.503 0.806 180.00 1.28258 0.06
2 7 -5 1 o 0.734 1.103 180.00 1.28091 0.08
1 8 -6 1 o 0.985 1.476 180.00 1.27924 0.11
3 1 -6 1 o 0.115 0.183 180.00 1.27836 0.02
3 3 2 1 o 0.401 0.641 0.00 1.27778 0.06
2 8 -1 1 o 9.167 11.690 180.00 1.27414 1.05
2 3 -9 1 o 4.893 6.066 180.00 1.27379 0.57
0 10 0 1 o 0.105 0.124 0.00 1.27175 0.01
3 3 -5 1 o 4.963 5.835 0.00 1.27150 0.66
2 8 0 1 o 1.461 1.524 0.00 1.26934 0.17
1 9 3 1 o 0.073 0.084 0.00 1.27087 0.01
1 9 -4 1 o 1.762 1.809 180.00 1.26881 0.18
2 8 -2 1 o 5.372 5.515 0.00 1.26816 0.60
3 2 3 1 o 0.314 0.338 0.00 1.26727 0.05
0 10 1 1 o 0.705 0.814 180.00 1.26639 0.07
0 4 10 1 o 6.108 7.080 180.00 1.26634 0.60
1 4 9 1 o 0.142 0.178 180.00 1.26515 0.01
3 4 1 1 o 11.878 15.390 0.00 1.26476 1.67
2 5 6 1 o 2.058 2.902 0.00 1.26201 0.23
2 6 5 1 o 0.757 1.032 180.00 1.26162 0.09
3 4 -4 1 o 3.847 4.573 180.00 1.26040 0.49
1 4 -10 1 o 30.072 34.088 0.00 1.25963 3.11
3 2 -6 1 o 4.846 5.481 0.00 1.25941 0.62
1 0 10 1 o 6.650 7.522 0.00 1.25940 0.29
0 9 5 1 o 1.525 1.850 0.00 1.25790 0.16
2 6 -7 1 o 11.007 12.724 180.00 1.25472 1.19
2 8 1 1 o 9.128 10.536 0.00 1.25412 1.02
2 5 -8 1 o 38.334 44.349 0.00 1.25396 4.18
1 1 10 1 o 8.288 9.725 0.00 1.25327 0.71
2 8 -3 1 o 0.288 0.345 0.00 1.25184 0.03
0 7 8 1 o 3.485 4.254 0.00 1.25122 0.35
0 10 2 1 o 5.386 6.784 0.00 1.25070 0.52
2 0 8 1 o 2.849 3.792 180.00 1.24996 0.14
0 1 11 1 o 1.866 2.619 180.00 1.24899 0.16
1 1 -11 1 o 0.227 0.364 0.00 1.24734 0.02
2 1 8 1 o 4.570 6.045 180.00 1.24396 0.43
0 6 9 1 o 0.221 0.262 0.00 1.24267 0.02
3 0 4 1 o 67.424 73.537 0.00 1.24079 4.44
2 4 7 1 o 10.139 10.493 0.00 1.24001 1.03
2 0 -10 1 o 2.104 2.165 0.00 1.23993 0.11
1 7 7 1 o 15.686 15.602 180.00 1.23940 1.56
3 5 -1 1 o 11.334 11.237 0.00 1.23935 1.39
2 7 4 1 o 10.382 10.045 0.00 1.23891 1.14
3 5 -2 1 o 0.001 0.001 180.00 1.23853 0.00
0 8 7 1 o 5.122 4.696 180.00 1.23769 0.50
3 3 3 1 o 14.189 12.560 180.00 1.23694 1.86
1 6 8 1 o 4.978 4.238 180.00 1.23629 0.48
1 2 10 1 o 4.624 3.736 180.00 1.23540 0.38
1 7 -8 1 o 9.583 7.703 0.00 1.23530 0.93
3 1 4 1 o 8.889 7.030 180.00 1.23492 1.15
3 4 2 1 o 36.260 28.636 180.00 1.23489 4.66
2 1 -10 1 o 0.058 0.045 0.00 1.23407 0.01
2 7 -6 1 o 1.603 1.226 180.00 1.23346 0.16
1 6 -9 1 o 9.156 8.351 0.00 1.23168 0.88
0 2 11 1 o 9.923 9.456 0.00 1.23131 0.83
2 4 -9 1 o 0.468 0.447 180.00 1.23129 0.05
3 5 0 1 o 0.049 0.051 180.00 1.23029 0.01
1 9 4 1 o 25.664 27.044 0.00 1.23014 2.51
1 2 -11 1 o 18.180 19.656 0.00 1.22973 1.69
3 3 -6 1 o 3.903 4.245 180.00 1.22963 0.45
2 8 2 1 o 24.915 27.216 0.00 1.22955 2.61
3 4 -5 1 o 3.613 4.028 0.00 1.22922 0.41
3 5 -3 1 o 7.561 9.086 180.00 1.22788 0.86
1 9 -5 1 o 0.471 0.569 180.00 1.22773 0.04
2 2 8 1 o 0.131 0.160 0.00 1.22648 0.01
2 8 -4 1 o 2.372 2.898 0.00 1.22635 0.23
3 1 -7 1 o 0.104 0.126 0.00 1.22605 0.01
0 10 3 1 o 15.094 18.071 180.00 1.22580 1.38
1 8 6 1 o 5.446 7.499 0.00 1.22117 0.52
3 2 4 1 o 0.589 0.608 0.00 1.21782 0.07
1 8 -7 1 o 1.932 1.987 180.00 1.21777 0.18
1 10 0 1 o 2.041 2.067 0.00 1.21758 0.18
1 10 -1 1 o 0.576 0.572 180.00 1.21732 0.05
2 2 -10 1 o 4.060 3.951 0.00 1.21700 0.40
0 5 10 1 o 3.224 3.019 0.00 1.21335 0.28
1 5 9 1 o 11.649 11.089 0.00 1.21231 0.99
3 5 1 1 o 75.594 72.464 0.00 1.21197 8.77
3 2 -7 1 o 16.619 17.318 180.00 1.20930 1.78
1 10 1 1 o 33.065 33.990 0.00 1.20848 2.90
3 5 -4 1 o 0.411 0.417 180.00 1.20813 0.04
1 10 -2 1 o 0.281 0.279 180.00 1.20771 0.02
1 5 -10 1 o 6.915 6.753 180.00 1.20745 0.61
1 3 10 1 o 43.836 42.255 0.00 1.20725 3.42
0 9 6 1 o 11.530 9.750 180.00 1.20412 1.01
0 3 11 1 o 8.600 7.108 0.00 1.20343 0.67
1 3 -11 1 o 1.288 1.015 0.00 1.20195 0.11
2 3 8 1 o 35.793 33.115 180.00 1.19892 3.01
2 6 6 1 o 14.069 13.024 0.00 1.19875 1.32
3 4 3 1 o 22.166 19.995 0.00 1.19791 2.51
2 8 3 1 o 12.592 10.880 0.00 1.19727 1.20
2 1 1 2 o 0.007 0.006 180.00 1.23439 8.43
2 8 -5 1 o 0.136 0.096 180.00 1.19333 0.01
0 10 4 1 o 6.019 4.235 0.00 1.19332 0.50
2 6 -8 1 o 12.527 9.892 0.00 1.19184 1.12
3 4 -6 1 o 23.885 19.606 180.00 1.19127 2.38
1 10 -3 1 o 0.574 0.460 0.00 1.18940 0.05
3 3 4 1 o 1.122 0.934 180.00 1.19083 0.12
1 10 2 1 o 0.345 0.288 180.00 1.19062 0.03
2 5 7 1 o 11.913 9.833 180.00 1.19014 1.04
2 3 -10 1 o 0.267 0.220 0.00 1.19006 0.02
2 7 5 1 o 6.927 5.510 0.00 1.18792 0.64
3 5 2 1 o 49.040 43.486 180.00 1.18561 5.25
1 9 5 1 o 0.461 0.427 180.00 1.18427 0.04
3 3 -7 1 o 25.271 24.205 0.00 1.18286 2.46
2 5 -9 1 o 86.574 82.758 0.00 1.18242 7.55
2 7 -7 1 o 10.221 9.700 180.00 1.18215 0.87
1 9 -6 1 o 0.408 0.376 180.00 1.18164 0.03
3 5 -5 1 o 0.921 0.760 0.00 1.18059 0.09
3 1 5 1 o 1.683 1.346 0.00 1.18030 0.17
3 6 -1 1 o 0.412 0.301 180.00 1.17928 0.04
3 6 -2 1 o 4.451 3.136 0.00 1.17857 0.43
2 9 -1 1 o 6.988 4.710 0.00 1.17762 0.59
3 0 -8 1 o 1.520 1.006 180.00 1.17615 0.07
2 9 0 1 o 13.650 9.969 180.00 1.17383 1.14
2 9 -2 1 o 32.867 25.066 180.00 1.17290 2.69
0 7 9 1 o 0.009 0.007 180.00 1.17206 0.00
3 6 0 1 o 0.967 0.771 180.00 1.17147 0.09
3 1 -8 1 o 4.644 3.714 0.00 1.17115 0.44
1 4 10 1 o 0.042 0.034 180.00 1.17089 0.00
3 6 -3 1 o 0.167 0.139 180.00 1.16938 0.02
0 8 8 1 o 0.002 0.002 0.00 1.16921 0.00
0 4 11 1 o 98.337 90.086 180.00 1.16740 7.02
1 7 8 1 o 0.867 0.799 180.00 1.16670 0.07
1 4 -11 1 o 32.396 29.915 180.00 1.16605 2.49
3 2 5 1 o 0.674 0.626 180.00 1.16534 0.07
1 10 3 1 o 0.062 0.057 180.00 1.16514 0.00
1 10 -4 1 o 1.219 1.128 0.00 1.16354 0.09
2 4 8 1 o 1.172 1.081 180.00 1.16328 0.09
1 7 -9 1 o 104.515 95.870 0.00 1.16282 8.09
2 9 1 1 o 22.991 21.106 180.00 1.16176 1.88
2 9 -3 1 o 1.305 1.189 0.00 1.15995 0.10
1 8 7 1 o 5.142 4.661 0.00 1.15955 0.40
2 8 4 1 o 8.730 7.885 180.00 1.15915 0.74
2 1 9 1 o 0.656 0.597 0.00 1.15831 0.05
0 6 10 1 o 0.570 0.547 0.00 1.15682 0.04
3 2 -8 1 o 0.117 0.114 180.00 1.15653 0.01
1 8 -8 1 o 4.995 4.880 180.00 1.15619 0.38
1 6 9 1 o 0.026 0.025 0.00 1.15592 0.00
3 4 4 1 o 27.856 27.355 180.00 1.15588 2.70
3 6 1 1 o 2.265 2.231 180.00 1.15562 0.21
2 4 -10 1 o 33.316 32.891 180.00 1.15519 2.67
0 10 5 1 o 7.701 7.604 0.00 1.15511 0.57
2 8 -6 1 o 0.907 0.895 0.00 1.15468 0.07
1 1 11 1 o 21.852 21.172 0.00 1.15332 1.37
1 0 -12 1 o 2.095 2.016 0.00 1.15296 0.08
3 5 3 1 o 39.760 38.150 0.00 1.15277 3.81
3 6 -4 1 o 0.074 0.071 0.00 1.15229 0.01
0 11 1 1 o 62.897 60.055 0.00 1.15210 4.47
1 6 -10 1 o 50.990 48.798 180.00 1.15170 3.79
0 0 12 1 o 31.132 30.215 180.00 1.15047 0.99
2 1 -11 1 o 14.120 13.921 0.00 1.14943 1.12
0 9 7 1 o 2.914 2.933 180.00 1.14866 0.22
3 4 -7 1 o 30.086 30.341 0.00 1.14859 2.58
1 1 -12 1 o 10.544 10.713 0.00 1.14826 0.75
3 5 -6 1 o 6.392 6.373 180.00 1.14684 0.54
0 1 12 1 o 1.739 1.656 180.00 1.14579 0.11
2 2 9 1 o 2.669 2.596 180.00 1.14416 0.18
2 9 2 1 o 64.568 65.536 180.00 1.14215 5.02
3 3 5 1 o 0.029 0.030 0.00 1.14162 0.00
0 11 2 1 o 5.658 6.552 0.00 1.14025 0.39
2 9 -4 1 o 19.191 22.282 180.00 1.13958 1.40
1 2 11 1 o 7.269 8.372 180.00 1.13935 0.44
2 6 7 1 o 0.574 0.545 180.00 1.13664 0.04
2 2 -11 1 o 0.318 0.293 180.00 1.13560 0.02
1 9 6 1 o 3.186 2.928 180.00 1.13542 0.23
2 7 6 1 o 0.000 0.000 0.00 1.13499 0.00
1 2 -12 1 o 4.074 3.770 180.00 1.13447 0.28
1 10 4 1 o 19.973 18.842 180.00 1.13351 1.42
3 3 -8 1 o 44.217 41.834 0.00 1.13334 3.62
3 6 2 1 o 81.635 77.709 0.00 1.13270 7.15
1 9 -7 1 o 2.172 2.068 180.00 1.13269 0.15
0 2 12 1 o 54.409 51.801 0.00 1.13209 3.30
1 10 -5 1 o 2.128 2.023 0.00 1.13162 0.14
2 6 -9 1 o 15.139 14.208 180.00 1.12992 1.10
3 0 6 1 o 53.919 50.087 0.00 1.12923 2.24
2 7 -8 1 o 25.267 23.421 180.00 1.12913 1.82
1 5 10 1 o 0.008 0.007 180.00 1.12863 0.00
3 6 -5 1 o 0.076 0.069 180.00 1.12832 0.01
0 5 11 1 o 0.932 0.789 180.00 1.12550 0.06
3 1 6 1 o 6.783 5.637 180.00 1.12480 0.56
1 5 -11 1 o 11.576 9.647 180.00 1.12429 0.78
2 5 8 1 o 5.364 5.179 180.00 1.12181 0.36
2 3 9 1 o 4.665 4.536 0.00 1.12168 0.30
0 11 3 1 o 14.995 14.856 0.00 1.12129 0.97
3 7 -1 1 o 0.005 0.005 0.00 1.11843 0.00
3 7 -2 1 o 5.404 5.420 180.00 1.11782 0.42
1 3 11 1 o 18.203 17.719 180.00 1.11715 1.05
2 8 5 1 o 0.918 0.890 0.00 1.11706 0.07
2 5 -10 1 o 10.854 9.924 0.00 1.11454 0.75
2 9 3 1 o 50.654 47.208 180.00 1.11614 3.64
3 1 -9 1 o 0.049 0.045 0.00 1.11567 0.00
2 3 -11 1 o 0.425 0.401 180.00 1.11362 0.03
3 5 4 1 o 3.219 2.941 180.00 1.11517 0.27
1 11 0 1 o 10.550 9.628 180.00 1.11499 0.67
1 11 -1 1 o 19.684 17.962 180.00 1.11479 1.25
0 10 6 1 o 0.524 0.510 180.00 1.11305 0.03
2 9 -5 1 o 1.129 1.107 0.00 1.11294 0.08
1 3 -12 1 o 0.160 0.160 0.00 1.11255 0.01
2 8 -7 1 o 0.852 0.864 0.00 1.11227 0.06
3 2 6 1 o 23.652 24.365 180.00 1.11183 1.85
3 7 0 1 o 0.326 0.336 180.00 1.11175 0.03
3 4 5 1 o 0.123 0.129 180.00 1.11073 0.01
0 3 12 1 o 2.888 3.028 180.00 1.11031 0.17
3 7 -3 1 o 7.169 7.549 180.00 1.10997 0.53
3 5 -7 1 o 41.876 44.954 180.00 1.10862 3.09
1 11 1 1 o 75.549 81.486 180.00 1.10798 4.75
1 11 -2 1 o 0.479 0.521 0.00 1.10740 0.03
3 6 3 1 o 0.150 0.188 0.00 1.10396 0.01
0 8 9 1 o 0.433 0.546 180.00 1.10385 0.03
3 4 -8 1 o 0.772 1.002 0.00 1.10309 0.06
3 2 -9 1 o 9.195 11.958 180.00 1.10301 0.68
1 8 8 1 o 7.865 9.256 180.00 1.09937 0.50
0 7 10 1 o 1.817 2.135 0.00 1.09921 0.11
3 6 -6 1 o 0.504 0.590 0.00 1.09875 0.04
1 7 9 1 o 2.095 2.451 0.00 1.09844 0.13
3 7 1 1 o 10.707 12.500 180.00 1.09818 0.80
1 10 5 1 o 8.710 10.020 0.00 1.09732 0.55
0 11 4 1 o 0.443 0.486 0.00 1.09627 0.03
1 8 -9 1 o 1.652 1.798 180.00 1.09612 0.10
3 7 -4 1 o 0.255 0.269 0.00 1.09532 0.02
1 10 -6 1 o 2.300 2.413 180.00 1.09523 0.14
1 7 -10 1 o 50.018 52.216 0.00 1.09482 3.08
1 11 2 1 o 108.187 114.325 180.00 1.09417 6.56
0 9 8 1 o 0.047 0.052 0.00 1.09330 0.00
1 11 -3 1 o 0.348 0.387 180.00 1.09323 0.02
2 4 9 1 o 0.099 0.115 180.00 1.09234 0.01
2 10 -1 1 o 1.668 1.981 180.00 1.09203 0.10
3 3 6 1 o 13.571 16.753 0.00 1.09118 0.98
2 10 0 1 o 1.494 2.150 180.00 1.08900 0.09
2 10 -2 1 o 0.075 0.103 0.00 1.08825 0.00
1 4 11 1 o 4.211 5.696 0.00 1.08815 0.23
2 0 10 1 o 0.223 0.231 180.00 1.08545 0.01
1 9 7 1 o 3.755 3.868 180.00 1.08539 0.23
2 9 4 1 o 51.814 52.499 180.00 1.08506 3.35
2 4 -11 1 o 8.549 8.607 0.00 1.08489 0.54
1 4 -12 1 o 33.910 33.900 0.00 1.08390 1.97
3 3 -9 1 o 17.263 17.745 0.00 1.08283 1.18
1 6 10 1 o 2.651 2.735 0.00 1.08270 0.15
1 9 -8 1 o 9.755 10.080 180.00 1.08263 0.57
2 7 7 1 o 0.506 0.528 180.00 1.08186 0.03
0 4 12 1 o 42.046 43.885 180.00 1.08182 2.23
2 1 10 1 o 4.569 4.769 180.00 1.08151 0.24
2 9 -6 1 o 3.968 4.140 0.00 1.08139 0.24
0 6 11 1 o 0.002 0.002 180.00 1.07994 0.00
2 10 1 1 o 0.191 0.194 180.00 1.07934 0.01
1 6 -11 1 o 27.795 28.231 0.00 1.07887 1.61
3 7 2 1 o 0.051 0.053 180.00 1.07845 0.00
2 10 -3 1 o 9.862 10.552 0.00 1.07789 0.58
2 0 -12 1 o 0.939 1.041 0.00 1.07741 0.03
2 6 8 1 o 4.320 4.959 0.00 1.07668 0.25
2 7 -9 1 o 34.068 39.751 180.00 1.07605 2.04
3 7 -5 1 o 3.166 3.766 0.00 1.07467 0.20
3 5 5 1 o 3.976 4.739 0.00 1.07446 0.28
1 11 3 1 o 11.621 13.874 180.00 1.07430 0.67
2 1 -12 1 o 0.825 0.995 180.00 1.07356 0.05
1 11 -4 1 o 7.055 8.540 180.00 1.07305 0.39
2 8 6 1 o 2.399 2.904 0.00 1.07272 0.15
1 0 12 1 o 13.843 16.588 0.00 1.07134 0.33
3 6 4 1 o 10.509 12.598 0.00 1.07080 0.73
2 6 -10 1 o 52.642 63.992 0.00 1.07025 3.12
3 1 7 1 o 0.995 1.224 180.00 1.06997 0.06
2 2 10 1 o 2.244 2.762 0.00 1.06997 0.11
0 10 7 1 o 0.082 0.108 0.00 1.06881 0.00
2 8 -8 1 o 0.011 0.015 180.00 1.06776 0.00
1 1 12 1 o 13.375 18.796 0.00 1.06756 0.63
3 5 -8 1 o 5.724 8.053 180.00 1.06754 0.36
0 11 5 1 o 3.552 5.190 180.00 1.06642 0.19
4 0 -2 1 o 1.240 1.767 180.00 1.06537 0.05
3 6 -7 1 o 1.310 1.819 0.00 1.06500 0.08
3 0 -10 1 o 1.947 2.653 0.00 1.06478 0.06
3 4 6 1 o 0.048 0.062 0.00 1.06410 0.00
2 10 2 1 o 9.789 11.998 180.00 1.06356 0.57
1 1 -13 1 o 0.002 0.002 180.00 1.06320 0.00
2 2 -12 1 o 18.770 21.933 180.00 1.06227 1.10
4 1 -2 1 o 5.817 6.674 180.00 1.06165 0.44
2 10 -4 1 o 1.465 1.671 0.00 1.06148 0.08
3 1 -10 1 o 1.766 1.983 180.00 1.06106 0.11
0 12 0 1 o 4.156 4.520 0.00 1.05979 0.11
4 1 -1 1 o 0.781 0.836 180.00 1.05921 0.06
3 2 7 1 o 8.702 9.205 0.00 1.05879 0.54
3 8 -1 1 o 1.602 1.691 0.00 1.05870 0.10
0 1 13 1 o 2.772 2.911 180.00 1.05829 0.13
3 8 -2 1 o 1.992 2.091 180.00 1.05819 0.12
1 10 6 1 o 0.510 0.536 180.00 1.05812 0.03
4 1 -3 1 o 0.335 0.352 180.00 1.05784 0.02
2 5 9 1 o 7.653 8.051 180.00 1.05778 0.40
0 12 1 1 o 0.701 0.747 180.00 1.05668 0.04
1 2 12 1 o 81.029 86.217 180.00 1.05645 3.69
3 4 -9 1 o 15.710 16.695 0.00 1.05636 0.97
1 10 -7 1 o 1.788 1.882 0.00 1.05590 0.09
4 0 0 1 o 5.099 5.217 180.00 1.05425 0.19
1 5 11 1 o 0.459 0.468 180.00 1.05398 0.02
3 7 3 1 o 62.917 64.075 180.00 1.05356 4.07
3 8 0 1 o 7.381 7.549 180.00 1.05304 0.45
1 2 -13 1 o 0.030 0.032 0.00 1.05222 0.00
4 0 -4 1 o 2.061 2.170 180.00 1.05155 0.07
2 3 10 1 o 0.188 0.198 0.00 1.05152 0.01
3 8 -3 1 o 5.136 5.409 0.00 1.05152 0.30
2 5 -11 1 o 14.403 15.279 0.00 1.05101 0.80
4 2 -2 1 o 3.219 3.433 0.00 1.05072 0.23
4 1 0 1 o 11.987 12.801 180.00 1.05065 0.89
2 9 5 1 o 0.180 0.194 180.00 1.05031 0.01
3 2 -10 1 o 0.001 0.001 180.00 1.05016 0.00
1 5 -12 1 o 21.875 23.569 0.00 1.05011 1.13
1 11 4 1 o 20.888 22.585 180.00 1.04935 1.10
3 7 -6 1 o 0.225 0.243 0.00 1.04903 0.01
4 2 -1 1 o 9.360 10.040 0.00 1.04836 0.68
0 5 12 1 o 0.346 0.371 180.00 1.04823 0.02
4 1 -4 1 o 11.008 11.753 0.00 1.04798 0.76
1 11 -5 1 o 2.398 2.557 180.00 1.04785 0.12
0 12 2 1 o 14.545 15.478 180.00 1.04752 0.72
0 2 13 1 o 27.682 29.461 0.00 1.04747 1.25
4 2 -3 1 o 1.796 1.924 180.00 1.04703 0.12
2 9 -7 1 o 0.386 0.430 180.00 1.04631 0.02
2 3 -12 1 o 1.488 1.824 0.00 1.04421 0.08
2 10 3 1 o 9.491 10.594 180.00 1.04246 0.52
0 8 10 1 o 25.803 28.653 0.00 1.04236 1.30
1 8 9 1 o 0.870 0.940 180.00 1.04170 0.04
3 8 1 1 o 0.550 0.591 180.00 1.04148 0.03
3 3 7 1 o 0.083 0.088 180.00 1.04091 0.00
4 2 0 1 o 24.753 26.292 0.00 1.04005 1.76
2 10 -5 1 o 5.988 6.371 0.00 1.03985 0.30
0 9 9 1 o 19.092 20.502 0.00 1.03930 0.96
3 8 -4 1 o 0.277 0.300 0.00 1.03904 0.02
1 3 12 1 o 8.203 8.947 180.00 1.03869 0.36
1 8 -10 1 o 3.696 4.038 180.00 1.03861 0.19
4 2 -4 1 o 1.233 1.393 180.00 1.03746 0.08
4 1 1 1 o 0.743 0.886 0.00 1.03640 0.05
1 9 8 1 o 0.977 1.165 0.00 1.03556 0.05
1 7 10 1 o 0.518 0.598 0.00 1.03504 0.03
1 3 -13 1 o 0.000 0.000 0.00 1.03466 0.00
3 6 5 1 o 0.052 0.058 0.00 1.03461 0.00
4 3 -2 1 o 2.814 2.705 180.00 1.03324 0.19
0 11 6 1 o 2.313 2.192 180.00 1.03306 0.11
1 9 -9 1 o 7.242 6.755 180.00 1.03284 0.36
0 12 3 1 o 9.386 8.705 180.00 1.03276 0.45
3 3 -10 1 o 1.052 0.972 180.00 1.03270 0.06
0 7 11 1 o 10.481 9.638 180.00 1.03262 0.50
4 1 -5 1 o 2.405 2.204 180.00 1.03256 0.15
3 5 6 1 o 6.110 5.479 0.00 1.03208 0.35
1 7 -11 1 o 42.046 37.391 0.00 1.03169 2.06
2 2 0 2 o 0.004 0.006 180.00 1.06902 1.55
4 3 -1 1 o 0.516 0.462 0.00 1.03099 0.03
0 3 13 1 o 0.012 0.011 0.00 1.03014 0.00
2 7 8 1 o 0.761 0.709 180.00 1.02977 0.04
4 3 -3 1 o 0.107 0.100 180.00 1.02972 0.01
3 6 -8 1 o 3.777 3.613 180.00 1.02843 0.20
1 12 0 1 o 1.976 1.901 0.00 1.02783 0.09
1 12 -1 1 o 3.422 3.298 180.00 1.02767 0.16
2 8 7 1 o 2.110 2.037 180.00 1.02753 0.11
2 4 10 1 o 0.896 0.868 180.00 1.02723 0.04
4 2 1 1 o 0.796 0.776 0.00 1.02623 0.05
3 5 -9 1 o 61.795 61.313 180.00 1.02501 3.34
3 7 4 1 o 10.476 10.429 180.00 1.02463 0.60
3 8 2 1 o 13.473 13.414 180.00 1.02461 0.76
2 7 -10 1 o 12.944 12.895 180.00 1.02414 0.64
0 10 8 1 o 23.692 23.557 180.00 1.02378 1.13
4 3 0 1 o 21.565 21.193 0.00 1.02309 1.42
2 8 -9 1 o 9.684 9.379 0.00 1.02255 0.47
4 2 -5 1 o 1.074 1.038 0.00 1.02250 0.07
1 12 1 1 o 0.020 0.019 180.00 1.02233 0.00
1 12 -2 1 o 0.227 0.216 0.00 1.02187 0.01
3 8 -5 1 o 0.884 0.843 0.00 1.02136 0.05
4 3 -4 1 o 1.921 1.859 0.00 1.02062 0.12
1 11 5 1 o 4.112 3.988 0.00 1.02045 0.20
4 0 2 1 o 29.714 28.824 180.00 1.02042 1.00
2 4 -12 1 o 0.021 0.020 0.00 1.02041 0.00
3 0 8 1 o 9.056 8.785 0.00 1.02016 0.23
2 6 9 1 o 7.469 7.184 180.00 1.01970 0.35
3 7 -7 1 o 0.398 0.381 180.00 1.01954 0.02
1 11 -6 1 o 2.520 2.394 0.00 1.01876 0.12
3 4 7 1 o 3.668 3.802 0.00 1.01733 0.19
1 10 7 1 o 5.184 5.399 0.00 1.01728 0.25
4 1 2 1 o 1.098 1.157 180.00 1.01715 0.07
2 10 4 1 o 4.578 4.891 0.00 1.01700 0.23
3 1 8 1 o 6.645 7.173 180.00 1.01689 0.33
1 6 11 1 o 5.955 6.749 0.00 1.01629 0.26
2 11 -1 1 o 1.284 1.466 180.00 1.01618 0.06
4 0 -6 1 o 5.712 6.679 180.00 1.01554 0.17
1 4 12 1 o 11.248 13.123 0.00 1.01525 0.46
1 10 -8 1 o 2.433 2.815 0.00 1.01500 0.11
2 10 -6 1 o 14.042 15.348 0.00 1.01398 0.65
2 11 0 1 o 0.023 0.025 0.00 1.01374 0.00
2 6 -11 1 o 9.465 10.193 180.00 1.01363 0.46
2 9 6 1 o 0.441 0.468 180.00 1.01319 0.02
2 11 -2 1 o 0.146 0.155 180.00 1.01314 0.01
0 12 4 1 o 0.317 0.336 180.00 1.01311 0.01
1 6 -12 1 o 28.724 30.226 180.00 1.01282 1.30
2 1 11 1 o 8.127 8.531 0.00 1.01272 0.32
4 1 -6 1 o 1.740 1.811 0.00 1.01232 0.10
1 4 -13 1 o 85.404 88.677 180.00 1.01150 3.81
1 12 2 1 o 1.806 1.877 0.00 1.01145 0.08
0 6 12 1 o 6.646 6.961 0.00 1.01113 0.28
1 12 -3 1 o 0.613 0.652 0.00 1.01071 0.03
4 4 -2 1 o 0.038 0.041 0.00 1.01016 0.00
4 3 1 1 o 3.224 3.495 0.00 1.00992 0.20
3 4 -10 1 o 15.281 16.516 0.00 1.00966 0.79
2 9 -8 1 o 6.878 7.239 180.00 1.00901 0.32
3 1 -11 1 o 0.390 0.396 0.00 1.00834 0.02
4 4 -1 1 o 0.611 0.612 0.00 1.00806 0.04
4 2 2 1 o 0.150 0.147 180.00 1.00753 0.01
3 2 8 1 o 1.289 1.248 180.00 1.00728 0.06
0 4 13 1 o 44.014 42.611 180.00 1.00727 1.77
4 4 -3 1 o 5.556 5.323 180.00 1.00688 0.32
4 3 -5 1 o 8.294 7.900 180.00 1.00637 0.47
2 11 1 1 o 18.217 17.390 0.00 1.00593 0.84
2 1 -13 1 o 3.535 3.396 180.00 1.00560 0.17
2 11 -3 1 o 2.084 2.051 180.00 1.00476 0.09
2 2 11 1 o 1.691 1.691 0.00 1.00322 0.07
3 8 3 1 o 30.706 30.720 180.00 1.00319 1.61
4 2 -6 1 o 0.566 0.568 0.00 1.00284 0.03
3 9 -1 1 o 9.746 9.671 180.00 1.00136 0.48
3 9 -2 1 o 16.057 15.714 0.00 1.00092 0.78
4 4 0 1 o 2.362 2.297 180.00 1.00067 0.14
3 8 -6 1 o 20.876 20.310 0.00 0.99928 0.99
3 2 -11 1 o 1.161 1.136 0.00 0.99897 0.06
4 4 -4 1 o 5.201 5.077 0.00 0.99836 0.29
2 5 10 1 o 30.679 29.928 0.00 0.99834 1.27
0 11 7 1 o 0.014 0.013 0.00 0.99740 0.00
3 6 6 1 o 0.488 0.453 0.00 0.99661 0.02
3 9 0 1 o 1.004 0.932 0.00 0.99656 0.05
2 2 -13 1 o 25.589 23.755 180.00 0.99630 1.17
1 12 3 1 o 1.014 0.947 180.00 0.99569 0.04
3 9 -3 1 o 5.458 5.141 180.00 0.99527 0.26
1 12 -4 1 o 14.885 14.232 0.00 0.99469 0.61
4 1 3 1 o 5.594 5.403 180.00 0.99375 0.34
1 1 13 1 o 0.106 0.102 180.00 0.99329 0.00
2 11 2 1 o 50.689 48.610 0.00 0.99313 2.25
3 7 5 1 o 26.861 25.550 180.00 0.99278 1.35
1 0 -14 1 o 4.691 4.427 180.00 0.99250 0.10
4 3 2 1 o 1.442 1.342 0.00 0.99208 0.08
2 5 -12 1 o 1.988 1.850 180.00 0.99208 0.09
3 3 8 1 o 5.013 4.624 180.00 0.99184 0.23
2 11 -4 1 o 0.600 0.544 180.00 0.99143 0.03
3 6 -9 1 o 0.159 0.139 180.00 0.99024 0.01
1 1 -14 1 o 3.093 2.755 180.00 0.98949 0.13
0 12 5 1 o 3.353 3.000 0.00 0.98941 0.14
3 5 7 1 o 0.505 0.456 0.00 0.98924 0.02
1 11 6 1 o 0.414 0.388 180.00 0.98869 0.02
4 4 1 1 o 0.697 0.665 180.00 0.98834 0.04
2 10 5 1 o 0.257 0.247 180.00 0.98822 0.01
4 1 -7 1 o 24.582 23.679 0.00 0.98812 1.30
2 3 11 1 o 1.486 1.439 0.00 0.98797 0.06
4 3 -6 1 o 11.985 11.690 180.00 0.98760 0.63
0 9 10 1 o 87.531 85.420 180.00 0.98749 3.62
1 5 12 1 o 3.805 3.712 180.00 0.98733 0.14
3 7 -8 1 o 2.443 2.383 180.00 0.98731 0.11
1 8 10 1 o 19.851 19.334 180.00 0.98716 0.81
1 9 9 1 o 1.828 1.774 180.00 0.98693 0.08
1 11 -7 1 o 0.038 0.037 0.00 0.98688 0.00
3 9 1 1 o 0.891 0.860 0.00 0.98675 0.04
0 0 14 1 o 18.778 17.829 0.00 0.98612 0.33
0 8 11 1 o 8.122 7.425 0.00 0.98506 0.33
4 4 -5 1 o 9.377 8.551 180.00 0.98501 0.49
2 10 -7 1 o 17.178 15.580 0.00 0.98490 0.71
4 2 3 1 o 0.746 0.672 180.00 0.98477 0.04
3 9 -4 1 o 6.647 5.961 0.00 0.98467 0.30
1 2 13 1 o 32.669 28.750 180.00 0.98432 1.14
1 9 -10 1 o 26.528 23.322 180.00 0.98431 1.09
1 8 -11 1 o 0.608 0.533 180.00 0.98425 0.02
3 3 -11 1 o 2.207 1.900 0.00 0.98391 0.10
1 5 -13 1 o 2.785 2.394 180.00 0.98388 0.11
0 1 14 1 o 4.960 4.163 0.00 0.98317 0.17
4 5 -2 1 o 15.485 12.896 180.00 0.98265 0.81
2 8 8 1 o 3.211 2.673 0.00 0.98259 0.14
3 5 -10 1 o 23.572 19.519 180.00 0.98219 1.08
2 3 -13 1 o 0.022 0.018 180.00 0.98135 0.00
4 5 -1 1 o 0.251 0.205 180.00 0.98071 0.01
1 2 -14 1 o 37.523 30.711 0.00 0.98063 1.47
0 5 13 1 o 1.058 0.889 0.00 0.97999 0.04
4 5 -3 1 o 0.337 0.288 0.00 0.97962 0.02
2 7 9 1 o 0.110 0.094 0.00 0.97958 0.00
4 2 -7 1 o 34.305 29.647 0.00 0.97930 1.74
0 10 9 1 o 1.149 1.000 180.00 0.97904 0.05
1 7 11 1 o 3.722 3.582 180.00 0.97656 0.14
3 8 4 1 o 25.277 22.412 180.00 0.97812 1.20
2 8 -10 1 o 41.082 37.029 180.00 0.97769 1.70
1 10 8 1 o 10.197 10.028 0.00 0.97591 0.41
2 11 3 1 o 6.433 6.329 0.00 0.97588 0.27
0 13 1 1 o 137.227 135.125 180.00 0.97582 5.19
1 12 4 1 o 8.862 8.734 0.00 0.97573 0.35
2 9 7 1 o 2.826 2.759 0.00 0.97486 0.12
1 12 -5 1 o 9.409 9.097 0.00 0.97453 0.36
0 2 14 1 o 10.192 9.836 0.00 0.97447 0.35
2 7 -11 1 o 130.870 125.092 180.00 0.97420 5.38
4 5 0 1 o 2.135 2.019 0.00 0.97391 0.11
2 11 -5 1 o 1.861 1.749 0.00 0.97374 0.07
3 8 -7 1 o 0.123 0.116 0.00 0.97369 0.01
1 10 -9 1 o 4.905 4.591 180.00 0.97364 0.19
1 7 -12 1 o 1.347 1.253 0.00 0.97348 0.05
3 9 2 1 o 31.528 27.969 0.00 0.97236 1.43
0 7 12 1 o 4.328 3.796 0.00 0.97198 0.16
4 5 -4 1 o 0.362 0.316 0.00 0.97178 0.02
4 4 2 1 o 13.721 11.945 0.00 0.97160 0.73
3 4 8 1 o 0.226 0.196 0.00 0.97138 0.01
2 9 -9 1 o 2.976 2.552 0.00 0.97060 0.12
4 3 3 1 o 1.078 0.920 0.00 0.97033 0.06
4 0 4 1 o 0.000 0.000 0.00 0.96991 0.00
1 3 13 1 o 2.271 1.934 180.00 0.96990 0.08
3 9 -5 1 o 22.371 19.125 0.00 0.96959 0.93
0 13 2 1 o 21.524 18.946 180.00 0.96859 0.79
2 4 11 1 o 12.114 10.904 0.00 0.96774 0.43
4 4 -6 1 o 11.777 10.619 0.00 0.96739 0.56
4 1 4 1 o 0.459 0.413 180.00 0.96710 0.02
1 3 -14 1 o 9.133 8.160 180.00 0.96637 0.34
3 1 9 1 o 13.231 11.828 180.00 0.96623 0.52
2 6 10 1 o 2.620 2.345 180.00 0.96613 0.10
4 3 -7 1 o 18.929 17.387 180.00 0.96509 0.90
3 4 -11 1 o 10.202 9.528 0.00 0.96392 0.44
4 0 -8 1 o 16.818 15.660 180.00 0.96365 0.40
0 12 6 1 o 1.916 1.735 0.00 0.96259 0.07
4 5 1 1 o 23.330 21.110 180.00 0.96253 1.17
2 4 -13 1 o 0.219 0.203 180.00 0.96152 0.01
4 1 -8 1 o 2.672 2.547 0.00 0.96090 0.13
3 0 -12 1 o 89.815 85.746 180.00 0.96086 1.94
0 11 8 1 o 6.622 6.377 0.00 0.96051 0.25
0 3 14 1 o 0.964 0.929 180.00 0.96048 0.03
2 6 -12 1 o 38.835 37.433 0.00 0.96045 1.52
4 5 -5 1 o 4.807 4.617 0.00 0.95945 0.22
3 7 6 1 o 3.021 2.884 180.00 0.95907 0.13
4 2 4 1 o 1.563 1.487 0.00 0.95882 0.08
3 1 -12 1 o 3.515 3.334 180.00 0.95813 0.15
3 2 9 1 o 0.200 0.190 180.00 0.95797 0.01
3 6 7 1 o 4.028 3.830 0.00 0.95788 0.17
2 10 6 1 o 1.767 1.702 0.00 0.95712 0.07
0 13 3 1 o 5.052 4.894 180.00 0.95689 0.18
1 6 12 1 o 22.801 22.385 0.00 0.95615 0.78
1 11 7 1 o 1.420 1.411 0.00 0.95513 0.05
2 11 4 1 o 22.963 22.903 0.00 0.95490 0.89
3 9 3 1 o 28.910 29.377 0.00 0.95400 1.22
2 0 12 1 o 45.871 46.712 180.00 0.95370 0.71
2 10 -8 1 o 7.070 7.201 0.00 0.95360 0.26
3 7 -9 1 o 23.032 23.449 0.00 0.95338 0.92
1 11 -8 1 o 0.013 0.013 180.00 0.95325 0.00
1 6 -13 1 o 3.755 3.819 0.00 0.95301 0.13
1 13 0 1 o 9.190 9.346 180.00 0.95296 0.32
1 13 -1 1 o 14.118 14.356 0.00 0.95284 0.49
4 2 -8 1 o 19.254 19.578 0.00 0.95277 0.87
2 11 -6 1 o 15.925 16.210 0.00 0.95240 0.58
1 12 5 1 o 0.000 0.000 0.00 0.95236 0.00
4 6 -2 1 o 0.246 0.251 180.00 0.95189 0.01
3 6 -10 1 o 50.548 51.508 180.00 0.95147 2.03
4 4 3 1 o 6.752 6.842 0.00 0.95114 0.33
2 1 12 1 o 55.784 56.365 180.00 0.95103 1.73
1 12 -6 1 o 7.027 7.092 0.00 0.95100 0.25
1 4 13 1 o 2.364 2.366 0.00 0.95074 0.07
3 9 -6 1 o 22.392 22.313 0.00 0.95063 0.86
3 8 5 1 o 0.000 0.000 0.00 0.95030 0.00
4 6 -1 1 o 0.079 0.077 180.00 0.95013 0.00
3 2 -12 1 o 8.203 7.978 0.00 0.95007 0.34
0 6 13 1 o 3.124 2.968 0.00 0.94947 0.10
4 6 -3 1 o 1.091 1.028 0.00 0.94914 0.05
2 12 -1 1 o 3.080 2.888 180.00 0.94890 0.11
1 13 1 1 o 61.678 57.681 0.00 0.94858 2.14
1 13 -2 1 o 19.351 18.082 180.00 0.94821 0.66
1 4 -14 1 o 21.244 19.938 180.00 0.94741 0.74
2 0 -14 1 o 41.991 39.488 0.00 0.94726 0.79
3 10 -1 1 o 32.242 30.385 180.00 0.94713 1.25
4 5 2 1 o 10.402 9.818 0.00 0.94705 0.49
2 12 0 1 o 0.179 0.169 180.00 0.94691 0.01
3 5 8 1 o 2.503 2.373 180.00 0.94684 0.10
3 10 -2 1 o 1.921 1.825 180.00 0.94676 0.07
2 12 -2 1 o 9.105 8.727 180.00 0.94642 0.32
4 4 -7 1 o 12.063 11.613 180.00 0.94621 0.52
3 8 -8 1 o 36.928 35.614 0.00 0.94550 1.41
4 3 4 1 o 1.565 1.509 180.00 0.94548 0.07
3 3 9 1 o 0.517 0.482 180.00 0.94466 0.02
2 1 -14 1 o 4.189 3.900 0.00 0.94464 0.16
4 6 0 1 o 3.367 3.014 180.00 0.94394 0.15
2 5 11 1 o 11.642 10.257 180.00 0.94347 0.38
2 2 12 1 o 9.617 8.420 0.00 0.94316 0.29
4 5 -6 1 o 0.040 0.035 180.00 0.94315 0.00
3 10 0 1 o 1.776 1.553 0.00 0.94306 0.07
4 6 -4 1 o 1.919 1.629 180.00 0.94200 0.08
3 10 -3 1 o 16.918 14.350 180.00 0.94197 0.63
0 4 14 1 o 0.333 0.282 180.00 0.94186 0.01
0 13 4 1 o 0.006 0.005 0.00 0.94119 0.00
2 12 1 1 o 2.192 1.820 0.00 0.94054 0.08
1 9 10 1 o 0.552 0.459 0.00 0.94018 0.02
3 5 -11 1 o 23.689 19.718 180.00 0.93993 0.91
1 13 2 1 o 0.807 0.671 0.00 0.93987 0.03
4 3 -8 1 o 13.999 11.627 180.00 0.93968 0.59
2 12 -3 1 o 4.201 3.482 180.00 0.93958 0.14
1 13 -3 1 o 1.819 1.494 180.00 0.93927 0.06
2 8 9 1 o 6.111 4.894 0.00 0.93870 0.21
0 9 11 1 o 19.424 15.356 0.00 0.93837 0.66
4 1 5 1 o 0.001 0.001 180.00 0.93814 0.00
2 5 -13 1 o 10.395 8.198 0.00 0.93770 0.37
1 9 -11 1 o 29.725 23.458 180.00 0.93767 1.01
3 3 -12 1 o 8.760 7.099 0.00 0.93709 0.34
2 2 -14 1 o 20.696 16.959 180.00 0.93692 0.75
2 9 8 1 o 11.196 9.689 0.00 0.93623 0.40
1 8 11 1 o 7.877 6.920 180.00 0.93604 0.26
0 10 10 1 o 35.357 32.187 180.00 0.93537 1.20
1 10 9 1 o 0.433 0.396 0.00 0.93489 0.01
3 10 1 1 o 0.215 0.196 0.00 0.93474 0.01
2 8 -11 1 o 2.144 1.950 0.00 0.93396 0.07
4 6 1 1 o 0.085 0.077 180.00 0.93356 0.00
0 12 7 1 o 6.157 5.605 0.00 0.93355 0.21
1 8 -12 1 o 1.781 1.625 0.00 0.93333 0.06
3 10 -4 1 o 2.642 2.433 180.00 0.93297 0.09
1 10 -10 1 o 5.189 4.840 0.00 0.93266 0.17
3 9 4 1 o 34.943 33.138 0.00 0.93236 1.35
0 8 12 1 o 0.500 0.485 0.00 0.93201 0.02
2 9 -10 1 o 0.699 0.679 180.00 0.93199 0.02
2 7 10 1 o 8.679 8.534 180.00 0.93181 0.29
4 1 -9 1 o 0.023 0.023 180.00 0.93153 0.00
2 11 5 1 o 14.492 15.027 180.00 0.93096 0.51
1 0 14 1 o 66.304 68.964 0.00 0.93089 0.92
4 6 -5 1 o 14.985 15.662 0.00 0.93076 0.60
4 2 5 1 o 27.785 29.173 180.00 0.93057 1.23
2 3 12 1 o 0.024 0.026 180.00 0.93045 0.00
2 12 2 1 o 4.715 4.963 180.00 0.93004 0.16
2 12 -4 1 o 6.163 6.600 180.00 0.92865 0.20
3 9 -7 1 o 1.673 1.797 0.00 0.92852 0.06
1 1 14 1 o 0.855 0.920 0.00 0.92841 0.02
2 11 -7 1 o 10.915 11.758 0.00 0.92818 0.36
4 5 3 1 o 21.332 22.969 180.00 0.92807 0.93
4 4 4 1 o 12.893 13.777 0.00 0.92771 0.57
1 5 13 1 o 5.343 5.708 0.00 0.92770 0.16
1 13 3 1 o 9.543 9.971 0.00 0.92718 0.31
3 4 9 1 o 4.565 4.716 180.00 0.92693 0.16
2 7 -12 1 o 1.326 1.355 0.00 0.92671 0.05
1 12 6 1 o 8.158 8.228 180.00 0.92640 0.27
1 13 -4 1 o 1.678 1.690 180.00 0.92637 0.05
1 1 -15 1 o 0.046 0.045 180.00 0.92507 0.00
1 12 -7 1 o 45.284 44.789 0.00 0.92491 1.44
2 10 7 1 o 7.516 7.509 180.00 0.92461 0.26
1 5 -14 1 o 0.605 0.605 180.00 0.92460 0.02
2 3 -14 1 o 11.406 11.459 180.00 0.92446 0.39
3 7 7 1 o 0.280 0.282 0.00 0.92440 0.01
4 2 -9 1 o 9.057 9.198 0.00 0.92412 0.36
4 5 -7 1 o 0.039 0.040 180.00 0.92349 0.00
0 11 9 1 o 0.038 0.039 180.00 0.92327 0.00
1 7 12 1 o 2.335 2.434 180.00 0.92284 0.07
3 10 2 1 o 2.143 2.287 0.00 0.92248 0.08
4 4 -8 1 o 4.892 5.338 180.00 0.92222 0.19
0 13 5 1 o 0.493 0.544 180.00 0.92210 0.02
3 1 0 2 o 0.005 0.005 180.00 0.95616 2.43
1 2 14 1 o 15.726 18.976 180.00 0.92107 0.42
2 10 -9 1 o 12.796 15.536 0.00 0.92098 0.41
3 0 10 1 o 0.068 0.084 0.00 0.92077 0.00
1 11 8 1 o 0.000 0.000 180.00 0.92064 0.00
3 8 6 1 o 2.394 2.974 0.00 0.92060 0.09
3 10 -5 1 o 6.029 7.717 180.00 0.92011 0.20
1 7 -13 1 o 4.191 5.394 0.00 0.92002 0.13
3 4 -12 1 o 0.284 0.370 180.00 0.91977 0.01
0 5 14 1 o 11.379 15.049 0.00 0.91944 0.33
4 6 2 1 o 6.741 8.920 180.00 0.91942 0.28
3 6 8 1 o 3.564 4.745 180.00 0.91923 0.12
4 7 -2 1 o 1.427 1.912 0.00 0.91901 0.06
1 11 -9 1 o 8.455 11.418 180.00 0.91873 0.27
3 7 -10 1 o 7.800 10.565 180.00 0.91863 0.27
3 1 10 1 o 1.345 1.837 0.00 0.91837 0.04
4 3 5 1 o 1.561 2.133 0.00 0.91836 0.07
0 1 15 1 o 1.105 1.529 0.00 0.91798 0.03
1 2 -15 1 o 5.443 7.574 0.00 0.91782 0.17
4 7 -1 1 o 1.036 1.459 0.00 0.91743 0.04
0 7 13 1 o 2.976 4.215 0.00 0.91683 0.09
4 7 -3 1 o 1.042 1.465 0.00 0.91654 0.04
2 6 11 1 o 5.003 6.930 180.00 0.91614 0.15
4 6 -6 1 o 0.630 0.859 180.00 0.91585 0.02
2 12 3 1 o 0.168 0.230 0.00 0.91583 0.01
2 12 -5 1 o 2.839 3.623 180.00 0.91406 0.09
3 8 -9 1 o 5.766 7.772 180.00 0.91557 0.19
2 4 12 1 o 0.705 0.881 0.00 0.91349 0.02
3 6 -11 1 o 0.372 0.471 0.00 0.91290 0.01
4 3 -9 1 o 7.927 10.062 180.00 0.91216 0.30
4 7 0 1 o 1.325 1.652 180.00 0.91185 0.05
3 2 10 1 o 0.005 0.006 0.00 0.91126 0.00
1 13 4 1 o 0.576 0.673 180.00 0.91100 0.02
0 2 15 1 o 0.376 0.437 0.00 0.91089 0.01
2 6 -13 1 o 5.840 6.768 180.00 0.91086 0.19
3 1 -13 1 o 2.405 2.770 180.00 0.91074 0.08
4 7 -4 1 o 3.956 4.430 0.00 0.91010 0.14
1 13 -5 1 o 5.536 6.182 180.00 0.91002 0.16
4 0 6 1 o 16.598 18.519 180.00 0.90999 0.33
1 3 14 1 o 4.001 4.266 0.00 0.90923 0.10
0 14 0 1 o 19.458 19.176 0.00 0.90839 0.28
3 9 5 1 o 0.138 0.135 0.00 0.90817 0.00
2 4 -14 1 o 4.213 4.074 0.00 0.90782 0.13
4 1 6 1 o 1.431 1.384 0.00 0.90767 0.06
3 10 3 1 o 0.148 0.144 180.00 0.90676 0.01
0 14 1 1 o 0.827 0.807 0.00 0.90643 0.02
4 5 4 1 o 0.265 0.259 180.00 0.90626 0.01
1 3 -15 1 o 3.139 3.086 180.00 0.90610 0.09
3 5 9 1 o 6.753 6.928 0.00 0.90554 0.21
2 11 6 1 o 0.009 0.010 0.00 0.90482 0.00
3 9 -8 1 o 2.897 3.356 0.00 0.90398 0.09
3 10 -6 1 o 5.773 6.665 180.00 0.90386 0.18
3 2 -13 1 o 1.572 1.812 180.00 0.90382 0.05
4 0 -10 1 o 3.595 4.010 0.00 0.90311 0.07
0 12 8 1 o 2.259 2.517 0.00 0.90309 0.07
4 7 1 1 o 8.578 9.240 0.00 0.90249 0.32
4 4 5 1 o 0.389 0.411 0.00 0.90204 0.01
4 6 3 1 o 5.429 5.738 180.00 0.90202 0.21
2 11 -8 1 o 1.261 1.327 180.00 0.90184 0.04
1 6 13 1 o 0.189 0.198 180.00 0.90168 0.01
4 5 -8 1 o 2.855 2.987 0.00 0.90114 0.10
4 1 -10 1 o 0.988 1.035 0.00 0.90084 0.04
4 2 6 1 o 8.988 9.418 0.00 0.90082 0.34
0 14 2 1 o 1.321 1.387 0.00 0.90063 0.04
0 13 6 1 o 0.260 0.274 180.00 0.90028 0.01
4 7 -5 1 o 29.843 31.820 0.00 0.89995 1.03
3 3 10 1 o 0.529 0.567 180.00 0.89979 0.02
0 3 15 1 o 0.583 0.628 0.00 0.89942 0.01
3 5 -12 1 o 0.480 0.518 180.00 0.89886 0.02
1 6 -14 1 o 0.064 0.069 180.00 0.89884 0.00
1 12 7 1 o 0.012 0.013 0.00 0.89862 0.00
2 12 4 1 o 1.691 1.839 0.00 0.89843 0.05
2 9 9 1 o 0.117 0.129 180.00 0.89804 0.00
4 6 -7 1 o 14.198 15.920 0.00 0.89782 0.49
1 12 -8 1 o 1.409 1.632 0.00 0.89705 0.04
2 8 10 1 o 6.099 7.171 0.00 0.89641 0.18
3 11 -1 1 o 5.833 6.862 0.00 0.89636 0.18
2 12 -6 1 o 9.348 10.998 180.00 0.89634 0.27
4 4 -9 1 o 34.368 40.454 180.00 0.89617 1.19
3 11 -2 1 o 0.001 0.001 0.00 0.89605 0.00
1 9 11 1 o 2.348 2.752 180.00 0.89570 0.07
2 1 13 1 o 3.076 3.598 180.00 0.89561 0.07
1 10 10 1 o 34.021 39.111 0.00 0.89487 0.98
4 2 -10 1 o 4.139 4.670 0.00 0.89414 0.14
0 6 14 1 o 29.185 32.886 180.00 0.89409 0.77
2 9 -11 1 o 0.100 0.113 180.00 0.89388 0.00
1 4 14 1 o 0.052 0.058 0.00 0.89338 0.00
1 9 -12 1 o 30.916 34.146 180.00 0.89333 0.88
0 10 11 1 o 7.035 7.767 0.00 0.89330 0.20
2 5 12 1 o 1.002 1.102 0.00 0.89299 0.03
3 11 0 1 o 2.836 3.119 180.00 0.89291 0.09
1 10 -11 1 o 3.570 3.930 180.00 0.89270 0.10
3 3 -13 1 o 0.032 0.036 0.00 0.89262 0.00
0 9 12 1 o 24.363 27.078 180.00 0.89217 0.68
3 11 -3 1 o 7.464 8.334 0.00 0.89199 0.22
1 13 5 1 o 1.583 1.773 180.00 0.89189 0.04
2 8 -12 1 o 0.327 0.366 180.00 0.89187 0.01
2 10 8 1 o 5.431 6.171 180.00 0.89146 0.16
0 14 3 1 o 0.405 0.465 0.00 0.89119 0.01
1 13 -6 1 o 0.035 0.041 0.00 0.89077 0.00
1 4 -15 1 o 0.445 0.524 180.00 0.89041 0.01
2 1 -15 1 o 0.750 0.887 180.00 0.88985 0.02
3 8 7 1 o 2.303 2.720 180.00 0.88981 0.07
4 3 6 1 o 0.771 0.910 0.00 0.88973 0.03
4 7 2 1 o 10.681 12.590 180.00 0.88969 0.38
3 7 8 1 o 4.786 5.610 0.00 0.88952 0.15
2 13 -1 1 o 0.964 1.098 180.00 0.88904 0.03
2 2 13 1 o 4.796 5.450 0.00 0.88902 0.11
1 8 12 1 o 0.324 0.346 0.00 0.88842 0.01
3 10 4 1 o 0.283 0.292 180.00 0.88811 0.01
1 14 0 1 o 5.289 5.399 180.00 0.88802 0.14
1 14 -1 1 o 10.183 10.292 0.00 0.88792 0.27
2 10 -10 1 o 0.401 0.401 0.00 0.88780 0.01
2 5 -14 1 o 5.922 5.873 0.00 0.88769 0.17
2 13 0 1 o 11.560 11.264 0.00 0.88741 0.32
2 13 -2 1 o 1.638 1.570 0.00 0.88700 0.04
2 7 11 1 o 2.315 2.204 180.00 0.88672 0.06
4 7 -6 1 o 14.545 13.803 0.00 0.88645 0.47
0 11 10 1 o 7.724 7.327 0.00 0.88638 0.21
1 11 9 1 o 0.591 0.562 180.00 0.88597 0.02
1 8 -13 1 o 1.110 1.057 0.00 0.88590 0.03
3 11 1 1 o 1.286 1.226 0.00 0.88584 0.04
4 8 -2 1 o 2.114 2.086 180.00 0.88500 0.07
3 10 -7 1 o 2.927 2.916 180.00 0.88479 0.08
3 8 -10 1 o 6.816 6.830 0.00 0.88466 0.20
1 14 1 1 o 1.083 1.093 0.00 0.88447 0.03
3 4 10 1 o 0.000 0.000 180.00 0.88443 0.00
3 11 -4 1 o 3.568 3.618 180.00 0.88434 0.10
1 14 -2 1 o 28.209 28.730 180.00 0.88417 0.74
0 4 15 1 o 12.055 12.301 180.00 0.88408 0.29
1 11 -10 1 o 7.135 7.282 0.00 0.88407 0.19
3 7 -11 1 o 5.371 5.507 0.00 0.88378 0.16
4 8 -1 1 o 15.661 16.106 180.00 0.88359 0.52
2 2 -15 1 o 0.017 0.018 0.00 0.88339 0.00
4 3 -10 1 o 15.324 15.847 180.00 0.88329 0.50
0 8 13 1 o 0.081 0.084 180.00 0.88306 0.00
4 8 -3 1 o 2.521 2.632 180.00 0.88279 0.08
4 5 5 1 o 15.256 15.994 180.00 0.88229 0.53
2 13 1 1 o 0.478 0.501 0.00 0.88216 0.01
3 9 6 1 o 2.357 2.472 180.00 0.88215 0.07
4 6 4 1 o 74.929 78.534 180.00 0.88196 2.62
2 7 -13 1 o 0.015 0.016 180.00 0.88193 0.00
2 13 -3 1 o 5.778 6.039 0.00 0.88136 0.15
3 6 9 1 o 1.908 1.994 0.00 0.88130 0.05
4 8 0 1 o 3.220 3.677 180.00 0.87860 0.11
0 14 4 1 o 2.047 2.336 0.00 0.87847 0.05
2 12 5 1 o 11.119 12.671 0.00 0.87840 0.31
2 3 13 1 o 1.889 2.150 180.00 0.87835 0.04
3 9 -9 1 o 2.962 3.282 180.00 0.87772 0.08
3 4 -13 1 o 3.681 4.056 180.00 0.87761 0.11
1 14 2 1 o 0.907 0.987 180.00 0.87740 0.02
4 6 -8 1 o 0.536 0.577 0.00 0.87724 0.02
2 11 7 1 o 0.564 0.606 0.00 0.87720 0.02
4 8 -4 1 o 0.562 0.597 180.00 0.87704 0.02
1 14 -3 1 o 0.027 0.028 0.00 0.87691 0.00
4 5 -9 1 o 7.559 7.901 0.00 0.87679 0.24
4 1 7 1 o 2.173 2.218 0.00 0.87644 0.07
0 13 7 1 o 0.344 0.349 0.00 0.87638 0.01
2 12 -7 1 o 9.200 9.110 180.00 0.87606 0.24
3 11 2 1 o 0.968 0.922 0.00 0.87539 0.03
3 6 -12 1 o 4.810 4.557 0.00 0.87513 0.14
4 4 6 1 o 0.517 0.488 0.00 0.87486 0.02
1 5 14 1 o 0.366 0.340 180.00 0.87418 0.01
2 11 -9 1 o 0.779 0.722 0.00 0.87410 0.02
4 7 3 1 o 97.783 89.754 0.00 0.87390 3.26
1 7 13 1 o 0.951 0.856 180.00 0.87359 0.02
2 13 2 1 o 10.903 9.743 0.00 0.87348 0.29
3 1 11 1 o 1.647 1.470 0.00 0.87346 0.04
3 11 -5 1 o 5.126 4.543 180.00 0.87336 0.14
2 3 -15 1 o 0.511 0.440 0.00 0.87292 0.01
2 13 -4 1 o 0.000 0.000 180.00 0.87233 0.00
0 12 9 1 o 5.935 5.143 0.00 0.87193 0.15
1 5 -15 1 o 2.498 2.338 0.00 0.87140 0.06
1 1 15 1 o 7.089 6.758 0.00 0.87128 0.15
1 7 -14 1 o 6.337 6.312 0.00 0.87100 0.16
1 13 6 1 o 0.992 1.057 0.00 0.87046 0.03
1 0 -16 1 o 3.179 3.420 180.00 0.87037 0.04
4 2 7 1 o 1.346 1.461 180.00 0.87027 0.04
4 8 1 1 o 0.432 0.471 0.00 0.87022 0.01
4 7 -7 1 o 0.873 0.962 180.00 0.87007 0.03
2 6 12 1 o 2.752 3.107 180.00 0.86972 0.07
1 12 8 1 o 0.561 0.633 180.00 0.86972 0.01
4 1 -11 1 o 0.006 0.007 180.00 0.86953 0.00
1 13 -7 1 o 14.625 16.928 0.00 0.86922 0.37
4 4 -10 1 o 6.140 7.145 180.00 0.86874 0.19
3 0 -14 1 o 4.598 5.295 180.00 0.86835 0.07
1 1 -16 1 o 1.711 1.970 180.00 0.86834 0.04
1 12 -9 1 o 24.702 28.251 0.00 0.86811 0.62
4 8 -5 1 o 1.341 1.528 180.00 0.86794 0.04
3 2 11 1 o 0.032 0.036 0.00 0.86734 0.00
3 10 5 1 o 6.131 6.994 0.00 0.86713 0.18
1 14 3 1 o 6.758 7.717 0.00 0.86705 0.17
0 7 14 1 o 1.598 1.833 0.00 0.86668 0.04
1 14 -4 1 o 0.003 0.003 180.00 0.86639 0.00
3 1 -14 1 o 3.217 3.703 180.00 0.86633 0.09
3 5 10 1 o 8.511 9.796 180.00 0.86578 0.22
0 5 15 1 o 13.550 15.478 180.00 0.86546 0.31
1 2 15 1 o 13.581 15.395 180.00 0.86521 0.29
2 6 -14 1 o 7.207 8.111 180.00 0.86482 0.19
2 4 13 1 o 11.744 13.403 0.00 0.86404 0.26
4 2 -11 1 o 9.591 11.141 0.00 0.86349 0.29
3 10 -8 1 o 6.218 7.225 180.00 0.86348 0.16
0 14 5 1 o 10.060 11.773 180.00 0.86289 0.24
0 0 16 1 o 0.806 0.943 180.00 0.86286 0.01
1 2 -16 1 o 0.626 0.725 180.00 0.86233 0.02
3 11 3 1 o 7.161 8.162 0.00 0.86192 0.20
2 13 3 1 o 8.399 9.465 0.00 0.86168 0.21
0 1 16 1 o 2.614 2.870 180.00 0.86088 0.06
2 9 10 1 o 2.568 2.818 180.00 0.86080 0.06
3 2 -14 1 o 6.217 6.833 0.00 0.86036 0.17
4 3 7 1 o 0.988 1.087 0.00 0.86025 0.03
2 13 -5 1 o 1.588 1.748 180.00 0.86020 0.04
4 6 5 1 o 5.858 6.485 180.00 0.85982 0.18
3 11 -6 1 o 0.223 0.248 180.00 0.85943 0.01
3 5 -13 1 o 2.533 2.810 0.00 0.85939 0.07
2 4 -15 1 o 4.994 5.528 0.00 0.85888 0.13
4 8 2 1 o 13.613 15.066 0.00 0.85873 0.42
3 8 8 1 o 0.145 0.160 180.00 0.85857 0.00
2 10 9 1 o 2.712 3.007 0.00 0.85830 0.07
3 3 11 1 o 8.212 8.968 0.00 0.85743 0.19
1 3 15 1 o 0.041 0.041 0.00 0.85537 0.00
4 5 6 1 o 3.065 3.233 180.00 0.85681 0.09
2 9 -12 1 o 4.713 4.961 180.00 0.85677 0.12
0 2 16 1 o 12.190 12.132 180.00 0.85502 0.25
3 7 9 1 o 5.749 5.723 0.00 0.85501 0.15
3 9 7 1 o 0.305 0.304 180.00 0.85494 0.01
2 12 6 1 o 0.050 0.052 0.00 0.85634 0.00
1 10 11 1 o 1.588 1.626 180.00 0.85626 0.04
4 6 -9 1 o 0.305 0.306 180.00 0.85473 0.01
2 10 -11 1 o 0.687 0.689 180.00 0.85467 0.02
2 8 11 1 o 7.968 8.075 0.00 0.85606 0.19
4 8 -6 1 o 6.692 6.708 180.00 0.85582 0.19
1 10 -12 1 o 1.150 1.167 180.00 0.85418 0.03
4 7 4 1 o 0.025 0.024 0.00 0.85562 0.00
2 12 -8 1 o 0.000 0.000 0.00 0.85381 0.00
1 14 4 1 o 9.270 9.506 0.00 0.85377 0.22
1 9 12 1 o 22.099 22.687 0.00 0.85371 0.52
4 3 -11 1 o 0.011 0.012 180.00 0.85371 0.00
3 8 -11 1 o 18.488 19.043 180.00 0.85341 0.48
0 10 12 1 o 0.729 0.751 180.00 0.85317 0.02
1 14 -5 1 o 5.885 6.062 180.00 0.85297 0.14
1 3 -16 1 o 4.241 4.384 0.00 0.85258 0.10
1 6 14 1 o 0.661 0.687 0.00 0.85231 0.01
5 0 -2 1 o 0.700 0.732 180.00 0.85211 0.01
2 8 -13 1 o 10.153 10.688 0.00 0.85174 0.25
1 11 10 1 o 23.152 24.391 180.00 0.85168 0.55
1 9 -13 1 o 1.554 1.640 0.00 0.85148 0.04
4 7 -8 1 o 9.871 10.428 0.00 0.85131 0.27
4 5 -10 1 o 0.312 0.330 180.00 0.85105 0.01
0 13 8 1 o 2.950 3.115 180.00 0.85104 0.07
3 3 -14 1 o 11.282 11.848 0.00 0.85068 0.30
4 9 -2 1 o 1.170 1.228 0.00 0.85068 0.03
3 9 -10 1 o 53.927 56.221 0.00 0.85038 1.36
0 11 11 1 o 1.892 1.970 180.00 0.85034 0.04
5 1 -2 1 o 0.202 0.210 180.00 0.85020 0.01
1 11 -11 1 o 3.200 3.283 180.00 0.84982 0.07
5 1 -3 1 o 0.786 0.805 0.00 0.84976 0.03
1 6 -15 1 o 3.459 3.540 0.00 0.84973 0.08
4 9 -1 1 o 2.905 2.946 0.00 0.84942 0.08
3 7 -12 1 o 8.852 8.965 180.00 0.84938 0.23
3 12 -1 1 o 0.108 0.109 0.00 0.84916 0.00
0 9 13 1 o 5.424 5.418 0.00 0.84895 0.12
3 12 -2 1 o 7.440 7.420 180.00 0.84890 0.18
2 11 8 1 o 8.929 8.868 0.00 0.84874 0.22
4 9 -3 1 o 2.133 2.117 180.00 0.84872 0.06
5 0 -4 1 o 0.394 0.390 0.00 0.84800 0.01
2 0 14 1 o 85.212 84.417 180.00 0.84755 0.83
5 1 -1 1 o 1.889 1.871 180.00 0.84744 0.06
1 13 7 1 o 4.813 4.763 0.00 0.84729 0.11
2 13 4 1 o 0.472 0.466 180.00 0.84713 0.01
4 0 8 1 o 1.938 1.909 180.00 0.84692 0.03
4 4 7 1 o 16.283 16.009 0.00 0.84680 0.46
2 5 13 1 o 0.002 0.002 180.00 0.84664 0.00
0 15 1 1 o 2.314 2.247 0.00 0.84624 0.05
3 12 0 1 o 5.215 5.062 0.00 0.84623 0.13
5 1 -4 1 o 2.825 2.733 180.00 0.84612 0.09
1 13 -8 1 o 3.503 3.368 180.00 0.84598 0.08
3 11 4 1 o 0.027 0.025 180.00 0.84586 0.00
2 1 14 1 o 17.302 16.343 180.00 0.84567 0.34
2 11 -10 1 o 0.259 0.243 0.00 0.84558 0.01
0 3 16 1 o 10.854 10.126 0.00 0.84552 0.22
3 12 -3 1 o 0.451 0.418 180.00 0.84544 0.01
2 13 -6 1 o 0.246 0.227 0.00 0.84538 0.01
4 1 8 1 o 2.273 2.028 0.00 0.84505 0.06
4 9 0 1 o 0.687 0.609 180.00 0.84499 0.02
0 14 6 1 o 6.934 6.118 0.00 0.84493 0.16
5 2 -2 1 o 1.542 1.322 180.00 0.84456 0.05
3 6 10 1 o 0.000 0.000 0.00 0.84452 0.00
4 8 3 1 o 0.219 0.187 0.00 0.84450 0.01
2 7 12 1 o 0.052 0.045 0.00 0.84443 0.00
3 10 6 1 o 0.678 0.576 0.00 0.84440 0.02
1 8 13 1 o 0.001 0.000 0.00 0.84422 0.00
0 6 15 1 o 3.226 2.729 0.00 0.84422 0.07
5 2 -3 1 o 0.343 0.290 0.00 0.84413 0.01
3 4 11 1 o 4.807 4.063 180.00 0.84410 0.11
4 9 -4 1 o 10.890 9.261 180.00 0.84360 0.29
5 0 0 1 o 25.708 21.935 0.00 0.84340 0.42
3 11 -7 1 o 0.017 0.014 0.00 0.84299 0.00
2 0 -16 1 o 8.714 7.680 180.00 0.84232 0.11
1 4 15 1 o 2.918 2.595 180.00 0.84214 0.06
1 8 -14 1 o 7.806 7.039 180.00 0.84189 0.18
5 2 -1 1 o 0.005 0.004 180.00 0.84185 0.00
2 5 -15 1 o 0.031 0.028 180.00 0.84177 0.00
5 1 0 1 o 18.517 17.025 0.00 0.84155 0.59
0 15 2 1 o 6.761 6.232 0.00 0.84151 0.15
4 8 -7 1 o 0.592 0.561 180.00 0.84105 0.02
0 12 10 1 o 1.955 1.894 0.00 0.84066 0.04
5 2 -4 1 o 1.525 1.484 180.00 0.84056 0.05
4 4 -11 1 o 0.002 0.002 180.00 0.84056 0.00
3 10 -9 1 o 0.621 0.606 0.00 0.84051 0.01
2 1 -16 1 o 0.986 0.963 180.00 0.84048 0.02
2 2 2 2 o 0.005 0.005 180.00 0.87285 0.54
1 12 9 1 o 8.329 8.176 0.00 0.84031 0.19
3 12 1 1 o 6.997 6.888 0.00 0.84020 0.17
2 2 14 1 o 18.972 18.706 0.00 0.84012 0.36
4 0 -12 1 o 1.327 1.310 0.00 0.83999 0.02
2 7 -14 1 o 0.362 0.358 180.00 0.83994 0.01
4 2 8 1 o 7.305 7.242 0.00 0.83951 0.19
1 4 -16 1 o 0.014 0.014 180.00 0.83948 0.00
5 1 -5 1 o 3.556 3.528 180.00 0.83941 0.11
3 12 -4 1 o 0.025 0.025 180.00 0.83892 0.00
1 12 -10 1 o 4.604 4.610 0.00 0.83869 0.10
3 6 -13 1 o 2.308 2.313 0.00 0.83859 0.06
4 1 -12 1 o 22.686 22.716 0.00 0.83816 0.61
1 14 5 1 o 9.055 9.050 0.00 0.83799 0.20
0 8 14 1 o 0.683 0.683 180.00 0.83798 0.01
3 4 -14 1 o 1.026 1.023 180.00 0.83767 0.03
4 9 1 1 o 1.639 1.633 180.00 0.83752 0.04
1 14 -6 1 o 0.776 0.775 180.00 0.83705 0.02
4 6 6 1 o 1.887 1.893 180.00 0.83619 0.05
5 2 0 1 o 0.103 0.103 180.00 0.83608 0.00
2 14 -1 1 o 0.406 0.407 180.00 0.83562 0.01
4 9 -5 1 o 3.028 3.034 180.00 0.83549 0.08
5 3 -2 1 o 2.955 2.957 180.00 0.83540 0.09
4 7 5 1 o 25.718 25.727 0.00 0.83536 0.71
2 2 -16 1 o 0.161 0.160 180.00 0.83503 0.00
5 3 -3 1 o 0.406 0.404 180.00 0.83498 0.01
2 14 0 1 o 19.242 18.816 0.00 0.83426 0.42
5 2 -5 1 o 0.260 0.252 0.00 0.83398 0.01
2 14 -2 1 o 0.147 0.142 0.00 0.83393 0.00
0 15 3 1 o 1.582 1.528 180.00 0.83380 0.03
3 0 12 1 o 12.224 11.868 0.00 0.83330 0.12
2 12 7 1 o 0.540 0.535 0.00 0.83282 0.01
5 3 -1 1 o 0.177 0.176 180.00 0.83277 0.01
4 2 -12 1 o 18.792 18.675 180.00 0.83275 0.49
5 1 1 1 o 2.200 2.188 0.00 0.83274 0.07
0 4 16 1 o 7.546 7.508 0.00 0.83273 0.14
5 0 -6 1 o 55.636 60.161 0.00 0.83161 0.79
5 3 -4 1 o 7.570 8.221 0.00 0.83153 0.22
3 1 12 1 o 11.541 12.537 0.00 0.83152 0.23
3 12 2 1 o 0.638 0.699 180.00 0.83126 0.02
1 15 0 1 o 44.402 48.675 0.00 0.83120 0.92
1 15 -1 1 o 4.171 4.575 180.00 0.83112 0.09
2 3 14 1 o 1.646 1.806 0.00 0.83110 0.03
4 6 -10 1 o 2.426 2.659 180.00 0.83084 0.06
4 7 -9 1 o 0.091 0.100 0.00 0.83069 0.00
4 3 8 1 o 0.851 0.931 0.00 0.83051 0.02
4 5 7 1 o 4.798 5.254 180.00 0.83039 0.13
2 13 5 1 o 4.642 5.087 0.00 0.83028 0.10
2 12 -9 1 o 4.701 5.160 180.00 0.83016 0.10
2 14 1 1 o 5.268 5.809 180.00 0.82989 0.11
5 1 -6 1 o 10.498 11.585 180.00 0.82984 0.30
3 12 -5 1 o 0.083 0.092 180.00 0.82953 0.00
2 14 -3 1 o 7.065 7.775 180.00 0.82924 0.15
1 7 14 1 o 0.328 0.340 0.00 0.82847 0.01
2 13 -7 1 o 2.596 2.622 180.00 0.82831 0.05
1 15 1 1 o 1.552 1.561 180.00 0.82828 0.03
1 15 -2 1 o 6.958 6.631 0.00 0.82804 0.14
4 8 4 1 o 3.766 3.530 0.00 0.82797 0.10
3 5 11 1 o 5.536 5.034 180.00 0.82785 0.12
3 11 5 1 o 10.776 9.339 0.00 0.82767 0.26
5 2 1 1 o 0.003 0.002 0.00 0.82744 0.00
3 8 9 1 o 7.704 6.265 180.00 0.82742 0.17
4 9 2 1 o 2.007 1.575 0.00 0.82727 0.05
5 3 0 1 o 4.595 3.545 180.00 0.82719 0.14
3 9 8 1 o 1.309 0.997 0.00 0.82713 0.03
2 6 13 1 o 3.210 2.286 180.00 0.82673 0.06
3 2 12 1 o 0.925 0.626 0.00 0.82624 0.02
2 3 -16 1 o 3.218 2.167 0.00 0.82617 0.07
1 7 -15 1 o 2.792 1.873 180.00 0.82610 0.06
1 5 15 1 o 3.414 2.282 0.00 0.82600 0.06
2 10 10 1 o 4.578 3.056 180.00 0.82561 0.10
5 3 -5 1 o 0.459 0.315 0.00 0.82515 0.01
0 14 7 1 o 11.356 7.841 180.00 0.82508 0.23
2 9 11 1 o 0.719 0.507 180.00 0.82488 0.02
3 1 -15 1 o 0.259 0.183 0.00 0.82488 0.01
0 13 9 1 o 3.879 2.758 180.00 0.82481 0.08
4 9 -6 1 o 3.061 2.218 180.00 0.82466 0.07
5 2 -6 1 o 9.752 7.136 180.00 0.82459 0.27
4 5 -11 1 o 2.085 1.544 180.00 0.82450 0.05
3 11 -8 1 o 4.686 3.474 180.00 0.82450 0.10
4 8 -8 1 o 7.327 5.807 180.00 0.82406 0.17
4 3 -12 1 o 2.954 2.378 180.00 0.82397 0.07
1 5 -16 1 o 3.235 2.796 180.00 0.82349 0.07
0 15 4 1 o 3.604 3.171 0.00 0.82335 0.07
5 4 -2 1 o 0.015 0.014 0.00 0.82306 0.00
5 0 2 1 o 1.175 1.078 0.00 0.82300 0.02
1 13 8 1 o 0.360 0.332 0.00 0.82294 0.01
5 4 -3 1 o 0.127 0.120 0.00 0.82266 0.00
2 14 2 1 o 1.286 1.216 180.00 0.82266 0.03
3 9 -11 1 o 2.214 2.114 180.00 0.82251 0.05
1 15 2 1 o 15.001 14.356 0.00 0.82247 0.30
1 0 16 1 o 4.305 4.139 180.00 0.82235 0.04
3 8 -12 1 o 1.660 1.598 0.00 0.82232 0.04
2 6 -15 1 o 0.173 0.167 180.00 0.82219 0.00
1 15 -3 1 o 0.030 0.029 0.00 0.82206 0.00
2 10 -12 1 o 0.003 0.003 180.00 0.82206 0.00
3 5 -14 1 o 1.982 1.927 180.00 0.82178 0.05
2 14 -4 1 o 2.826 2.747 180.00 0.82170 0.06
1 13 -9 1 o 0.213 0.207 0.00 0.82157 0.00
3 7 10 1 o 3.718 3.585 0.00 0.82131 0.08
5 1 2 1 o 9.537 9.185 0.00 0.82128 0.28
0 7 15 1 o 4.992 4.744 0.00 0.82103 0.10
2 9 -13 1 o 5.537 5.255 180.00 0.82101 0.12
1 1 16 1 o 0.640 0.593 0.00 0.82064 0.01
5 4 -1 1 o 1.066 0.982 180.00 0.82055 0.03
3 10 7 1 o 0.026 0.024 180.00 0.82044 0.00
1 14 6 1 o 0.200 0.179 180.00 0.82013 0.00
2 11 9 1 o 0.181 0.161 180.00 0.81998 0.00
3 2 -15 1 o 2.908 2.557 0.00 0.81972 0.07
3 12 3 1 o 1.381 1.215 180.00 0.81970 0.03
5 4 -4 1 o 0.576 0.512 180.00 0.81936 0.02
1 10 12 1 o 3.225 2.866 0.00 0.81936 0.07
1 14 -7 1 o 7.580 6.882 180.00 0.81910 0.15
2 4 14 1 o 0.008 0.008 180.00 0.81895 0.00
5 3 1 1 o 1.531 1.431 0.00 0.81882 0.04
4 4 8 1 o 2.678 2.606 180.00 0.81838 0.06
1 11 11 1 o 27.414 27.035 0.00 0.81820 0.56
1 1 -17 1 o 0.000 0.000 0.00 0.81802 0.00
2 8 12 1 o 3.317 3.341 0.00 0.81782 0.07
5 1 -7 1 o 0.148 0.150 180.00 0.81770 0.00
3 3 12 1 o 6.261 6.337 180.00 0.81766 0.12
3 12 -6 1 o 0.895 0.907 180.00 0.81756 0.02
1 10 -13 1 o 6.526 6.607 0.00 0.81738 0.13
0 5 16 1 o 1.718 1.723 180.00 0.81712 0.03
2 11 -11 1 o 12.287 12.106 0.00 0.81681 0.25
4 10 -2 1 o 5.453 5.321 180.00 0.81667 0.13
3 10 -10 1 o 4.183 3.993 180.00 0.81641 0.09
1 11 -12 1 o 5.961 5.680 180.00 0.81639 0.12
5 2 2 1 o 0.855 0.799 180.00 0.81619 0.02
5 3 -6 1 o 0.749 0.690 180.00 0.81606 0.02
3 7 -13 1 o 0.001 0.001 0.00 0.81585 0.00
1 2 16 1 o 0.719 0.632 0.00 0.81556 0.01
4 10 -1 1 o 1.339 1.176 0.00 0.81556 0.03
0 11 12 1 o 12.709 11.125 0.00 0.81550 0.25
5 4 0 1 o 0.308 0.268 180.00 0.81521 0.01
0 10 13 1 o 1.049 0.911 0.00 0.81514 0.02
4 10 -3 1 o 3.443 3.020 0.00 0.81494 0.08
4 9 3 1 o 1.749 1.600 180.00 0.81453 0.04
1 9 13 1 o 1.387 1.309 180.00 0.81428 0.03
2 4 -16 1 o 0.121 0.115 180.00 0.81423 0.00
4 1 9 1 o 7.724 7.529 180.00 0.81396 0.17
1 15 3 1 o 0.017 0.017 0.00 0.81392 0.00
2 8 -14 1 o 0.251 0.248 0.00 0.81374 0.01
4 7 6 1 o 0.028 0.028 180.00 0.81364 0.00
1 15 -4 1 o 0.467 0.472 0.00 0.81338 0.01
5 4 -5 1 o 6.122 6.226 0.00 0.81326 0.16
1 2 -17 1 o 2.327 2.399 180.00 0.81299 0.04
2 14 3 1 o 10.309 10.732 180.00 0.81278 0.21
5 2 -7 1 o 5.405 5.648 180.00 0.81268 0.14
1 9 -14 1 o 1.092 1.148 180.00 0.81218 0.02
4 4 -12 1 o 9.166 9.635 0.00 0.81212 0.21
4 10 0 1 o 0.720 0.757 180.00 0.81163 0.02
4 6 7 1 o 0.524 0.551 0.00 0.81158 0.01
2 13 6 1 o 0.003 0.004 0.00 0.81158 0.00
2 14 -5 1 o 0.082 0.086 180.00 0.81154 0.00
4 9 -7 1 o 0.276 0.291 0.00 0.81142 0.01
3 3 -15 1 o 0.658 0.697 0.00 0.81134 0.01
1 12 10 1 o 5.849 6.270 180.00 0.81089 0.12
0 15 5 1 o 2.930 3.156 180.00 0.81048 0.06
0 1 17 1 o 3.588 3.865 180.00 0.81045 0.06
4 10 -4 1 o 1.360 1.464 0.00 0.81040 0.03
0 12 11 1 o 1.925 2.040 0.00 0.80972 0.04
4 8 5 1 o 0.704 0.742 0.00 0.80957 0.02
2 13 -8 1 o 4.412 4.629 0.00 0.80943 0.09
1 12 -11 1 o 0.331 0.346 0.00 0.80927 0.01
3 6 11 1 o 14.792 15.400 0.00 0.80921 0.29
4 2 9 1 o 2.268 2.342 180.00 0.80900 0.05
4 7 -10 1 o 13.611 13.861 0.00 0.80870 0.30
0 9 14 1 o 6.728 6.839 180.00 0.80867 0.13
2 12 8 1 o 0.012 0.012 0.00 0.80835 0.00
5 5 -2 1 o 0.402 0.391 0.00 0.80797 0.01
5 3 2 1 o 2.650 2.562 180.00 0.80791 0.07
3 11 6 1 o 0.254 0.245 180.00 0.80783 0.01
5 5 -3 1 o 1.237 1.179 0.00 0.80759 0.03
5 1 3 1 o 1.099 1.046 180.00 0.80750 0.03
1 6 15 1 o 0.463 0.440 180.00 0.80748 0.01
1 3 16 1 o 1.707 1.626 180.00 0.80730 0.03
5 4 1 1 o 2.416 2.309 180.00 0.80719 0.06
4 1 -13 1 o 0.099 0.094 0.00 0.80719 0.00
4 6 -11 1 o 0.421 0.437 180.00 0.80608 0.01
3 4 12 1 o 2.690 2.790 180.00 0.80608 0.05
3 12 4 1 o 0.432 0.456 180.00 0.80585 0.01
2 12 -10 1 o 0.001 0.001 0.00 0.80562 0.00
5 5 -1 1 o 1.420 1.519 0.00 0.80560 0.04
0 2 17 1 o 0.327 0.350 0.00 0.80556 0.01
3 13 -1 1 o 0.554 0.595 180.00 0.80546 0.01
4 8 -9 1 o 3.881 4.187 0.00 0.80532 0.08
3 13 -2 1 o 3.605 3.893 0.00 0.80523 0.07
1 6 -16 1 o 1.075 1.161 0.00 0.80513 0.02
4 10 1 1 o 11.658 12.568 0.00 0.80501 0.26
5 0 -8 1 o 35.156 37.851 0.00 0.80496 0.43
2 7 13 1 o 17.070 18.350 0.00 0.80491 0.31
1 3 -17 1 o 5.462 5.847 180.00 0.80481 0.10
5 4 -6 1 o 0.021 0.022 180.00 0.80454 0.00
5 3 -7 1 o 3.169 3.324 0.00 0.80451 0.08
5 5 -4 1 o 14.357 15.006 0.00 0.80447 0.35
3 11 -9 1 o 0.432 0.450 0.00 0.80443 0.01
2 5 14 1 o 0.036 0.036 180.00 0.80408 0.00
0 14 8 1 o 24.455 23.813 0.00 0.80383 0.46
4 5 8 1 o 0.804 0.757 0.00 0.80355 0.02
3 6 -14 1 o 1.118 1.051 0.00 0.80353 0.02
3 12 -7 1 o 1.818 1.677 180.00 0.80337 0.04
5 1 -8 1 o 1.469 1.353 180.00 0.80335 0.04
1 8 14 1 o 1.392 1.274 180.00 0.80330 0.02
4 10 -5 1 o 1.120 1.016 180.00 0.80321 0.02
3 13 0 1 o 5.539 4.904 180.00 0.80295 0.11
1 15 4 1 o 0.455 0.402 180.00 0.80291 0.01
5 2 3 1 o 21.949 18.980 0.00 0.80266 0.58
4 2 -13 1 o 0.210 0.178 0.00 0.80235 0.00
3 13 -3 1 o 3.640 3.072 0.00 0.80228 0.07
1 15 -5 1 o 1.693 1.425 180.00 0.80224 0.03
3 4 -15 1 o 5.374 4.520 0.00 0.80002 0.11
1 8 -15 1 o 10.444 8.476 180.00 0.80113 0.19
4 9 4 1 o 7.335 6.287 0.00 0.79966 0.17
2 5 -16 1 o 8.195 7.043 0.00 0.79962 0.16
1 14 -8 1 o 0.328 0.283 180.00 0.79956 0.01
4 3 9 1 o 0.262 0.214 180.00 0.80094 0.01
2 7 -15 1 o 6.194 5.081 0.00 0.80073 0.12
1 14 7 1 o 1.341 1.102 0.00 0.80067 0.03
0 6 16 1 o 0.211 0.186 0.00 0.79917 0.00
3 9 9 1 o 3.928 3.462 0.00 0.79917 0.08
2 1 15 1 o 5.186 4.276 0.00 0.80055 0.08
5 5 0 1 o 2.334 1.925 0.00 0.80054 0.06
2 14 4 1 o 1.142 0.942 180.00 0.80054 0.02
2 14 -6 1 o 7.455 6.606 180.00 0.79906 0.14
5 5 -5 1 o 14.162 12.717 0.00 0.79869 0.34
5 2 -8 1 o 38.407 34.558 180.00 0.79859 0.91
0 13 10 1 o 0.020 0.018 0.00 0.79819 0.00
1 13 9 1 o 5.840 5.170 180.00 0.79789 0.11
3 13 1 1 o 4.750 4.178 180.00 0.79780 0.09
4 5 -12 1 o 3.576 3.104 0.00 0.79762 0.08
0 3 17 1 o 1.714 1.485 0.00 0.79760 0.03
3 8 10 1 o 0.239 0.199 0.00 0.79677 0.00
5 4 2 1 o 0.808 0.675 180.00 0.79674 0.02
3 13 -4 1 o 0.370 0.309 0.00 0.79670 0.01
0 8 15 1 o 1.140 0.950 0.00 0.79651 0.02
1 13 -10 1 o 2.268 1.891 180.00 0.79650 0.04
1 4 16 1 o 5.530 4.575 180.00 0.79615 0.09
4 9 -8 1 o 28.191 23.313 180.00 0.79614 0.58
4 10 2 1 o 0.829 0.675 0.00 0.79589 0.02
2 1 -17 1 o 1.849 1.501 0.00 0.79585 0.04
2 2 15 1 o 8.545 6.931 180.00 0.79583 0.13
3 10 8 1 o 1.284 1.035 0.00 0.79577 0.03
0 15 6 1 o 7.722 6.104 0.00 0.79554 0.14
0 16 0 1 o 1.918 1.460 0.00 0.79484 0.02
5 3 3 1 o 0.002 0.002 0.00 0.79479 0.00
3 9 -12 1 o 4.819 3.686 0.00 0.79456 0.09
4 3 -13 1 o 0.313 0.240 0.00 0.79449 0.01
2 10 11 1 o 0.599 0.476 0.00 0.79376 0.01
1 4 -17 1 o 1.289 1.026 180.00 0.79376 0.02
4 10 -6 1 o 0.118 0.095 0.00 0.79357 0.00
0 16 1 1 o 0.167 0.135 0.00 0.79353 0.00
5 4 -7 1 o 8.596 6.961 0.00 0.79347 0.20
5 0 4 1 o 0.488 0.399 180.00 0.79332 0.01
5 5 1 1 o 0.261 0.217 180.00 0.79294 0.01
3 1 13 1 o 19.443 16.136 180.00 0.79247 0.31
3 5 12 1 o 3.711 3.072 180.00 0.79189 0.06
5 1 4 1 o 0.714 0.592 0.00 0.79178 0.02
3 8 -13 1 o 0.264 0.219 180.00 0.79177 0.01
3 10 -11 1 o 0.983 0.817 0.00 0.79165 0.02
2 13 7 1 o 6.921 5.767 0.00 0.79147 0.13
2 11 10 1 o 1.034 0.863 180.00 0.79134 0.02
2 2 -17 1 o 2.269 1.891 180.00 0.79122 0.04
4 7 7 1 o 2.646 2.192 180.00 0.79091 0.06
5 3 -8 1 o 3.296 2.725 0.00 0.79083 0.07
5 6 -2 1 o 1.290 1.063 0.00 0.79061 0.03
2 9 12 1 o 1.857 1.531 0.00 0.79050 0.03
5 5 -6 1 o 1.098 0.907 0.00 0.79043 0.02
2 10 -13 1 o 0.055 0.045 0.00 0.79032 0.00
5 6 -3 1 o 3.022 2.510 180.00 0.79026 0.07
3 13 2 1 o 2.771 2.317 180.00 0.79014 0.05
3 12 5 1 o 7.167 6.014 180.00 0.79008 0.14
4 4 9 1 o 0.000 0.000 0.00 0.79005 0.00
4 8 6 1 o 1.236 1.066 0.00 0.78975 0.03
1 15 5 1 o 0.919 0.793 0.00 0.78974 0.02
0 16 2 1 o 2.583 2.253 0.00 0.78963 0.04
2 13 -9 1 o 10.352 9.343 180.00 0.78919 0.18
1 15 -6 1 o 0.186 0.170 180.00 0.78896 0.00
3 7 11 1 o 12.863 11.853 180.00 0.78872 0.23
3 13 -5 1 o 2.390 2.209 180.00 0.78864 0.04
5 6 -1 1 o 3.870 3.621 180.00 0.78839 0.09
2 11 -12 1 o 0.008 0.007 180.00 0.78821 0.00
2 3 15 1 o 0.197 0.187 0.00 0.78816 0.00
3 2 13 1 o 12.369 11.894 0.00 0.78790 0.20
3 0 -16 1 o 3.293 3.184 180.00 0.78780 0.03
2 15 -1 1 o 0.002 0.002 180.00 0.78776 0.00
5 6 -4 1 o 6.185 6.120 0.00 0.78733 0.14
3 12 -8 1 o 5.674 5.616 180.00 0.78732 0.10
5 2 4 1 o 1.795 1.781 0.00 0.78722 0.04
5 1 -9 1 o 2.455 2.437 180.00 0.78716 0.05
1 7 15 1 o 28.897 28.686 180.00 0.78712 0.47
2 6 14 1 o 0.049 0.048 180.00 0.78697 0.00
0 4 17 1 o 0.252 0.249 0.00 0.78684 0.00
2 9 -14 1 o 3.509 3.463 0.00 0.78682 0.06
3 11 7 1 o 6.637 6.540 0.00 0.78678 0.13
2 15 0 1 o 27.920 27.293 180.00 0.78662 0.48
4 6 8 1 o 0.006 0.006 180.00 0.78646 0.00
2 15 -2 1 o 0.062 0.060 180.00 0.78634 0.00
3 1 -16 1 o 8.972 8.574 0.00 0.78629 0.18
2 14 5 1 o 11.262 10.744 180.00 0.78627 0.20
3 5 -15 1 o 0.005 0.004 0.00 0.78614 0.00
1 11 12 1 o 1.856 1.717 180.00 0.78582 0.03
4 7 -11 1 o 0.009 0.008 180.00 0.78582 0.00
4 8 -10 1 o 1.239 1.144 180.00 0.78524 0.02
4 0 10 1 o 2.514 2.344 180.00 0.78502 0.02
1 7 -16 1 o 9.011 8.438 0.00 0.78494 0.15
2 14 -7 1 o 0.139 0.134 180.00 0.78459 0.00
4 10 3 1 o 0.004 0.004 180.00 0.78453 0.00
1 10 13 1 o 2.698 2.634 180.00 0.78430 0.05
5 4 3 1 o 2.470 2.431 180.00 0.78414 0.06
1 11 -13 1 o 4.051 3.999 180.00 0.78408 0.07
4 4 -13 1 o 0.008 0.008 0.00 0.78385 0.00
2 3 -17 1 o 5.125 5.148 0.00 0.78367 0.09
5 6 0 1 o 8.533 8.583 180.00 0.78364 0.19
4 1 10 1 o 0.368 0.372 0.00 0.78353 0.01
3 7 -14 1 o 1.415 1.435 0.00 0.78346 0.03
4 11 -2 1 o 7.412 7.515 0.00 0.78345 0.14
2 12 9 1 o 4.631 4.710 180.00 0.78338 0.08
0 16 3 1 o 15.036 15.370 0.00 0.78325 0.25
3 11 -10 1 o 0.067 0.069 0.00 0.78322 0.00
4 9 5 1 o 0.671 0.690 180.00 0.78305 0.01
5 5 2 1 o 0.248 0.255 180.00 0.78303 0.01
2 15 1 1 o 3.010 3.099 0.00 0.78296 0.05
2 6 -16 1 o 4.652 4.796 0.00 0.78278 0.08
5 2 -9 1 o 18.583 19.155 180.00 0.78268 0.40
1 5 16 1 o 2.293 2.360 0.00 0.78247 0.03
4 11 -1 1 o 2.645 2.721 180.00 0.78247 0.05
1 10 -14 1 o 2.560 2.632 0.00 0.78243 0.04
2 15 -3 1 o 5.159 5.304 0.00 0.78240 0.09
0 11 13 1 o 11.938 12.210 180.00 0.78210 0.20
4 11 -3 1 o 0.255 0.260 180.00 0.78192 0.00
5 6 -5 1 o 11.593 11.797 180.00 0.78191 0.25
1 12 11 1 o 4.275 4.338 0.00 0.78183 0.07
3 2 -16 1 o 1.772 1.797 180.00 0.78182 0.03
2 8 13 1 o 2.537 2.567 180.00 0.78177 0.04
4 10 -7 1 o 10.093 10.208 180.00 0.78175 0.19
0 14 9 1 o 6.990 7.026 180.00 0.78162 0.12
1 16 0 1 o 2.245 2.205 0.00 0.78109 0.04
1 16 -1 1 o 0.131 0.128 180.00 0.78102 0.00
4 6 -12 1 o 0.057 0.056 0.00 0.78090 0.00
2 12 -11 1 o 0.087 0.086 180.00 0.78062 0.00
3 3 13 1 o 10.169 9.958 0.00 0.78044 0.16
5 4 -8 1 o 0.482 0.473 0.00 0.78034 0.01
1 12 -12 1 o 0.239 0.234 0.00 0.78025 0.00
1 5 -17 1 o 4.879 4.784 0.00 0.78020 0.08
3 13 3 1 o 6.102 5.984 180.00 0.78019 0.11
1 14 8 1 o 1.932 1.896 180.00 0.78003 0.03
5 5 -7 1 o 0.270 0.265 0.00 0.77993 0.01
5 3 4 1 o 0.077 0.076 180.00 0.77978 0.00
0 12 12 1 o 0.844 0.830 180.00 0.77948 0.01
0 7 16 1 o 7.057 6.944 0.00 0.77942 0.11
0 10 14 1 o 1.510 1.486 180.00 0.77929 0.02
4 9 -9 1 o 14.879 14.637 0.00 0.77920 0.28
4 2 10 1 o 1.482 1.457 180.00 0.77910 0.03
4 11 0 1 o 0.004 0.004 180.00 0.77900 0.00
0 15 7 1 o 0.084 0.082 0.00 0.77891 0.00
1 14 -9 1 o 2.823 2.765 180.00 0.77886 0.05
3 2 1 2 o 0.004 0.004 180.00 0.80810 2.08
1 16 1 1 o 18.646 18.172 180.00 0.77867 0.30
1 16 -2 1 o 0.435 0.421 0.00 0.77846 0.01
4 0 -14 1 o 6.425 6.200 0.00 0.77840 0.06
3 13 -6 1 o 1.839 1.771 180.00 0.77834 0.03
2 8 -15 1 o 7.218 6.878 0.00 0.77793 0.13
4 11 -4 1 o 1.933 1.842 180.00 0.77791 0.04
2 4 15 1 o 0.198 0.188 180.00 0.77777 0.00
1 9 14 1 o 2.702 2.562 180.00 0.77737 0.04
4 1 -14 1 o 0.933 0.870 0.00 0.77694 0.02
2 15 2 1 o 9.344 8.679 180.00 0.77687 0.16
4 5 9 1 o 7.104 6.497 0.00 0.77667 0.13
5 6 1 1 o 0.000 0.000 180.00 0.77651 0.00
2 15 -4 1 o 9.799 8.611 0.00 0.77606 0.16
3 6 12 1 o 0.078 0.067 0.00 0.77552 0.00
1 1 17 1 o 0.528 0.454 0.00 0.77545 0.01
1 9 -15 1 o 21.740 18.698 0.00 0.77541 0.36
5 3 -9 1 o 0.128 0.110 180.00 0.77537 0.00
1 15 6 1 o 0.534 0.468 0.00 0.77474 0.01
0 16 4 1 o 7.685 6.833 0.00 0.77457 0.12
1 0 -18 1 o 13.489 12.025 0.00 0.77454 0.11
3 3 -16 1 o 8.229 7.337 180.00 0.77454 0.15
5 1 5 1 o 0.873 0.782 180.00 0.77449 0.02
5 6 -6 1 o 0.332 0.307 0.00 0.77416 0.01
1 15 -7 1 o 0.409 0.390 180.00 0.77387 0.01
1 16 2 1 o 2.641 2.526 180.00 0.77383 0.04
0 5 17 1 o 2.404 2.325 180.00 0.77362 0.04
1 16 -3 1 o 0.636 0.616 180.00 0.77349 0.01
2 4 -17 1 o 6.669 6.456 180.00 0.77346 0.12
4 11 1 1 o 4.600 4.383 180.00 0.77314 0.09
1 1 -18 1 o 6.160 5.853 0.00 0.77311 0.10
3 12 6 1 o 4.688 4.334 180.00 0.77277 0.08
4 2 -14 1 o 0.706 0.648 0.00 0.77263 0.01
1 13 10 1 o 1.878 1.719 180.00 0.77257 0.03
4 3 10 1 o 0.862 0.812 0.00 0.77189 0.02
0 13 11 1 o 3.944 3.811 0.00 0.77157 0.06
4 11 -5 1 o 1.969 1.906 180.00 0.77154 0.04
5 7 -2 1 o 2.226 2.165 180.00 0.77147 0.05
3 9 10 1 o 0.895 0.872 180.00 0.77144 0.02
4 10 4 1 o 0.000 0.000 180.00 0.77122 0.00
0 9 15 1 o 4.037 3.980 180.00 0.77121 0.06
1 13 -11 1 o 0.761 0.751 0.00 0.77118 0.01
1 2 17 1 o 6.090 6.017 0.00 0.77116 0.08
5 7 -3 1 o 9.194 9.095 180.00 0.77114 0.19
5 5 3 1 o 4.161 4.131 0.00 0.77106 0.09
5 0 -10 1 o 5.284 5.280 0.00 0.77092 0.05
4 5 -13 1 o 0.902 0.907 180.00 0.77079 0.02
3 10 9 1 o 0.048 0.048 0.00 0.77077 0.00
2 13 8 1 o 1.191 1.218 0.00 0.77038 0.02
3 4 13 1 o 1.327 1.359 180.00 0.77035 0.02
2 14 6 1 o 12.388 12.688 180.00 0.77033 0.21
5 2 5 1 o 4.717 4.841 0.00 0.77022 0.10
3 6 -15 1 o 10.376 10.649 0.00 0.77012 0.19
3 12 -9 1 o 0.587 0.597 0.00 0.76979 0.01
5 4 4 1 o 14.691 14.864 180.00 0.76972 0.32
5 1 -10 1 o 6.462 6.449 180.00 0.76951 0.13
5 7 -1 1 o 1.286 1.274 0.00 0.76940 0.03
4 8 7 1 o 0.045 0.043 0.00 0.76892 0.00
1 2 -18 1 o 2.633 2.526 0.00 0.76886 0.04
2 15 3 1 o 5.200 4.923 0.00 0.76853 0.08
2 14 -8 1 o 8.393 7.937 180.00 0.76849 0.13
5 7 -4 1 o 4.886 4.613 180.00 0.76842 0.10
3 13 4 1 o 1.114 1.049 0.00 0.76822 0.02
2 7 14 1 o 2.969 2.797 180.00 0.76808 0.04
4 10 -8 1 o 3.619 3.410 0.00 0.76806 0.06
2 13 -10 1 o 2.867 2.703 0.00 0.76801 0.05
4 7 8 1 o 0.070 0.067 180.00 0.76761 0.00
2 15 -5 1 o 1.263 1.214 0.00 0.76749 0.02
5 5 -8 1 o 0.737 0.710 0.00 0.76744 0.01
5 6 2 1 o 4.768 4.682 0.00 0.76720 0.10
0 0 18 1 o 2.088 2.087 0.00 0.76698 0.01
3 9 -13 1 o 0.345 0.347 0.00 0.76691 0.01
3 8 11 1 o 1.802 1.812 180.00 0.76690 0.03
1 16 3 1 o 2.928 2.981 180.00 0.76670 0.05
1 6 16 1 o 19.930 20.318 0.00 0.76667 0.28
3 10 -12 1 o 0.183 0.187 0.00 0.76664 0.00
1 16 -4 1 o 3.498 3.566 180.00 0.76625 0.05
3 13 -7 1 o 2.684 2.711 0.00 0.76607 0.04
4 3 -14 1 o 0.418 0.412 180.00 0.76560 0.01
0 1 18 1 o 0.858 0.845 180.00 0.76559 0.01
5 4 -9 1 o 0.402 0.395 180.00 0.76547 0.01
1 8 15 1 o 3.196 3.136 0.00 0.76543 0.05
5 2 -10 1 o 0.076 0.074 180.00 0.76532 0.00
3 14 -1 1 o 0.328 0.321 0.00 0.76509 0.01
4 9 6 1 o 1.973 1.935 0.00 0.76507 0.04
4 11 2 1 o 1.031 1.011 180.00 0.76505 0.02
2 5 15 1 o 6.000 5.884 180.00 0.76500 0.08
5 7 0 1 o 0.186 0.183 0.00 0.76499 0.00
3 11 8 1 o 2.768 2.715 0.00 0.76494 0.05
3 14 -2 1 o 0.003 0.003 0.00 0.76490 0.00
3 4 -16 1 o 0.660 0.649 0.00 0.76467 0.01
1 6 -17 1 o 0.078 0.077 0.00 0.76453 0.00
5 6 -7 1 o 4.228 4.194 180.00 0.76428 0.08
4 8 -11 1 o 2.994 2.972 0.00 0.76424 0.05
2 7 -16 1 o 0.442 0.440 180.00 0.76418 0.01
1 3 17 1 o 3.123 3.103 180.00 0.76417 0.04
0 16 5 1 o 2.274 2.265 0.00 0.76382 0.03
1 8 -16 1 o 1.441 1.444 0.00 0.76343 0.02
5 7 -5 1 o 3.401 3.410 180.00 0.76338 0.07
5 3 5 1 o 0.307 0.308 180.00 0.76325 0.01
2 11 11 1 o 4.894 4.914 180.00 0.76316 0.08
2 10 12 1 o 1.321 1.326 180.00 0.76299 0.02
4 11 -6 1 o 0.694 0.696 0.00 0.76299 0.01
3 14 0 1 o 1.691 1.698 180.00 0.76295 0.03
4 7 -12 1 o 0.344 0.348 180.00 0.76244 0.01
3 14 -3 1 o 3.657 3.698 0.00 0.76237 0.06
4 4 10 1 o 0.027 0.027 0.00 0.76213 0.00
3 8 -14 1 o 1.310 1.333 180.00 0.76207 0.02
1 3 -18 1 o 1.203 1.224 0.00 0.76193 0.02
0 2 18 1 o 1.905 1.904 0.00 0.76146 0.03
3 11 -11 1 o 0.030 0.030 0.00 0.76128 0.00
4 6 9 1 o 3.145 3.076 180.00 0.76121 0.05
2 0 16 1 o 5.823 5.586 180.00 0.76100 0.04
4 9 -10 1 o 12.012 11.485 180.00 0.76097 0.21
0 15 8 1 o 2.540 2.426 180.00 0.76096 0.04
2 5 -17 1 o 6.537 6.213 180.00 0.76090 0.11
2 11 -13 1 o 6.079 5.601 0.00 0.76010 0.09
2 10 -14 1 o 0.905 0.839 0.00 0.75968 0.01
2 1 16 1 o 3.114 2.889 180.00 0.75965 0.04
0 14 10 1 o 3.020 2.872 0.00 0.75885 0.05
1 14 9 1 o 0.402 0.384 0.00 0.75860 0.01
3 14 1 1 o 0.018 0.017 0.00 0.75852 0.00
5 3 -10 1 o 1.774 1.705 0.00 0.75848 0.03
5 7 1 1 o 10.122 9.776 180.00 0.75835 0.20
0 8 16 1 o 10.739 10.375 0.00 0.75835 0.15
0 6 17 1 o 0.976 0.943 0.00 0.75834 0.01
2 12 10 1 o 3.977 3.851 0.00 0.75829 0.06
1 15 7 1 o 7.355 7.128 0.00 0.75827 0.11
2 15 4 1 o 0.742 0.723 180.00 0.75816 0.01
3 5 13 1 o 0.495 0.487 0.00 0.75794 0.01
2 9 13 1 o 5.885 5.817 0.00 0.75780 0.09
3 14 -4 1 o 7.318 7.283 0.00 0.75757 0.11
3 0 14 1 o 18.444 18.383 0.00 0.75752 0.12
1 16 4 1 o 3.856 3.848 180.00 0.75748 0.06
3 7 12 1 o 4.890 4.885 0.00 0.75743 0.07
1 14 -10 1 o 0.779 0.779 0.00 0.75741 0.01
5 0 6 1 o 1.782 1.784 180.00 0.75735 0.02
5 5 4 1 o 1.091 1.093 0.00 0.75734 0.02
1 15 -8 1 o 0.525 0.526 0.00 0.75733 0.01
1 16 -5 1 o 0.627 0.635 180.00 0.75691 0.01
2 15 -6 1 o 4.479 4.534 180.00 0.75691 0.07
2 0 -18 1 o 9.798 9.962 0.00 0.75671 0.08
4 10 5 1 o 0.200 0.204 0.00 0.75629 0.00
3 1 14 1 o 23.120 23.674 0.00 0.75618 0.31
5 7 -6 1 o 1.052 1.078 180.00 0.75616 0.02
4 4 -14 1 o 2.149 2.203 0.00 0.75607 0.04
5 1 6 1 o 0.006 0.006 180.00 0.75601 0.00
5 6 3 1 o 6.570 6.744 0.00 0.75593 0.13
4 6 -13 1 o 1.811 1.871 180.00 0.75567 0.03
2 2 16 1 o 0.100 0.103 180.00 0.75561 0.00
2 12 -12 1 o 1.148 1.192 180.00 0.75554 0.02
2 1 -18 1 o 6.065 6.353 180.00 0.75538 0.10
4 11 3 1 o 4.923 5.333 180.00 0.75494 0.09
1 11 13 1 o 19.882 21.965 0.00 0.75474 0.29
0 3 18 1 o 0.053 0.059 0.00 0.75473 0.00
1 4 17 1 o 8.215 9.119 0.00 0.75469 0.11
3 13 5 1 o 9.621 10.864 180.00 0.75452 0.16
2 9 -15 1 o 4.473 5.133 180.00 0.75431 0.07
3 12 7 1 o 8.636 9.927 180.00 0.75428 0.14
4 1 11 1 o 2.410 2.794 0.00 0.75401 0.04
5 4 5 1 o 45.470 52.547 180.00 0.75381 0.91
1 12 12 1 o 11.036 12.467 180.00 0.75344 0.16
5 5 -9 1 o 4.451 4.960 0.00 0.75329 0.08
2 14 7 1 o 1.880 2.050 180.00 0.75307 0.03
1 11 -14 1 o 0.984 1.073 0.00 0.75307 0.01
4 10 -9 1 o 0.063 0.067 180.00 0.75281 0.00
1 4 -18 1 o 0.342 0.360 0.00 0.75253 0.00
3 5 -16 1 o 2.387 2.511 180.00 0.75253 0.04
5 6 -8 1 o 2.937 3.089 0.00 0.75252 0.05
4 11 -7 1 o 3.147 3.304 180.00 0.75247 0.05
3 7 -15 1 o 3.564 3.738 180.00 0.75240 0.06
3 2 14 1 o 3.359 3.516 180.00 0.75220 0.04
3 13 -8 1 o 4.234 4.429 180.00 0.75211 0.06
5 2 6 1 o 0.094 0.098 180.00 0.75203 0.00
3 14 2 1 o 1.200 1.253 180.00 0.75192 0.02
1 12 -13 1 o 1.395 1.456 0.00 0.75190 0.02
2 2 -18 1 o 1.505 1.574 0.00 0.75141 0.02
4 12 -2 1 o 9.549 10.007 0.00 0.75135 0.15
0 16 6 1 o 0.036 0.038 0.00 0.75128 0.00
1 10 14 1 o 0.193 0.205 0.00 0.75116 0.00
3 12 -10 1 o 0.733 0.776 0.00 0.75114 0.01
2 14 -9 1 o 0.540 0.573 180.00 0.75111 0.01
5 8 -2 1 o 0.038 0.041 0.00 0.75102 0.00
5 1 -11 1 o 1.247 1.353 0.00 0.75076 0.02
5 8 -3 1 o 4.543 4.943 0.00 0.75072 0.08
3 14 -5 1 o 6.401 6.992 0.00 0.75064 0.09
4 12 -1 1 o 1.166 1.280 180.00 0.75048 0.02
3 1 -17 1 o 2.385 2.620 0.00 0.75043 0.04
0 11 14 1 o 5.092 5.581 180.00 0.75027 0.07
2 6 15 1 o 0.329 0.360 180.00 0.75022 0.00
0 12 13 1 o 0.133 0.145 0.00 0.75016 0.00
4 5 10 1 o 2.561 2.778 0.00 0.75010 0.04
4 2 11 1 o 1.157 1.252 180.00 0.75007 0.02
4 12 -3 1 o 3.525 3.784 0.00 0.74999 0.06
5 7 2 1 o 6.520 6.714 0.00 0.74967 0.12
1 10 -15 1 o 0.014 0.014 0.00 0.74939 0.00
2 8 14 1 o 0.019 0.019 180.00 0.74789 0.00
5 4 -10 1 o 2.496 2.421 180.00 0.74921 0.04
1 7 16 1 o 0.030 0.029 180.00 0.74918 0.00
5 8 -1 1 o 0.113 0.108 0.00 0.74911 0.00
4 1 -15 1 o 0.065 0.065 0.00 0.74766 0.00
2 3 16 1 o 1.701 1.618 180.00 0.74903 0.02
4 8 8 1 o 1.118 1.157 180.00 0.74746 0.02
4 12 0 1 o 2.662 2.774 0.00 0.74742 0.04
1 13 11 1 o 2.389 2.534 180.00 0.74732 0.03
2 13 9 1 o 0.058 0.054 0.00 0.74867 0.00
1 7 -17 1 o 1.181 1.284 0.00 0.74718 0.02
0 17 1 1 o 5.819 6.536 0.00 0.74699 0.08
5 7 -7 1 o 5.041 5.703 180.00 0.74694 0.09
5 2 -11 1 o 1.044 1.194 0.00 0.74687 0.02
5 8 -4 1 o 0.594 0.567 180.00 0.74820 0.01
3 2 -17 1 o 5.664 6.698 180.00 0.74655 0.09
4 12 -4 1 o 6.471 7.703 0.00 0.74646 0.10
1 16 5 1 o 14.021 16.764 180.00 0.74639 0.20
2 6 -17 1 o 3.444 4.127 180.00 0.74634 0.05
2 13 -11 1 o 0.725 0.873 0.00 0.74626 0.01
4 9 7 1 o 1.625 1.971 0.00 0.74609 0.03
2 15 5 1 o 0.874 1.064 180.00 0.74601 0.01
1 13 -12 1 o 4.524 5.520 0.00 0.74594 0.06
3 10 10 1 o 0.128 0.158 180.00 0.74581 0.00
1 16 -6 1 o 0.713 0.879 180.00 0.74573 0.01
3 3 14 1 o 0.557 0.687 180.00 0.74570 0.01
0 10 15 1 o 1.340 1.661 0.00 0.74560 0.02
0 4 18 1 o 2.901 3.597 180.00 0.74559 0.04
5 3 6 1 o 3.964 4.924 180.00 0.74554 0.07
0 13 12 1 o 8.237 10.344 0.00 0.74526 0.12
5 8 0 1 o 0.017 0.022 180.00 0.74504 0.00
2 3 -18 1 o 3.790 4.814 0.00 0.74494 0.06
2 16 -1 1 o 10.358 13.261 0.00 0.74471 0.14
2 15 -7 1 o 4.363 5.619 0.00 0.74457 0.06
4 5 -14 1 o 0.584 0.761 0.00 0.74432 0.01
2 8 -16 1 o 4.193 5.475 0.00 0.74429 0.06
3 9 11 1 o 0.396 0.519 180.00 0.74425 0.01
4 7 9 1 o 2.247 2.963 0.00 0.74408 0.04
4 2 -15 1 o 4.096 5.440 0.00 0.74381 0.07
2 16 0 1 o 7.791 10.354 180.00 0.74375 0.11
0 17 2 1 o 1.265 1.682 180.00 0.74373 0.02
4 3 11 1 o 5.051 6.718 180.00 0.74363 0.07
3 6 13 1 o 3.600 4.791 0.00 0.74355 0.05
5 8 -5 1 o 0.443 0.589 0.00 0.74355 0.01
2 16 -2 1 o 2.673 3.559 180.00 0.74351 0.04
3 14 3 1 o 4.663 6.231 0.00 0.74333 0.07
4 11 4 1 o 0.864 1.171 180.00 0.74306 0.01
1 5 17 1 o 2.410 3.274 0.00 0.74301 0.03
5 6 4 1 o 5.849 7.959 0.00 0.74298 0.11
1 9 15 1 o 1.855 2.537 180.00 0.74290 0.02
4 8 -12 1 o 3.978 5.503 0.00 0.74268 0.06
3 11 9 1 o 0.350 0.485 180.00 0.74266 0.01
4 12 1 1 o 7.101 9.945 180.00 0.74224 0.11
5 5 5 1 o 5.704 8.006 0.00 0.74216 0.11
0 15 9 1 o 5.147 7.259 180.00 0.74203 0.07
4 9 -11 1 o 3.112 4.448 0.00 0.74181 0.05
3 14 -6 1 o 2.074 2.978 0.00 0.74174 0.03
3 10 -13 1 o 7.115 10.237 0.00 0.74171 0.11
0 7 17 1 o 3.930 5.767 0.00 0.74140 0.05
1 9 -16 1 o 0.704 1.052 180.00 0.74107 0.01
1 5 -18 1 o 3.778 5.679 0.00 0.74095 0.05
4 12 -5 1 o 1.857 2.800 0.00 0.74082 0.03
1 15 8 1 o 0.701 1.054 180.00 0.74067 0.01
2 16 1 1 o 5.257 7.902 0.00 0.74065 0.07
5 3 -11 1 o 2.372 3.530 180.00 0.74051 0.04
4 11 -8 1 o 1.283 1.856 0.00 0.74023 0.02
3 3 -17 1 o 0.011 0.016 180.00 0.74020 0.00
2 16 -3 1 o 0.007 0.011 0.00 0.74018 0.00
2 4 16 1 o 5.405 7.727 0.00 0.74010 0.06
4 10 6 1 o 1.393 1.986 180.00 0.74005 0.02
3 9 -14 1 o 2.414 3.431 180.00 0.73982 0.04
1 15 -9 1 o 0.355 0.509 180.00 0.73967 0.00
3 13 6 1 o 0.190 0.281 0.00 0.73939 0.00
5 6 -9 1 o 0.013 0.020 0.00 0.73916 0.00
5 7 3 1 o 6.657 10.199 180.00 0.73914 0.12
3 11 -12 1 o 0.000 0.000 0.00 0.73896 0.00
5 8 1 1 o 0.744 1.157 0.00 0.73890 0.01
4 7 -13 1 o 0.368 0.572 0.00 0.73890 0.01
3 6 -16 1 o 5.744 8.455 0.00 0.73844 0.09
0 17 3 1 o 0.042 0.060 180.00 0.73839 0.00
3 8 12 1 o 0.142 0.188 180.00 0.73805 0.00
5 5 -10 1 o 0.696 0.843 180.00 0.73778 0.01
4 3 -15 1 o 2.620 2.998 180.00 0.73753 0.04
0 16 7 1 o 1.057 1.190 0.00 0.73722 0.01
3 4 14 1 o 0.935 1.100 180.00 0.73689 0.01
5 8 -6 1 o 4.707 5.554 180.00 0.73687 0.08
3 13 -9 1 o 0.150 0.180 0.00 0.73678 0.00
1 14 10 1 o 0.766 0.927 180.00 0.73674 0.01
5 4 6 1 o 0.459 0.556 180.00 0.73674 0.01
5 1 7 1 o 2.351 2.871 0.00 0.73668 0.04
1 17 0 1 o 1.786 2.214 180.00 0.73659 0.02
1 17 -1 1 o 0.720 0.899 180.00 0.73653 0.01
0 9 16 1 o 7.612 9.603 180.00 0.73642 0.10
4 10 -10 1 o 0.954 1.208 0.00 0.73633 0.01
4 6 10 1 o 1.002 1.263 0.00 0.73615 0.01
2 4 -18 1 o 2.511 3.165 180.00 0.73615 0.04
1 0 18 1 o 1.022 1.286 180.00 0.73613 0.01
5 7 -8 1 o 3.136 3.878 180.00 0.73596 0.05
0 14 11 1 o 6.613 8.076 180.00 0.73587 0.09
2 11 12 1 o 1.410 1.673 0.00 0.73570 0.02
1 14 -11 1 o 1.010 1.167 180.00 0.73553 0.01
2 16 2 1 o 2.147 2.466 180.00 0.73549 0.03
4 12 2 1 o 1.028 1.131 180.00 0.73507 0.02
3 12 8 1 o 0.150 0.165 180.00 0.73497 0.00
1 1 18 1 o 5.667 6.175 0.00 0.73490 0.06
4 4 11 1 o 0.001 0.002 180.00 0.73489 0.00
2 14 8 1 o 1.410 1.531 180.00 0.73484 0.02
2 16 -4 1 o 2.496 2.706 0.00 0.73481 0.03
1 17 1 1 o 0.032 0.034 0.00 0.73456 0.00
1 17 -2 1 o 4.334 4.617 180.00 0.73438 0.06
0 5 18 1 o 1.091 1.162 0.00 0.73432 0.01
2 7 15 1 o 0.000 0.000 180.00 0.73380 0.00
1 16 6 1 o 2.135 2.283 180.00 0.73369 0.03
2 10 13 1 o 0.003 0.003 0.00 0.73347 0.00
2 12 11 1 o 18.774 20.185 180.00 0.73339 0.26
3 8 -15 1 o 5.791 6.226 180.00 0.73339 0.08
4 12 -6 1 o 0.002 0.002 0.00 0.73324 0.00
5 2 7 1 o 11.797 12.918 0.00 0.73300 0.20
3 14 4 1 o 3.810 4.182 0.00 0.73296 0.05
1 16 -7 1 o 5.416 5.949 180.00 0.73295 0.07
1 1 -19 1 o 1.957 2.169 0.00 0.73279 0.03
2 14 -10 1 o 0.107 0.118 0.00 0.73278 0.00
2 11 -14 1 o 6.607 7.355 180.00 0.73272 0.09
5 0 -12 1 o 2.039 2.315 180.00 0.73247 0.02
2 15 6 1 o 0.335 0.385 180.00 0.73235 0.00
5 4 -11 1 o 2.910 3.471 0.00 0.73188 0.05
3 12 -11 1 o 1.104 1.326 180.00 0.73173 0.02
3 4 -17 1 o 4.932 5.957 180.00 0.73157 0.07
5 1 -12 1 o 5.747 7.021 180.00 0.73126 0.09
1 2 18 1 o 0.041 0.050 0.00 0.73125 0.00
0 17 4 1 o 0.243 0.297 180.00 0.73111 0.00
3 14 -7 1 o 0.036 0.044 180.00 0.73109 0.00
5 8 2 1 o 2.026 2.449 0.00 0.73086 0.03
2 15 -8 1 o 1.576 1.891 180.00 0.73077 0.02
4 6 -14 1 o 6.169 7.333 180.00 0.73068 0.09
2 12 -13 1 o 3.931 4.669 0.00 0.73067 0.05
1 17 2 1 o 2.913 3.389 0.00 0.73049 0.04
1 8 16 1 o 2.980 3.438 180.00 0.73041 0.04
2 10 -15 1 o 5.951 6.784 180.00 0.73030 0.08
1 17 -3 1 o 1.738 1.964 0.00 0.73021 0.02
2 7 -17 1 o 2.328 2.623 180.00 0.73018 0.03
5 9 -2 1 o 0.252 0.278 0.00 0.72970 0.00
4 11 5 1 o 7.912 8.724 180.00 0.72968 0.12
1 6 17 1 o 0.620 0.689 0.00 0.72944 0.01
5 9 -3 1 o 0.009 0.010 0.00 0.72942 0.00
1 2 -19 1 o 1.148 1.296 0.00 0.72917 0.01
2 5 16 1 o 3.705 4.198 180.00 0.72907 0.04
4 4 -15 1 o 5.524 6.272 0.00 0.72900 0.09
5 6 5 1 o 1.149 1.296 0.00 0.72864 0.02
1 8 -17 1 o 0.232 0.261 180.00 0.72856 0.00
2 16 3 1 o 4.451 4.943 0.00 0.72841 0.06
5 8 -7 1 o 0.205 0.226 0.00 0.72834 0.00
5 9 -1 1 o 0.145 0.156 0.00 0.72795 0.00
3 15 -1 1 o 0.531 0.570 0.00 0.72785 0.01
3 15 -2 1 o 0.146 0.158 180.00 0.72768 0.00
5 2 -12 1 o 1.232 1.326 0.00 0.72766 0.02
3 7 13 1 o 0.580 0.628 0.00 0.72756 0.01
2 16 -5 1 o 2.256 2.453 0.00 0.72752 0.03
1 6 -18 1 o 9.105 9.927 180.00 0.72749 0.12
4 0 0 2 o 0.004 0.004 180.00 0.75591 0.18
5 9 -4 1 o 3.067 3.502 180.00 0.72712 0.05
5 7 4 1 o 8.378 9.664 0.00 0.72703 0.14
5 3 7 1 o 0.467 0.541 180.00 0.72699 0.01
2 9 14 1 o 3.286 3.845 0.00 0.72683 0.04
4 0 12 1 o 1.688 1.978 0.00 0.72677 0.01
2 13 10 1 o 0.369 0.433 0.00 0.72669 0.00
4 11 -9 1 o 10.888 12.670 180.00 0.72655 0.15
4 9 8 1 o 1.887 2.170 0.00 0.72643 0.03
4 12 3 1 o 0.186 0.201 180.00 0.72609 0.00
3 5 14 1 o 7.222 7.605 0.00 0.72600 0.08
3 15 0 1 o 10.068 10.593 0.00 0.72600 0.13
1 12 13 1 o 5.683 5.842 0.00 0.72591 0.07
5 5 6 1 o 0.478 0.484 0.00 0.72585 0.01
4 8 9 1 o 4.536 4.386 0.00 0.72569 0.07
4 1 12 1 o 2.741 2.585 180.00 0.72559 0.03
3 15 -3 1 o 0.539 0.497 0.00 0.72550 0.01
0 1 19 1 o 4.053 3.673 180.00 0.72543 0.04
2 5 -18 1 o 1.178 1.034 0.00 0.72530 0.02
1 3 18 1 o 0.387 0.338 180.00 0.72528 0.00
1 11 14 1 o 0.004 0.003 0.00 0.72507 0.00
5 6 -10 1 o 2.091 1.613 0.00 0.72449 0.03
1 17 3 1 o 0.368 0.284 180.00 0.72448 0.00
1 12 -14 1 o 0.395 0.303 0.00 0.72442 0.01
2 13 -12 1 o 0.600 0.458 180.00 0.72426 0.01
5 9 0 1 o 2.268 1.733 180.00 0.72421 0.04
1 17 -4 1 o 4.477 3.432 0.00 0.72410 0.05
4 5 11 1 o 1.279 0.981 0.00 0.72409 0.02
4 12 -7 1 o 0.103 0.080 180.00 0.72389 0.00
2 9 -16 1 o 1.219 0.994 180.00 0.72353 0.02
1 11 -15 1 o 9.812 8.054 180.00 0.72348 0.12
5 7 -9 1 o 0.363 0.299 0.00 0.72345 0.01
1 3 -19 1 o 15.677 13.257 180.00 0.72325 0.19
0 8 17 1 o 1.982 1.686 180.00 0.72320 0.02
3 13 7 1 o 8.148 6.967 180.00 0.72315 0.11
5 9 -5 1 o 0.013 0.011 0.00 0.72284 0.00
4 10 7 1 o 9.467 8.384 180.00 0.72283 0.14
3 7 -16 1 o 0.743 0.662 0.00 0.72277 0.01
0 15 10 1 o 0.000 0.000 180.00 0.72247 0.00
3 1 15 1 o 4.090 3.724 180.00 0.72246 0.04
2 1 17 1 o 0.024 0.022 0.00 0.72245 0.00
1 13 12 1 o 0.186 0.170 180.00 0.72241 0.00
1 15 9 1 o 1.903 1.745 0.00 0.72225 0.02
3 15 1 1 o 0.326 0.300 0.00 0.72218 0.00
4 2 12 1 o 0.033 0.030 180.00 0.72207 0.00
0 17 5 1 o 0.176 0.162 180.00 0.72206 0.00
4 9 -12 1 o 1.674 1.542 180.00 0.72205 0.02
0 16 8 1 o 0.221 0.204 180.00 0.72195 0.00
0 12 14 1 o 5.629 5.194 0.00 0.72193 0.07
0 2 19 1 o 11.936 11.015 180.00 0.72192 0.13
5 3 -12 1 o 6.804 6.281 0.00 0.72178 0.11
3 15 -4 1 o 0.025 0.023 180.00 0.72136 0.00
1 15 -10 1 o 3.200 2.902 180.00 0.72122 0.04
0 6 18 1 o 0.005 0.005 0.00 0.72122 0.00
5 5 -11 1 o 1.404 1.272 0.00 0.72121 0.02
3 10 11 1 o 1.797 1.624 180.00 0.72115 0.02
5 8 3 1 o 0.019 0.017 180.00 0.72110 0.00
1 13 -13 1 o 0.685 0.617 180.00 0.72105 0.01
3 14 5 1 o 0.027 0.024 0.00 0.72103 0.00
3 5 -17 1 o 1.105 0.992 180.00 0.72092 0.02
4 8 -13 1 o 0.196 0.176 0.00 0.72088 0.00
4 0 -16 1 o 1.989 1.786 180.00 0.72064 0.01
4 7 10 1 o 2.133 1.917 180.00 0.72062 0.03
4 13 -2 1 o 0.947 0.853 180.00 0.72057 0.01
3 13 -10 1 o 0.008 0.007 0.00 0.72038 0.00
3 11 10 1 o 0.859 0.791 0.00 0.72026 0.01
0 11 15 1 o 4.012 3.769 0.00 0.72007 0.05
1 10 15 1 o 2.863 2.736 0.00 0.71993 0.03
4 13 -1 1 o 0.134 0.130 0.00 0.71980 0.00
1 16 7 1 o 14.204 13.996 180.00 0.71965 0.18
2 16 4 1 o 0.246 0.245 180.00 0.71956 0.00
0 13 13 1 o 0.199 0.199 0.00 0.71952 0.00
4 1 -16 1 o 13.645 13.610 180.00 0.71949 0.20
4 13 -3 1 o 1.224 1.225 0.00 0.71937 0.02
3 2 15 1 o 5.327 5.229 0.00 0.71899 0.06
2 2 17 1 o 0.943 0.924 0.00 0.71897 0.01
4 10 -11 1 o 6.095 5.946 180.00 0.71894 0.08
3 14 -8 1 o 0.089 0.086 0.00 0.71893 0.00
1 16 -8 1 o 1.503 1.451 180.00 0.71885 0.02
5 4 7 1 o 7.856 7.551 180.00 0.71882 0.12
5 9 1 1 o 0.002 0.002 0.00 0.71857 0.00
2 1 -19 1 o 6.772 6.303 180.00 0.71856 0.09
2 16 -6 1 o 3.741 3.456 0.00 0.71848 0.04
4 5 -15 1 o 1.776 1.635 0.00 0.71845 0.03
3 0 -18 1 o 0.232 0.211 0.00 0.71827 0.00
1 10 -16 1 o 1.859 1.690 0.00 0.71826 0.02
5 8 -8 1 o 0.792 0.718 0.00 0.71814 0.01
5 0 8 1 o 7.036 6.381 0.00 0.71797 0.05
3 9 12 1 o 0.274 0.250 180.00 0.71779 0.00
2 15 7 1 o 4.098 3.765 180.00 0.71748 0.05
1 4 18 1 o 0.022 0.020 0.00 0.71716 0.00
3 1 -18 1 o 15.443 14.100 0.00 0.71713 0.22
3 10 -14 1 o 6.087 5.556 180.00 0.71712 0.08
4 13 0 1 o 0.019 0.017 180.00 0.71710 0.00
5 1 8 1 o 0.007 0.006 180.00 0.71683 0.00
5 9 -6 1 o 2.342 2.076 0.00 0.71670 0.03
1 17 4 1 o 0.797 0.706 0.00 0.71669 0.01
3 11 -13 1 o 4.877 4.280 180.00 0.71656 0.06
3 15 2 1 o 1.216 1.062 0.00 0.71648 0.02
4 3 12 1 o 2.712 2.352 180.00 0.71632 0.03
4 13 -4 1 o 0.080 0.069 180.00 0.71625 0.00
2 6 16 1 o 1.568 1.358 180.00 0.71624 0.02
1 17 -5 1 o 8.597 7.440 0.00 0.71621 0.10
0 3 19 1 o 3.822 3.306 0.00 0.71617 0.04
2 8 15 1 o 0.016 0.014 0.00 0.71614 0.00
4 2 -16 1 o 2.703 2.337 180.00 0.71606 0.04
2 14 9 1 o 0.130 0.113 0.00 0.71593 0.00
2 15 -9 1 o 0.142 0.123 0.00 0.71578 0.00
4 12 4 1 o 8.016 6.995 0.00 0.71550 0.11
4 7 -14 1 o 1.072 0.936 180.00 0.71549 0.01
3 15 -5 1 o 5.808 5.098 180.00 0.71537 0.07
1 4 -19 1 o 6.735 5.961 0.00 0.71520 0.08
3 12 9 1 o 2.837 2.516 0.00 0.71515 0.04
2 2 -19 1 o 0.706 0.626 0.00 0.71514 0.01
4 11 6 1 o 1.125 1.001 180.00 0.71506 0.02
1 14 11 1 o 0.002 0.002 0.00 0.71475 0.00
1 7 17 1 o 8.722 7.857 180.00 0.71433 0.10
0 10 16 1 o 3.219 2.936 180.00 0.71402 0.04
2 14 -11 1 o 0.512 0.470 0.00 0.71382 0.01
5 4 -12 1 o 3.480 3.198 180.00 0.71378 0.05
3 2 -18 1 o 1.700 1.564 0.00 0.71373 0.02
5 7 5 1 o 4.021 3.703 180.00 0.71357 0.06
1 14 -12 1 o 0.056 0.052 0.00 0.71354 0.00
3 9 -15 1 o 0.024 0.022 180.00 0.71350 0.00
5 2 8 1 o 0.102 0.094 0.00 0.71344 0.00
3 6 14 1 o 1.364 1.255 180.00 0.71333 0.02
3 3 15 1 o 2.874 2.646 0.00 0.71331 0.03
2 3 17 1 o 1.941 1.786 0.00 0.71330 0.02
5 6 6 1 o 4.363 4.016 0.00 0.71319 0.07
4 12 -8 1 o 0.001 0.000 180.00 0.71297 0.00
0 14 12 1 o 0.206 0.190 0.00 0.71294 0.00
2 8 -17 1 o 10.650 9.837 0.00 0.71277 0.13
2 6 -18 1 o 7.791 7.202 180.00 0.71266 0.10
4 13 1 1 o 8.841 8.169 0.00 0.71252 0.12
1 7 -18 1 o 3.550 3.279 180.00 0.71249 0.04
3 12 -12 1 o 0.002 0.002 180.00 0.71184 0.00
4 11 -10 1 o 22.464 19.917 0.00 0.71171 0.29
4 6 11 1 o 3.461 3.037 180.00 0.71151 0.04
0 17 6 1 o 4.670 4.087 0.00 0.71143 0.05
5 1 -13 1 o 0.163 0.142 0.00 0.71131 0.00
4 13 -5 1 o 0.214 0.187 180.00 0.71127 0.00
5 9 2 1 o 9.834 8.577 180.00 0.71117 0.15
1 9 16 1 o 0.596 0.522 0.00 0.71075 0.01
4 3 -16 1 o 0.263 0.234 180.00 0.71045 0.00
3 8 13 1 o 0.681 0.611 180.00 0.71034 0.01
5 8 4 1 o 0.121 0.111 180.00 0.70984 0.00
5 7 -10 1 o 0.227 0.208 0.00 0.70967 0.00
6 0 -2 1 o 0.396 0.362 180.00 0.70962 0.00
2 3 -19 1 o 15.245 13.889 0.00 0.70955 0.19
2 16 5 1 o 0.033 0.029 180.00 0.70914 0.00
6 1 -3 1 o 0.171 0.151 0.00 0.70914 0.00
2 11 13 1 o 17.959 15.793 180.00 0.70912 0.21
1 9 -17 1 o 1.801 1.570 0.00 0.70905 0.02
3 15 3 1 o 5.278 4.594 180.00 0.70904 0.07
6 0 -4 1 o 3.842 3.324 180.00 0.70900 0.03
2 12 12 1 o 3.566 3.050 0.00 0.70892 0.04
5 9 -7 1 o 8.233 6.958 180.00 0.70884 0.11
5 6 -11 1 o 3.126 2.614 0.00 0.70878 0.04
5 5 7 1 o 0.395 0.326 180.00 0.70870 0.01
6 1 -2 1 o 0.000 0.000 180.00 0.70851 0.00
3 6 -17 1 o 7.734 6.174 0.00 0.70850 0.10
4 4 12 1 o 4.486 3.578 0.00 0.70850 0.05
0 4 19 1 o 5.489 4.271 180.00 0.70835 0.06
3 3 -18 1 o 0.578 0.438 180.00 0.70818 0.01
5 2 -13 1 o 0.349 0.258 180.00 0.70799 0.01
2 16 -7 1 o 2.080 1.520 0.00 0.70791 0.02
6 1 -4 1 o 6.471 4.723 0.00 0.70790 0.10
5 10 -2 1 o 6.904 5.039 0.00 0.70790 0.10
5 3 8 1 o 1.595 1.163 180.00 0.70789 0.02
3 14 6 1 o 0.432 0.313 180.00 0.70780 0.01
3 15 -6 1 o 2.464 1.770 0.00 0.70765 0.03
5 10 -3 1 o 3.177 2.281 0.00 0.70764 0.04
1 17 5 1 o 5.253 3.787 180.00 0.70727 0.06
1 5 18 1 o 2.465 1.794 0.00 0.70711 0.02
1 17 -6 1 o 0.594 0.455 0.00 0.70671 0.01
0 7 18 1 o 1.050 0.819 180.00 0.70660 0.01
0 18 0 1 o 12.751 10.071 180.00 0.70653 0.07
5 8 -9 1 o 0.117 0.093 0.00 0.70650 0.00
4 9 9 1 o 1.284 1.037 0.00 0.70640 0.02
5 10 -1 1 o 0.230 0.188 0.00 0.70630 0.00
2 12 -14 1 o 0.740 0.611 0.00 0.70626 0.01
2 11 -15 1 o 0.776 0.642 0.00 0.70625 0.01
4 13 2 1 o 1.955 1.637 0.00 0.70617 0.03
4 6 -15 1 o 1.288 1.079 180.00 0.70616 0.02
3 13 8 1 o 4.156 3.519 180.00 0.70608 0.05
6 1 -1 1 o 3.120 2.656 180.00 0.70604 0.05
3 8 -16 1 o 1.451 1.255 0.00 0.70588 0.02
6 2 -3 1 o 0.304 0.264 180.00 0.70585 0.00
2 17 -1 1 o 0.829 0.719 0.00 0.70585 0.01
0 16 9 1 o 0.504 0.441 0.00 0.70573 0.01
0 18 1 1 o 1.471 1.295 180.00 0.70560 0.02
3 4 15 1 o 8.644 7.614 180.00 0.70559 0.09
2 4 17 1 o 9.670 8.524 0.00 0.70557 0.10
5 10 -4 1 o 1.176 1.038 0.00 0.70554 0.02
3 14 -9 1 o 0.026 0.023 0.00 0.70551 0.00
2 10 14 1 o 2.227 1.975 0.00 0.70528 0.02
6 2 -2 1 o 0.142 0.126 180.00 0.70524 0.00
1 5 -19 1 o 7.578 6.718 0.00 0.70523 0.09
2 17 0 1 o 14.066 12.427 0.00 0.70503 0.16
4 10 8 1 o 0.204 0.180 180.00 0.70491 0.00
2 17 -2 1 o 4.136 3.625 0.00 0.70483 0.05
6 1 -5 1 o 0.706 0.619 180.00 0.70482 0.01
2 13 11 1 o 15.235 13.240 0.00 0.70468 0.18
6 2 -4 1 o 4.632 4.010 0.00 0.70463 0.07
1 16 8 1 o 2.026 1.743 0.00 0.70455 0.02
4 13 -6 1 o 1.863 1.602 0.00 0.70455 0.02
0 9 17 1 o 0.765 0.622 180.00 0.70410 0.01
4 8 10 1 o 0.050 0.039 180.00 0.70387 0.00
5 5 -12 1 o 2.184 1.716 180.00 0.70387 0.03
1 16 -9 1 o 0.832 0.639 180.00 0.70370 0.01
4 12 5 1 o 7.299 5.490 0.00 0.70353 0.10
1 15 10 1 o 0.607 0.448 0.00 0.70331 0.01
3 13 -11 1 o 16.757 12.307 0.00 0.70320 0.20
5 10 0 1 o 1.793 1.305 0.00 0.70288 0.02
0 18 2 1 o 2.344 1.705 180.00 0.70285 0.03
6 0 0 1 o 0.021 0.015 180.00 0.70283 0.00
4 4 -16 1 o 8.049 5.849 0.00 0.70281 0.11
6 2 -1 1 o 0.109 0.079 180.00 0.70279 0.00
5 3 -13 1 o 0.181 0.131 0.00 0.70257 0.00
0 15 11 1 o 4.751 3.432 180.00 0.70255 0.05
2 17 1 1 o 3.260 2.349 180.00 0.70239 0.04
2 13 -13 1 o 5.635 4.056 180.00 0.70227 0.06
1 15 -11 1 o 7.139 5.138 0.00 0.70226 0.08
2 10 -16 1 o 0.167 0.120 0.00 0.70226 0.00
5 9 3 1 o 11.642 8.380 0.00 0.70217 0.17
2 17 -3 1 o 0.288 0.207 0.00 0.70199 0.00
4 9 -13 1 o 0.724 0.522 180.00 0.70196 0.01
2 4 -19 1 o 2.096 1.511 0.00 0.70195 0.03
2 7 16 1 o 3.547 2.559 180.00 0.70191 0.04
6 1 0 1 o 4.512 3.263 180.00 0.70176 0.07
2 15 8 1 o 2.033 1.473 180.00 0.70165 0.02
5 10 -5 1 o 0.701 0.508 0.00 0.70163 0.01
6 2 -5 1 o 4.930 3.575 180.00 0.70159 0.07
6 0 -6 1 o 42.609 30.935 180.00 0.70104 0.32
4 10 -12 1 o 0.000 0.000 180.00 0.70090 0.00
4 12 -9 1 o 4.524 3.281 0.00 0.70073 0.05
3 4 -18 1 o 1.254 0.910 180.00 0.70062 0.02
6 3 -3 1 o 7.592 5.515 0.00 0.70048 0.12
5 4 8 1 o 2.229 1.619 0.00 0.70034 0.03
3 15 4 1 o 6.419 4.636 180.00 0.70002 0.08
6 1 -6 1 o 0.000 0.000 0.00 0.69997 0.00
6 3 -2 1 o 0.007 0.005 0.00 0.69988 0.00
2 15 -10 1 o 0.032 0.023 0.00 0.69986 0.00
1 1 19 1 o 0.085 0.067 180.00 0.69832 0.00
4 13 3 1 o 0.612 0.484 0.00 0.69820 0.01
4 11 7 1 o 2.996 2.193 180.00 0.69949 0.04
0 17 7 1 o 0.755 0.554 180.00 0.69946 0.01
5 9 -8 1 o 2.491 1.832 0.00 0.69943 0.03
1 12 14 1 o 0.071 0.052 0.00 0.69940 0.00
1 13 13 1 o 26.364 21.005 180.00 0.69804 0.29
1 8 17 1 o 2.620 2.091 180.00 0.69800 0.03
2 17 2 1 o 0.085 0.068 0.00 0.69798 0.00
3 11 11 1 o 3.668 2.931 0.00 0.69797 0.04
1 12 -15 1 o 0.222 0.177 180.00 0.69797 0.00
6 3 -4 1 o 8.880 6.622 0.00 0.69928 0.13
3 7 14 1 o 3.231 2.434 0.00 0.69917 0.03
4 8 -14 1 o 17.815 13.521 180.00 0.69909 0.22
5 10 1 1 o 1.175 0.953 180.00 0.69772 0.02
5 7 6 1 o 1.259 0.959 0.00 0.69904 0.02
2 9 15 1 o 0.262 0.215 180.00 0.69758 0.00
6 3 -1 1 o 0.074 0.061 0.00 0.69749 0.00
4 7 11 1 o 0.049 0.041 180.00 0.69746 0.00
4 5 12 1 o 3.656 2.824 180.00 0.69880 0.04
1 0 -20 1 o 0.661 0.550 180.00 0.69745 0.00
2 17 -4 1 o 1.075 0.902 0.00 0.69739 0.01
2 16 6 1 o 0.003 0.003 180.00 0.69739 0.00
0 5 19 1 o 0.541 0.420 0.00 0.69866 0.01
5 8 5 1 o 2.898 2.460 0.00 0.69730 0.04
6 2 0 1 o 0.006 0.005 180.00 0.69858 0.00
2 7 -18 1 o 0.840 0.656 180.00 0.69854 0.01
3 15 -7 1 o 0.450 0.353 180.00 0.69839 0.01
4 1 13 1 o 5.026 3.951 0.00 0.69836 0.05
3 10 12 1 o 2.723 2.401 180.00 0.69700 0.03
0 18 3 1 o 1.222 0.961 180.00 0.69834 0.01
5 6 7 1 o 1.182 1.052 0.00 0.69690 0.02
1 11 15 1 o 3.935 3.511 0.00 0.69686 0.04
1 18 0 1 o 1.798 1.608 0.00 0.69681 0.02
6 2 -6 1 o 24.059 21.519 0.00 0.69681 0.35
1 18 -1 1 o 0.209 0.188 180.00 0.69677 0.00
1 13 -14 1 o 0.171 0.153 0.00 0.69672 0.00
5 1 9 1 o 0.051 0.046 0.00 0.69672 0.00
2 14 10 1 o 4.869 4.362 180.00 0.69663 0.05
1 17 6 1 o 0.654 0.581 0.00 0.69644 0.01
1 1 -20 1 o 5.867 5.199 180.00 0.69641 0.06
6 3 -5 1 o 2.318 2.042 0.00 0.69632 0.03
1 8 -18 1 o 22.770 20.021 180.00 0.69629 0.25
4 13 -7 1 o 7.702 6.750 0.00 0.69624 0.09
2 16 -8 1 o 0.737 0.639 0.00 0.69602 0.01
5 10 -6 1 o 1.643 1.423 180.00 0.69601 0.02
3 5 15 1 o 0.096 0.083 180.00 0.69601 0.00
2 5 17 1 o 4.078 3.531 180.00 0.69600 0.04
4 11 -11 1 o 1.133 0.980 0.00 0.69596 0.01
1 17 -7 1 o 0.008 0.007 180.00 0.69581 0.00
6 1 1 1 o 3.489 3.014 0.00 0.69579 0.05
1 6 18 1 o 0.296 0.257 180.00 0.69539 0.00
1 11 -16 1 o 1.185 1.030 0.00 0.69535 0.01
4 2 13 1 o 2.929 2.547 180.00 0.69522 0.03
5 4 -13 1 o 3.382 2.941 180.00 0.69519 0.05
1 2 19 1 o 4.431 3.853 180.00 0.69518 0.04
1 18 1 1 o 2.078 1.805 180.00 0.69509 0.02
3 12 10 1 o 3.006 2.610 180.00 0.69507 0.03
1 18 -2 1 o 10.321 8.926 0.00 0.69495 0.11
0 12 15 1 o 0.134 0.115 0.00 0.69491 0.00
5 7 -11 1 o 1.280 1.104 180.00 0.69489 0.02
3 7 -17 1 o 1.295 1.105 180.00 0.69463 0.02
0 13 14 1 o 6.055 5.157 0.00 0.69450 0.07
2 14 -12 1 o 0.812 0.691 180.00 0.69449 0.01
2 9 -17 1 o 0.039 0.033 180.00 0.69447 0.00
3 11 -14 1 o 2.365 2.022 0.00 0.69432 0.03
5 8 -10 1 o 2.404 2.186 180.00 0.69366 0.03
5 2 9 1 o 1.383 1.263 0.00 0.69360 0.02
1 6 -19 1 o 3.063 2.798 180.00 0.69360 0.03
3 14 7 1 o 1.100 1.010 0.00 0.69351 0.01
3 16 -1 1 o 0.394 0.362 180.00 0.69349 0.00
6 1 -7 1 o 0.675 0.621 0.00 0.69347 0.01
6 3 0 1 o 5.278 4.883 0.00 0.69337 0.08
4 5 -16 1 o 0.042 0.039 180.00 0.69335 0.00
3 16 -2 1 o 3.983 3.688 0.00 0.69335 0.04
1 2 -20 1 o 1.488 1.380 180.00 0.69330 0.02
6 4 -3 1 o 2.950 2.749 0.00 0.69316 0.04
3 10 -15 1 o 8.451 7.896 180.00 0.69308 0.10
1 14 12 1 o 4.103 3.856 180.00 0.69286 0.04
6 2 1 1 o 3.859 3.648 180.00 0.69269 0.06
6 4 -2 1 o 0.092 0.087 0.00 0.69257 0.00
4 1 -17 1 o 1.144 1.091 0.00 0.69253 0.01
2 5 -19 1 o 3.825 3.652 180.00 0.69252 0.04
4 7 -15 1 o 0.637 0.613 0.00 0.69242 0.01
5 6 -12 1 o 3.129 3.045 0.00 0.69230 0.04
3 9 13 1 o 0.123 0.121 0.00 0.69222 0.00
5 0 -14 1 o 6.491 6.391 0.00 0.69219 0.04
3 0 16 1 o 0.174 0.171 180.00 0.69217 0.00
0 18 4 1 o 7.388 7.286 180.00 0.69217 0.08
6 4 -4 1 o 0.230 0.231 180.00 0.69200 0.00
2 17 3 1 o 4.452 4.492 180.00 0.69192 0.05
3 16 0 1 o 5.114 5.169 0.00 0.69189 0.06
5 9 4 1 o 21.698 22.092 180.00 0.69176 0.29
3 12 -13 1 o 1.492 1.520 180.00 0.69175 0.02
1 14 -13 1 o 0.959 0.981 180.00 0.69166 0.01
1 18 2 1 o 0.127 0.129 0.00 0.69164 0.00
6 3 -6 1 o 0.014 0.014 0.00 0.69164 0.00
0 11 16 1 o 0.013 0.013 180.00 0.69150 0.00
3 16 -3 1 o 0.022 0.022 0.00 0.69146 0.00
1 18 -3 1 o 5.750 5.949 180.00 0.69141 0.06
3 5 -18 1 o 3.653 3.821 180.00 0.69124 0.04
4 14 -2 1 o 0.011 0.011 180.00 0.69123 0.00
5 1 -14 1 o 0.008 0.009 180.00 0.69117 0.00
2 17 -5 1 o 1.132 1.192 180.00 0.69115 0.01
3 1 16 1 o 0.042 0.045 0.00 0.69115 0.00
3 14 -10 1 o 0.736 0.781 0.00 0.69107 0.01
5 5 8 1 o 0.097 0.104 0.00 0.69097 0.00
5 10 2 1 o 5.028 5.390 180.00 0.69094 0.07
0 8 18 1 o 0.654 0.710 180.00 0.69078 0.01
1 10 16 1 o 1.150 1.261 0.00 0.69056 0.01
4 14 -1 1 o 5.071 5.562 0.00 0.69056 0.06
4 12 6 1 o 0.076 0.083 180.00 0.69040 0.00
6 2 -7 1 o 0.510 0.562 180.00 0.69040 0.01
0 14 13 1 o 0.270 0.298 180.00 0.69030 0.00
0 0 20 1 o 0.041 0.045 0.00 0.69028 0.00
6 4 -1 1 o 0.111 0.123 0.00 0.69026 0.00
4 14 -3 1 o 0.569 0.627 180.00 0.69018 0.01
4 3 13 1 o 12.156 13.380 180.00 0.69009 0.12
1 3 19 1 o 0.003 0.004 0.00 0.69004 0.00
3 15 5 1 o 0.851 0.942 0.00 0.68961 0.01
2 0 18 1 o 11.896 13.222 0.00 0.68952 0.05
4 2 -17 1 o 1.161 1.293 180.00 0.68947 0.01
0 1 20 1 o 4.240 4.797 180.00 0.68927 0.04
6 0 2 1 o 0.075 0.085 0.00 0.68927 0.00
6 4 -5 1 o 0.061 0.070 180.00 0.68912 0.00
1 10 -17 1 o 6.391 7.453 0.00 0.68899 0.07
0 16 10 1 o 0.056 0.067 180.00 0.68884 0.00
5 10 -7 1 o 0.073 0.087 0.00 0.68881 0.00
4 13 4 1 o 5.209 6.255 180.00 0.68877 0.06
5 9 -9 1 o 1.473 1.790 180.00 0.68867 0.02
1 16 9 1 o 6.593 8.035 180.00 0.68864 0.07
3 16 1 1 o 11.351 13.927 180.00 0.68858 0.12
2 1 18 1 o 1.915 2.367 180.00 0.68851 0.02
5 3 9 1 o 0.018 0.022 0.00 0.68850 0.00
3 13 9 1 o 4.040 5.015 180.00 0.68845 0.05
6 1 2 1 o 4.093 5.134 180.00 0.68826 0.06
1 3 -20 1 o 1.399 1.757 180.00 0.68820 0.01
4 14 0 1 o 1.288 1.619 0.00 0.68817 0.01
5 2 -14 1 o 2.821 3.546 0.00 0.68813 0.04
3 2 16 1 o 0.668 0.840 180.00 0.68811 0.01
3 9 -16 1 o 0.089 0.111 0.00 0.68809 0.00
3 16 -4 1 o 0.374 0.469 180.00 0.68788 0.00
3 15 -8 1 o 12.417 15.575 0.00 0.68777 0.13
1 16 -10 1 o 1.669 2.094 180.00 0.68775 0.02
6 3 1 1 o 0.677 0.852 180.00 0.68761 0.01
4 6 12 1 o 0.432 0.545 180.00 0.68748 0.00
4 14 -4 1 o 2.146 2.718 180.00 0.68742 0.02
4 12 -10 1 o 0.937 1.188 0.00 0.68738 0.01
0 6 19 1 o 10.235 13.009 180.00 0.68735 0.10
4 10 9 1 o 0.009 0.011 180.00 0.68656 0.00
1 18 3 1 o 0.091 0.110 180.00 0.68654 0.00
4 13 -8 1 o 0.351 0.418 0.00 0.68651 0.00
6 0 -8 1 o 44.498 51.956 180.00 0.68645 0.30
2 8 16 1 o 2.583 2.980 0.00 0.68641 0.02
0 17 8 1 o 0.000 0.000 0.00 0.68637 0.00
6 4 0 1 o 0.927 1.022 180.00 0.68627 0.01
0 2 20 1 o 0.534 0.586 180.00 0.68625 0.00
4 9 10 1 o 0.081 0.088 180.00 0.68623 0.00
1 18 -4 1 o 2.373 2.573 0.00 0.68622 0.02
3 1 -19 1 o 0.105 0.114 180.00 0.68620 0.00
5 5 -13 1 o 0.107 0.110 0.00 0.68602 0.00
2 0 -20 1 o 2.521 2.525 180.00 0.68595 0.01
5 11 -2 1 o 1.842 1.838 0.00 0.68593 0.02
5 11 -3 1 o 1.437 1.365 0.00 0.68570 0.02
3 13 -12 1 o 1.716 1.596 0.00 0.68550 0.02
2 2 18 1 o 0.021 0.019 180.00 0.68550 0.00
6 1 -8 1 o 0.171 0.158 0.00 0.68545 0.00
6 3 -7 1 o 0.010 0.009 0.00 0.68537 0.00
6 2 2 1 o 0.039 0.036 180.00 0.68525 0.00
2 15 9 1 o 0.250 0.232 180.00 0.68514 0.00
2 12 13 1 o 14.480 13.555 180.00 0.68505 0.15
3 3 0 2 o 0.004 0.004 180.00 0.71268 0.30
4 1 1 2 o 0.004 0.004 180.00 0.71268 0.61
2 1 -20 1 o 4.433 4.180 180.00 0.68495 0.05
3 6 15 1 o 0.016 0.015 180.00 0.68482 0.00
2 6 17 1 o 0.001 0.000 0.00 0.68481 0.00
6 4 -6 1 o 0.601 0.591 180.00 0.68459 0.01
2 16 7 1 o 8.472 8.432 0.00 0.68450 0.09
5 11 -1 1 o 0.016 0.016 180.00 0.68448 0.00
0 18 5 1 o 5.963 5.958 180.00 0.68447 0.06
4 3 -17 1 o 3.522 3.525 180.00 0.68446 0.04
0 10 17 1 o 0.170 0.170 0.00 0.68445 0.00
1 17 7 1 o 1.838 1.854 180.00 0.68440 0.02
2 17 4 1 o 0.229 0.234 180.00 0.68432 0.00
4 14 1 1 o 0.001 0.001 180.00 0.68412 0.00
1 15 11 1 o 3.626 3.794 0.00 0.68410 0.04
6 5 -3 1 o 8.482 8.899 180.00 0.68407 0.12
3 8 14 1 o 2.822 3.020 0.00 0.68384 0.03
5 11 -4 1 o 0.008 0.009 180.00 0.68378 0.00
5 8 6 1 o 0.002 0.002 180.00 0.68372 0.00
1 17 -8 1 o 3.599 3.882 0.00 0.68371 0.04
5 7 7 1 o 0.029 0.031 180.00 0.68368 0.00
3 16 2 1 o 5.975 6.465 0.00 0.68364 0.06
2 11 14 1 o 2.492 2.706 180.00 0.68355 0.02
6 5 -2 1 o 3.345 3.635 180.00 0.68351 0.05
2 17 -6 1 o 1.585 1.727 180.00 0.68339 0.02
2 15 -11 1 o 1.349 1.473 0.00 0.68329 0.01
2 8 -18 1 o 3.468 3.788 0.00 0.68325 0.04
3 2 -19 1 o 0.322 0.351 0.00 0.68322 0.00
4 11 8 1 o 3.615 3.949 180.00 0.68322 0.04
5 3 -14 1 o 0.426 0.465 0.00 0.68314 0.01
3 3 16 1 o 12.054 13.164 180.00 0.68313 0.11
4 4 13 1 o 1.184 1.292 0.00 0.68308 0.01
1 4 19 1 o 5.031 5.488 180.00 0.68304 0.04
1 15 -12 1 o 3.793 4.137 180.00 0.68304 0.04
2 16 -9 1 o 0.556 0.606 180.00 0.68303 0.01
4 14 -5 1 o 2.170 2.365 180.00 0.68301 0.02
6 5 -4 1 o 0.900 0.980 180.00 0.68296 0.01
2 13 12 1 o 0.544 0.591 180.00 0.68289 0.01
5 10 3 1 o 5.202 5.598 180.00 0.68268 0.07
3 16 -5 1 o 0.254 0.273 180.00 0.68267 0.00
0 15 12 1 o 11.134 11.886 180.00 0.68252 0.11
4 10 -13 1 o 0.095 0.102 0.00 0.68249 0.00
6 2 -8 1 o 3.809 4.058 0.00 0.68248 0.05
2 12 -15 1 o 1.083 1.153 180.00 0.68246 0.01
4 6 -16 1 o 0.316 0.333 0.00 0.68229 0.00
1 7 18 1 o 0.196 0.207 180.00 0.68225 0.00
4 8 11 1 o 1.502 1.582 0.00 0.68224 0.02
2 2 -20 1 o 0.052 0.055 0.00 0.68199 0.00
4 9 -14 1 o 0.843 0.886 0.00 0.68179 0.01
5 4 9 1 o 0.988 1.054 180.00 0.68154 0.01
2 6 -19 1 o 2.332 2.495 180.00 0.68149 0.02
5 11 0 1 o 0.629 0.674 180.00 0.68137 0.01
0 3 20 1 o 0.412 0.441 0.00 0.68131 0.00
6 5 -1 1 o 0.014 0.015 0.00 0.68129 0.00
1 4 -20 1 o 2.572 2.750 0.00 0.68125 0.03
2 11 -16 1 o 5.510 5.873 180.00 0.68080 0.06
1 9 17 1 o 4.662 4.971 0.00 0.68079 0.04
6 4 1 1 o 1.656 1.776 180.00 0.68068 0.02
2 3 18 1 o 4.605 4.976 0.00 0.68057 0.04
1 7 -19 1 o 0.610 0.660 0.00 0.68056 0.01
2 13 -14 1 o 0.979 1.063 0.00 0.68051 0.01
6 3 2 1 o 0.698 0.769 0.00 0.68033 0.01
3 6 -18 1 o 1.049 1.162 180.00 0.68027 0.01
5 11 -5 1 o 1.722 1.916 0.00 0.68023 0.02
6 5 -5 1 o 1.298 1.450 180.00 0.68019 0.02
5 10 -8 1 o 0.235 0.264 0.00 0.68016 0.00
5 9 5 1 o 0.435 0.490 0.00 0.68014 0.01
5 6 8 1 o 4.219 4.830 180.00 0.68002 0.05
1 18 4 1 o 0.365 0.429 180.00 0.67990 0.00
5 8 -11 1 o 2.353 2.807 180.00 0.67983 0.03
3 8 -17 1 o 0.085 0.110 180.00 0.67959 0.00
4 11 -12 1 o 1.445 1.886 0.00 0.67956 0.02
1 18 -5 1 o 0.377 0.507 180.00 0.67949 0.00
5 7 -12 1 o 0.340 0.486 0.00 0.67934 0.00
6 1 3 1 o 0.611 0.883 0.00 0.67931 0.01
1 9 -18 1 o 0.017 0.026 180.00 0.67920 0.00
6 4 -7 1 o 0.667 1.083 0.00 0.67850 0.01
4 14 2 1 o 1.015 1.646 180.00 0.67849 0.01
2 10 15 1 o 3.469 5.602 0.00 0.67846 0.03
3 14 8 1 o 3.148 5.055 0.00 0.67842 0.03
3 3 -19 1 o 3.316 5.261 180.00 0.67834 0.04
4 13 5 1 o 0.389 0.581 0.00 0.67807 0.00
3 15 6 1 o 0.256 0.376 0.00 0.67800 0.00
4 4 -17 1 o 0.629 0.881 180.00 0.67763 0.01
6 3 -8 1 o 0.437 0.613 0.00 0.67762 0.01
5 0 10 1 o 1.538 2.156 180.00 0.67754 0.01
4 8 -15 1 o 3.598 5.045 180.00 0.67752 0.04
6 5 0 1 o 0.593 0.835 180.00 0.67745 0.01
2 14 11 1 o 1.011 1.438 0.00 0.67717 0.01
3 16 3 1 o 0.358 0.510 0.00 0.67716 0.00
2 3 -20 1 o 0.261 0.371 180.00 0.67714 0.00
4 14 -6 1 o 1.580 2.244 180.00 0.67705 0.02
5 9 -10 1 o 7.062 9.701 0.00 0.67675 0.08
5 11 1 1 o 0.252 0.341 0.00 0.67666 0.00
5 1 10 1 o 0.142 0.189 0.00 0.67658 0.00
6 2 3 1 o 0.404 0.527 180.00 0.67642 0.01
4 12 7 1 o 0.135 0.175 180.00 0.67636 0.00
5 4 -14 1 o 4.386 5.694 180.00 0.67635 0.05
3 4 16 1 o 0.028 0.036 0.00 0.67633 0.00
6 1 -9 1 o 0.756 0.980 180.00 0.67607 0.01
3 11 12 1 o 1.703 2.216 0.00 0.67601 0.02
3 15 -9 1 o 0.908 1.184 180.00 0.67599 0.01
3 16 -6 1 o 2.519 3.295 180.00 0.67596 0.02
3 14 -11 1 o 0.925 1.226 0.00 0.67586 0.01
6 5 -6 1 o 4.739 6.311 180.00 0.67584 0.06
2 10 -17 1 o 3.576 5.088 0.00 0.67559 0.04
4 13 -9 1 o 0.579 0.834 180.00 0.67556 0.01
0 18 6 1 o 4.108 6.287 180.00 0.67540 0.04
2 17 5 1 o 1.717 2.691 0.00 0.67534 0.02
5 6 -13 1 o 1.812 2.886 180.00 0.67530 0.02
5 11 -6 1 o 0.124 0.208 0.00 0.67510 0.00
2 14 -13 1 o 0.001 0.001 180.00 0.67503 0.00
3 12 11 1 o 0.965 1.629 0.00 0.67498 0.01
4 7 12 1 o 0.187 0.307 180.00 0.67478 0.00
0 7 19 1 o 0.085 0.134 0.00 0.67466 0.00
0 4 20 1 o 0.208 0.319 0.00 0.67457 0.00
4 5 13 1 o 4.867 6.980 0.00 0.67438 0.05
1 13 14 1 o 6.800 9.692 180.00 0.67437 0.07
1 5 19 1 o 0.008 0.011 0.00 0.67434 0.00
2 17 -7 1 o 0.144 0.199 180.00 0.67428 0.00
0 9 18 1 o 0.075 0.098 180.00 0.67409 0.00
1 12 15 1 o 1.264 1.602 0.00 0.67398 0.01
2 4 18 1 o 0.180 0.223 0.00 0.67385 0.00
5 2 10 1 o 1.538 1.870 180.00 0.67372 0.02
6 4 2 1 o 0.180 0.216 0.00 0.67362 0.00
3 10 13 1 o 3.772 4.523 180.00 0.67352 0.04
6 6 -3 1 o 1.634 1.952 0.00 0.67344 0.02
4 0 14 1 o 1.264 1.500 0.00 0.67333 0.01
6 2 -9 1 o 1.317 1.549 180.00 0.67322 0.02
4 12 -11 1 o 0.906 1.060 0.00 0.67316 0.01
5 10 4 1 o 0.052 0.060 0.00 0.67309 0.00
1 13 -15 1 o 0.034 0.039 0.00 0.67309 0.00
6 6 -2 1 o 0.095 0.108 0.00 0.67291 0.00
5 5 9 1 o 0.153 0.173 180.00 0.67290 0.00
1 5 -20 1 o 0.001 0.001 0.00 0.67262 0.00
1 12 -16 1 o 0.074 0.083 180.00 0.67261 0.00
3 11 -15 1 o 0.007 0.008 0.00 0.67242 0.00
0 17 9 1 o 0.022 0.025 180.00 0.67239 0.00
4 1 14 1 o 0.000 0.000 0.00 0.67238 0.00
6 6 -4 1 o 2.511 2.807 180.00 0.67238 0.03
3 7 15 1 o 0.049 0.055 0.00 0.67227 0.00
2 7 17 1 o 1.939 2.179 0.00 0.67225 0.02
1 16 10 1 o 1.287 1.453 0.00 0.67217 0.01
6 5 1 1 o 0.007 0.008 0.00 0.67207 0.00
1 18 5 1 o 0.004 0.005 0.00 0.67184 0.00
3 4 -19 1 o 0.866 1.021 180.00 0.67169 0.01
6 3 3 1 o 2.037 2.402 180.00 0.67169 0.03
3 12 -14 1 o 4.076 4.810 0.00 0.67168 0.04
0 16 11 1 o 0.038 0.046 180.00 0.67151 0.00
4 14 3 1 o 0.823 0.989 0.00 0.67141 0.01
1 17 8 1 o 0.080 0.096 0.00 0.67137 0.00
1 18 -6 1 o 2.368 2.855 0.00 0.67136 0.02
1 14 13 1 o 0.010 0.012 180.00 0.67127 0.00
1 16 -11 1 o 3.175 3.847 0.00 0.67125 0.03
5 1 -15 1 o 3.990 4.854 180.00 0.67105 0.05
6 4 -8 1 o 0.412 0.500 0.00 0.67099 0.01
6 6 -1 1 o 0.093 0.111 0.00 0.67078 0.00
2 16 8 1 o 0.257 0.304 0.00 0.67072 0.00
1 17 -9 1 o 0.767 0.895 180.00 0.67063 0.01
2 18 -1 1 o 0.261 0.303 180.00 0.67062 0.00
2 4 -20 1 o 4.109 4.679 180.00 0.67052 0.04
3 13 10 1 o 0.005 0.006 180.00 0.67049 0.00
5 11 2 1 o 4.143 4.664 0.00 0.67047 0.05
0 13 15 1 o 0.495 0.538 0.00 0.67034 0.00
5 10 -9 1 o 5.473 5.809 0.00 0.67025 0.06
1 11 16 1 o 0.649 0.665 0.00 0.67012 0.01
1 14 -14 1 o 3.948 4.015 0.00 0.67010 0.04
6 0 4 1 o 11.179 11.237 0.00 0.67005 0.07
2 9 16 1 o 12.867 12.823 0.00 0.67002 0.11
6 5 -7 1 o 3.827 3.776 180.00 0.66998 0.05
2 18 0 1 o 0.020 0.019 180.00 0.66992 0.00
4 7 -16 1 o 0.644 0.620 180.00 0.66987 0.01
2 18 -2 1 o 0.005 0.005 180.00 0.66974 0.00
6 6 -5 1 o 0.214 0.201 0.00 0.66974 0.00
3 10 -16 1 o 5.747 5.377 180.00 0.66971 0.06
4 14 -7 1 o 0.988 0.918 180.00 0.66967 0.01
4 2 14 1 o 0.006 0.006 0.00 0.66958 0.00
5 8 7 1 o 0.565 0.514 180.00 0.66933 0.01
3 16 4 1 o 9.256 8.431 0.00 0.66929 0.09
2 16 -10 1 o 2.354 2.175 0.00 0.66916 0.02
4 5 -17 1 o 2.046 1.897 0.00 0.66913 0.02
0 12 16 1 o 0.457 0.424 180.00 0.66912 0.00
6 1 4 1 o 0.206 0.191 0.00 0.66912 0.00
2 7 -19 1 o 0.138 0.128 0.00 0.66912 0.00
5 3 10 1 o 6.652 6.271 0.00 0.66904 0.07
1 11 -17 1 o 2.089 2.160 180.00 0.66869 0.02
6 3 -9 1 o 0.817 0.878 0.00 0.66856 0.01
0 19 1 1 o 0.012 0.013 0.00 0.66856 0.00
5 11 -7 1 o 17.613 19.116 0.00 0.66852 0.19
5 2 -15 1 o 0.850 0.984 0.00 0.66827 0.01
2 15 10 1 o 2.670 3.154 0.00 0.66816 0.03
0 14 14 1 o 0.953 1.133 0.00 0.66812 0.01
4 10 10 1 o 2.882 3.468 0.00 0.66800 0.03
1 8 18 1 o 0.014 0.017 0.00 0.66799 0.00
3 7 -18 1 o 3.326 4.010 0.00 0.66796 0.03
5 5 -14 1 o 0.168 0.203 0.00 0.66790 0.00
3 5 16 1 o 1.901 2.296 180.00 0.66788 0.02
3 16 -7 1 o 3.354 4.049 180.00 0.66787 0.03
4 0 -18 1 o 3.514 4.221 0.00 0.66775 0.02
5 7 8 1 o 2.162 2.591 0.00 0.66772 0.02
2 18 1 1 o 1.434 1.706 180.00 0.66765 0.01
3 9 14 1 o 11.974 14.218 180.00 0.66763 0.11
5 9 6 1 o 9.821 11.488 180.00 0.66752 0.11
3 13 -13 1 o 6.450 7.531 0.00 0.66750 0.06
2 18 -3 1 o 0.294 0.333 0.00 0.66731 0.00
6 6 0 1 o 0.085 0.095 0.00 0.66711 0.00
2 9 -18 1 o 1.285 1.422 180.00 0.66708 0.01
4 1 -18 1 o 7.121 7.773 180.00 0.66683 0.08
4 11 9 1 o 4.235 4.618 180.00 0.66647 0.04
6 0 -10 1 o 0.348 0.380 0.00 0.66643 0.00
1 8 -19 1 o 0.318 0.347 180.00 0.66640 0.00
6 2 4 1 o 2.886 3.150 180.00 0.66636 0.04
4 13 6 1 o 0.535 0.585 180.00 0.66629 0.01
2 15 -12 1 o 11.594 12.666 0.00 0.66628 0.11
0 19 2 1 o 3.043 3.325 0.00 0.66622 0.03
0 5 20 1 o 7.341 8.018 0.00 0.66619 0.06
4 9 11 1 o 0.133 0.145 180.00 0.66614 0.00
1 0 20 1 o 14.891 16.216 180.00 0.66607 0.06
6 6 -6 1 o 3.276 3.364 180.00 0.66558 0.04
6 1 -10 1 o 1.182 1.200 0.00 0.66552 0.01
2 5 18 1 o 0.076 0.076 180.00 0.66550 0.00
3 15 7 1 o 2.342 2.327 0.00 0.66542 0.02
6 5 2 1 o 2.980 2.872 180.00 0.66527 0.04
5 8 -12 1 o 0.565 0.543 0.00 0.66525 0.01
6 4 3 1 o 10.259 9.787 0.00 0.66522 0.13
2 17 6 1 o 0.018 0.017 0.00 0.66516 0.00
1 1 20 1 o 3.660 3.446 0.00 0.66515 0.03
0 18 7 1 o 0.035 0.033 180.00 0.66514 0.00
4 3 14 1 o 24.386 22.314 0.00 0.66499 0.21
1 15 12 1 o 1.231 1.103 0.00 0.66483 0.01
0 11 17 1 o 6.739 5.837 0.00 0.66454 0.06
4 6 13 1 o 0.321 0.268 180.00 0.66419 0.00
1 6 19 1 o 0.369 0.308 0.00 0.66415 0.00
4 2 -18 1 o 2.075 1.728 180.00 0.66410 0.02
5 12 -2 1 o 6.813 5.672 180.00 0.66408 0.07
2 17 -8 1 o 1.689 1.409 0.00 0.66398 0.02
4 10 -14 1 o 3.323 2.780 0.00 0.66391 0.03
5 9 -11 1 o 1.143 0.957 0.00 0.66390 0.01
5 12 -3 1 o 4.700 3.944 180.00 0.66387 0.05
2 18 2 1 o 9.207 7.726 0.00 0.66386 0.08
1 15 -13 1 o 0.293 0.248 0.00 0.66378 0.00
5 3 -15 1 o 6.937 5.903 0.00 0.66370 0.08
3 9 -17 1 o 1.315 1.122 180.00 0.66367 0.01
4 13 -10 1 o 2.643 2.274 180.00 0.66358 0.03
1 1 -21 1 o 6.174 5.372 0.00 0.66342 0.06
3 5 -19 1 o 1.430 1.244 0.00 0.66341 0.01
4 15 -2 1 o 0.890 0.776 180.00 0.66340 0.01
2 18 -4 1 o 0.204 0.178 180.00 0.66336 0.00
3 15 -10 1 o 1.277 1.116 180.00 0.66326 0.01
5 7 -13 1 o 1.832 1.603 180.00 0.66325 0.02
4 14 4 1 o 1.768 1.541 0.00 0.66301 0.02
1 10 17 1 o 8.708 7.579 180.00 0.66298 0.07
5 11 3 1 o 0.389 0.338 0.00 0.66291 0.00
4 15 -1 1 o 7.841 6.805 180.00 0.66280 0.08
6 2 -10 1 o 0.670 0.581 0.00 0.66280 0.01
5 6 9 1 o 1.084 0.941 0.00 0.66278 0.01
5 12 -1 1 o 4.797 4.165 0.00 0.66276 0.05
4 11 -13 1 o 1.087 0.944 0.00 0.66274 0.01
6 5 -8 1 o 0.123 0.107 0.00 0.66273 0.00
3 14 9 1 o 0.679 0.590 0.00 0.66273 0.01
5 4 10 1 o 0.315 0.275 0.00 0.66266 0.00
0 15 13 1 o 11.989 10.498 180.00 0.66258 0.11
1 18 6 1 o 1.571 1.381 0.00 0.66254 0.01
1 6 -20 1 o 0.989 0.871 0.00 0.66251 0.01
4 15 -3 1 o 0.226 0.200 0.00 0.66247 0.00
1 2 20 1 o 0.482 0.428 180.00 0.66244 0.00
5 10 5 1 o 4.888 4.376 0.00 0.66238 0.05
0 19 3 1 o 0.489 0.438 180.00 0.66237 0.00
2 5 -20 1 o 1.056 0.957 180.00 0.66229 0.01
6 4 -9 1 o 0.275 0.253 0.00 0.66218 0.00
5 12 -4 1 o 1.526 1.414 180.00 0.66213 0.02
3 1 17 1 o 0.484 0.452 180.00 0.66206 0.00
1 18 -7 1 o 0.436 0.410 0.00 0.66199 0.00
6 6 1 1 o 0.008 0.007 0.00 0.66198 0.00
2 12 14 1 o 0.016 0.015 180.00 0.66191 0.00
6 3 4 1 o 3.247 3.089 0.00 0.66183 0.04
3 17 -1 1 o 3.430 3.266 180.00 0.66178 0.03
4 9 -15 1 o 0.252 0.240 180.00 0.66175 0.00
3 17 -2 1 o 5.434 5.145 180.00 0.66165 0.05
4 12 8 1 o 0.958 0.903 0.00 0.66161 0.01
1 10 -18 1 o 5.186 4.824 0.00 0.66151 0.05
6 7 -3 1 o 0.076 0.070 180.00 0.66149 0.00
2 13 13 1 o 5.191 4.802 0.00 0.66148 0.05
1 19 0 1 o 0.417 0.355 0.00 0.66107 0.00
1 19 -1 1 o 1.145 0.967 0.00 0.66102 0.01
4 14 -8 1 o 2.865 2.411 180.00 0.66100 0.03
6 7 -2 1 o 0.193 0.162 0.00 0.66098 0.00
4 8 12 1 o 11.038 9.247 180.00 0.66097 0.10
0 8 19 1 o 9.940 8.208 0.00 0.66085 0.08
1 2 -21 1 o 0.150 0.123 180.00 0.66073 0.00
4 15 0 1 o 2.548 2.090 180.00 0.66069 0.02
5 11 -8 1 o 13.473 11.084 180.00 0.66061 0.14
6 7 -4 1 o 0.439 0.366 180.00 0.66048 0.01
3 17 0 1 o 3.328 2.807 180.00 0.66039 0.03
3 16 5 1 o 0.028 0.024 0.00 0.66017 0.00
3 14 -12 1 o 2.851 2.508 180.00 0.66010 0.03
4 15 -4 1 o 1.102 0.978 0.00 0.66002 0.01
3 17 -3 1 o 1.309 1.162 180.00 0.66002 0.01
6 6 -7 1 o 0.743 0.662 0.00 0.65998 0.01
5 12 0 1 o 0.235 0.210 0.00 0.65993 0.00
4 3 -18 1 o 1.153 1.047 0.00 0.65962 0.01
1 19 1 1 o 0.356 0.324 0.00 0.65960 0.00
1 19 -2 1 o 6.947 6.301 0.00 0.65947 0.06
2 12 -16 1 o 10.172 9.201 180.00 0.65941 0.09
3 2 17 1 o 4.700 4.244 0.00 0.65938 0.04
5 10 -10 1 o 0.881 0.787 0.00 0.65925 0.01
4 6 -17 1 o 3.988 3.533 180.00 0.65917 0.04
2 13 -15 1 o 2.013 1.780 180.00 0.65915 0.02
2 11 15 1 o 7.935 6.949 180.00 0.65905 0.07
6 7 -1 1 o 1.258 1.095 0.00 0.65897 0.01
5 12 -5 1 o 2.443 2.115 180.00 0.65889 0.02
4 4 14 1 o 0.003 0.003 180.00 0.65872 0.00
2 18 3 1 o 4.447 3.810 0.00 0.65864 0.04
3 8 15 1 o 3.266 2.794 0.00 0.65861 0.03
2 8 17 1 o 1.123 0.961 180.00 0.65859 0.01
3 16 -8 1 o 5.633 4.808 180.00 0.65856 0.05
6 3 -10 1 o 3.197 2.681 180.00 0.65835 0.04
3 0 -20 1 o 10.409 8.719 180.00 0.65834 0.05
4 12 -12 1 o 4.086 3.404 180.00 0.65829 0.04
1 3 20 1 o 0.349 0.281 0.00 0.65799 0.00
5 6 -14 1 o 6.806 5.488 180.00 0.65799 0.07
6 7 -5 1 o 2.722 2.194 0.00 0.65798 0.03
2 18 -5 1 o 0.007 0.006 180.00 0.65798 0.00
3 6 16 1 o 2.129 1.716 0.00 0.65798 0.02
6 1 5 1 o 0.016 0.013 180.00 0.65788 0.00
2 14 12 1 o 2.713 2.201 180.00 0.65777 0.02
0 17 10 1 o 3.511 2.860 0.00 0.65773 0.03
1 17 9 1 o 0.348 0.293 0.00 0.65757 0.00
3 17 1 1 o 0.551 0.471 0.00 0.65751 0.00
5 4 -15 1 o 0.902 0.780 0.00 0.65747 0.01
3 1 -20 1 o 12.085 10.485 0.00 0.65746 0.12
2 1 19 1 o 0.048 0.042 180.00 0.65744 0.00
6 5 3 1 o 0.462 0.433 0.00 0.65718 0.01
4 15 1 1 o 0.235 0.223 180.00 0.65710 0.00
0 19 4 1 o 0.662 0.628 180.00 0.65710 0.01
3 17 -4 1 o 0.111 0.104 0.00 0.65690 0.00
1 17 -10 1 o 1.352 1.255 0.00 0.65679 0.01
0 10 18 1 o 1.007 0.934 180.00 0.65678 0.01
1 19 2 1 o 2.334 2.104 180.00 0.65665 0.02
5 1 11 1 o 0.401 0.357 180.00 0.65660 0.00
0 1 21 1 o 1.118 0.979 0.00 0.65654 0.01
1 19 -3 1 o 0.126 0.108 0.00 0.65644 0.00
2 11 -17 1 o 0.135 0.114 180.00 0.65642 0.00
0 6 20 1 o 0.616 0.509 0.00 0.65635 0.00
4 8 -16 1 o 3.250 2.684 180.00 0.65635 0.03
1 3 -21 1 o 14.405 11.757 180.00 0.65631 0.12
2 16 9 1 o 1.215 0.973 0.00 0.65625 0.01
4 15 -5 1 o 0.000 0.000 180.00 0.65612 0.00
2 6 18 1 o 12.346 9.630 180.00 0.65570 0.09
5 12 1 1 o 8.973 7.055 0.00 0.65565 0.09
6 4 4 1 o 2.027 1.596 0.00 0.65565 0.02
2 8 -19 1 o 0.097 0.076 180.00 0.65564 0.00
2 14 -14 1 o 1.185 0.935 0.00 0.65564 0.01
6 7 0 1 o 0.004 0.004 180.00 0.65549 0.00
6 6 2 1 o 0.933 0.769 0.00 0.65548 0.01
1 16 11 1 o 2.435 2.106 180.00 0.65534 0.02
6 2 5 1 o 13.618 12.139 180.00 0.65526 0.16
3 12 12 1 o 2.145 2.072 180.00 0.65506 0.02
3 3 17 1 o 0.043 0.043 180.00 0.65500 0.00
3 2 -20 1 o 0.254 0.268 180.00 0.65484 0.00
2 2 19 1 o 0.443 0.470 0.00 0.65482 0.00
5 5 10 1 o 0.579 0.641 0.00 0.65471 0.01
2 16 -11 1 o 0.730 0.834 180.00 0.65462 0.01
3 8 -18 1 o 0.809 0.946 180.00 0.65456 0.01
3 11 13 1 o 0.425 0.503 0.00 0.65452 0.00
1 16 -12 1 o 0.114 0.141 180.00 0.65441 0.00
5 8 8 1 o 1.915 2.426 180.00 0.65433 0.02
6 5 -9 1 o 0.297 0.385 180.00 0.65425 0.00
5 12 -6 1 o 0.065 0.085 0.00 0.65423 0.00
2 1 -21 1 o 0.764 1.007 180.00 0.65419 0.01
5 11 4 1 o 1.032 1.375 0.00 0.65413 0.01
5 9 7 1 o 1.106 1.479 180.00 0.65410 0.01
4 2 0 2 o 0.002 0.003 180.00 0.67610 0.30
