#------------------------------------------------------------------------------
#$Date: 2016-03-26 21:17:49 +0200 (Sat, 26 Mar 2016) $
#$Revision: 180472 $
#$URL: svn://www.crystallography.net/cod/cif/7/21/41/7214124.cif $
#------------------------------------------------------------------------------
#
# This file is available in the Crystallography Open Database (COD),
# http://www.crystallography.net/
#
# All data on this site have been placed in the public domain by the
# contributors.
#
data_7214124
loop_
_publ_author_name
'Hern\'andez, Jos\'e G.'
'Macdonald, Neil A. J.'
'Mottillo, Cristina'
'Butler, Ian S.'
'Fri\<s\<ci\'c, Tomislav'
_publ_section_title
;
 A mechanochemical strategy for oxidative addition: remarkable yields and
 stereoselectivity in the halogenation of organometallic Re(i) complexes
;
_journal_issue                   3
_journal_name_full               'Green Chemistry'
_journal_page_first              1087
_journal_paper_doi               10.1039/c3gc42104j
_journal_volume                  16
_journal_year                    2014
_chemical_formula_moiety         'C7 H5 Cl2 O2 Re'
_chemical_formula_sum            'C7 H5 Cl2 O2 Re'
_chemical_formula_weight         378.21
_chemical_name_common            lat-CpRe(CO)2Cl2
_chemical_name_systematic
;
 lat-cyclopentadienyldichlorodicarbonyl Re(III)
;
_space_group_crystal_system      monoclinic
_space_group_IT_number           11
_space_group_name_Hall           '-P 2yb'
_space_group_name_H-M_alt        'P 1 21/m 1'
_symmetry_space_group_name_Hall  '-P 2yb'
_symmetry_space_group_name_H-M   'P 1 21/m 1'
_atom_sites_solution_hydrogens   geom
_audit_creation_method           SHELXL-2013
_cell_angle_alpha                90
_cell_angle_beta                 106.9320(10)
_cell_angle_gamma                90
_cell_formula_units_Z            2
_cell_length_a                   6.2456(9)
_cell_length_b                   12.2155(17)
_cell_length_c                   6.2656(9)
_cell_measurement_reflns_used    4509
_cell_measurement_temperature    293(2)
_cell_measurement_theta_max      28.23
_cell_measurement_theta_min      3.34
_cell_volume                     457.30(11)
_computing_cell_refinement       'Bruker SAINT'
_computing_data_collection       'Bruker APEX2'
_computing_data_reduction        'Bruker SAINT'
_computing_molecular_graphics    'Bruker SHELXTL'
_computing_publication_material  'Bruker SHELXTL'
_computing_structure_refinement  'SHELXL-2013 (Sheldrick, 2013)'
_computing_structure_solution    'SHELXS-2013 (Sheldrick, 2013)'
_diffrn_ambient_temperature      293(2)
_diffrn_measured_fraction_theta_full 1.000
_diffrn_measured_fraction_theta_max 0.945
_diffrn_radiation_type           MoK\a
_diffrn_radiation_wavelength     0.71073
_diffrn_reflns_av_R_equivalents  0.0276
_diffrn_reflns_av_unetI/netI     0.0204
_diffrn_reflns_Laue_measured_fraction_full 1.000
_diffrn_reflns_Laue_measured_fraction_max 0.945
_diffrn_reflns_limit_h_max       8
_diffrn_reflns_limit_h_min       -8
_diffrn_reflns_limit_k_max       15
_diffrn_reflns_limit_k_min       -16
_diffrn_reflns_limit_l_max       8
_diffrn_reflns_limit_l_min       -7
_diffrn_reflns_number            5154
_diffrn_reflns_point_group_measured_fraction_full 1.000
_diffrn_reflns_point_group_measured_fraction_max 0.945
_diffrn_reflns_theta_full        25.242
_diffrn_reflns_theta_max         28.235
_diffrn_reflns_theta_min         3.336
_exptl_absorpt_coefficient_mu    13.822
_exptl_absorpt_correction_T_max  0.3066
_exptl_absorpt_correction_T_min  0.0656
_exptl_absorpt_correction_type   multi-scan
_exptl_absorpt_process_details   '(Blessing, 1995)'
_exptl_crystal_colour            Red
_exptl_crystal_density_diffrn    2.747
_exptl_crystal_description       Plates
_exptl_crystal_F_000             344
_exptl_crystal_size_max          0.70
_exptl_crystal_size_mid          0.20
_exptl_crystal_size_min          0.10
_refine_diff_density_max         1.455
_refine_diff_density_min         -0.975
_refine_diff_density_rms         0.116
_refine_ls_extinction_method     none
_refine_ls_goodness_of_fit_ref   1.129
_refine_ls_hydrogen_treatment    constr
_refine_ls_matrix_type           full
_refine_ls_number_parameters     58
_refine_ls_number_reflns         1115
_refine_ls_number_restraints     0
_refine_ls_restrained_S_all      1.129
_refine_ls_R_factor_all          0.0165
_refine_ls_R_factor_gt           0.0163
_refine_ls_shift/su_max          0.000
_refine_ls_shift/su_mean         0.000
_refine_ls_structure_factor_coef Fsqd
_refine_ls_weighting_details
'w=1/[\s^2^(Fo^2^)+(0.0123P)^2^+0.6872P] where P=(Fo^2^+2Fc^2^)/3'
_refine_ls_weighting_scheme      calc
_refine_ls_wR_factor_gt          0.0395
_refine_ls_wR_factor_ref         0.0396
_reflns_Friedel_coverage         0.000
_reflns_number_gt                1102
_reflns_number_total             1115
_reflns_threshold_expression     'I > 2\s(I)'
_iucr_refine_instructions_details
;
TITL JG01_0m in P2(1)            New: P21/m
CELL  0.71073   6.2456  12.2155   6.2656   90.000  106.932   90.000
ZERR     2.00   0.0009   0.0017   0.0009    0.000    0.001    0.000
LATT   1
SYMM  - X, 1/2 + Y, - Z
SFAC  C    H    CL   O    RE
UNIT  14   10    4    4    2
MERG   2
FMAP   2
PLAN   1
ACTA
BOND   $H
CONF
L.S.   5
WGHT    0.012300    0.687200
FVAR       0.19383
RE1   5    0.496660    0.250000    0.523594    10.50000    0.02515    0.03476 =
         0.02560    0.00000    0.00439    0.00000
CL1   3    0.227687    0.120596    0.595959    11.00000    0.03861    0.04186 =
         0.06521    0.00626    0.01840   -0.00355
O1    4    0.801691    0.089164    0.852130    11.00000    0.05024    0.06598 =
         0.05311    0.01840    0.00514    0.01548
C1    1    0.687996    0.149160    0.729352    11.00000    0.03376    0.05000 =
         0.03571    0.00353    0.00809    0.00260
C2    1    0.566406    0.156797    0.243695    11.00000    0.06210    0.04408 =
         0.03631   -0.00368    0.01753    0.00517
AFIX  43
H2    2    0.612340    0.084225    0.266732    11.00000   -1.20000
AFIX   0
C3    1    0.706903    0.250000    0.296675    10.50000    0.03825    0.06930 =
         0.03201    0.00000    0.01349    0.00000
AFIX  43
H3    2    0.861915    0.249999    0.355127    10.50000   -1.20000
AFIX   0
C4    1    0.344843    0.306668    0.149966    11.00000    0.05002    0.06354 =
         0.02899    0.00587    0.00289    0.01231
AFIX  43
H4    2    0.219753    0.351168    0.097049    11.00000   -1.20000
AFIX   0
HKLF    4

REM  JG01_0m in P2(1)            New: P21/m
REM R1 =  0.0163 for    1102 Fo > 4sig(Fo)  and  0.0165 for all    1115 data
REM     58 parameters refined using      0 restraints

END

WGHT      0.0119      0.6685

REM Highest difference peak  1.455,  deepest hole -0.975,  1-sigma level  0.116
Q1    1   0.4997  0.2500  0.6468  10.50000  0.05    1.45
;
_cod_data_source_file            c3gc42104j.txt
_cod_data_source_block           lat-CpRe(CO)2Cl2
_cod_database_code               7214124
#BEGIN Tags that were not found in dictionaries:
_shelx_space_group_comment
;
The symmetry employed for this shelxl refinement is uniquely defined
by the following loop, which should always be used as a source of
symmetry information in preference to the above space-group names.
They are only intended as comments.
;
_shelxl_version_number           2013-4
_shelx_res_checksum              22298
_shelx_hkl_file
;
  -1   0   0  944.91   33.06
   1   0   0 1000.00   32.68
  -1   0   0  926.45   37.72
  -1   0   0  978.06   42.79
   2   0   0   81.01    2.78
  -2   0   0   78.68    3.25
  -2   0   0   81.47    2.80
  -2   0   0   79.43    3.66
  -3   0   0  485.64   21.44
   3   0   0  485.93   16.37
  -3   0   0  466.55   16.58
  -3   0   0  489.49   18.93
  -4   0   0  449.56   17.22
   4   0   0  434.73   14.85
   4   0   0  440.10   19.48
  -4   0   0  421.12   19.47
  -5   0   0  121.56    4.95
   5   0   0  116.94    5.53
   5   0   0  120.68    4.17
   6   0   0   87.96    4.24
  -6   0   0   89.91    3.84
  -7   0   0   86.99    3.77
   7   0   0   82.57    4.13
   0  -1   0    1.18    0.11
   0  -1   0    1.71    0.11
   1  -1   0    8.85    0.37
  -1  -1   0    8.91    0.36
  -1  -1   0    8.73    0.35
  -1  -1   0    9.27    0.43
   1   1   0    9.20    0.48
  -1   1   0    8.73    0.47
  -1   1   0    9.26    0.47
   2  -1   0    1.95    0.14
  -2  -1   0    1.96    0.19
  -2  -1   0    2.14    0.13
  -2   1   0    2.29    0.20
   2   1   0    1.67    0.19
   2   1   0    1.99    0.12
  -2   1   0    1.79    0.10
  -3  -1   0    5.81    0.39
   3  -1   0    5.97    0.29
  -3  -1   0    5.75    0.27
   3   1   0    5.82    0.27
  -3   1   0    6.30    0.41
  -3   1   0    5.48    0.39
   3   1   0    5.95    0.40
  -3   1   0    5.67    0.24
  -4  -1   0    6.03    0.46
  -4  -1   0    6.08    0.30
   4  -1   0    6.00    0.32
  -4   1   0    6.22    0.44
   4   1   0    6.48    0.47
   4   1   0    5.94    0.30
  -4   1   0    5.85    0.49
  -5  -1   0    6.54    0.53
   5  -1   0    6.69    0.38
   5  -1   0    6.97    0.54
   5   1   0    6.82    0.53
  -5   1   0    6.89    0.53
  -5   1   0    6.61    0.55
  -6  -1   0    1.01    0.28
   6  -1   0    0.78    0.28
  -6   1   0    0.71    0.28
   6   1   0    0.84    0.29
   7  -1   0    0.79    0.32
  -7  -1   0    0.55    0.32
   7   1   0    0.02    0.28
  -7   1   0    0.30    0.30
   0  -2   0  949.03   30.39
   0  -2   0  903.43   30.01
   0   2   0  831.25   34.57
   0   2   0  846.12   39.26
  -1  -2   0  871.01   29.23
   1  -2   0  882.97   28.90
   1  -2   0  866.78   29.10
  -1  -2   0  867.95   33.34
  -1  -2   0  738.40   28.78
  -1   2   0  870.60   37.72
   1   2   0  829.69   37.78
  -2  -2   0  552.65   18.14
  -2  -2   0  540.82   18.47
   2  -2   0  539.80   18.11
  -2  -2   0  542.02   20.88
  -2   2   0  521.49   23.68
  -2   2   0  497.24   20.92
   2   2   0  540.05   23.70
  -3  -2   0  283.03    9.77
   3  -2   0  281.49    9.66
  -3  -2   0  285.71   11.17
  -3   2   0  283.73   12.64
  -3   2   0  278.39   11.22
   3   2   0  283.95   12.66
   3   2   0  282.86    9.61
  -4  -2   0  240.95    9.40
  -4  -2   0  234.11    8.16
   4  -2   0  233.93    8.09
   4   2   0  235.81   10.62
   4   2   0  234.18    8.04
  -4   2   0  232.54   10.60
  -4   2   0  238.30    9.44
   5  -2   0  201.86    6.93
  -5  -2   0  203.27    8.10
  -5   2   0  198.23    9.09
  -5   2   0  200.09    8.13
   5   2   0  198.57    9.12
  -6  -2   0  111.46    4.76
   6  -2   0  114.25    4.01
   6  -2   0  113.03    5.32
   6   2   0  109.42    5.33
  -6   2   0  117.69    4.84
   7  -2   0   54.17    2.70
   7   2   0   50.23    2.70
  -7   2   0   51.57    2.49
   1  -3   0    4.69    0.24
  -1  -3   0    5.39    0.28
   1  -3   0    4.50    0.20
  -1  -3   0    4.55    0.23
  -1  -3   0    4.43    0.24
   1   3   0    4.54    0.28
  -1   3   0    5.03    0.35
   1   3   0    4.64    0.41
  -1   3   0    4.66    0.28
  -2  -3   0    4.83    0.21
  -2  -3   0    4.67    0.25
  -2  -3   0    5.62    0.34
   2  -3   0    5.00    0.26
  -2   3   0    4.47    0.38
  -2   3   0    4.92    0.32
   2   3   0    5.03    0.37
  -3  -3   0   26.32    0.99
   3  -3   0   26.30    1.00
  -3  -3   0   25.88    1.19
  -3   3   0   24.73    1.26
  -3   3   0   26.34    1.30
   3   3   0   26.51    1.33
   3   3   0   26.63    0.93
  -4  -3   0    0.97    0.14
  -4  -3   0    0.90    0.20
   4  -3   0    0.97    0.16
  -4   3   0    1.11    0.22
  -4   3   0    1.24    0.27
   4   3   0    1.21    0.26
   5  -3   0    1.72    0.21
  -5  -3   0    1.70    0.29
  -5   3   0    1.31    0.29
  -5   3   0    1.34    0.32
   5   3   0    1.88    0.35
   6  -3   0    4.80    0.35
  -6  -3   0    4.81    0.50
   6   3   0    4.05    0.50
  -6   3   0    4.31    0.47
  -6   3   0    4.33    0.56
   7  -3   0    5.56    0.61
  -7  -3   0    5.94    0.62
  -7   3   0    6.35    0.67
   7   3   0    6.52    0.65
   0  -4   0   82.35    2.81
   0  -4   0   80.53    2.78
   0   4   0   79.16    3.64
   0   4   0   76.93    3.24
   1  -4   0  519.24   17.49
   1  -4   0  522.60   17.73
  -1  -4   0  499.91   17.50
   1   4   0  503.15   20.14
  -1   4   0  509.85   20.21
  -1   4   0  533.08   22.84
  -2  -4   0  802.72   31.02
   2  -4   0  828.47   27.17
  -2  -4   0  766.59   26.90
  -2  -4   0  815.07   27.23
   2  -4   0  808.69   26.87
  -2   4   0  824.92   35.14
  -2   4   0  672.30   31.04
   2   4   0  810.90   35.19
  -3  -4   0  211.88    7.19
   3  -4   0  209.59    7.12
  -3  -4   0  208.68    8.23
   3   4   0  211.37    9.35
  -3   4   0  185.20    8.32
  -3   4   0  213.40    9.29
   4  -4   0  125.28    4.41
  -4  -4   0  127.29    5.14
  -4  -4   0  126.80    4.45
  -4   4   0  125.19    5.25
  -4   4   0  125.03    5.76
   4   4   0  127.11    5.82
   5  -4   0  211.77    7.40
  -5  -4   0  217.61    8.62
  -5  -4   0  213.25    7.46
  -5   4   0  222.53    8.73
   5   4   0  208.57    9.74
  -5   4   0  207.97    9.68
   6  -4   0  112.83    4.06
  -6  -4   0  113.96    4.80
  -6   4   0  118.83    4.90
   6   4   0  114.04    5.41
  -6   4   0  109.04    5.32
  -7  -4   0   32.91    1.75
   7  -4   0   32.95    1.88
   7   4   0   34.60    1.96
  -7   4   0   35.27    1.85
   0  -5   0    0.22    0.09
   0  -5   0    0.04    0.06
   0   5   0    0.18    0.10
   0   5   0    0.06    0.12
   1  -5   0   18.07    0.71
  -1  -5   0   17.56    0.70
  -1  -5   0   18.50    0.70
   1  -5   0   17.97    0.67
  -1   5   0   19.40    0.92
  -1   5   0   17.25    0.88
   1   5   0   17.02    0.83
   1   5   0   16.66    1.02
   2  -5   0   17.71    0.64
   2  -5   0   18.04    0.73
  -2  -5   0   17.62    0.84
  -2  -5   0   18.33    0.71
  -2  -5   0   17.88    0.68
  -2   5   0   16.73    0.97
   2   5   0   17.72    1.06
   2   5   0   18.05    0.85
  -2   5   0   17.11    0.90
   3  -5   0   28.86    1.10
  -3  -5   0   28.45    1.30
  -3  -5   0   28.94    1.10
   3   5   0   28.45    1.51
  -3   5   0   24.73    1.41
  -3   5   0   29.44    1.41
   4  -5   0    0.69    0.15
  -4  -5   0    0.44    0.12
  -4  -5   0    0.55    0.18
   4   5   0    0.64    0.26
  -4   5   0    0.72    0.21
  -4   5   0    0.46    0.23
   5  -5   0    0.18    0.14
  -5  -5   0    0.04    0.17
  -5  -5   0    0.26    0.12
  -5   5   0    0.44    0.26
  -5   5   0    0.28    0.20
   5   5   0    0.26    0.26
  -6  -5   0    8.75    0.66
   6  -5   0    8.19    0.51
  -6   5   0    8.89    0.76
   6   5   0    8.04    0.74
  -6   5   0    8.44    0.67
   7  -5   0    4.06    0.57
  -7  -5   0    3.43    0.51
   7  -5   0    3.30    0.38
   7   5   0    3.72    0.61
  -7   5   0    3.82    0.59
   0  -6   0  427.12   14.23
   0  -6   0  404.94   14.07
   0   6   0  413.88   18.38
   0   6   0  406.12   16.27
  -1  -6   0  241.12    8.65
   1  -6   0  260.25    8.67
  -1  -6   0  268.82    8.77
   1  -6   0  263.52    8.73
  -1   6   0  257.36   10.09
   1   6   0  231.19   11.38
  -1   6   0  247.31   11.28
   1   6   0  252.78   10.02
   2  -6   0  214.15    7.21
  -2  -6   0  194.72    7.19
  -2  -6   0  214.01    7.28
   2  -6   0  212.92    7.21
  -2   6   0  207.78    8.47
  -2   6   0  208.41    9.37
   2   6   0  211.21    8.32
  -3  -6   0  306.88   10.15
  -3  -6   0  290.99   11.59
   3  -6   0  290.87   10.04
   3   6   0  297.93   13.24
  -3   6   0  260.10   11.74
  -3   6   0  304.51   13.08
   4  -6   0  201.26    6.92
  -4  -6   0  195.34    8.01
  -4  -6   0  197.56    6.98
  -4   6   0  184.23    8.16
   4   6   0  211.05    9.16
  -4   6   0  204.43    9.01
  -5  -6   0   92.93    3.33
   5  -6   0   90.33    3.32
  -5  -6   0   90.41    3.89
   5   6   0   91.65    4.44
  -5   6   0   93.10    4.31
  -5   6   0   91.46    4.05
  -6  -6   0   59.69    2.81
   6  -6   0   62.73    2.37
   6   6   0   62.80    3.22
  -6   6   0   65.74    2.99
  -6   6   0   61.56    3.07
   7  -6   0   46.70    1.86
   7   6   0   45.59    2.58
  -7   6   0   46.19    2.37
  -7   6   0   45.19    2.41
   0  -7   0   -0.01    0.07
   0  -7   0   -0.01    0.10
   0   7   0    0.09    0.13
   0   7   0    0.15    0.17
  -1  -7   0    7.76    0.38
   1  -7   0    7.80    0.41
   1  -7   0    8.01    0.35
  -1  -7   0    7.30    0.41
  -1   7   0    7.97    0.47
  -1   7   0    8.49    0.60
   1   7   0    7.92    0.58
   1   7   0    7.64    0.50
  -2  -7   0    0.21    0.10
   2  -7   0    0.33    0.14
   2  -7   0    0.07    0.06
  -2   7   0    0.15    0.12
   2   7   0    0.15    0.16
  -2   7   0    0.37    0.27
   2   7   0    0.00    0.33
   3  -7   0    2.60    0.28
  -3  -7   0    3.06    0.24
   3   7   0    2.58    0.32
  -3   7   0    1.87    0.41
  -3   7   0    2.75    0.30
   3   7   0    2.56    0.56
  -4  -7   0    6.17    0.48
  -4  -7   0    6.17    0.39
   4  -7   0    6.33    0.42
   4   7   0    6.75    0.70
  -4   7   0    5.33    0.66
  -4   7   0    6.76    0.50
   5  -7   0   10.56    0.59
  -5  -7   0   10.69    0.57
  -5  -7   0   10.39    0.73
  -5   7   0   11.31    0.74
  -5   7   0   10.72    0.86
   5   7   0   12.25    0.94
  -6  -7   0    0.05    0.24
  -6  -7   0    0.27    0.15
   6  -7   0    0.16    0.17
   6   7   0    0.25    0.34
  -6   7   0    0.07    0.23
  -6   7   0   -0.04    0.25
   7  -7   0   -0.04    0.20
  -7   7   0    0.27    0.37
   7   7   0    0.04    0.41
   0  -8   0  398.35   13.94
   0  -8   0  408.32   14.08
   0   8   0  423.84   16.16
   0   8   0  401.33   18.17
   1  -8   0  203.70    6.96
  -1  -8   0  204.74    7.02
  -1  -8   0  195.89    6.95
   1  -8   0  203.52    6.97
  -1   8   0  197.64    8.15
   1   8   0  198.22    8.06
   1   8   0  202.46    9.11
  -1   8   0  201.40    9.02
   2  -8   0  103.35    3.56
  -2  -8   0  101.67    3.57
  -2   8   0  100.93    4.56
   2   8   0   93.89    4.74
   2   8   0   96.85    4.11
  -2   8   0  100.97    4.29
   3  -8   0  194.75    6.80
  -3  -8   0  207.10    6.87
   3   8   0  198.83    7.87
  -3   8   0  205.07    8.82
  -3   8   0  190.65    8.13
   3   8   0  173.00    9.05
   4  -8   0  170.23    5.99
  -4  -8   0  173.95    6.04
  -4   8   0  157.42    7.14
   4   8   0  169.96    6.93
   4   8   0  170.17    8.04
  -4   8   0  178.56    7.76
  -5  -8   0   55.25    2.54
   5  -8   0   54.66    2.16
  -5  -8   0   57.60    2.16
   5   8   0   53.85    2.53
  -5   8   0   51.33    2.71
  -5   8   0   59.85    2.77
   5   8   0   60.16    3.05
  -6  -8   0   32.06    1.37
  -6  -8   0   31.84    1.68
   6  -8   0   34.40    1.42
  -6   8   0   33.00    1.78
   0  -9   0    0.28    0.16
   0  -9   0    0.06    0.09
   0   9   0    0.67    0.26
   0   9   0    0.21    0.16
   1  -9   0    2.87    0.22
   1  -9   0    3.47    0.29
  -1  -9   0    2.75    0.23
  -1  -9   0    3.22    0.32
   1   9   0    3.02    0.38
  -1   9   0    2.38    0.28
   1   9   0    2.45    0.35
  -1   9   0    3.29    0.44
   2  -9   0    4.59    0.36
  -2  -9   0    5.01    0.32
   2   9   0    4.83    0.62
  -2   9   0    4.80    0.40
  -2   9   0    5.49    0.63
   2   9   0    5.19    0.44
   3  -9   0    1.51    0.25
  -3  -9   0    1.87    0.23
  -3   9   0    1.29    0.43
   3   9   0    1.64    0.30
   3   9   0    1.40    0.53
  -3   9   0    1.80    0.28
   4  -9   0    8.35    0.51
  -4  -9   0    8.88    0.50
  -4   9   0    8.19    0.59
   4   9   0    7.90    0.62
  -4   9   0    7.82    0.80
   5  -9   0    3.34    0.38
  -5  -9   0    3.50    0.33
  -5   9   0    3.61    0.41
  -5   9   0    2.80    0.56
   5   9   0    3.09    0.46
  -6  -9   0    0.58    0.21
   6  -9   0    0.25    0.22
  -6   9   0    0.49    0.28
   6   9   0    0.50    0.32
  -6   9   0    0.79    0.40
   0 -10   0  139.09    4.91
   0 -10   0  141.02    4.92
   0  10   0  137.21    6.32
   0  10   0  139.44    5.78
   1 -10   0  170.15    5.77
  -1 -10   0  163.40    5.80
   1 -10   0  165.26    5.78
   1  10   0  160.66    6.73
  -1  10   0  162.27    7.44
  -1  10   0  166.65    6.84
  -2 -10   0  147.67    5.25
   2 -10   0  147.90    5.23
  -2  10   0  151.82    6.28
   2  10   0  147.53    6.08
  -2  10   0  145.04    6.71
   3 -10   0   79.50    3.01
  -3 -10   0   83.01    3.02
  -3  10   0   84.11    3.82
   3  10   0   77.07    3.49
  -3  10   0   84.99    3.82
   4 -10   0   61.74    2.39
  -4 -10   0   63.42    2.38
  -4  10   0   62.50    3.09
  -4  10   0   62.28    3.00
   4  10   0   61.45    2.78
   5 -10   0   56.90    2.22
  -5 -10   0   55.30    2.19
  -5  10   0   50.36    2.82
  -5  10   0   58.50    2.79
   5  10   0   58.96    2.62
  -6 -10   0   29.19    1.33
  -6  10   0   31.31    1.70
   0 -11   0    0.21    0.11
   0 -11   0    0.15    0.17
   0  11   0    0.24    0.25
  -1 -11   0   14.58    0.69
   1 -11   0   15.54    0.66
   1 -11   0   14.40    0.74
   1  11   0   15.25    0.95
  -1  11   0   16.53    1.05
  -2 -11   0    0.05    0.12
   2 -11   0    0.19    0.18
  -2  11   0    0.19    0.31
   2  11   0    0.29    0.26
   3 -11   0    6.08    0.47
  -3 -11   0    6.09    0.41
  -3  11   0    6.40    0.50
   3  11   0    6.95    0.58
  -3  11   0    6.28    0.84
   4 -11   0    0.08    0.20
  -4 -11   0    0.15    0.16
  -4  11   0    0.07    0.19
   4  11   0    0.18    0.26
  -4  11   0    0.14    0.37
   5 -11   0    0.68    0.25
  -5 -11   0    0.69    0.22
  -5  11   0    0.15    0.38
   5  11   0    0.52    0.30
  -5  11   0    0.79    0.29
   0 -12   0   61.10    2.37
   0  12   0   68.39    2.99
   1 -12   0   91.21    3.41
  -1 -12   0   89.04    3.37
  -1  12   0   99.32    4.17
   1  12   0   92.02    4.02
   2 -12   0  100.98    3.76
  -2 -12   0  102.92    3.75
  -2  12   0  108.43    4.65
   2  12   0   98.88    4.39
   3 -12   0   45.59    1.87
  -3 -12   0   45.63    1.84
   3  12   0   43.76    2.20
  -3  12   0   52.18    2.58
  -4 -12   0   28.23    1.21
   4 -12   0   26.24    1.23
  -4  12   0   25.56    1.77
   4  12   0   26.54    1.47
   0 -13   0    0.02    0.12
   0  13   0    0.38    0.34
  -1 -13   0    1.18    0.22
   1 -13   0    1.34    0.30
   1  13   0    1.64    0.42
  -1  13   0    1.64    0.47
  -2 -13   0    0.59    0.19
   2 -13   0    0.67    0.25
   2  13   0    0.89    0.36
  -2  13   0    0.52    0.41
   3 -13   0    1.22    0.30
  -3 -13   0    1.48    0.27
  -3  13   0    1.39    0.56
   3  13   0    1.53    0.38
   4 -13   0    0.11    0.25
   4  13   0   -0.22    0.29
   0 -14   0   48.62    1.98
   0  14   0   55.94    2.62
  -1 -14   0   38.70    1.65
  -1  14   0   44.69    2.28
   1  14   0   42.45    2.15
  -2 -14   0   28.56    1.27
   2 -14   0   27.30    1.32
  -2  14   0   32.22    1.86
   2  14   0   30.52    1.65
  -3 -14   0   29.85    1.36
   3 -14   0   31.16    1.43
  -3  14   0   35.81    2.10
   3  14   0   30.98    1.72
   0  15   0    0.65    0.43
  -1 -15   0    3.73    0.35
   1  15   0    5.40    0.72
  -1  15   0    5.19    0.81
  -2 -15   0   -0.09    0.15
   2 -15   0    0.13    0.27
   2  15   0    0.38    0.39
  -2  15   0    0.59    0.49
  -1 -16   0   16.83    0.84
  -8   0   1   37.41    1.91
   7   0  -1  104.66    5.10
  -7   0   1  110.28    4.58
  -6   0   1   77.73    3.79
   6   0  -1   80.78    3.82
  -6   0   1   80.84    3.40
  -5   0   1   77.13    3.70
   5   0  -1   80.97    2.81
  -5   0   1   78.70    3.30
  -4   0   1  319.77   12.73
  -4   0   1  310.33   11.13
   4   0  -1  337.44   11.02
  -4   0   1  323.38   14.43
  -3   0   1  481.43   19.07
   3   0  -1  501.42   16.55
  -3   0   1  479.38   16.74
  -3   0   1  485.23   21.65
  -2   0   1  352.45   13.66
  -2   0   1  346.49   12.01
  -2   0   1  348.19   15.52
  -1   0   1  617.36   27.36
   1   0  -1  612.74   21.18
  -1   0   1  611.88   24.03
   0   0  -1  818.63   30.85
   0   0   1  816.52   26.84
   0   0   1  697.84   35.07
   0   0  -1  816.90   27.23
  -1   0  -1  554.38   21.98
  -1   0  -1  565.92   19.37
   1   0   1  560.95   19.06
   1   0   1  559.47   24.91
   2   0   1  309.17   10.61
  -2   0  -1  311.30   12.31
  -2   0  -1  307.09   10.75
   2   0   1  319.99   13.93
   3   0   1  377.13   12.96
  -3   0  -1  392.15   15.06
   3   0   1  386.88   17.02
  -3   0  -1  368.16   13.11
   4   0   1  419.70   14.68
  -4   0  -1  442.28   17.10
   4   0   1  432.71   19.30
  -5   0  -1  201.13    8.02
   5   0   1  191.88    8.96
   6   0   1   55.87    2.93
  -6   0  -1   61.57    2.74
  -7   0  -1   45.89    2.28
   7   0   1   43.84    2.41
  -8  -1   1    7.80    0.69
  -8   1   1    7.39    0.68
   7  -1  -1    7.03    0.65
  -7  -1   1    7.13    0.61
   7   1  -1    8.38    0.69
  -7   1   1    7.26    0.64
  -6  -1   1    1.00    0.26
   6  -1  -1    2.14    0.24
  -6   1   1    1.36    0.30
   6   1  -1    1.82    0.34
  -6   1   1    1.72    0.34
   5  -1  -1   21.80    0.86
  -5  -1   1   20.93    1.05
  -5  -1   1   20.18    1.14
   5   1  -1   21.97    0.85
  -5   1   1   20.77    1.14
  -5   1   1   20.70    1.05
  -4  -1   1   89.46    3.66
  -4  -1   1   90.30    4.12
   4  -1  -1   90.98    3.14
  -4  -1   1   87.27    3.15
  -4   1   1   86.67    3.13
   4   1  -1   91.17    3.12
  -4   1   1   90.72    3.67
  -4   1   1   88.66    4.12
  -3  -1   1    6.57    0.32
  -3  -1   1    6.97    0.43
   3  -1  -1    7.12    0.33
  -3  -1   1    7.08    0.40
  -3  -1   1    6.70    0.31
  -3   1   1    7.00    0.44
  -3   1   1    6.71    0.40
  -2  -1   1   32.42    1.16
  -2  -1   1   31.61    1.16
  -2  -1   1   32.36    1.49
  -2  -1   1   32.14    1.33
   2  -1  -1   31.90    1.16
   2  -1  -1   32.29    1.16
  -2   1   1   31.32    1.33
  -2   1   1   31.89    1.16
  -2   1   1   31.14    1.51
  -1  -1   1   19.60    0.73
  -1  -1   1   21.64    0.76
  -1  -1   1   19.66    0.92
   1  -1  -1   18.38    0.76
   1   1  -1   19.06    0.83
  -1   1   1   19.33    0.81
  -1   1   1   19.96    0.95
  -1   1   1   19.39    0.73
   0  -1  -1   27.60    1.00
   0  -1   1   26.82    1.27
   0  -1  -1   26.58    1.10
   0  -1   1   26.80    0.99
   0   1  -1   26.02    0.98
   0   1   1   26.80    0.96
   0   1  -1   27.38    1.14
   1  -1   1   34.47    1.27
   1  -1   1   35.91    1.65
  -1  -1  -1   34.82    1.28
  -1  -1  -1   34.27    1.48
  -1   1  -1   35.61    1.29
   1   1   1   37.03    1.71
   1   1   1   36.43    1.25
  -1   1  -1   32.15    1.51
  -2  -1  -1    0.93    0.11
   2  -1   1    0.92    0.17
   2  -1   1    1.15    0.13
  -2  -1  -1    0.87    0.16
  -2   1  -1    1.09    0.10
   2   1   1    0.82    0.18
   2   1   1    1.04    0.10
   3  -1   1   46.75    2.23
  -3  -1  -1   45.79    1.69
  -3  -1  -1   48.04    2.05
   3  -1   1   46.33    1.68
  -3   1  -1   47.98    2.09
   3   1   1   47.25    1.65
  -3   1  -1   45.74    1.65
   3   1   1   47.64    2.26
   4  -1   1    0.75    0.14
   4  -1   1    1.30    0.27
  -4  -1  -1    0.33    0.20
   4   1   1    0.47    0.21
  -4   1  -1    0.72    0.24
   4   1   1    0.92    0.13
  -5  -1  -1    3.75    0.48
   5  -1   1    3.70    0.43
   5   1   1    4.08    0.43
  -5   1  -1    4.11    0.52
  -6  -1  -1    1.47    0.37
   6  -1   1    1.24    0.35
   6   1   1    1.55    0.37
  -6   1  -1    1.45    0.39
   7  -1   1    1.19    0.41
  -7  -1  -1    1.23    0.38
   7   1   1    0.95    0.39
  -7   1  -1    1.17    0.41
  -8   2   1   35.04    1.82
  -7  -2   1   53.60    2.53
  -7   2   1   58.49    2.57
  -7   2   1   54.49    2.80
   7   2  -1   56.02    2.83
   6  -2  -1  100.00    3.55
  -6  -2   1   98.04    4.17
  -6   2   1  101.91    4.19
   6   2  -1   99.12    4.69
  -6   2   1   98.25    4.68
  -5  -2   1  148.02    5.29
   5  -2  -1  157.41    5.27
  -5  -2   1  147.75    6.12
  -5   2   1  148.72    6.90
  -5   2   1  153.24    6.14
   5   2  -1  154.25    5.23
   5   2  -1  148.62    6.91
  -4  -2   1  230.08   10.52
  -4  -2   1  236.57    9.30
   4  -2  -1  237.49    8.05
  -4  -2   1  230.06    8.12
   4   2  -1  238.68    8.01
  -4   2   1  234.34    9.31
  -4   2   1  229.62   10.52
   4   2  -1  236.86   10.53
  -3  -2   1  429.86   14.87
  -3  -2   1  439.46   15.07
   3  -2  -1  407.67   15.06
  -3  -2   1  441.01   17.16
   3  -2  -1  447.95   14.90
  -3  -2   1  441.45   19.47
  -3   2   1  444.45   17.18
  -3   2   1  449.05   19.48
  -2  -2   1  590.55   22.88
  -2  -2   1  566.00   19.84
  -2  -2   1  570.19   20.06
   2  -2  -1  590.92   19.75
  -2  -2   1  583.20   25.91
  -2   2   1  582.15   22.75
  -2   2   1  588.18   25.86
   1  -2  -1  518.50   17.39
  -1  -2   1  525.23   17.65
   1  -2  -1  531.04   17.59
  -1  -2   1  531.25   22.71
  -1   2   1  433.48   19.97
   1   2  -1  501.30   19.98
  -1   2   1  538.73   22.86
   0  -2   1  609.20   27.35
   0  -2   1  642.04   21.25
   0  -2  -1  604.37   24.13
   0  -2   1  616.50   20.95
   0   2  -1  617.27   24.13
   0   2   1  607.08   20.96
  -1  -2  -1  561.66   21.44
   1  -2   1  559.74   18.65
  -1  -2  -1  549.83   18.97
   1   2   1  556.54   24.43
  -1   2  -1  547.79   24.43
  -1   2  -1  546.06   18.84
  -1   2  -1  513.09   21.51
  -2  -2  -1  384.81   13.20
  -2  -2  -1  392.82   15.05
   2  -2   1  389.09   13.04
  -2   2  -1  344.96   15.11
  -2   2  -1  398.08   17.04
  -2   2  -1  363.22   13.15
   2   2   1  401.55   17.11
   2   2   1  388.11   12.98
   3  -2   1  357.48   15.39
   3  -2   1  342.13   11.76
  -3  -2  -1  341.55   11.89
  -3  -2  -1  357.58   13.62
   3   2   1  354.73   15.44
   3   2   1  342.49   11.69
  -3   2  -1  314.72   13.66
  -4  -2  -1  270.17   10.65
   4  -2   1  274.45   12.00
  -4  -2  -1  263.13    9.23
   4  -2   1  262.58    9.14
   4   2   1  262.74   12.03
  -4   2  -1  265.61   10.71
   5  -2   1  155.35    7.11
  -5  -2  -1  162.01    6.38
   5  -2   1  154.10    5.38
   5   2   1  150.94    7.14
  -5   2  -1  150.32    6.41
   6  -2   1   83.80    4.13
  -6  -2  -1   87.58    3.78
   6   2   1   85.99    4.18
  -6   2  -1   85.79    3.83
   7  -2   1   43.52    2.41
  -7  -2  -1   47.14    2.29
  -7   2  -1   48.98    2.36
   7   2   1   42.58    2.45
  -7  -3   1    4.16    0.52
   7  -3  -1    4.55    0.37
   7   3  -1    3.97    0.50
  -7   3   1    3.92    0.50
  -7   3   1    4.87    0.56
   6  -3  -1   21.26    0.92
  -6  -3   1   20.57    1.11
  -6   3   1   20.18    1.21
  -6   3   1   23.19    1.18
   6   3  -1   21.22    1.24
  -5  -3   1    7.24    0.51
   5  -3  -1    7.75    0.42
  -5  -3   1    7.64    0.40
   5   3  -1    7.42    0.57
  -5   3   1    7.94    0.56
  -5   3   1    7.00    0.54
  -4  -3   1    1.04    0.14
   4  -3  -1    0.98    0.16
  -4  -3   1    1.17    0.14
  -4  -3   1    0.91    0.20
   4   3  -1    0.89    0.21
  -4   3   1    1.07    0.22
  -4   3   1    1.28    0.22
   3  -3  -1   59.55    2.15
  -3  -3   1   59.85    2.49
  -3  -3   1   60.19    2.16
  -3  -3   1   57.93    2.12
   3  -3  -1   60.60    2.14
  -3   3   1   62.80    2.53
   3   3  -1   61.67    2.80
  -3   3   1   60.38    2.81
  -2  -3   1  204.80    6.99
   2  -3  -1  204.20    6.92
  -2  -3   1  203.36    6.93
  -2  -3   1  204.10    7.97
   2  -3  -1  201.44    6.98
  -2   3   1  199.01    9.04
  -2   3   1  191.17    8.00
   2   3  -1  206.75    9.01
  -1  -3   1   19.37    0.80
  -1  -3   1   19.90    0.74
   1  -3  -1   19.31    0.74
   1  -3  -1   19.19    0.73
  -1   3   1   19.91    0.88
   1   3  -1   18.82    0.87
  -1   3   1   19.73    0.98
   1   3  -1   19.94    0.93
   0  -3  -1   49.80    1.74
   0  -3   1   50.12    1.79
   0  -3  -1   49.02    1.79
   0  -3   1   51.69    1.77
   0   3   1   49.60    2.02
   0   3  -1   50.42    2.25
   0   3  -1   51.29    2.08
   0   3   1   46.10    2.41
   1  -3   1  169.93    5.72
  -1  -3  -1  170.13    5.78
   1  -3   1  167.58    5.74
  -1  -3  -1  172.94    6.58
   1   3   1  147.44    7.58
  -1   3  -1  165.69    7.42
  -1   3  -1  168.70    6.67
   2  -3   1   54.09    1.95
  -2  -3  -1   56.06    2.27
  -2  -3  -1   54.38    1.96
  -2   3  -1   54.43    2.51
   2   3   1   55.37    2.62
  -2   3  -1   51.03    2.36
   3  -3   1    9.94    0.48
  -3  -3  -1   10.19    0.47
  -3  -3  -1   10.75    0.62
  -3   3  -1   10.78    0.62
   3   3   1   10.90    0.71
  -3   3  -1    8.63    0.67
   4  -3   1    1.26    0.19
  -4  -3  -1    1.09    0.16
  -4  -3  -1    0.96    0.23
   4  -3   1    1.52    0.27
  -4   3  -1    1.46    0.30
  -4   3  -1    1.45    0.25
   4   3   1    1.19    0.31
   5  -3   1    6.40    0.55
  -5  -3  -1    7.07    0.58
   5  -3   1    6.47    0.40
  -5   3  -1    6.25    0.58
   5   3   1    5.94    0.58
  -6  -3  -1    1.39    0.37
   6  -3   1    1.23    0.35
   6   3   1    1.38    0.38
  -6   3  -1    1.36    0.39
  -7  -3  -1    0.99    0.40
   7  -3   1    0.98    0.38
  -7   3  -1    1.41    0.46
   7   3   1    1.04    0.42
   7  -4  -1   23.54    1.04
  -7  -4   1   22.59    1.26
  -7   4   1   25.16    1.33
  -7   4   1   22.10    1.36
   7   4  -1   23.27    1.41
  -6  -4   1   86.46    3.79
   6  -4  -1   91.17    3.25
  -6   4   1   88.13    4.25
  -6   4   1   95.03    3.87
   6   4  -1   87.17    4.28
  -5  -4   1  243.87    8.39
   5  -4  -1  235.23    8.31
  -5  -4   1  233.66    9.61
  -5   4   1  255.56    9.68
   5   4  -1  245.41   10.90
  -5   4   1  229.80   10.86
  -4  -4   1  206.20    8.22
  -4  -4   1  205.15    7.18
   4  -4  -1  206.40    7.12
  -4   4   1  206.48    8.27
  -4   4   1  204.91    9.30
   4   4  -1  207.11    9.31
  -3  -4   1  258.33    8.97
   3  -4  -1  249.04    9.04
  -3  -4   1  261.47   10.38
  -3  -4   1  266.58    9.10
   3  -4  -1  268.55    9.01
   3   4  -1  265.77   11.76
  -3   4   1  260.94   10.44
  -3   4   1  270.31   11.77
   2  -4  -1  603.11   19.85
  -2  -4   1  558.45   19.88
  -2  -4   1  616.64   20.10
   2  -4  -1  587.53   20.07
  -2   4   1  599.26   25.96
   2   4  -1  615.91   25.95
  -2   4   1  500.02   22.92
   2   4  -1  592.29   22.87
   1  -4  -1  515.59   17.56
   1  -4  -1  517.74   17.34
  -1  -4   1  499.77   17.40
  -1  -4   1  531.01   17.60
  -1   4   1  514.86   22.71
   1   4  -1  500.42   20.01
   1   4  -1  478.02   22.66
  -1   4   1  527.98   20.02
   0  -4   1  293.23    9.97
   0  -4  -1  294.15   10.07
   0  -4   1  298.74   10.05
   0  -4  -1  299.21    9.92
   0   4  -1  299.74   12.94
   0   4  -1  278.10   11.50
   0   4   1  296.49   11.46
   0   4   1  272.58   13.11
  -1  -4  -1  406.26   14.46
  -1  -4  -1  442.14   14.71
   1  -4   1  435.88   14.54
   1  -4   1  453.69   14.66
  -1  -4  -1  420.92   16.72
   1   4   1  385.15   19.14
  -1   4  -1  438.57   18.94
  -1   4  -1  429.62   16.81
  -2  -4  -1  566.51   21.52
   2  -4   1  552.21   18.68
  -2  -4  -1  561.71   18.91
  -2   4  -1  528.34   18.85
  -2   4  -1  556.49   24.37
   2   4   1  555.88   24.54
  -2   4  -1  519.16   21.65
  -3  -4  -1  273.69    9.44
  -3  -4  -1  277.26   10.80
   3  -4   1  275.85    9.34
   3   4   1  276.74   12.30
  -3   4  -1  254.32   10.91
  -3   4  -1  272.25   12.17
   4  -4   1   89.55    3.16
  -4  -4  -1   86.27    3.16
  -4  -4  -1   87.74    3.71
   4   4   1   90.34    4.23
  -4   4  -1   87.84    4.10
   5  -4   1  110.75    3.90
  -5  -4  -1  115.10    4.63
   5  -4   1  110.71    5.12
  -5   4  -1  104.32    4.72
   5   4   1  106.34    5.21
   6  -4   1  113.25    5.34
   6  -4   1  116.16    4.05
  -6  -4  -1  115.84    4.84
   6   4   1  109.62    5.43
  -6   4  -1  108.84    4.93
  -7   4  -1   40.63    2.18
   7   4   1   39.28    2.29
  -7  -5   1    5.84    0.57
   7  -5  -1    5.23    0.42
  -7   5   1    5.40    0.56
   7   5  -1    5.50    0.62
  -6  -5   1    9.04    0.67
   6  -5  -1   10.90    0.58
  -6   5   1   10.70    0.76
   6   5  -1   11.26    0.80
  -6   5   1   10.58    0.75
   5  -5  -1    1.44    0.22
  -5  -5   1    1.37    0.27
  -5  -5   1    1.46    0.19
   5   5  -1    1.66    0.34
  -5   5   1    1.51    0.30
  -5   5   1    2.34    0.37
   4  -5  -1    1.26    0.18
  -4  -5   1    1.11    0.16
  -4  -5   1    1.62    0.25
  -4   5   1    0.98    0.22
  -4   5   1    1.27    0.29
   4   5  -1    1.36    0.29
   3  -5  -1   49.52    1.78
   3  -5  -1   50.39    1.85
  -3  -5   1   51.35    1.85
  -3  -5   1   50.92    1.82
   3   5  -1   51.47    2.42
  -3   5   1   52.29    2.40
   3   5  -1   49.88    2.14
  -3   5   1   48.52    2.23
  -2  -5   1   84.80    2.85
   2  -5  -1   83.14    2.83
   2  -5  -1   84.09    2.81
  -2  -5   1   69.43    2.87
   2   5  -1   80.91    3.28
   2   5  -1   81.50    3.72
  -2   5   1   72.68    3.35
  -2   5   1   84.64    3.70
  -1  -5   1    4.01    0.29
   1  -5  -1    3.90    0.22
   1  -5  -1    3.67    0.22
  -1  -5   1    3.41    0.21
   1   5  -1    3.92    0.27
   1   5  -1    4.19    0.31
  -1   5   1    4.15    0.36
  -1   5   1    4.07    0.32
   0  -5   1    0.93    0.10
   0  -5  -1    0.78    0.11
   0  -5  -1    0.99    0.11
   0  -5   1    0.89    0.14
   0   5  -1    0.77    0.18
   0   5   1    0.86    0.16
   0   5  -1    0.75    0.10
   0   5   1    1.03    0.25
   1  -5   1   42.61    1.47
  -1  -5  -1   42.25    1.52
   1  -5   1   42.42    1.53
  -1  -5  -1   38.32    1.44
  -1   5  -1   43.59    1.86
   1   5   1   40.39    1.74
  -1   5  -1   39.74    1.90
   2  -5   1   25.20    0.96
  -2  -5  -1   24.18    1.10
  -2  -5  -1   24.36    0.94
  -2   5  -1   22.86    1.24
  -2   5  -1   23.85    1.16
  -2   5  -1   23.44    0.86
   2   5   1   21.54    1.39
  -3  -5  -1    0.63    0.17
   3  -5   1    1.07    0.18
  -3  -5  -1    0.67    0.14
  -3   5  -1    0.79    0.19
  -3   5  -1    0.50    0.24
   3   5   1    2.26    0.43
  -4  -5  -1    0.69    0.20
  -4  -5  -1    0.35    0.12
   4  -5   1    0.40    0.15
  -4   5  -1    0.42    0.24
  -4   5  -1    0.28    0.18
   4   5   1    0.37    0.30
   5  -5   1    0.70    0.19
  -5  -5  -1    0.54    0.15
  -5  -5  -1    0.47    0.22
  -5   5  -1    0.32    0.26
   5   5   1    0.36    0.33
  -5   5  -1    0.84    0.26
   6  -5   1    0.69    0.20
  -6  -5  -1    0.94    0.35
   6  -5   1    1.02    0.34
  -6   5  -1    0.49    0.34
   6   5   1    0.88    0.40
  -7  -6   1   38.39    1.91
   7  -6  -1   38.73    1.61
  -7   6   1   39.61    2.10
  -6  -6   1   53.31    2.41
  -6  -6   1   52.52    2.01
   6  -6  -1   52.99    2.04
  -6   6   1   52.38    2.64
   6   6  -1   53.30    2.73
  -5  -6   1  122.44    4.37
  -5  -6   1  119.81    5.05
   5  -6  -1  119.77    4.35
   5   6  -1  122.43    5.73
  -5   6   1  120.21    5.66
  -5   6   1  130.09    5.16
  -4  -6   1  239.27    9.61
   4  -6  -1  236.61    8.31
  -4  -6   1  240.09    8.40
   4   6  -1  250.29   10.92
  -4   6   1  241.20   10.85
   4   6  -1  235.79    9.60
  -4   6   1  241.06    9.71
  -3  -6   1  241.60    8.16
   3  -6  -1  231.77    8.07
  -3  -6   1  241.73    8.06
  -3   6   1  210.52    9.43
  -3   6   1  238.21   10.53
   3   6  -1  242.72   10.60
   3   6  -1  232.16    9.32
   2  -6  -1  233.50    7.84
  -2  -6   1  233.74    7.93
   2  -6  -1  238.66    7.89
   2   6  -1  227.62    9.07
  -2   6   1  206.74    9.14
  -2   6   1  228.20   10.24
  -1  -6   1  321.08   11.29
   1  -6  -1  334.41   11.24
   1  -6  -1  334.30   11.37
  -1  -6   1  333.47   11.38
   1   6  -1  326.50   14.65
  -1   6   1  330.65   14.73
   1   6  -1  329.16   13.01
  -1   6   1  325.54   13.04
   0  -6   1  353.42   12.34
   0  -6   1  365.26   12.44
   0  -6  -1  358.18   12.29
   0  -6  -1  372.05   12.47
   0   6  -1  371.87   16.02
   0   6   1  365.02   16.21
   0   6  -1  349.27   14.26
   0   6   1  352.30   14.22
   1  -6   1  384.75   12.61
   1  -6   1  375.34   12.53
  -1  -6  -1  347.46   12.44
  -1  -6  -1  384.73   12.67
  -1   6  -1  381.55   14.53
  -1   6  -1  368.93   16.27
   1   6   1  318.72   16.49
   1   6   1  366.71   14.41
  -2  -6  -1  312.08   12.44
  -2  -6  -1  329.89   10.93
   2  -6   1  322.43   10.83
   2  -6   1  318.86   10.80
  -2   6  -1  317.82   12.61
  -2   6  -1  310.51   14.03
   2   6   1  289.90   14.30
  -3  -6  -1  163.47    6.58
   3  -6   1  161.66    5.68
  -3  -6  -1  166.56    5.74
   3   6   1  162.26    7.62
  -3   6  -1  160.12    7.35
  -3   6  -1  162.49    6.77
  -4  -6  -1  103.61    3.56
   4  -6   1   97.57    3.54
  -4  -6  -1   96.37    4.13
   4   6   1   97.99    4.79
  -4   6  -1   96.68    4.56
  -4   6  -1   99.00    4.33
  -5  -6  -1   85.94    3.16
   5  -6   1   86.85    3.16
  -5  -6  -1   89.08    3.74
  -5   6  -1   87.02    4.08
  -5   6  -1   78.98    3.87
   5   6   1   89.68    4.32
   6  -6   1   58.66    2.30
  -6  -6  -1   61.83    2.79
   6  -6   1   63.56    3.03
   6   6   1   59.89    3.20
  -6   6  -1   55.31    2.91
   7  -7  -1    6.22    0.50
  -6  -7   1    0.32    0.16
   6  -7  -1    0.42    0.18
  -6  -7   1    0.42    0.25
  -6   7   1    0.74    0.28
  -5  -7   1    4.61    0.33
  -5  -7   1    4.02    0.42
   5  -7  -1    4.43    0.35
  -5   7   1    5.15    0.54
   5   7  -1    4.14    0.41
  -5   7   1    4.39    0.44
   4  -7  -1   26.88    1.12
  -4  -7   1   27.54    1.11
   4   7  -1   27.76    1.57
  -4   7   1   29.43    1.47
  -4   7   1   26.79    1.43
   4   7  -1   26.63    1.32
   3  -7  -1    2.78    0.26
  -3  -7   1    3.10    0.24
   3   7  -1    3.18    0.50
  -3   7   1    2.58    0.46
   3   7  -1    2.54    0.29
  -3   7   1    3.11    0.31
  -2  -7   1    0.29    0.10
   2  -7  -1    0.17    0.12
  -2  -7   1    0.33    0.19
  -2   7   1    0.13    0.14
   2   7  -1    0.79    0.29
  -2   7   1    0.47    0.26
   2   7  -1    0.13    0.16
  -1  -7   1   60.19    2.30
   1  -7  -1   65.33    2.26
   1  -7  -1   65.28    2.25
  -1  -7   1   63.22    2.26
  -1   7   1   64.01    2.96
   1   7  -1   63.34    2.87
  -1   7   1   61.13    2.71
   1   7  -1   60.44    2.66
   0  -7  -1   47.92    1.73
   0  -7   1   46.12    1.75
   0  -7  -1   46.17    1.69
   0  -7   1   46.42    1.70
   0   7  -1   46.36    2.08
   0   7  -1   46.05    2.14
   0   7   1   47.22    2.33
   0   7   1   49.32    2.05
  -1  -7  -1    5.44    0.31
   1  -7   1    5.88    0.28
   1  -7   1    5.89    0.38
  -1  -7  -1    6.02    0.34
   1   7   1    6.30    0.45
   1   7   1    5.83    0.62
  -1   7  -1    5.70    0.36
  -1   7  -1    6.15    0.52
  -2  -7  -1    1.28    0.18
   2  -7   1    0.86    0.18
   2   7   1    0.68    0.43
  -2   7  -1    0.66    0.29
   2   7   1    0.62    0.19
  -2   7  -1    0.66    0.16
  -3  -7  -1   24.49    0.99
   3  -7   1   23.11    1.00
  -3  -7  -1   24.76    1.18
  -3   7  -1   25.40    1.41
  -3   7  -1   23.33    1.21
   3   7   1   20.94    1.51
  -4  -7  -1    0.16    0.12
   4  -7   1    0.13    0.15
  -4  -7  -1    0.30    0.18
  -4   7  -1    0.09    0.20
  -4   7  -1   -0.03    0.23
   4   7   1    0.53    0.39
  -5  -7  -1    3.74    0.47
  -5  -7  -1    3.43    0.32
   5  -7   1    3.86    0.36
   5   7   1    3.93    0.67
  -5   7  -1    3.20    0.40
  -5   7  -1    3.56    0.59
   6  -7   1    1.16    0.26
   6  -7   1    0.70    0.33
  -6  -7  -1    0.65    0.27
  -6   7  -1    1.28    0.43
   6   7   1    0.81    0.45
  -6  -8   1   45.54    1.80
   6  -8  -1   45.77    1.83
   6   8  -1   44.25    2.14
  -6   8   1   46.49    2.35
   5  -8  -1   36.52    1.55
  -5  -8   1   38.55    1.54
  -5   8   1   40.47    2.00
   5   8  -1   37.04    1.82
  -5   8   1   41.66    1.98
  -4  -8   1  145.22    4.73
   4  -8  -1  130.51    4.68
  -4   8   1  129.12    6.07
   4   8  -1  123.90    5.41
  -4   8   1  131.51    5.60
  -3  -8   1  232.23    7.62
   3  -8  -1  227.95    7.55
   3   8  -1  213.53    8.72
  -3   8   1  222.53    9.82
  -3   8   1  189.39    8.89
   2  -8  -1  104.38    3.67
  -2  -8   1   93.33    3.76
  -2  -8   1  104.79    3.69
   2  -8  -1  111.49    3.65
   2   8  -1  102.73    4.28
  -2   8   1  101.73    4.41
  -2   8   1  105.55    4.77
  -1  -8   1  121.37    4.28
   1  -8  -1  126.13    4.28
   1  -8  -1  121.25    4.25
  -1  -8   1  116.12    4.30
   1   8  -1  121.02    4.98
  -1   8   1  122.43    5.57
  -1   8   1  121.68    5.05
   0  -8   1  384.11   13.53
   0  -8   1  389.34   13.44
   0  -8  -1  389.70   13.38
   0  -8  -1  403.35   13.56
   0   8  -1  393.95   17.41
   0   8   1  395.83   15.52
   0   8  -1  376.30   15.53
   0   8   1  403.03   17.59
   1  -8   1  325.97   10.96
   1  -8   1  317.96   10.99
  -1  -8  -1  328.84   11.07
  -1   8  -1  322.32   12.75
   1   8   1  313.65   12.63
   1   8   1  300.24   14.42
  -1   8  -1  320.02   14.18
  -2  -8  -1   95.37    3.36
   2  -8   1   97.13    3.36
  -2   8  -1   91.63    4.24
   2   8   1   92.81    3.86
   2   8   1   79.64    4.51
  -2   8  -1  101.41    4.08
   3  -8   1  108.69    3.95
  -3  -8  -1  111.78    3.97
  -3   8  -1  111.61    5.04
  -3   8  -1  108.87    4.83
   3   8   1  109.19    4.57
   3   8   1  109.88    5.40
  -4  -8  -1  144.61    5.10
   4  -8   1  141.62    5.07
  -4  -8  -1  138.81    5.88
  -4   8  -1  155.50    6.19
   4   8   1  131.46    6.85
  -4   8  -1  143.32    6.52
  -5  -8  -1   61.78    2.36
   5  -8   1   64.36    2.38
  -5  -8  -1   62.36    2.81
  -5   8  -1   59.47    3.01
  -5   8  -1   62.28    3.01
   5   8   1   59.91    3.35
   6  -8   1   25.99    1.19
   6  -8   1   29.01    1.55
  -6  -8  -1   25.47    1.44
  -6   8  -1   25.88    1.47
  -6   8  -1   22.82    1.59
   6   8   1   24.42    1.76
  -6  -9   1    1.61    0.27
   6  -9  -1    2.22    0.33
  -6   9   1    1.89    0.39
   6   9  -1    2.05    0.40
   5  -9  -1    6.66    0.46
  -5  -9   1    6.79    0.44
  -5   9   1    6.63    0.56
   5   9  -1    5.98    0.52
  -4  -9   1    6.71    0.43
   4  -9  -1    7.06    0.46
  -4   9   1    7.32    0.55
  -4   9   1    7.40    0.71
   4   9  -1    7.09    0.54
  -3  -9   1    0.75    0.16
   3  -9  -1    0.72    0.19
  -3   9   1    0.71    0.21
   3   9  -1    0.54    0.23
  -3   9   1    0.50    0.31
   2  -9  -1    2.32    0.21
   2  -9  -1    1.74    0.23
  -2  -9   1    2.51    0.21
  -2   9   1    1.36    0.41
  -2   9   1    1.89    0.27
   2   9  -1    1.55    0.29
  -1  -9   1   12.35    0.57
   1  -9  -1   14.02    0.59
   1  -9  -1   13.22    0.62
  -1  -9   1   12.22    0.67
  -1   9   1   13.69    0.89
   1   9  -1   13.04    0.78
  -1   9   1   12.98    0.79
   0  -9   1    8.39    0.51
   0  -9  -1    9.52    0.49
   0  -9  -1    9.39    0.46
   0  -9   1    8.86    0.43
   0   9   1    9.50    0.68
   0   9   1    8.58    0.66
   0   9  -1    9.44    0.68
   1  -9   1    1.12    0.14
  -1  -9  -1    0.66    0.15
   1  -9   1    0.98    0.21
   1   9   1    0.48    0.21
  -1   9  -1    0.78    0.30
   1   9   1    0.77    0.35
   2  -9   1    0.13    0.16
  -2  -9  -1    0.27    0.13
  -2   9  -1    0.76    0.32
  -2   9  -1    0.02    0.16
   2   9   1    0.20    0.19
   2   9   1    0.02    0.32
  -3  -9  -1    0.24    0.14
   3  -9   1   -0.02    0.17
   3   9   1   -0.08    0.35
  -3   9  -1    0.68    0.20
  -3   9  -1    0.65    0.36
   3   9   1    0.52    0.24
   4  -9   1    0.58    0.21
  -4  -9  -1    0.27    0.16
  -4   9  -1    1.03    0.26
   4   9   1    0.40    0.50
   4   9   1    0.35    0.24
  -4   9  -1    1.51    0.49
  -5  -9  -1    0.21    0.22
  -5  -9  -1    0.36    0.19
   5  -9   1    0.28    0.21
  -5   9  -1    0.13    0.32
   5   9   1    0.05    0.39
   5   9   1    0.16    0.26
  -5   9  -1    0.19    0.23
  -6  -9  -1    0.78    0.23
   6   9   1    0.56    0.52
  -6   9  -1    0.34    0.28
  -6 -10   1   35.59    1.51
  -6  10   1   35.67    1.93
   5 -10  -1   46.19    1.91
  -5 -10   1   48.14    1.89
  -5  10   1   48.98    2.42
   5  10  -1   47.15    2.23
   4 -10  -1   45.89    1.78
  -4 -10   1   45.09    1.76
  -4  10   1   43.99    2.23
   4  10  -1   43.35    2.07
   3 -10  -1   69.11    2.60
  -3 -10   1   70.54    2.60
   3  10  -1   65.40    3.03
  -3  10   1   74.06    3.34
  -2 -10   1  114.06    4.06
   2 -10  -1  114.47    4.05
  -2  10   1  111.71    4.90
   2  10  -1  113.22    4.74
  -2  10   1  113.77    5.23
   1 -10  -1  131.74    4.66
   1 -10  -1  135.53    4.68
  -1 -10   1  133.09    4.74
  -1 -10   1  123.05    4.67
  -1  10   1  132.10    6.07
   1  10  -1  129.54    5.48
  -1  10   1  141.42    5.59
   0 -10   1  139.46    5.04
   0 -10  -1  137.19    5.02
   0 -10   1  136.67    4.99
   0 -10  -1  146.33    4.99
   0  10  -1  142.57    5.90
   0  10   1  151.73    5.90
   0  10   1  139.98    6.53
   1 -10   1  135.55    4.76
   1 -10   1  134.32    4.83
  -1 -10  -1  134.39    4.83
   1  10   1  137.24    5.61
   1  10   1  139.07    6.37
  -1  10  -1  132.91    5.71
  -2 -10  -1  113.82    4.17
   2 -10   1  117.98    4.18
   2  10   1  112.26    4.82
   2  10   1  114.92    5.57
  -2  10  -1  120.04    5.05
  -3 -10  -1   92.97    3.41
   3 -10   1   93.18    3.43
  -3  10  -1  104.30    4.35
   3  10   1   92.98    3.97
   3  10   1   83.18    4.60
  -4 -10  -1   64.41    2.45
   4 -10   1   58.98    2.44
  -4  10  -1   70.00    3.23
   4  10   1   62.74    2.87
   4  10   1   64.10    3.46
  -5 -10  -1   40.95    1.75
   5 -10   1   42.58    1.78
  -5  10  -1   46.29    2.44
   5  10   1   42.33    2.11
   5 -11  -1    2.27    0.35
  -5 -11   1    2.05    0.31
   5  11  -1    1.53    0.37
  -5  11   1    2.13    0.39
   4 -11  -1    0.17    0.19
  -4 -11   1    0.28    0.17
   4  11  -1   -0.09    0.23
  -4  11   1    0.28    0.23
   3 -11  -1    5.55    0.43
  -3 -11   1    5.97    0.40
   3  11  -1    6.76    0.58
  -3  11   1    7.13    0.79
  -3  11   1    6.09    0.51
   2 -11  -1    8.69    0.53
  -2 -11   1    8.72    0.48
  -2  11   1    9.60    0.83
   2  11  -1    9.18    0.67
  -2  11   1    9.33    0.62
   1 -11  -1    0.48    0.14
  -1 -11   1    0.64    0.22
   1 -11  -1    0.66    0.20
  -1 -11   1    0.45    0.14
  -1  11   1    0.35    0.30
  -1  11   1    0.29    0.18
   1  11  -1    0.68    0.28
   0 -11   1    0.00    0.10
   0 -11   1    0.18    0.19
   0 -11  -1    0.10    0.11
   0  11   1    0.01    0.16
   0  11   1    0.07    0.26
   0  11  -1    0.38    0.28
  -1 -11  -1    9.94    0.53
   1 -11   1   10.15    0.60
  -1  11  -1    9.82    0.82
   1  11   1   10.94    0.78
   1  11   1   10.49    0.75
  -2 -11  -1    0.62    0.18
   2 -11   1    1.02    0.25
   2  11   1    0.88    0.33
  -2  11  -1    0.88    0.39
   2  11   1    0.68    0.29
  -3 -11  -1    3.17    0.35
   3 -11   1    2.96    0.39
  -3  11  -1    3.25    0.65
   3  11   1    3.10    0.45
  -4 -11  -1    0.11    0.18
   4 -11   1    0.18    0.22
   4  11   1    0.63    0.29
  -4  11  -1    0.27    0.37
  -5 -11  -1    3.15    0.39
  -5  11  -1    3.65    0.73
  -5  12   1   45.68    2.36
   4 -12  -1   31.17    1.37
  -4 -12   1   31.04    1.34
   4  12  -1   28.94    1.60
  -4  12   1   33.30    1.69
  -3 -12   1   23.47    1.04
   3 -12  -1   24.45    1.09
   3  12  -1   23.20    1.30
  -3  12   1   23.78    1.31
  -2 -12   1   78.85    2.93
   2 -12  -1   79.47    2.95
   2  12  -1   77.37    3.48
  -2  12   1   83.02    3.73
  -2  12   1   78.96    3.76
  -1 -12   1  104.34    3.97
   1 -12  -1  109.68    3.96
   1 -12  -1  110.83    3.99
  -1  12   1  119.82    4.87
   1  12  -1  109.51    4.74
   0 -12   1   43.90    1.77
   0 -12   1   48.57    1.91
   0 -12  -1   43.61    1.79
   0  12   1   53.17    2.33
   0  12  -1   47.17    2.29
   1 -12   1   58.46    2.27
  -1 -12  -1   54.75    2.19
  -1  12  -1   57.00    2.78
   1  12   1   61.62    2.69
  -2 -12  -1  101.75    3.88
   2 -12   1  105.65    3.92
   2  12   1  106.44    4.57
  -2  12  -1  113.30    4.81
   3 -12   1   51.73    2.16
  -3 -12  -1   53.12    2.12
   3  12   1   53.77    2.53
  -3  12  -1   59.63    2.91
   4 -12   1   19.86    1.02
  -4 -12  -1   19.57    0.97
  -4  12  -1   21.65    1.55
   4  12   1   19.28    1.19
   4 -13  -1    0.62    0.28
  -4 -13   1    0.45    0.20
   4  13  -1    0.80    0.36
   3 -13  -1    3.62    0.42
  -3 -13   1    3.44    0.33
   3  13  -1    3.12    0.48
   2 -13  -1    3.92    0.42
  -2 -13   1    3.71    0.32
   2  13  -1    3.89    0.53
  -1 -13   1    0.39    0.16
  -1  13   1    0.06    0.33
   1  13  -1    0.69    0.34
   0 -13   1    0.10    0.22
   0 -13   1    0.43    0.15
   0 -13  -1    0.11    0.14
   0  13   1    0.37    0.34
   0  13  -1    0.52    0.35
   1 -13   1    1.19    0.30
  -1 -13  -1    1.60    0.24
   1  13   1    1.83    0.45
  -1  13  -1    1.52    0.47
   2 -13   1    1.60    0.33
  -2 -13  -1    1.15    0.24
  -2  13  -1    1.21    0.48
   2  13   1    1.46    0.42
   3 -13   1    0.01    0.23
  -3 -13  -1    0.05    0.16
   3  13   1    0.35    0.32
  -3  13  -1    0.09    0.44
  -4  13  -1    0.34    0.52
   3 -14  -1   35.41    1.53
  -3 -14   1   34.88    1.47
   3  14  -1   33.82    1.81
   2 -14  -1   29.25    1.28
  -2 -14   1   26.90    1.20
   2  14  -1   27.28    1.56
  -1 -14   1   28.11    1.22
   1  14  -1   30.93    1.66
   0 -14  -1   45.29    1.91
   0  14   1   55.81    2.56
   0  14  -1   49.64    2.50
   1 -14   1   47.10    1.99
  -1 -14  -1   43.39    1.87
   1  14   1   50.98    2.42
  -1  14  -1   50.45    2.52
   2 -14   1   28.97    1.35
  -2 -14  -1   25.96    1.24
  -2  14  -1   32.51    1.87
   2  14   1   29.36    1.63
   3  14   1   24.49    1.46
  -3  14  -1   24.77    1.77
  -2 -15   1    0.42    0.19
  -1 -15   1    3.89    0.34
   1  15  -1    3.63    0.62
   0 -15  -1    1.46    0.25
   0  15  -1    2.09    0.54
   1 -15   1    0.22    0.28
  -1 -15  -1    0.24    0.18
   1  15   1    0.22    0.41
  -1  15  -1    0.44    0.45
   2 -15   1    0.40    0.31
   2  15   1    0.76    0.42
   8   0  -2   24.12    1.46
  -7   0   2   84.71    4.17
  -7   0   2   89.17    3.70
  -6   0   2  135.11    5.51
   6   0  -2  138.43    4.76
  -6   0   2  132.07    6.24
  -5   0   2   78.56    3.22
   5   0  -2   77.88    2.80
  -5   0   2   76.08    3.64
   5   0  -2   79.14    2.79
   4   0  -2  187.62    6.54
  -4   0   2  190.32    8.47
  -4   0   2  187.54    6.48
  -4   0   2  186.15    7.45
  -3   0   2  772.41   26.81
  -3   0   2  791.99   35.07
  -3   0   2  808.62   30.88
   3   0  -2  785.10   27.18
  -2   0   2  508.30   22.88
  -2   0   2  522.54   20.13
  -2   0   2  510.60   17.53
   2   0  -2  520.47   17.75
   1   0  -2   11.29    0.52
   1   0  -2   12.38    0.51
  -1   0   2   11.06    0.65
  -1   0   2   10.82    0.51
   0   0  -2  269.00    9.28
   0   0   2  260.05   12.01
   0   0   2  270.64    9.14
   0   0  -2  267.29   10.48
   1   0   2  879.08   29.33
  -1   0  -2  887.99   29.80
  -1   0  -2  799.01   33.79
   1   0   2  890.73   38.40
   2   0   2  291.70   12.65
  -2   0  -2  277.18    9.75
   2   0   2  288.59    9.62
  -2   0  -2  268.48   11.17
   3   0   2  181.98    7.93
   3   0   2  183.98    5.99
  -3   0  -2  164.82    6.05
  -3   0  -2  164.97    7.04
   4   0   2  278.16   11.97
  -4   0  -2  249.57   10.61
  -5   0  -2  111.06    4.73
   5   0   2  109.47    5.22
   6   0   2   33.10    1.89
  -6   0  -2   33.72    1.78
   8   1  -2   10.24    0.83
   7  -1  -2   27.57    1.12
  -7  -1   2   26.08    1.33
   7   1  -2   25.71    1.48
  -7   1   2   25.60    1.49
  -6  -1   2   15.23    0.82
   6  -1  -2   13.03    0.66
  -6  -1   2   15.01    0.91
  -6   1   2   14.98    0.82
   6   1  -2   15.05    0.66
  -6   1   2   14.22    0.91
  -5  -1   2   29.06    1.49
   5  -1  -2   29.67    1.15
  -5  -1   2   29.16    1.33
  -5  -1   2   29.00    1.13
  -5   1   2   28.97    1.50
   5   1  -2   29.44    1.13
  -5   1   2   29.00    1.32
  -4  -1   2   73.35    3.39
   4  -1  -2   72.78    2.63
   4  -1  -2   75.05    2.62
  -4  -1   2   71.41    2.61
  -4  -1   2   73.75    3.00
  -4  -1   2   73.38    2.62
  -4   1   2   75.64    3.42
  -4   1   2   71.56    2.98
  -3  -1   2   22.26    0.94
  -3  -1   2   21.09    1.06
   3  -1  -2   21.21    0.85
  -3  -1   2   21.57    0.83
  -3  -1   2   22.00    0.85
  -3   1   2   20.62    0.84
  -3   1   2   20.81    1.08
  -3   1   2   21.79    0.92
  -2  -1   2   26.65    1.26
  -2  -1   2   26.23    1.01
   2  -1  -2   26.91    1.05
  -2   1   2   27.68    1.30
   2   1  -2   26.07    1.12
  -2   1   2   26.56    1.01
  -2   1   2   27.66    1.09
   1  -1  -2  234.24    8.30
  -1  -1   2  213.65    8.18
  -1  -1   2  247.17   10.62
  -1   1   2  246.66    8.15
  -1   1   2  229.71   10.68
   1   1  -2  247.46    8.25
   1   1  -2  247.22    9.34
   0  -1  -2  164.46    5.69
   0  -1   2  171.96    5.62
   0  -1  -2  161.74    6.38
   0  -1   2  152.09    7.33
   0   1   2  154.94    5.56
   0   1  -2  168.57    6.43
   0   1   2  148.37    7.39
   0   1  -2  171.77    5.67
   1  -1   2    4.99    0.29
   1  -1   2    4.61    0.38
  -1  -1  -2    6.30    0.36
  -1  -1  -2    5.33    0.31
   1   1   2    5.23    0.48
  -1   1  -2    4.57    0.32
  -1   1  -2    4.93    0.38
   1   1   2    5.59    0.30
   2  -1   2    0.78    0.21
   2  -1   2    0.91    0.14
  -2  -1  -2    1.23    0.21
  -2  -1  -2    0.84    0.14
  -2   1  -2    1.57    0.26
   2   1   2    0.79    0.12
  -2   1  -2    0.90    0.14
   2   1   2    0.73    0.23
   3  -1   2   18.23    0.74
  -3  -1  -2   16.13    0.72
  -3  -1  -2   19.73    0.97
   3  -1   2   18.13    1.01
   3   1   2   18.87    0.71
  -3   1  -2   16.99    0.97
   3   1   2   17.58    1.03
   4  -1   2   13.87    0.61
   4  -1   2   13.68    0.85
  -4  -1  -2   12.77    0.81
  -4   1  -2   11.47    0.82
   4   1   2   13.44    0.89
  -5  -1  -2    0.91    0.29
   5  -1   2    0.46    0.28
   5   1   2    0.67    0.32
  -5   1  -2    0.54    0.30
   6  -1   2    0.69    0.34
  -6  -1  -2    0.72    0.31
  -6   1  -2    0.62    0.35
   6   1   2    0.65    0.36
   8   2  -2   30.52    1.76
  -7  -2   2   54.39    2.45
   7  -2  -2   56.40    2.10
  -7   2   2   53.91    2.76
   7   2  -2   54.90    2.77
   6  -2  -2   83.18    3.01
  -6  -2   2   82.52    3.93
  -6  -2   2   81.07    3.48
  -6   2   2   86.14    3.49
  -6   2   2   82.32    3.94
   6   2  -2   82.87    3.94
   5  -2  -2  150.67    5.21
  -5  -2   2  148.59    6.79
  -5  -2   2  147.46    5.23
  -5  -2   2  148.92    6.00
  -5  -2   2  147.52    5.18
  -5   2   2  149.18    6.81
  -5   2   2  150.08    5.98
  -4  -2   2  266.29   10.37
  -4  -2   2  258.58   11.74
   4  -2  -2  260.72    9.13
   4  -2  -2  265.11    9.01
  -4  -2   2  261.19    9.10
  -4  -2   2  257.93    8.99
  -4   2   2  270.79   11.78
  -4   2   2  257.97   10.34
  -3  -2   2  339.88   11.65
  -3  -2   2  339.54   11.53
  -3  -2   2  337.95   15.01
  -3  -2   2  342.64   13.24
   3  -2  -2  342.64   11.52
   3  -2  -2  323.04   11.69
  -3   2   2  334.65   11.52
  -3   2   2  340.26   15.05
  -3   2   2  333.83   13.21
  -2  -2   2  361.98   12.16
  -2  -2   2  367.14   12.26
  -2  -2   2  362.49   15.78
   2  -2  -2  330.24   12.31
   2   2  -2  345.53   13.92
  -2   2   2  365.02   15.85
  -2   2   2  353.22   12.11
  -2   2   2  356.19   13.87
  -1  -2   2  384.89   16.53
  -1  -2   2  391.34   12.83
  -1  -2   2  356.44   12.74
   1  -2  -2  360.64   12.88
  -1   2   2  355.80   16.63
   1   2  -2  376.42   14.58
  -1   2   2  378.50   12.66
   0  -2  -2  361.36   13.91
   0  -2   2  325.56   15.84
   0  -2   2  357.02   12.16
   0  -2  -2  374.18   12.32
   0   2  -2  352.45   13.97
   0   2   2  368.61   12.10
   0   2  -2  348.54   12.27
  -1  -2  -2  375.88   14.48
  -1  -2  -2  376.82   12.76
   1  -2   2  382.21   12.59
   1  -2   2  380.35   16.43
   1   2   2  348.10   16.58
  -1   2  -2  377.21   12.76
   1   2   2  333.57   12.54
  -1   2  -2  376.66   14.57
  -2  -2  -2  423.90   14.84
   2  -2   2  436.45   19.16
   2  -2   2  434.15   14.66
  -2  -2  -2  429.31   16.92
  -2   2  -2  417.90   14.83
   2   2   2  432.24   14.61
   2   2   2  435.68   19.27
  -2   2  -2  428.57   16.99
  -3  -2  -2  289.75   10.33
   3  -2   2  301.81   10.21
  -3  -2  -2  301.75   11.85
   3  -2   2  305.88   13.37
  -3   2  -2  280.83   11.90
   3   2   2  306.71   13.46
   4  -2   2  142.67    4.88
   4  -2   2  141.26    6.43
  -4  -2  -2  139.58    5.76
   4   2   2  142.88    6.52
  -4   2  -2  131.61    5.81
  -5  -2  -2   88.29    3.80
   5  -2   2   84.73    4.15
   5   2   2   87.51    4.23
   6  -2   2   66.55    3.28
  -6  -2  -2   64.65    3.01
   6   2   2   65.21    3.34
  -6   2  -2   63.11    3.07
  -8  -3   2    3.05    0.46
   8   3  -2    3.31    0.53
  -7  -3   2    8.36    0.63
   7  -3  -2    7.68    0.50
  -7   3   2    9.46    0.72
   7   3  -2    8.05    0.69
   6  -3  -2   45.79    1.76
  -6  -3   2   46.62    2.06
  -6   3   2   44.42    2.31
   6   3  -2   47.35    2.32
  -5  -3   2   24.13    1.16
  -5  -3   2   23.99    0.97
   5  -3  -2   23.68    1.00
  -5  -3   2   23.95    0.98
   5   3  -2   25.23    1.29
  -5   3   2   23.24    1.30
  -5   3   2   26.06    1.17
  -4  -3   2    3.07    0.25
  -4  -3   2    3.10    0.30
   4  -3  -2    2.45    0.26
  -4  -3   2    3.01    0.30
   4  -3  -2    2.61    0.23
  -4  -3   2    3.80    0.25
  -4   3   2    3.36    0.33
  -4   3   2    2.41    0.27
   3  -3  -2   46.90    2.00
  -3  -3   2   55.67    1.98
   3  -3  -2   55.87    1.98
  -3  -3   2   55.83    2.52
  -3  -3   2   57.98    2.01
  -3   3   2   56.34    2.58
  -3   3   2   53.39    2.23
   3   3  -2   56.21    2.27
   2  -3  -2   98.14    3.55
  -2  -3   2   93.11    3.54
  -2  -3   2  101.32    4.47
   2  -3  -2  101.75    3.48
  -2  -3   2  101.21    3.51
  -2   3   2  102.10    3.94
   2   3  -2   98.17    4.00
  -2   3   2  102.53    4.57
  -2   3   2   98.89    3.47
  -1  -3   2   11.64    0.60
   1  -3  -2   12.94    0.55
  -1  -3   2   12.73    0.50
  -1   3   2   11.74    0.54
   1   3  -2   11.48    0.59
  -1   3   2   12.03    0.49
  -1   3   2   11.90    0.74
   0  -3   2   21.49    0.83
   0  -3  -2   20.27    0.86
   0  -3  -2   20.47    0.81
   0  -3   2   20.07    0.98
   0   3  -2   20.75    0.94
   0   3   2   15.95    1.16
   0   3   2   20.00    0.74
   0   3  -2   20.63    0.77
   1  -3   2   77.72    3.52
   1  -3   2   80.36    2.75
  -1  -3  -2   77.47    2.77
  -1  -3  -2   78.70    3.14
  -1   3  -2   77.33    2.75
   1   3   2   79.34    2.66
   1   3   2   72.54    3.73
  -1   3  -2   72.72    3.22
  -2  -3  -2   40.44    1.53
   2  -3   2   42.89    1.53
  -2  -3  -2   40.83    1.78
   2  -3   2   41.43    1.95
   2   3   2   42.54    2.14
  -2   3  -2   35.49    1.51
  -2   3  -2   43.00    1.89
   3  -3   2    7.39    0.41
  -3  -3  -2    5.90    0.47
   3  -3   2    6.77    0.49
  -3  -3  -2    6.33    0.37
   3   3   2    6.29    0.61
  -3   3  -2    6.29    0.52
   4  -3   2    3.20    0.29
  -4  -3  -2    3.22    0.27
  -4  -3  -2    3.02    0.39
   4  -3   2    2.90    0.37
   4   3   2    3.27    0.50
  -4   3  -2    2.95    0.44
  -5  -3  -2    6.57    0.57
   5  -3   2    6.54    0.58
  -5   3  -2    5.84    0.63
   5   3   2    6.02    0.65
   6  -3   2    4.30    0.55
  -6  -3  -2    3.46    0.52
  -6   3  -2    3.90    0.61
   6   3   2    3.87    0.62
  -7  -4   2   25.14    1.30
   7  -4  -2   25.68    1.10
   7   4  -2   24.51    1.45
  -7   4   2   24.91    1.45
   6  -4  -2   49.93    1.89
  -6  -4   2   49.67    1.87
  -6  -4   2   49.17    2.19
  -6   4   2   47.55    2.46
   6   4  -2   49.19    2.46
  -5  -4   2  202.75    8.21
   5  -4  -2  200.62    7.12
  -5  -4   2  209.39    7.18
  -5   4   2  202.81    9.31
   5   4  -2  209.39    9.29
  -4  -4   2  246.46    8.64
  -4  -4   2  249.01    9.86
  -4  -4   2  244.33    8.54
   4  -4  -2  247.52    8.56
  -4   4   2  252.76    9.84
  -4   4   2  245.25   11.18
   4   4  -2  253.79   11.15
  -3  -4   2  106.80    3.74
   3  -4  -2  105.66    3.74
  -3  -4   2  105.14    3.73
   3  -4  -2  104.56    3.70
  -3   4   2  107.58    4.24
   3   4  -2  102.22    4.25
  -3   4   2  102.06    4.83
   3   4  -2  109.13    4.77
  -2  -4   2  312.65   10.49
   2  -4  -2  301.43   10.36
   2  -4  -2  302.41   10.51
   2   4  -2  312.77   13.46
  -2   4   2  303.75   13.58
  -2   4   2  294.83   11.92
   2   4  -2  294.71   11.94
  -1  -4   2  783.52   26.92
  -1  -4   2  836.96   27.30
   1  -4  -2  795.46   27.20
   1  -4  -2  798.88   26.88
  -1   4   2  789.22   35.19
  -1   4   2  752.16   30.86
   1   4  -2  776.79   30.91
   0  -4  -2  389.77   13.37
   0  -4   2  396.10   13.23
   0  -4   2  411.75   13.33
   0  -4   2  388.42   17.15
   0  -4  -2  386.34   13.13
   0   4  -2  386.37   15.23
   0   4   2  335.08   17.39
   0   4   2  397.88   15.15
  -1  -4  -2  203.23    7.11
  -1  -4  -2  206.70    8.07
   1  -4   2  207.97    9.10
   1  -4   2  211.42    7.04
  -1  -4  -2  199.73    6.92
  -1   4  -2  200.09    8.17
   1   4   2  201.25    9.38
  -1   4  -2  198.67    7.06
   2  -4   2  449.26   20.17
   2  -4   2  456.87   15.48
  -2  -4  -2  468.83   17.84
  -2  -4  -2  455.35   15.67
  -2   4  -2  452.71   17.96
   2   4   2  422.56   20.40
  -2   4  -2  465.58   15.64
  -3  -4  -2  283.56   10.16
  -3  -4  -2  292.12   11.62
   3  -4   2  290.59   13.09
   3  -4   2  296.71   10.05
   3   4   2  294.47   13.30
  -3   4  -2  294.82   11.75
  -4  -4  -2   72.00    3.09
   4  -4   2   70.18    2.59
   4  -4   2   69.17    3.37
  -4  -4  -2   72.44    2.61
   4   4   2   69.78    3.54
  -4   4  -2   72.25    3.21
  -5  -4  -2   77.38    3.30
   5  -4   2   72.39    2.71
   5  -4   2   72.26    3.57
  -5   4  -2   73.13    3.40
   5   4   2   74.57    3.74
   6  -4   2   88.46    4.22
  -6  -4  -2   88.52    3.87
  -6   4  -2   84.34    3.95
   6   4   2   83.56    4.35
   7  -5  -2    4.25    0.37
  -7  -5   2    3.89    0.44
  -7   5   2    4.73    0.53
  -6  -5   2   20.07    0.87
  -6  -5   2   18.88    1.03
   6  -5  -2   19.43    0.88
  -6   5   2   19.12    1.15
   5  -5  -2   24.76    1.08
  -5  -5   2   26.47    1.27
  -5  -5   2   26.75    1.07
   5   5  -2   27.76    1.41
  -5   5   2   25.94    1.42
   4  -5  -2    6.92    0.39
  -4  -5   2    6.24    0.36
  -4  -5   2    7.20    0.41
   4   5  -2    6.45    0.50
   4   5  -2    6.31    0.45
  -4   5   2    6.82    0.50
  -4   5   2    7.03    0.48
   3  -5  -2   21.13    0.83
   3  -5  -2   19.92    0.84
  -3  -5   2   21.85    0.92
  -3  -5   2   20.28    0.83
   3   5  -2   20.60    0.99
   3   5  -2   21.42    1.05
  -3   5   2   21.72    1.00
  -3   5   2   19.89    1.10
   2  -5  -2   80.98    2.78
  -2  -5   2   81.52    2.81
  -2  -5   2   71.13    2.88
   2  -5  -2   79.75    2.81
  -2   5   2   78.83    3.67
   2   5  -2   79.26    3.23
  -2   5   2   79.95    3.25
   2   5  -2   77.83    3.56
   1  -5  -2   14.98    0.61
  -1  -5   2   15.95    0.63
   1  -5  -2   14.98    0.64
  -1  -5   2   16.00    0.72
  -1   5   2   14.59    0.76
  -1   5   2   15.61    0.93
   1   5  -2   15.43    0.78
   0  -5   2    1.02    0.19
   0  -5   2    1.08    0.13
   0  -5  -2    0.73    0.14
   0  -5   2    0.98    0.13
   0   5  -2    1.24    0.23
   0   5   2    0.88    0.16
   0   5   2    0.91    0.33
  -1  -5  -2   47.41    1.65
  -1  -5  -2   47.72    1.77
   1  -5   2   46.65    1.77
  -1  -5  -2   50.99    2.01
   1  -5   2   46.57    2.19
   1   5   2   49.24    2.52
  -1   5  -2   46.56    2.11
  -1   5  -2   45.98    1.71
  -2  -5  -2   76.14    2.72
   2  -5   2   78.54    2.72
   2  -5   2   72.17    3.44
  -2  -5  -2   79.35    3.13
   2   5   2   66.43    3.71
  -2   5  -2   76.15    3.28
   3  -5   2    6.68    0.50
  -3  -5  -2    6.57    0.49
   3  -5   2    7.86    0.44
  -3  -5  -2    7.34    0.42
  -3   5  -2    7.69    0.64
   3   5   2    6.29    0.72
   4  -5   2    1.66    0.31
   4  -5   2    1.84    0.25
  -4  -5  -2    1.86    0.32
  -4  -5  -2    1.64    0.23
   4   5   2    1.56    0.44
  -4   5  -2    1.56    0.37
   5  -5   2    9.03    0.71
  -5  -5  -2    9.31    0.69
   5  -5   2    9.10    0.53
   5   5   2    7.67    0.83
  -5   5  -2    8.49    0.77
   6  -5   2    3.85    0.56
  -6  -5  -2    3.66    0.55
   6   5   2    3.15    0.65
  -6   5  -2    3.51    0.60
   7  -6  -2   34.39    1.44
  -7  -6   2   33.63    1.69
   7   6  -2   34.64    1.70
  -7   6   2   33.42    1.87
   6  -6  -2   57.98    2.20
  -6  -6   2   58.81    2.19
   6   6  -2   55.60    2.55
  -6   6   2   57.93    2.87
   5  -6  -2   78.62    2.88
  -5  -6   2   79.89    2.88
   5   6  -2   78.91    3.34
  -5   6   2   77.63    3.75
   4  -6  -2  115.97    4.08
  -4  -6   2  118.89    4.11
  -4   6   2  113.02    5.32
   4   6  -2  112.94    4.70
  -3  -6   2  217.71    7.71
   3  -6  -2  220.96    7.63
  -3  -6   2  224.04    7.71
   3  -6  -2  217.13    7.67
  -3   6   2  233.55    8.85
   3   6  -2  219.64    8.81
  -3   6   2  214.86    9.98
  -2  -6   2  265.14    9.60
  -2  -6   2  290.55    9.58
   2  -6  -2  289.64    9.47
   2  -6  -2  285.67    9.58
  -2   6   2  247.08   10.96
   2   6  -2  277.02   10.95
  -2   6   2  277.72   12.43
   1  -6  -2  239.72    8.27
   1  -6  -2  240.12    8.40
  -1  -6   2  242.26    8.38
  -1  -6   2  245.32    8.38
  -1   6   2  251.13   10.97
   1   6  -2  240.56    9.62
  -1   6   2  232.97    9.60
   0  -6   2  337.74   11.58
   0  -6   2  355.15   11.64
   0  -6  -2  336.46   11.68
   0  -6  -2  332.35   11.47
   0   6  -2  322.47   13.35
   0   6   2  345.60   13.29
   0   6   2  328.66   15.27
   1  -6   2  412.87   13.49
  -1  -6  -2  386.59   13.55
   1  -6   2  390.36   13.41
  -1   6  -2  382.98   15.51
   1   6   2  360.97   17.69
   1   6   2  390.42   15.39
  -1   6  -2  411.06   17.38
   2  -6   2  190.43    6.67
  -2  -6  -2  191.60    6.73
  -2  -6  -2  193.01    7.67
   2  -6   2  187.11    8.59
  -2   6  -2  195.44    7.86
   2   6   2  189.69    8.94
  -2   6  -2  192.46    8.59
  -3  -6  -2  113.54    4.64
   3  -6   2  116.39    5.13
  -3  -6  -2  110.23    4.02
   3  -6   2  111.95    4.00
   3   6   2  102.25    5.42
  -3   6  -2  116.14    4.82
  -4  -6  -2  122.25    4.39
   4  -6   2  122.20    5.62
  -4  -6  -2  120.99    5.08
   4  -6   2  121.63    4.35
  -4   6  -2  127.75    5.27
   4   6   2  115.01    5.90
  -5  -6  -2   80.82    3.60
   5  -6   2   82.41    3.03
   5  -6   2   82.68    3.92
  -5   6  -2   83.86    3.78
   5   6   2   78.74    4.19
  -6  -6  -2   41.54    2.12
   6  -6   2   42.44    2.24
  -6   6  -2   41.87    2.28
   6   6   2   41.36    2.49
   7  -7  -2   10.70    0.65
  -7   7   2   10.64    0.83
   7   7  -2   10.22    0.75
  -6  -7   2    1.95    0.26
   6  -7  -2    1.74    0.28
  -6   7   2    1.83    0.37
   6   7  -2    1.39    0.31
  -5  -7   2    9.95    0.52
   5  -7  -2   10.14    0.54
  -5   7   2    9.21    0.68
   5   7  -2    9.87    0.65
   4  -7  -2   48.28    1.83
  -4  -7   2   49.86    1.84
  -4   7   2   48.83    2.39
   4   7  -2   46.30    2.12
   3  -7  -2   16.79    0.68
  -3  -7   2   17.10    0.72
   3  -7  -2   16.56    0.73
  -3  -7   2   17.16    0.86
  -3   7   2   16.35    0.95
   3   7  -2   16.24    0.87
   2  -7  -2    4.67    0.29
   2  -7  -2    4.53    0.30
  -2  -7   2    5.19    0.29
  -2  -7   2    5.02    0.47
   2   7  -2    4.38    0.37
  -2   7   2    3.67    0.45
  -2   7   2    4.74    0.42
   1  -7  -2   35.50    1.37
   1  -7  -2   36.69    1.40
  -1  -7   2   36.86    1.48
  -1  -7   2   36.06    1.38
  -1   7   2   37.52    1.70
  -1   7   2   39.49    1.94
   1   7  -2   38.15    1.69
   0  -7   2   29.89    1.26
   0  -7  -2   31.95    1.22
   0  -7  -2   30.26    1.15
   0  -7   2   32.41    1.18
   0   7  -2   30.31    1.48
   0   7   2   31.76    1.43
   0   7   2   31.56    1.77
   1  -7   2    3.50    0.32
  -1  -7  -2    3.88    0.28
   1  -7   2    3.79    0.24
  -1   7  -2    3.37    0.42
  -1   7  -2    3.34    0.27
   1   7   2    3.45    0.61
   1   7   2    3.47    0.36
  -2  -7  -2    6.73    0.45
  -2  -7  -2    5.24    0.37
   2  -7   2    5.70    0.40
  -2   7  -2    5.78    0.42
   2   7   2    5.90    0.74
  -2   7  -2    5.86    0.60
  -3  -7  -2   22.62    1.00
  -3  -7  -2   23.41    1.19
   3  -7   2   22.58    1.01
   3  -7   2   24.19    1.22
  -3   7  -2   24.21    1.37
  -3   7  -2   24.18    1.22
   3   7   2   21.25    1.54
   4  -7   2   14.18    0.72
  -4  -7  -2   14.17    0.71
   4  -7   2   14.20    0.87
  -4  -7  -2   13.99    0.87
   4   7   2   12.60    1.14
  -4   7  -2   14.45    1.03
   5  -7   2    0.42    0.29
   5  -7   2    0.81    0.23
  -5  -7  -2    0.66    0.29
  -5  -7  -2    0.54    0.19
  -5   7  -2    1.18    0.42
   5   7   2    0.76    0.50
   6  -7   2    0.24    0.21
   6  -7   2    0.39    0.34
   6   7   2   -0.03    0.44
  -6  -8   2   48.31    1.87
   6  -8  -2   48.07    1.89
  -6   8   2   46.47    2.44
   6   8  -2   46.74    2.19
  -5  -8   2   25.41    1.06
   5  -8  -2   24.61    1.07
   5   8  -2   25.15    1.26
  -5   8   2   23.68    1.37
   4  -8  -2   71.55    2.67
  -4  -8   2   73.69    2.68
   4   8  -2   73.66    3.12
  -4   8   2   72.11    3.48
  -3  -8   2  219.66    7.41
   3  -8  -2  219.37    7.34
  -3  -8   2  196.74    7.44
  -3   8   2  213.57    9.60
   3   8  -2  207.26    8.49
   2  -8  -2  165.14    5.70
  -2  -8   2  158.38    5.87
   2  -8  -2  171.07    5.75
  -2  -8   2  169.40    5.77
  -2   8   2  150.71    6.70
   2   8  -2  160.99    6.64
  -2   8   2  171.38    7.52
   1  -8  -2   98.18    3.51
  -1  -8   2   95.84    3.62
   1  -8  -2   98.79    3.56
  -1  -8   2   99.20    3.54
  -1   8   2  103.81    4.19
  -1   8   2  106.51    4.73
   1   8  -2   96.30    4.15
   0  -8  -2  217.33    7.49
   0  -8   2  225.18    7.59
   0  -8  -2  219.38    7.63
   0  -8   2  217.03    7.61
   0   8   2  228.21   10.06
   0   8   2  218.49    8.74
   0   8  -2  201.52    8.78
   1  -8   2  250.01    8.23
   1  -8   2  239.21    8.25
  -1  -8  -2  234.04    8.30
  -1   8  -2  239.57    9.60
   1   8   2  220.24   10.92
   1   8   2  238.82    9.48
  -2  -8  -2   90.32    3.32
   2  -8   2   88.31    3.32
   2   8   2   93.40    3.82
   2   8   2   88.40    4.53
  -2   8  -2   94.95    4.02
  -3  -8  -2   75.61    3.34
  -3  -8  -2   77.89    2.90
   3  -8   2   77.45    2.89
  -3   8  -2   82.99    3.61
   3   8   2   76.39    4.02
   4  -8   2  103.09    3.81
  -4  -8  -2  102.65    3.82
  -4  -8  -2  108.85    4.46
  -4   8  -2  110.72    4.69
   4   8   2   95.86    5.23
  -5  -8  -2   59.52    2.70
  -5  -8  -2   56.75    2.25
   5  -8   2   59.32    2.27
  -5   8  -2   62.02    2.93
   5   8   2   51.13    3.20
  -6  -9   2    5.24    0.42
   6  -9  -2    5.31    0.44
  -6   9   2    5.59    0.57
   6   9  -2    6.22    0.56
  -5  -9   2    3.96    0.34
   5  -9  -2    3.96    0.37
  -5   9   2    4.63    0.47
   5   9  -2    4.28    0.43
  -4  -9   2   21.20    0.91
   4  -9  -2   20.24    0.92
   4   9  -2   20.62    1.10
  -4   9   2   20.57    1.19
  -3  -9   2   25.77    1.06
   3  -9  -2   24.59    1.07
  -3   9   2   26.89    1.41
   3   9  -2   26.20    1.30
  -2  -9   2    8.40    0.59
   2  -9  -2    8.64    0.46
   2  -9  -2    8.44    0.44
  -2  -9   2    8.18    0.43
  -2   9   2    8.61    0.62
   2   9  -2    8.45    0.60
  -1  -9   2   19.21    0.80
  -1  -9   2   18.49    0.92
   1  -9  -2   20.44    0.83
   1  -9  -2   18.95    0.82
   1   9  -2   18.27    1.04
  -1   9   2   20.86    1.16
  -1   9   2   20.61    1.17
   0  -9   2   31.54    1.35
   0  -9   2   32.68    1.25
   0  -9  -2   31.94    1.29
   0   9   2   33.57    1.83
   0   9   2   34.68    1.59
   0   9  -2   31.57    1.60
   1  -9   2    1.66    0.29
  -1  -9  -2    1.63    0.22
   1   9   2    1.85    0.32
   1   9   2    1.67    0.44
  -1   9  -2    1.36    0.33
   2  -9   2    0.14    0.18
  -2  -9  -2    0.30    0.15
   2   9   2    0.21    0.18
   2   9   2    0.40    0.39
  -2   9  -2    0.79    0.35
  -3  -9  -2   13.73    0.74
   3  -9   2   14.53    0.77
  -3   9  -2   16.76    1.14
   3   9   2   15.09    1.22
   3   9   2   15.43    0.90
  -4  -9  -2   10.17    0.60
   4  -9   2    9.54    0.61
  -4  -9  -2    9.90    0.74
  -4   9  -2   11.63    0.98
   4   9   2    8.95    1.01
   5  -9   2    0.53    0.24
  -5  -9  -2    0.29    0.24
  -5  -9  -2    0.15    0.19
  -5   9  -2    0.07    0.39
   5   9   2    0.14    0.46
  -6 -10   2   25.56    1.15
  -6  10   2   25.51    1.51
   6  10  -2   25.26    1.39
  -5 -10   2   38.58    1.57
   5 -10  -2   36.94    1.57
  -5  10   2   39.42    2.03
   5  10  -2   38.21    1.86
   4 -10  -2   50.20    1.97
  -4 -10   2   51.19    1.97
   4  10  -2   51.26    2.33
  -4  10   2   50.89    2.55
   3 -10  -2   66.43    2.45
  -3 -10   2   65.87    2.45
  -3  10   2   66.63    3.19
   3  10  -2   63.98    2.88
  -2 -10   2  104.80    3.95
   2 -10  -2  111.98    3.77
  -2 -10   2  103.89    3.78
   2 -10  -2  103.40    3.75
  -2  10   2  105.94    4.94
   2  10  -2  101.12    4.41
   1 -10  -2  129.45    4.42
   1 -10  -2  123.32    4.46
  -1 -10   2  119.40    4.44
  -1 -10   2  124.78    4.55
  -1  10   2  128.70    5.87
   1  10  -2  126.59    5.23
   0 -10  -2   74.12    2.82
   0 -10   2   74.82    2.77
   0 -10   2   74.35    2.88
   0  10   2   81.81    3.82
   0  10  -2   74.02    3.37
   0  10   2   83.35    3.37
  -1 -10  -2   58.25    2.28
   1 -10   2   60.34    2.33
   1  10   2   65.52    2.71
  -1  10  -2   58.01    2.77
   1  10   2   60.27    3.15
  -2 -10  -2   91.68    3.41
   2 -10   2   90.91    3.42
   2  10   2   84.22    4.59
   2  10   2   98.72    3.96
  -2  10  -2   97.01    4.17
   3 -10   2   76.66    3.03
  -3 -10  -2   78.71    3.02
   3  10   2   81.71    3.51
   3  10   2   80.08    4.18
  -3  10  -2   86.63    3.83
  -4 -10  -2   41.52    1.75
   4 -10   2   41.79    1.77
  -4  10  -2   45.43    2.37
   4  10   2   45.52    2.59
   4  10   2   40.27    2.06
  -5 -10  -2   30.94    1.40
   5  10   2   31.19    1.71
   5  10   2   33.21    2.17
  -5 -11   2    8.20    0.53
   5 -11  -2    7.23    0.54
   5  11  -2    7.09    0.63
  -5  11   2    8.53    0.69
  -4 -11   2    0.93    0.21
   4 -11  -2    0.78    0.23
  -4  11   2    1.08    0.30
   4  11  -2    0.61    0.25
   3 -11  -2   10.99    0.60
  -3 -11   2   10.46    0.56
  -3  11   2   11.32    0.76
   3  11  -2   10.10    0.72
  -2 -11   2   38.60    1.54
   2 -11  -2   39.36    1.56
   2  11  -2   38.31    1.89
  -2  11   2   41.89    2.06
  -1 -11   2    9.63    0.51
  -1 -11   2   11.38    0.68
   1 -11  -2   10.17    0.53
  -1  11   2   10.70    0.76
   1  11  -2   10.83    0.78
   0 -11   2    0.57    0.22
   0 -11  -2    0.48    0.16
   0 -11   2    0.47    0.13
   0  11  -2    0.65    0.29
   0  11   2    0.26    0.24
   0  11   2    0.01    0.24
   1 -11   2    6.74    0.51
  -1 -11  -2    5.73    0.42
   1  11   2    7.40    0.62
   1  11   2    7.36    0.71
  -1  11  -2    6.56    0.65
  -2 -11  -2   10.96    0.60
   2 -11   2   10.17    0.65
  -2  11  -2   12.03    0.96
   2  11   2   10.42    0.77
   2  11   2    8.84    0.89
   3 -11   2    1.14    0.29
  -3 -11  -2    1.10    0.26
  -3  11  -2    1.45    0.52
   3  11   2    0.81    0.43
   3  11   2    1.01    0.34
   4 -11   2    0.81    0.26
  -4 -11  -2    0.69    0.24
   4  11   2    0.55    0.33
   4  11   2    0.62    0.49
  -4  11  -2    0.10    0.43
  -5  12   2   36.66    1.99
  -4 -12   2   33.89    1.42
   4 -12  -2   31.09    1.43
  -4  12   2   36.17    1.84
   4  12  -2   33.86    1.72
   3 -12  -2   23.65    1.08
  -3 -12   2   23.62    1.04
  -3  12   2   25.51    1.38
   3  12  -2   22.81    1.29
   2 -12  -2   60.52    2.27
  -2 -12   2   58.12    2.24
  -2  12   2   59.93    2.96
   2  12  -2   59.52    2.73
  -1 -12   2   81.17    3.12
   1 -12  -2   83.90    3.14
  -1 -12   2   91.24    3.31
   1  12  -2   86.08    3.78
  -1  12   2   87.72    4.15
   0 -12  -2   40.58    1.67
   0 -12   2   46.63    1.81
   0 -12   2   40.98    1.62
   0  12   2   44.77    2.29
   0  12  -2   40.41    2.10
  -1 -12  -2   32.62    1.43
   1 -12   2   35.46    1.53
   1  12   2   37.76    1.81
   1  12   2   36.29    2.02
  -1  12  -2   32.96    1.86
  -2 -12  -2   57.31    2.34
   2 -12   2   61.65    2.42
  -2  12  -2   60.08    2.99
   2  12   2   63.49    2.81
   2  12   2   61.13    3.24
  -3 -12  -2   49.16    1.99
   3 -12   2   47.49    2.03
   3  12   2   47.47    2.36
  -3  12  -2   53.27    2.71
   4  12   2   20.85    1.29
   4 -13  -2    2.47    0.37
  -4 -13   2    2.27    0.33
   4  13  -2    1.85    0.41
  -4  13   2    2.16    0.42
  -3 -13   2    3.28    0.32
   3 -13  -2    2.48    0.36
  -3  13   2    3.54    0.45
   3  13  -2    3.23    0.51
  -2 -13   2   10.14    0.58
  -2  13   2   12.03    0.81
   2  13  -2   11.60    0.87
   1 -13  -2    5.74    0.39
  -1 -13   2    5.03    0.36
   1  13  -2    5.48    0.60
  -1  13   2    5.81    0.57
   0 -13   2    1.67    0.34
   0 -13  -2    1.22    0.23
   0  13  -2    0.96    0.36
  -1 -13  -2    4.32    0.37
   1 -13   2    4.69    0.51
  -1  13  -2    5.32    0.70
  -2 -13  -2    5.85    0.45
   2 -13   2    6.78    0.58
   2  13   2    7.12    0.70
  -2  13  -2    5.67    0.82
  -3  13  -2    0.46    0.50
   3  13   2    0.77    0.39
  -3 -14   2   27.48    1.22
   3 -14  -2   26.28    1.27
   3  14  -2   29.92    1.59
  -2 -14   2   23.21    1.05
   2  14  -2   24.20    1.39
  -1 -14   2   24.36    1.09
   1  14  -2   27.75    1.53
   0 -14   2   42.41    1.83
   0 -14  -2   39.26    1.65
   0  14  -2   42.22    2.17
  -1 -14  -2   36.10    1.57
   1 -14   2   40.18    1.72
  -1  14  -2   38.23    2.09
   2 -14   2   23.40    1.22
  -2 -14  -2   23.07    1.11
  -2  14  -2   25.74    1.66
  -2 -15   2    0.27    0.17
   0 -15  -2    8.15    0.53
   1 -15   2    1.61    0.39
  -8   0   3   11.03    0.86
   7   0  -3   63.02    2.37
  -7   0   3   63.44    3.13
  -6   0   3  123.91    5.65
   6   0  -3  119.36    4.32
   5   0  -3   60.60    2.24
  -5   0   3   60.06    2.87
  -5   0   3   60.07    2.22
  -4   0   3  129.48    6.07
   4   0  -3  131.84    4.73
  -4   0   3  138.55    5.32
  -4   0   3  134.82    4.70
   3   0  -3  502.22   17.20
  -3   0   3  496.37   22.14
  -3   0   3  498.22   16.99
   3   0  -3  493.52   19.44
   2   0  -3  392.28   13.50
  -2   0   3  390.92   17.36
   2   0  -3  382.17   15.21
  -2   0   3  392.18   13.33
   1   0  -3  190.79    6.35
  -1   0   3  172.49    6.23
  -1   0   3  165.48    8.18
   1   0  -3  189.58    7.08
   0   0   3  407.51   14.16
   0   0  -3  415.31   14.39
   0   0  -3  417.21   16.26
   0   0   3  417.58   18.62
   1   0   3  427.24   14.24
   1   0   3  412.93   18.70
  -1   0  -3  401.60   14.45
  -1   0  -3  422.71   16.39
   2   0   3  194.34    6.53
   2   0   3  190.54    8.63
  -2   0  -3  189.13    6.65
  -2   0  -3  180.22    7.59
   3   0   3  101.76    4.72
  -3   0  -3   96.72    4.17
  -4   0  -3   98.29    4.23
   4   0   3   98.98    4.73
   5   0   3   80.10    3.98
  -5   0  -3   80.29    3.60
   6   0   3   43.89    2.42
  -6   0  -3   41.62    2.18
  -8   1   3   13.34    0.98
   8   1  -3   13.30    0.95
  -7  -1   3   33.30    1.78
   7  -1  -3   32.32    1.34
  -7   1   3   32.43    1.77
   6  -1  -3   18.93    0.86
  -6  -1   3   20.17    1.12
   6   1  -3   18.64    0.84
  -6   1   3   19.40    1.12
   5  -1  -3    9.86    0.52
  -5  -1   3   10.37    0.58
  -5  -1   3   10.68    0.66
   5  -1  -3   10.37    0.54
  -5  -1   3    9.95    0.52
  -5   1   3    9.79    0.66
   5   1  -3    9.56    0.49
  -4  -1   3   61.35    2.91
  -4  -1   3   62.91    2.29
  -4  -1   3   64.84    2.56
   4  -1  -3   62.91    2.32
   4   1  -3   60.50    2.28
  -4   1   3   62.26    2.94
  -4   1   3   61.73    2.28
  -3  -1   3  154.27    6.96
   3  -1  -3  155.92    5.49
  -3  -1   3  156.64    5.42
   3   1  -3  154.18    6.12
  -3   1   3  153.40    7.00
   3   1  -3  157.25    5.44
  -3   1   3  151.90    5.39
   2  -1  -3   90.67    3.36
  -2  -1   3   91.71    4.21
  -2  -1   3   92.75    3.31
   2   1  -3   91.65    3.31
  -2   1   3   97.06    4.28
   2   1  -3   91.62    3.68
  -1  -1   3   87.52    4.37
   1  -1  -3  100.03    3.44
  -1  -1   3   95.40    3.38
   1  -1  -3   93.79    3.73
  -1   1   3   99.11    3.34
   1   1  -3   97.91    3.78
  -1   1   3   80.52    4.43
   1   1  -3  100.87    3.40
   0  -1   3  183.35    6.18
   0  -1  -3  170.78    6.26
   0  -1  -3  163.06    7.00
   0  -1   3  191.13    8.12
   0   1   3  169.87    6.12
   0   1   3  185.76    8.18
   0   1  -3  171.96    7.05
   0   1  -3  182.62    6.26
   1  -1   3   54.36    2.62
  -1  -1  -3   55.17    2.03
  -1  -1  -3   45.27    2.23
   1  -1   3   56.07    1.98
   1   1   3   56.66    1.95
   1   1   3   48.24    2.68
  -1   1  -3   56.22    2.30
  -1   1  -3   54.92    2.03
   2  -1   3    6.93    0.59
  -2  -1  -3    7.41    0.45
  -2  -1  -3    5.71    0.49
   2  -1   3    8.08    0.43
  -2   1  -3    6.68    0.46
  -2   1  -3    8.49    0.57
   2   1   3    7.07    0.67
   2   1   3    8.06    0.42
   3  -1   3   46.44    1.67
  -3  -1  -3   44.81    1.70
   3  -1   3   43.84    2.24
  -3  -1  -3   39.41    1.99
   3   1   3   44.66    2.30
  -3   1  -3   45.43    2.06
  -4  -1  -3   46.44    2.27
   4  -1   3   50.72    2.52
  -4   1  -3   50.95    2.32
   4   1   3   48.46    2.56
  -5  -1  -3    5.12    0.63
   5  -1   3    6.13    0.65
  -5   1  -3    6.19    0.61
   5   1   3    6.83    0.72
   6  -1   3    1.23    0.46
  -6  -1  -3    1.43    0.41
   6   1   3    0.71    0.45
  -6   1  -3    0.55    0.32
   8   2  -3   23.29    1.42
  -7  -2   3   40.25    2.12
   7  -2  -3   42.13    1.64
  -7   2   3   40.00    2.14
  -6  -2   3   72.15    2.65
   6  -2  -3   71.94    2.67
  -6  -2   3   76.10    3.48
  -6   2   3   70.02    3.48
  -5  -2   3  122.75    4.81
  -5  -2   3  119.28    5.44
  -5  -2   3  117.83    4.20
   5  -2  -3  116.58    4.21
  -5  -2   3  120.48    4.23
  -5   2   3  115.04    5.47
   4  -2  -3  140.07    5.10
  -4  -2   3  143.27    5.03
  -4  -2   3  144.42    5.02
  -4  -2   3  142.04    6.45
  -4   2   3  138.86    4.99
  -4   2   3  143.24    6.50
   4   2  -3  146.29    5.70
  -3  -2   3  201.42    6.75
   3  -2  -3  187.84    6.83
  -3  -2   3  195.42    6.76
  -3  -2   3  192.35    8.66
  -3   2   3  192.87    6.69
   3   2  -3  194.16    6.76
   3   2  -3  192.48    7.64
  -3   2   3  191.44    8.73
  -2  -2   3  338.91   15.25
  -2  -2   3  310.06   11.78
   2  -2  -3  349.23   11.95
  -2   2   3  350.73   11.73
  -2   2   3  356.54   15.38
   2   2  -3  342.12   13.45
   2   2  -3  352.58   11.87
   1  -2  -3  369.95   12.79
  -1  -2   3  381.57   12.63
  -1  -2   3  363.40   16.41
   1  -2  -3  366.11   14.33
   1   2  -3  380.48   12.72
   1   2  -3  369.40   14.43
  -1   2   3  332.74   16.55
  -1   2   3  376.03   12.56
   0  -2   3  287.19    9.60
   0  -2  -3  272.77   10.91
   0  -2   3  286.11   12.52
   0   2   3  281.84   12.64
   0   2  -3  265.42   10.98
   0   2  -3  282.54    9.68
   0   2   3  268.70    9.51
  -1  -2  -3  257.38   10.91
   1  -2   3  282.18    9.52
   1  -2   3  278.52   12.43
  -1  -2  -3  288.51    9.67
   1   2   3  275.15    9.46
  -1   2  -3  280.41   10.99
   1   2   3  265.27   12.58
  -1   2  -3  283.17    9.65
   2  -2   3  235.82    7.71
   2  -2   3  228.17   10.09
  -2  -2  -3  225.96    7.83
  -2  -2  -3  211.01    8.89
   2   2   3  217.84   10.22
  -2   2  -3  201.55    7.80
  -2   2  -3  229.37    8.97
   2   2   3  232.17    7.65
  -3  -2  -3  138.98    4.92
   3  -2   3  143.86    4.86
  -3  -2  -3  129.80    5.66
   3  -2   3  137.53    6.37
   3   2   3  138.28    6.50
  -3   2  -3  139.73    5.72
  -4  -2  -3   88.25    4.07
   4  -2   3   98.32    4.56
  -4   2  -3   95.40    4.14
   4   2   3  100.87    4.69
  -5  -2  -3   68.26    3.17
   5  -2   3   69.65    3.49
  -5   2  -3   73.06    3.23
   5   2   3   69.20    3.59
   6  -2   3   47.55    2.48
  -6  -2  -3   41.59    2.24
  -6   2  -3   47.16    2.34
   6   2   3   43.30    2.55
   8  -3  -3    9.42    0.59
   7  -3  -3    8.22    0.52
  -7   3   3    8.49    0.70
  -6  -3   3   36.61    1.44
  -6  -3   3   37.24    1.66
   6  -3  -3   35.83    1.45
  -6   3   3   35.20    1.89
  -5  -3   3   81.19    3.63
  -5  -3   3   77.26    2.81
   5  -3  -3   73.68    2.81
  -5  -3   3   77.57    2.82
  -5   3   3   75.87    3.66
   5   3  -3   78.22    3.21
   4  -3  -3   31.88    1.26
  -4  -3   3   34.23    1.30
  -4  -3   3   30.68    1.24
  -4  -3   3   32.37    1.56
   4  -3  -3   30.55    1.31
  -4   3   3   32.82    1.64
   4   3  -3   32.11    1.41
  -3  -3   3   13.51    0.62
  -3  -3   3   14.27    0.74
  -3  -3   3   15.01    0.71
   3  -3  -3   13.92    0.69
  -3   3   3   14.22    0.63
   3   3  -3   14.67    0.70
  -3   3   3   14.85    0.84
  -2  -3   3  130.41    4.34
  -2  -3   3  112.00    4.36
   2  -3  -3  118.00    4.41
  -2  -3   3  124.19    5.50
   2   3  -3  123.73    4.92
  -2   3   3  126.33    4.29
  -2   3   3  124.66    5.68
  -1  -3   3  182.54    6.16
   1  -3  -3  172.55    6.20
  -1  -3   3  180.28    7.85
   1   3  -3  175.95    6.97
  -1   3   3  179.18    6.05
   1   3  -3  174.15    6.12
  -1   3   3  162.00    8.08
  -1   3   3  174.96    6.86
   0  -3   3   13.08    0.63
   0  -3  -3   12.67    0.63
   0  -3   3   11.34    0.78
   0  -3  -3   12.95    0.60
   0   3   3   12.03    0.94
   0   3  -3   12.65    0.57
   0   3   3   13.35    0.54
   0   3  -3   12.60    0.69
   1  -3   3   16.55    0.94
   1  -3   3   17.27    0.76
  -1  -3  -3   15.83    0.81
  -1  -3  -3   16.93    0.77
   1   3   3   16.78    0.67
   1   3   3   17.17    1.17
  -1   3  -3   17.15    0.92
  -1   3  -3   16.61    0.76
   2  -3   3   82.06    3.86
   2  -3   3   86.25    2.99
  -2  -3  -3   81.24    3.44
  -2  -3  -3   83.45    3.03
  -2   3  -3   84.38    3.02
  -2   3  -3   83.53    3.53
   2   3   3   76.93    4.06
  -3  -3  -3   20.32    1.11
   3  -3   3   23.18    0.94
  -3  -3  -3   21.52    0.94
   3  -3   3   22.16    1.22
   3   3   3   20.12    1.36
  -3   3  -3   22.01    1.19
   4  -3   3    4.65    0.50
  -4  -3  -3    3.97    0.49
   4  -3   3    5.01    0.37
  -4   3  -3    4.55    0.52
   4   3   3    3.98    0.64
   5  -3   3   16.78    1.11
  -5  -3  -3   17.26    1.07
  -5   3  -3   16.12    1.09
   5   3   3   17.24    1.26
  -6  -3  -3    8.65    0.77
   6  -3   3    8.98    0.83
   7  -4  -3   30.54    1.29
  -7   4   3   29.66    1.69
  -6  -4   3   34.64    1.39
   6  -4  -3   35.08    1.42
  -6   4   3   33.95    1.84
   6   4  -3   35.27    1.61
  -5  -4   3  126.66    4.58
   5  -4  -3  126.63    4.56
  -5  -4   3  133.27    4.56
   5   4  -3  131.30    5.23
  -5   4   3  125.12    5.95
  -4  -4   3  144.51    5.05
  -4  -4   3  150.35    5.07
   4  -4  -3  142.29    5.01
   4  -4  -3  131.62    5.09
  -4   4   3  144.56    6.56
   4   4  -3  144.23    5.74
   3  -4  -3   69.12    2.25
  -3  -4   3   66.43    2.25
  -3  -4   3   56.88    2.31
   3  -4  -3   56.36    2.28
  -3   4   3   58.69    2.93
   3   4  -3   60.16    2.55
   2  -4  -3  196.35    6.94
  -2  -4   3  191.73    6.90
  -2  -4   3  205.12    6.88
  -2   4   3  193.10    8.98
  -2   4   3  197.62    6.79
   2   4  -3  197.55    7.83
   1  -4  -3  487.50   16.12
  -1  -4   3  452.14   15.95
  -1  -4   3  479.01   16.04
   1   4  -3  460.76   18.25
   1   4  -3  469.46   16.03
  -1   4   3  467.77   15.82
  -1   4   3  434.29   20.89
   0  -4  -3  247.88    9.46
   0  -4   3  216.44   10.78
   0  -4   3  249.31    8.34
   0  -4  -3  255.72    8.44
   0   4  -3  243.25    9.57
   0   4  -3  246.23    8.36
   0   4   3  216.39   11.01
   0   4   3  247.27    8.22
  -1  -4  -3  118.68    4.86
   1  -4   3  123.83    4.29
  -1  -4  -3  121.29    4.34
   1  -4   3  121.45    5.51
  -1   4  -3  118.72    4.29
  -1   4  -3  118.31    4.99
   1   4   3  117.49    4.16
   1   4   3  127.50    5.80
   2  -4   3  192.47    6.70
  -2  -4  -3  191.43    7.71
  -2  -4  -3  190.33    6.79
   2  -4   3  191.81    8.69
  -2   4  -3  194.75    7.82
  -3  -4  -3  207.64    7.36
   3  -4   3  217.76    9.47
   3  -4   3  212.11    7.27
  -3  -4  -3  205.90    8.41
  -3   4  -3  212.94    8.51
   3   4   3  193.01    9.69
   4  -4   3  105.18    4.89
   4  -4   3  103.93    3.74
  -4  -4  -3  103.11    4.42
  -4  -4  -3  105.74    3.79
  -4   4  -3  102.87    4.49
   4   4   3  101.23    5.11
   5  -4   3   50.73    2.60
  -5  -4  -3   50.33    2.41
   5   4   3   48.38    2.79
  -5   4  -3   51.93    2.50
   6  -4   3   41.48    2.28
   7  -5  -3    7.31    0.49
  -7   5   3    7.19    0.66
   7   5  -3    6.38    0.56
   6  -5  -3   34.51    1.47
  -6  -5   3   37.98    1.47
   6   5  -3   37.58    1.71
  -6   5   3   35.37    1.93
   5  -5  -3   65.55    2.54
  -5  -5   3   71.02    2.55
  -5  -5   3   68.51    2.54
  -5   5   3   68.52    3.32
   5   5  -3   70.17    2.91
   4  -5  -3   26.90    1.11
  -4  -5   3   28.66    1.17
   4  -5  -3   26.21    1.09
  -4  -5   3   26.70    1.08
   4   5  -3   26.70    1.25
  -4   5   3   26.48    1.44
  -3  -5   3   14.89    0.81
  -3  -5   3   16.60    0.70
   3  -5  -3   17.16    0.75
   3  -5  -3   16.65    0.71
   3   5  -3   15.27    0.81
  -3   5   3   16.86    0.97
   2  -5  -3   58.69    2.12
   2  -5  -3   60.97    2.20
  -2  -5   3   59.18    2.14
  -2  -5   3   58.86    2.25
  -2   5   3   56.21    2.87
   2   5  -3   57.18    2.46
   1  -5  -3   55.77    1.99
  -1  -5   3   54.32    2.13
  -1  -5   3   57.96    2.03
   1  -5  -3   56.47    2.09
  -1   5   3   53.15    2.83
   1   5  -3   54.80    2.36
   0  -5  -3   24.13    1.00
   0  -5   3   25.24    1.03
   0   5   3   24.71    1.06
   0   5  -3   23.59    0.93
   0   5  -3   24.23    1.16
   0   5   3   23.27    0.89
   0   5   3   19.20    1.41
   1  -5   3   40.79    1.94
  -1  -5  -3   41.21    1.75
   1  -5   3   40.13    1.58
  -1  -5  -3   40.81    1.58
  -1   5  -3   39.85    1.87
  -1   5  -3   38.72    1.52
   1   5   3   41.06    2.24
  -2  -5  -3   36.34    1.48
   2  -5   3   37.57    1.84
   2  -5   3   37.48    1.47
  -2  -5  -3   37.11    1.68
  -2   5  -3   38.87    1.81
   2   5   3   34.69    2.12
   3  -5   3    9.87    0.67
   3  -5   3   10.72    0.57
  -3  -5  -3    9.23    0.54
  -3  -5  -3    9.58    0.65
   3   5   3    8.58    0.90
  -3   5  -3    9.42    0.74
   4  -5   3    6.96    0.48
  -4  -5  -3    6.11    0.56
   4  -5   3    7.24    0.61
  -4  -5  -3    7.56    0.49
   4   5   3    5.92    0.76
  -4   5  -3    7.48    0.66
   5  -5   3   11.99    0.89
  -5  -5  -3   12.13    0.88
   5   5   3   12.03    1.11
  -5   5  -3   13.73    0.99
   7  -6  -3   33.24    1.45
  -7   6   3   33.82    1.90
   7   6  -3   35.32    1.69
   6  -6  -3   46.88    1.93
  -6  -6   3   50.03    1.92
  -6   6   3   49.10    2.53
   6   6  -3   52.20    2.24
   5  -6  -3   43.38    1.72
  -5  -6   3   43.81    1.71
   5   6  -3   45.43    1.98
  -5   6   3   43.78    2.25
   4  -6  -3   82.42    3.01
  -4  -6   3   81.63    3.02
  -4  -6   3   87.56    3.10
   4   6  -3   83.39    3.47
  -4   6   3   81.00    3.95
   3  -6  -3  144.08    4.94
   3  -6  -3  147.12    4.89
  -3  -6   3  143.85    4.92
  -3  -6   3  122.18    4.97
   3   6  -3  138.37    5.63
  -3   6   3  138.14    6.43
  -2  -6   3  141.12    4.95
   2  -6  -3  142.78    4.99
   2  -6  -3  139.60    4.90
  -2  -6   3  142.54    5.06
  -2   6   3  139.95    6.53
   2   6  -3  136.98    5.68
  -1  -6   3  169.81    5.95
  -1  -6   3  174.84    5.88
   1  -6  -3  163.43    5.79
   1  -6  -3  166.77    5.93
   1   6  -3  159.33    6.75
  -1   6   3  172.01    7.83
   0  -6   3  196.66    6.97
   0  -6  -3  203.24    7.03
   0  -6   3  210.77    6.96
   0  -6  -3  202.76    6.83
   0   6   3  209.49    7.92
   0   6   3  179.18    9.24
   0   6  -3  191.29    8.01
  -1  -6  -3  142.80    5.13
  -1  -6  -3  141.57    5.79
   1  -6   3  140.30    5.09
   1   6   3  149.59    6.87
  -1   6  -3  143.26    5.06
  -1   6  -3  145.76    5.94
   2  -6   3  122.44    4.47
  -2  -6  -3  126.00    4.51
  -2  -6  -3  124.30    5.11
  -2   6  -3  122.56    5.27
   2   6   3  129.82    6.08
   3  -6   3  135.19    4.91
  -3  -6  -3  140.38    4.97
  -3  -6  -3  133.97    5.66
  -3   6  -3  140.52    5.81
   4  -6   3   95.05    4.33
  -4  -6  -3   91.29    3.93
  -4  -6  -3   92.21    3.40
   4  -6   3   92.86    3.36
   4   6   3   76.83    4.58
  -4   6  -3   97.23    4.09
   5  -6   3   48.66    1.94
  -5  -6  -3   50.10    2.35
   5  -6   3   48.84    2.50
   5   6   3   43.42    2.78
  -5   6  -3   50.54    2.48
  -7  -7   3   18.11    0.89
   7  -7  -3   17.56    0.90
   7   7  -3   18.51    1.06
  -6  -7   3   13.91    0.72
   6  -7  -3   14.04    0.74
  -6   7   3   15.37    0.99
   6   7  -3   14.49    0.87
  -5  -7   3   14.98    0.71
   5  -7  -3   14.35    0.73
  -5   7   3   14.10    0.94
   5   7  -3   16.00    0.86
  -4  -7   3   50.63    1.90
   4  -7  -3   49.73    1.90
  -4  -7   3   53.42    2.01
   4   7  -3   49.36    2.20
  -4   7   3   47.15    2.49
   3  -7  -3   52.62    1.88
  -3  -7   3   50.28    1.87
   3  -7  -3   50.33    1.86
  -3  -7   3   45.56    1.98
  -3   7   3   49.18    2.49
   3   7  -3   48.86    2.17
   2  -7  -3    6.25    0.38
  -2  -7   3    5.31    0.33
   2  -7  -3    6.15    0.35
  -2  -7   3    5.95    0.47
  -2   7   3    6.24    0.56
   2   7  -3    5.72    0.46
  -1  -7   3   15.64    0.80
  -1  -7   3   16.30    0.68
   1  -7  -3   15.73    0.67
   1  -7  -3   14.91    0.71
   1   7  -3   15.33    0.86
  -1   7   3   16.74    1.10
   0  -7  -3   91.33    3.30
   0  -7   3   90.99    3.31
   0  -7   3   93.74    3.23
   0   7   3   85.88    4.46
   0   7  -3   88.48    3.80
  -1  -7  -3   37.08    1.52
   1  -7   3   36.60    1.54
  -1   7  -3   38.28    1.83
   1   7   3   39.61    2.21
   1   7   3   39.98    1.72
  -2  -7  -3    2.78    0.35
   2  -7   3    3.24    0.36
  -2  -7  -3    3.00    0.33
   2   7   3    4.59    0.71
  -2   7  -3    2.35    0.43
  -3  -7  -3   16.92    0.83
  -3  -7  -3   16.65    0.95
   3  -7   3   16.98    0.84
   3   7   3   15.92    1.29
  -3   7  -3   16.45    1.07
  -4  -7  -3   20.93    1.01
  -4  -7  -3   21.14    1.21
   4  -7   3   23.24    1.03
   4   7   3   18.84    1.52
  -4   7  -3   22.21    1.34
  -5  -7  -3    3.21    0.50
   5  -7   3    3.19    0.39
  -5   7  -3    3.06    0.59
   5   7   3    1.94    0.65
  -7  -8   3   22.25    1.05
   7   8  -3   22.32    1.26
  -6  -8   3   48.38    1.93
   6  -8  -3   48.35    1.94
  -6   8   3   47.28    2.53
   6   8  -3   51.29    2.27
   5  -8  -3   30.05    1.29
  -5  -8   3   30.80    1.28
   5   8  -3   31.66    1.51
  -5   8   3   30.64    1.69
  -4  -8   3   42.58    1.65
   4  -8  -3   42.54    1.65
   4   8  -3   42.12    1.92
  -4   8   3   41.34    2.17
   3  -8  -3  150.80    5.17
  -3  -8   3  140.52    5.29
  -3  -8   3  148.39    5.18
   3  -8  -3  145.09    5.13
  -3   8   3  147.35    6.78
   3   8  -3  142.73    5.95
   2  -8  -3  157.30    5.52
  -2  -8   3  153.36    5.50
  -2  -8   3  153.37    5.63
   2  -8  -3  156.96    5.44
   2   8  -3  153.78    6.34
  -2   8   3  160.17    7.27
   1  -8  -3   56.16    2.11
   1  -8  -3   55.58    2.04
  -1  -8   3   54.67    2.19
  -1  -8   3   56.55    2.07
   1   8  -3   54.23    2.46
  -1   8   3   58.56    2.92
   0  -8   3   79.42    2.99
   0  -8  -3   78.60    2.95
   0  -8   3   85.26    2.90
   0   8  -3   78.27    3.45
   0   8   3   78.59    4.05
   1  -8   3  163.27    5.93
  -1  -8  -3  164.49    5.95
  -1   8  -3  161.87    6.88
   1   8   3  182.08    6.78
   1   8   3  163.09    7.92
   2  -8   3  109.94    4.17
  -2  -8  -3  113.53    4.20
  -2  -8  -3  113.76    4.77
   2   8   3  119.35    5.68
   2   8   3  119.41    4.78
  -2   8  -3  115.10    4.97
  -3  -8  -3   53.21    2.45
   3  -8   3   53.90    2.14
  -3  -8  -3   54.15    2.14
  -3   8  -3   56.00    2.64
   3   8   3   53.99    3.02
  -4  -8  -3   58.13    2.28
  -4  -8  -3   56.36    2.62
   4  -8   3   56.74    2.25
   4   8   3   54.12    3.19
  -4   8  -3   59.32    2.82
  -5  -8  -3   40.84    2.10
   5  -8   3   42.59    1.77
   5   8   3   42.04    2.62
  -6  -9   3    8.99    0.56
   6  -9  -3    8.60    0.59
  -6   9   3    9.07    0.76
   6   9  -3    9.01    0.70
  -5  -9   3    9.47    0.55
   5  -9  -3    8.74    0.55
   5   9  -3    9.10    0.67
  -5   9   3    8.94    0.72
  -4  -9   3   26.80    1.14
   4  -9  -3   27.69    1.16
  -4   9   3   26.55    1.52
   4   9  -3   27.58    1.37
   3  -9  -3   28.82    1.17
  -3  -9   3   26.94    1.15
  -3  -9   3   28.82    1.33
   3   9  -3   28.52    1.40
  -3   9   3   28.04    1.58
  -2  -9   3   13.78    0.83
   2  -9  -3   15.63    0.69
  -2  -9   3   13.44    0.66
   2  -9  -3   14.63    0.68
  -2   9   3   15.32    1.01
   2   9  -3   14.67    0.87
  -1  -9   3   26.84    1.06
   1  -9  -3   25.07    1.09
  -1  -9   3   25.58    1.19
  -1   9   3   27.27    1.60
   1   9  -3   25.93    1.33
   0  -9   3   38.82    1.43
   0  -9   3   34.98    1.54
   0  -9  -3   35.93    1.48
   0   9   3   38.61    2.16
   0   9  -3   36.01    1.79
  -1  -9  -3   18.10    0.86
   1  -9   3   18.28    0.91
  -1   9  -3   19.25    1.11
   1   9   3   17.86    1.30
   2  -9   3   13.52    0.76
  -2  -9  -3   13.03    0.72
   2   9   3   15.94    1.19
  -2   9  -3   13.37    0.98
   2   9   3   14.38    0.86
   3  -9   3   14.81    0.82
  -3  -9  -3   15.27    0.94
  -3  -9  -3   14.45    0.80
   3   9   3   16.12    0.96
  -3   9  -3   15.14    1.10
   3   9   3   17.22    1.31
  -4  -9  -3    7.39    0.66
   4  -9   3    7.96    0.59
  -4  -9  -3    9.11    0.60
  -4   9  -3    8.35    0.86
   4   9   3   10.01    1.04
   6  10  -3   16.88    1.05
   5 -10  -3   40.80    1.67
  -5 -10   3   40.35    1.66
  -5  10   3   39.79    2.17
   5  10  -3   42.00    1.97
   4 -10  -3   53.53    2.06
  -4 -10   3   53.10    2.06
  -4  10   3   54.48    2.72
   4  10  -3   51.91    2.42
  -3 -10   3   55.43    2.16
   3 -10  -3   58.10    2.17
   3  10  -3   55.76    2.56
  -3  10   3   59.87    2.91
  -2 -10   3   78.25    2.99
   2 -10  -3   82.37    3.00
  -2 -10   3   81.95    3.20
   2 -10  -3   83.40    2.98
  -2  10   3   87.90    4.05
   2  10  -3   78.02    3.52
  -1 -10   3   74.50    2.79
   1 -10  -3   76.24    2.83
  -1 -10   3   75.88    2.94
   1  10  -3   71.36    3.32
  -1  10   3   85.56    3.89
   0 -10   3   55.75    2.26
   0 -10   3   59.65    2.13
   0 -10  -3   55.78    2.19
   0  10   3   59.99    3.07
   0  10  -3   54.80    2.62
  -1 -10  -3   62.05    2.39
   1 -10   3   62.62    2.44
  -1  10  -3   61.74    2.87
   1  10   3   62.88    3.33
  -2 -10  -3   69.45    2.71
   2 -10   3   66.91    2.72
  -2  10  -3   72.01    3.31
   2  10   3   74.68    3.76
  -3 -10  -3   48.32    2.03
   3 -10   3   44.92    2.02
   3  10   3   55.65    2.92
   3  10   3   48.81    2.34
  -3  10  -3   53.85    2.61
  -4 -10  -3   28.98    1.34
   4 -10   3   27.24    1.34
   4  10   3   29.45    1.58
  -4  10  -3   29.89    1.78
   4  10   3   30.84    2.01
  -5 -11   3   14.70    0.77
   5 -11  -3   13.99    0.78
   5  11  -3   13.35    0.92
  -5  11   3   15.19    1.03
   4 -11  -3    3.92    0.39
  -4 -11   3    4.17    0.36
  -4  11   3    5.18    0.54
   4  11  -3    5.01    0.50
   3 -11  -3    7.30    0.49
  -3 -11   3    7.33    0.46
  -3  11   3    7.67    0.67
   3  11  -3    8.72    0.65
  -2 -11   3   34.27    1.43
   2 -11  -3   36.87    1.45
   2 -11  -3   35.47    1.44
  -2 -11   3   36.51    1.68
  -2  11   3   37.77    2.01
   2  11  -3   36.56    1.78
  -1 -11   3   24.46    1.17
   1 -11  -3   22.98    1.02
  -1 -11   3   21.91    0.98
   1  11  -3   22.89    1.29
  -1  11   3   26.06    1.51
   0 -11   3    5.28    0.48
   0 -11  -3    4.78    0.38
   0  11   3    4.70    0.68
   0  11  -3    4.62    0.52
   1 -11   3   14.90    0.84
  -1 -11  -3   13.29    0.74
   1  11   3   15.25    1.18
  -1  11  -3   15.43    1.03
   2 -11   3   23.52    1.15
  -2 -11  -3   22.52    1.09
  -2  11  -3   23.18    1.45
   2  11   3   24.35    1.63
   3 -11   3    5.68    0.51
  -3 -11  -3    5.95    0.51
   3  11   3    7.39    0.86
  -3  11  -3    5.58    0.81
   4  11   3    1.08    0.40
   4  11   3    2.12    0.65
  -4 -12   3   37.92    1.61
   4 -12  -3   40.27    1.65
  -4  12   3   41.77    2.16
   4  12  -3   37.88    1.93
   3 -12  -3   24.66    1.10
  -3 -12   3   23.06    1.07
   3  12  -3   22.84    1.33
  -3  12   3   28.00    1.52
  -2 -12   3   28.47    1.19
  -2 -12   3   27.79    1.43
   2  12  -3   26.71    1.48
  -2  12   3   30.35    1.69
  -1 -12   3   67.91    2.71
  -1 -12   3   63.42    2.50
   1 -12  -3   67.35    2.55
   1  12  -3   67.29    3.06
  -1  12   3   70.88    3.47
   0 -12   3   52.12    2.18
   0 -12  -3   52.70    2.08
   0  12   3   58.30    2.91
   0  12  -3   49.04    2.51
   1 -12   3   21.32    1.11
  -1 -12  -3   20.97    1.01
  -1  12  -3   21.40    1.35
   1  12   3   23.49    1.55
   2 -12   3   32.90    1.53
   2  12   3   32.13    2.08
  -2  12  -3   36.39    1.95
   3  12   3   44.36    2.64
   4 -13  -3    5.06    0.48
  -4  13   3    5.50    0.59
   3 -13  -3    4.12    0.44
  -3 -13   3    4.36    0.37
  -3  13   3    5.20    0.58
   3  13  -3    4.77    0.54
  -2 -13   3   10.17    0.57
   2  13  -3    9.34    0.79
  -2  13   3   11.45    0.86
  -1 -13   3    9.98    0.56
  -1 -13   3   10.41    0.77
   1 -13  -3   10.75    0.60
   1  13  -3   10.92    0.83
  -1  13   3   11.11    0.90
   0 -13  -3    7.41    0.51
   0 -13   3    7.51    0.63
   0  13   3    7.62    0.77
   0  13  -3    6.64    0.72
  -1 -13  -3    6.71    0.50
   1 -13   3    7.10    0.61
  -1  13  -3    7.33    0.76
   1  13   3    7.82    0.80
   2 -13   3    4.81    0.58
   2  13   3    6.83    0.81
  -3  14   3   18.87    1.26
  -2 -14   3   21.24    1.01
  -2  14   3   23.91    1.44
   2  14  -3   22.32    1.35
  -1 -14   3   23.63    1.24
   1 -14  -3   20.63    1.00
   1  14  -3   20.33    1.30
  -1  14   3   22.60    1.43
   0 -14  -3   24.84    1.17
   0 -14   3   26.35    1.34
   0  14   3   26.07    1.64
   0  14  -3   25.23    1.53
   1 -14   3   25.44    1.31
  -8   0   4    5.68    0.63
  -7   0   4   17.47    1.11
   7   0  -4   17.25    0.84
  -6   0   4   74.52    3.57
  -6   0   4   74.30    2.77
  -5   0   4   85.34    3.98
   5   0  -4   87.82    3.14
  -5   0   4   81.18    3.10
  -4   0   4   52.89    1.98
   4   0  -4   50.12    1.98
  -4   0   4   51.67    2.48
   3   0  -4  137.98    4.92
  -3   0   4  136.07    6.25
  -3   0   4  137.20    4.86
   2   0  -4  342.00   11.86
  -2   0   4  330.15   11.69
  -2   0   4  345.86   15.26
   1   0  -4  222.93    7.78
   1   0  -4  217.98    8.68
  -1   0   4  219.52    7.65
   0   0   4  122.09    4.34
   0   0  -4  122.67    4.44
   0   0   4  126.97    5.79
   0   0  -4  118.61    4.92
   1   0   4  258.47    8.45
   1   0   4  230.48   11.15
  -1   0  -4  245.53    9.70
  -1   0  -4  239.67    8.60
   2   0   4  182.76    9.02
  -2   0  -4  187.11    6.93
  -2   0  -4  207.06    7.88
   2   0   4  202.46    6.81
  -3   0  -4   57.02    2.59
   3   0   4   59.19    3.02
   4   0   4   63.39    3.35
  -4   0  -4   66.07    2.95
   5   0   4   70.27    3.77
  -5   0  -4   75.53    3.35
   8  -1  -4   11.94    0.68
   7  -1  -4   30.00    1.27
   7   1  -4   28.67    1.25
  -7   1   4   29.90    1.65
  -6  -1   4   29.09    1.23
  -6  -1   4   29.44    1.55
   6  -1  -4   26.60    1.21
   6   1  -4   29.39    1.22
  -6   1   4   29.36    1.57
   5  -1  -4   24.78    1.13
  -5  -1   4   27.86    1.13
  -5  -1   4   25.49    1.36
   5   1  -4   25.84    1.10
  -5   1   4   25.27    1.10
  -5   1   4   26.09    1.39
  -4  -1   4  108.78    3.82
  -4  -1   4  104.65    4.84
   4  -1  -4  103.43    3.86
  -4   1   4  107.70    3.79
   4   1  -4  103.44    3.81
  -4   1   4  104.70    4.88
  -3  -1   4  137.62    4.93
  -3  -1   4  138.09    6.29
   3  -1  -4  136.99    5.00
  -3   1   4  142.24    4.91
  -3   1   4  137.03    6.36
   3   1  -4  140.01    4.95
  -2  -1   4   21.76    1.01
  -2  -1   4   23.84    1.25
   2  -1  -4   25.06    1.07
  -2   1   4   23.68    1.00
   2   1  -4   23.27    1.02
   2   1  -4   24.23    1.02
  -2   1   4   22.87    1.33
  -1  -1   4   16.54    1.21
  -1  -1   4   23.39    0.94
   1  -1  -4   21.47    0.96
   1  -1  -4   20.80    0.89
  -1   1   4   19.68    0.88
   1   1  -4   20.55    0.94
   1   1  -4   21.00    0.96
   0  -1  -4  114.44    4.76
   0  -1   4  127.32    5.61
   0  -1  -4  118.69    4.32
   0  -1   4  119.21    4.23
   0   1  -4  113.97    4.80
   0   1   4  121.92    5.65
   0   1   4  116.88    4.19
   0   1  -4  118.26    4.30
   1  -1   4  115.29    4.00
   1  -1   4   98.02    5.26
  -1  -1  -4  108.91    4.07
  -1  -1  -4  111.34    4.54
  -1   1  -4  111.46    4.57
  -1   1  -4  115.28    4.07
   1   1   4  119.09    3.95
   1   1   4  110.83    5.34
  -2  -1  -4   55.55    2.12
  -2  -1  -4   52.87    2.36
   2  -1   4   54.04    2.76
   2  -1   4   57.07    2.06
  -2   1  -4   53.97    2.12
  -2   1  -4   55.31    2.39
   2   1   4   47.48    2.78
   3  -1   4   39.70    2.13
  -3  -1  -4   37.36    1.83
   3   1   4   39.23    2.20
  -3   1  -4   38.95    1.85
   4  -1   4   25.50    1.65
  -4  -1  -4   27.92    1.48
   4   1   4   28.28    1.75
  -4   1  -4   29.31    1.50
   5  -1   4   10.80    0.98
  -5  -1  -4   11.72    0.87
  -5   1  -4   10.19    0.85
   5   1   4   10.48    1.02
   8  -2  -4   13.91    0.76
   7  -2  -4   23.53    1.05
  -7   2   4   22.85    1.37
   7   2  -4   22.31    1.02
   6  -2  -4   42.51    1.72
  -6  -2   4   45.12    1.75
   6   2  -4   43.19    1.72
  -6   2   4   43.44    2.24
   5  -2  -4   68.97    2.62
  -5  -2   4   68.08    2.56
  -5   2   4   68.76    3.28
   5   2  -4   66.29    2.54
  -5   2   4   68.49    2.54
  -4  -2   4  100.68    4.56
   4  -2  -4   97.94    3.68
  -4  -2   4  101.46    3.63
  -4   2   4   98.04    4.64
  -4   2   4  101.26    3.59
   4   2  -4   97.62    3.60
  -3  -2   4  138.55    5.08
   3  -2  -4  146.49    5.15
  -3  -2   4  142.18    6.43
  -3   2   4  143.45    5.02
  -3   2   4  141.20    6.56
   3   2  -4  141.16    5.06
   3   2  -4  144.25    5.67
   2  -2  -4  180.16    6.28
  -2  -2   4  179.24    7.92
  -2  -2   4  172.00    6.19
  -2   2   4  179.21    6.14
  -2   2   4  168.16    8.09
   2   2  -4  173.91    6.20
   2   2  -4  176.77    6.97
   1  -2  -4  203.48    7.09
  -1  -2   4  206.12    6.99
  -1   2   4  194.26    6.92
   1   2  -4  196.63    7.92
   1   2  -4  196.80    7.03
   0  -2   4  199.54    6.96
   0  -2  -4  193.87    7.06
   0  -2  -4  182.52    7.85
   0  -2   4  219.13    9.12
   0   2  -4  193.40    7.94
   0   2  -4  196.27    7.03
   0   2   4  187.29    6.87
   0   2   4  218.58    9.24
   1  -2   4  130.19    6.79
  -1  -2  -4  137.73    5.90
  -1  -2  -4  141.01    5.28
   1  -2   4  150.17    5.20
   1   2   4  155.73    6.94
   1   2   4  154.82    5.12
  -1   2  -4  151.29    5.27
  -1   2  -4  151.98    5.97
   2  -2   4  112.48    3.90
   2  -2   4  111.24    5.15
  -2  -2  -4  111.36    4.00
  -2  -2  -4  107.93    4.48
   2   2   4   99.17    5.25
  -2   2  -4  107.58    4.52
   3  -2   4  109.54    3.78
  -3  -2  -4   98.79    4.39
   3  -2   4  109.17    5.03
  -3  -2  -4  108.64    3.87
  -3   2  -4  103.51    4.43
   3   2   4   97.53    5.13
   4  -2   4   77.94    3.90
  -4  -2  -4   78.84    3.46
  -4   2  -4   81.37    3.50
   4   2   4   75.34    4.02
  -5  -2  -4   44.74    2.14
   5  -2   4   39.96    2.34
   5   2   4   40.49    2.47
  -5   2  -4   43.56    2.15
   7  -3  -4    7.80    0.52
  -7   3   4    8.79    0.73
   6  -3  -4   33.48    1.42
  -6  -3   4   35.48    1.45
  -6   3   4   34.68    1.86
   6   3  -4   35.27    1.42
  -5  -3   4  102.08    3.58
   5  -3  -4   99.12    3.61
   5  -3  -4   91.51    3.51
   5   3  -4   97.07    3.53
  -5   3   4   95.73    4.58
   4  -3  -4   50.95    1.94
  -4  -3   4   49.37    1.93
  -4   3   4   47.25    1.85
   4   3  -4   48.26    1.85
   4   3  -4   48.55    2.06
  -4   3   4   47.91    2.42
  -3  -3   4   33.15    1.44
   3  -3  -4   33.88    1.44
   3   3  -4   34.62    1.51
  -3   3   4   35.12    1.37
   3   3  -4   36.53    1.37
  -3   3   4   35.08    1.83
  -2  -3   4  128.69    4.54
   2  -3  -4  124.64    4.58
   2   3  -4  129.43    5.07
  -2   3   4  131.80    4.46
  -2   3   4  117.42    5.94
   2   3  -4  125.20    4.50
  -1  -3   4  110.64    3.87
   1  -3  -4  105.69    3.91
   1   3  -4  108.39    4.33
   1   3  -4  111.09    3.85
  -1   3   4   92.11    5.12
  -1   3   4  111.13    3.78
   0  -3   4   39.63    1.60
   0  -3  -4   37.87    1.62
   0  -3   4   44.60    2.09
   0  -3  -4   37.63    1.68
   0   3  -4   38.16    1.58
   0   3   4   43.36    2.23
   0   3   4   38.80    1.50
   0   3  -4   40.62    1.80
   1  -3   4   60.92    2.27
  -1  -3  -4   55.35    2.51
   1  -3   4   57.91    2.96
  -1  -3  -4   61.23    2.32
  -1   3  -4   60.08    2.61
  -1   3  -4   60.63    2.28
   1   3   4   63.72    3.13
   2  -3   4   66.93    2.44
  -2  -3  -4   65.64    2.51
  -2  -3  -4   62.16    2.78
   2  -3   4   68.44    3.21
   2   3   4   61.16    3.37
  -2   3  -4   65.39    2.85
  -3  -3  -4   29.40    1.24
  -3  -3  -4   25.82    1.37
   3  -3   4   27.22    1.57
   3  -3   4   28.81    1.18
   3   3   4   23.37    1.69
  -3   3  -4   29.04    1.46
   4  -3   4   12.66    0.97
  -4  -3  -4   14.12    0.89
  -4   3  -4   14.18    0.95
   4   3   4   11.72    1.13
   5  -3   4   11.91    0.99
  -5  -3  -4   11.78    0.87
   5   3   4   12.66    1.18
  -5   3  -4   12.84    0.93
   7  -4  -4   33.01    1.39
  -7   4   4   31.04    1.80
  -6  -4   4   20.60    0.95
   6  -4  -4   20.82    0.97
  -6  -4   4   23.14    1.01
  -6   4   4   20.49    1.27
   5  -4  -4   53.02    2.06
  -5  -4   4   56.26    2.13
  -5  -4   4   54.14    2.06
  -5   4   4   50.04    2.68
   5   4  -4   56.29    2.32
   4  -4  -4  136.59    4.85
   4  -4  -4  136.42    4.96
  -4  -4   4  139.60    4.89
  -4  -4   4  140.36    4.95
  -4   4   4  131.78    6.35
   4   4  -4  136.80    5.52
  -3  -4   4   92.63    3.72
   3  -4  -4  100.46    3.75
   3   4  -4  105.43    3.67
  -3   4   4  104.14    4.84
   3   4  -4  103.74    4.15
  -3   4   4  104.02    3.64
  -2  -4   4   72.99    2.68
   2  -4  -4   67.62    2.67
  -2   4   4   67.84    3.52
   2   4  -4   72.15    2.95
   2   4  -4   71.17    2.60
  -2   4   4   72.83    2.58
   1  -4  -4  178.99    6.40
  -1  -4   4  187.51    6.36
  -1   4   4  184.04    6.22
   1   4  -4  183.11    7.19
  -1   4   4  156.29    8.35
   1   4  -4  184.51    6.32
   0  -4   4  195.43    7.03
   0  -4  -4  198.56    7.11
   0   4   4  198.21    6.90
   0   4  -4  193.88    7.04
   0   4   4  214.48    9.35
   0   4  -4  199.75    8.04
   1  -4   4   56.14    2.26
  -1  -4  -4   54.82    2.51
  -1  -4  -4   61.83    2.33
  -1   4  -4   62.53    2.29
   1   4   4   65.03    3.16
  -1   4  -4   59.30    2.63
  -2  -4  -4   64.74    2.52
   2  -4   4   70.15    3.21
   2  -4   4   64.67    2.46
  -2  -4  -4   62.65    2.80
  -2   4  -4   65.26    2.89
   2   4   4   63.86    3.41
  -3  -4  -4  140.26    4.91
   3  -4   4  140.23    6.28
  -3  -4  -4  126.18    5.53
   3  -4   4  139.20    4.81
  -3   4  -4  138.91    5.63
   3   4   4  117.60    6.47
   4  -4   4   74.42    3.62
  -4  -4  -4   70.35    3.23
  -4   4  -4   73.53    3.29
  -5  -4  -4   22.18    1.31
   5  -4   4   21.21    1.42
   5   4   4   20.73    1.64
  -5   4  -4   23.06    1.35
   7  -5  -4   11.58    0.67
  -7   5   4   11.37    0.90
   6  -5  -4   26.69    1.16
  -6  -5   4   26.31    1.14
  -6   5   4   25.24    1.50
  -5  -5   4   64.25    2.46
  -5  -5   4   69.38    2.54
   5  -5  -4   60.50    2.45
  -5   5   4   64.95    3.23
   5   5  -4   68.39    2.80
  -4  -5   4   51.52    1.97
  -4  -5   4   49.88    2.07
   4  -5  -4   52.50    1.98
   4  -5  -4   50.15    2.02
   4   5  -4   53.88    2.23
  -4   5   4   51.56    2.61
   3  -5  -4   30.91    1.25
  -3  -5   4   28.51    1.33
  -3  -5   4   30.99    1.24
   3  -5  -4   30.57    1.31
  -3   5   4   31.76    1.73
   3   5  -4   32.64    1.42
   2  -5  -4   78.34    3.03
  -2  -5   4   84.01    3.05
  -2   5   4   82.35    2.92
  -2   5   4   78.78    4.01
   2   5  -4   81.08    3.37
   2   5  -4   81.78    2.95
   1  -5  -4  139.98    5.00
  -1  -5   4  139.14    4.98
  -1   5   4  142.45    4.83
  -1   5   4  128.33    6.58
   1   5  -4  135.05    4.90
   1   5  -4  142.45    5.62
   0  -5  -4   66.59    2.54
   0  -5   4   66.60    2.53
   0   5  -4   63.71    2.45
   0   5   4   67.73    3.44
   0   5  -4   65.10    2.85
   0   5   4   67.83    2.38
  -1  -5  -4   24.53    1.12
   1  -5   4   24.90    1.10
  -1  -5  -4   23.35    1.16
  -1   5  -4   25.74    1.09
   1   5   4   27.31    1.63
  -1   5  -4   24.08    1.29
  -2  -5  -4   30.15    1.47
  -2  -5  -4   30.87    1.35
   2  -5   4   30.57    1.32
  -2   5  -4   32.21    1.58
   2   5   4   32.57    1.94
  -3  -5  -4   22.11    1.25
  -3  -5  -4   26.27    1.16
   3  -5   4   25.61    1.11
  -3   5  -4   25.05    1.35
   3   5   4   22.72    1.66
   4  -5   4   11.34    0.66
  -4  -5  -4   10.34    0.78
   4   5   4    8.84    1.01
  -4   5  -4   13.24    0.90
  -5  -5  -4    9.62    0.79
  -7  -6   4   23.04    1.06
   7  -6  -4   22.09    1.07
  -6  -6   4   35.57    1.48
   6  -6  -4   35.99    1.50
  -6   6   4   35.59    1.96
   5  -6  -4   43.58    1.79
  -5  -6   4   44.30    1.78
  -5  -6   4   48.66    1.89
   5   6  -4   46.54    2.04
  -5   6   4   44.51    2.36
   4  -6  -4   56.51    2.12
   4  -6  -4   56.68    2.15
  -4  -6   4   53.59    2.22
  -4  -6   4   53.79    2.10
  -4   6   4   54.82    2.81
   4   6  -4   58.06    2.42
   3  -6  -4   71.08    2.62
  -3  -6   4   71.09    2.76
  -3  -6   4   69.78    2.63
   3  -6  -4   72.23    2.69
  -3   6   4   71.62    3.54
   3   6  -4   72.23    3.01
   2  -6  -4  110.91    3.95
   2  -6  -4  110.45    4.07
  -2  -6   4  114.02    4.10
  -2  -6   4  110.00    4.00
   2   6  -4  111.89    4.59
  -2   6   4  111.92    5.40
   1  -6  -4  116.79    4.16
   1  -6  -4  116.70    4.00
  -1  -6   4  110.73    4.16
   1   6  -4  115.95    4.69
  -1   6   4  107.75    5.52
   1   6  -4  112.52    4.06
   0  -6   4   75.06    2.87
   0  -6  -4   79.12    2.89
   0   6   4   74.39    3.89
   0   6  -4   75.63    3.26
   0   6  -4   76.59    2.79
  -1  -6  -4   85.93    3.15
   1  -6   4   82.59    3.11
   1   6   4   83.77    4.22
  -1   6  -4   81.43    3.61
  -2  -6  -4   93.96    3.47
  -2  -6  -4   91.21    3.86
   2  -6   4   90.32    3.41
   2   6   4   96.97    4.68
  -2   6  -4   88.84    3.98
   3  -6   4   57.43    2.26
  -3  -6  -4   57.78    2.31
  -3  -6  -4   56.79    2.59
  -3   6  -4   61.06    2.73
   3   6   4   56.73    3.19
   4  -6   4   40.86    1.71
  -4  -6  -4   42.28    1.78
  -4  -6  -4   38.29    1.99
  -4   6  -4   44.41    2.13
  -5  -6  -4   31.88    1.71
  -7  -7   4   21.52    1.03
   6  -7  -4   18.72    0.93
  -6  -7   4   18.36    0.90
   6   7  -4   20.37    1.07
  -6   7   4   18.37    1.23
   5  -7  -4   10.67    0.62
  -5  -7   4   11.81    0.61
   5   7  -4   11.92    0.72
  -5   7   4   10.07    0.83
  -4  -7   4   42.45    1.86
  -4  -7   4   44.84    1.74
   4  -7  -4   45.25    1.75
   4   7  -4   45.56    2.00
  -4   7   4   43.81    2.34
  -3  -7   4   68.26    2.62
   3  -7  -4   72.20    2.62
   3  -7  -4   73.96    2.68
  -3  -7   4   74.69    2.79
   3   7  -4   69.87    3.03
  -3   7   4   67.81    3.54
   2  -7  -4   30.32    1.19
  -2  -7   4   30.07    1.20
  -2  -7   4   30.86    1.36
   2  -7  -4   30.76    1.26
  -2   7   4   27.62    1.74
   2   7  -4   27.93    1.41
   1  -7  -4   43.34    1.69
  -1  -7   4   40.00    1.74
   1  -7  -4   42.50    1.58
  -1   7   4   42.27    2.38
   1   7  -4   40.93    1.91
   1   7  -4   41.51    1.61
   0  -7  -4   84.83    3.08
   0  -7   4   82.10    3.08
   0   7  -4   77.90    3.48
   0   7  -4   83.78    2.98
   0   7   4   78.35    4.14
   1  -7   4   39.94    1.67
  -1  -7  -4   40.25    1.68
   1   7   4   41.97    2.35
  -1   7  -4   40.14    1.96
   2  -7   4   10.45    0.64
  -2  -7  -4   10.58    0.65
   2   7   4    9.84    0.97
  -2   7  -4    9.75    0.79
  -3  -7  -4   12.88    0.75
   3  -7   4   12.16    0.71
  -3  -7  -4   11.57    0.79
  -3   7  -4   13.04    0.90
   3   7   4   11.45    1.07
  -4  -7  -4   15.32    1.02
   4  -7   4   18.80    0.91
  -4  -7  -4   16.13    0.92
   4   7   4   16.61    1.40
  -4   7  -4   16.50    1.12
  -6  -8   4   39.69    1.65
   6  -8  -4   38.01    1.66
   6   8  -4   43.05    1.94
  -6   8   4   39.61    2.21
   5  -8  -4   34.84    1.45
  -5  -8   4   34.52    1.44
   5   8  -4   36.82    1.68
  -5   8   4   32.89    1.92
   4  -8  -4   18.71    0.88
  -4  -8   4   17.36    0.99
  -4  -8   4   18.65    0.85
  -4   8   4   18.64    1.20
   4   8  -4   19.72    1.03
  -3  -8   4   60.88    2.36
   3  -8  -4   58.52    2.18
  -3  -8   4   52.10    2.17
   3  -8  -4   61.37    2.23
   3   8  -4   58.99    2.56
  -3   8   4   55.99    2.98
   2  -8  -4  101.37    3.62
  -2  -8   4   97.56    3.66
   2  -8  -4  100.21    3.72
  -2  -8   4  104.01    3.83
  -2   8   4  109.77    5.02
   2   8  -4   96.47    4.24
  -1  -8   4   53.76    2.23
  -1  -8   4   54.60    2.08
   1  -8  -4   53.62    2.15
   1   8  -4   58.46    2.48
  -1   8   4   55.83    2.99
   0  -8   4   55.75    2.26
   0  -8  -4   57.04    2.24
   0   8  -4   57.15    2.58
   0   8  -4   59.18    2.15
   0   8   4   56.54    3.10
   1  -8   4  106.56    4.12
  -1  -8  -4  115.55    4.17
   1   8   4  117.12    5.58
  -1   8  -4  110.52    4.80
   2  -8   4   67.55    2.69
  -2  -8  -4   70.15    2.72
  -2   8  -4   69.04    3.20
   2   8   4   71.78    3.70
  -3  -8  -4   24.93    1.20
   3  -8   4   24.28    1.17
  -3   8  -4   24.27    1.43
   3   8   4   25.04    1.72
  -4  -8  -4   27.34    1.31
  -4  -8  -4   24.14    1.43
   4  -8   4   27.00    1.26
   4   8   4   27.38    1.90
  -4   8  -4   27.58    1.58
  -6  -9   4   13.89    0.75
   6   9  -4   13.41    0.87
  -5  -9   4    9.71    0.59
   5  -9  -4   10.03    0.62
   5   9  -4   10.95    0.73
  -5   9   4    9.86    0.82
   4  -9  -4   18.56    0.85
  -4  -9   4   16.20    0.81
  -4  -9   4   14.74    0.93
  -4   9   4   17.86    1.17
   4   9  -4   18.60    1.00
   3  -9  -4   38.91    1.52
  -3  -9   4   35.01    1.50
  -3  -9   4   39.78    1.71
   3  -9  -4   39.68    1.54
   3   9  -4   36.98    1.80
  -3   9   4   37.32    2.12
  -2  -9   4   27.80    1.21
   2  -9  -4   28.50    1.20
  -2  -9   4   28.53    1.39
   2  -9  -4   31.36    1.27
  -2   9   4   32.15    1.83
   2   9  -4   30.20    1.49
  -1  -9   4   15.55    0.89
   1  -9  -4   16.17    0.79
  -1  -9   4   16.33    0.73
  -1   9   4   14.78    1.18
   1   9  -4   14.69    0.92
   0  -9  -4   32.39    1.35
   0  -9   4   28.67    1.38
   0   9   4   30.92    1.95
   0   9  -4   32.03    1.59
  -1  -9  -4   39.06    1.68
   1  -9   4   38.70    1.70
   1   9   4   43.29    2.40
  -1   9  -4   39.95    2.01
   2  -9   4   12.98    0.78
  -2  -9  -4   13.49    0.79
  -2   9  -4   14.03    1.01
   2   9   4   15.22    1.21
  -3  -9  -4    7.54    0.60
   3  -9   4    7.55    0.58
  -3   9  -4    8.47    0.78
   3   9   4    8.04    0.93
   6  10  -4   12.59    0.87
   5 -10  -4   24.63    1.15
  -5 -10   4   24.81    1.13
  -5  10   4   24.37    1.54
   5  10  -4   26.18    1.36
   4 -10  -4   32.22    1.38
  -4  10   4   33.07    1.88
   4  10  -4   31.98    1.62
  -3 -10   4   24.06    1.10
   3 -10  -4   25.90    1.13
  -3 -10   4   28.10    1.34
  -3  10   4   28.35    1.64
   3  10  -4   25.83    1.36
  -2 -10   4   29.53    1.29
  -2 -10   4   32.92    1.52
   2 -10  -4   31.60    1.34
  -2  10   4   34.91    1.96
   2  10  -4   32.22    1.60
  -1 -10   4   57.66    2.25
   1 -10  -4   57.87    2.32
  -1 -10   4   58.88    2.44
  -1  10   4   66.16    3.28
   1  10  -4   59.91    2.72
   0 -10  -4   72.74    2.82
   0 -10   4   75.90    2.89
   0  10   4   75.35    3.89
   0  10  -4   70.48    3.28
   1 -10   4   46.12    2.02
  -1 -10  -4   47.33    1.99
   1  10   4   52.38    2.82
  -1  10  -4   50.23    2.41
  -2 -10  -4   32.67    1.47
   2 -10   4   31.36    1.48
  -2  10  -4   34.23    1.83
   2  10   4   32.86    2.07
  -3 -10  -4   29.29    1.41
   3 -10   4   28.00    1.40
   3  10   4   32.86    2.05
  -3  10  -4   31.39    1.76
   5 -11  -4   17.02    0.91
   5  11  -4   18.13    1.07
  -4 -11   4    9.18    0.58
   4 -11  -4   10.72    0.64
   4  11  -4   10.94    0.78
  -4  11   4   11.07    0.89
   3 -11  -4    5.83    0.44
  -3 -11   4    6.59    0.68
  -3 -11   4    5.78    0.41
   3  11  -4    6.06    0.57
  -3  11   4    5.51    0.65
   2 -11  -4   19.73    0.93
  -2 -11   4   18.04    0.88
  -2 -11   4   20.23    1.12
   2  11  -4   18.65    1.12
  -2  11   4   23.54    1.45
   1 -11  -4   24.90    1.14
  -1 -11   4   24.92    1.08
  -1 -11   4   23.84    1.27
   1  11  -4   24.19    1.38
  -1  11   4   29.04    1.74
   0 -11   4   11.24    0.76
   0 -11  -4   12.31    0.69
   0  11   4   11.80    1.05
   0  11  -4   11.16    0.86
  -1 -11  -4   10.80    0.67
   1 -11   4    9.40    0.71
  -1  11  -4   10.72    0.88
   1  11   4   11.67    1.07
   2 -11   4   17.86    1.00
  -2 -11  -4   17.13    0.97
  -2  11  -4   20.12    1.30
   2  11   4   19.00    1.44
   4 -12  -4   26.92    1.26
   4  12  -4   27.59    1.52
  -4  12   4   29.82    1.75
  -3 -12   4   13.87    0.73
  -3  12   4   15.67    1.12
   3  12  -4   13.81    0.94
  -2 -12   4   13.46    0.71
  -2 -12   4   15.07    0.96
   2 -12  -4   14.91    0.76
  -2  12   4   14.57    1.15
   2  12  -4   14.42    0.96
   1 -12  -4   41.84    1.74
  -1 -12   4   43.17    1.92
  -1 -12   4   41.02    1.68
  -1  12   4   46.85    2.51
   1  12  -4   38.94    2.07
   0 -12   4   44.31    1.91
   0 -12  -4   41.09    1.78
   0  12   4   44.99    2.54
   0  12  -4   41.50    2.15
  -1 -12  -4   18.14    0.95
   1 -12   4   18.83    1.05
   1  12   4   19.45    1.45
  -1  12  -4   16.98    1.19
   2  12   4   20.74    1.55
  -3 -13   4    5.02    0.41
  -3  13   4    6.00    0.69
  -2 -13   4    8.89    0.76
  -2 -13   4    7.55    0.50
   2  13  -4    7.87    0.72
  -2  13   4    8.62    0.84
  -1 -13   4   16.96    1.03
   1 -13  -4   14.56    0.80
  -1  13   4   16.51    1.24
   1  13  -4   14.06    1.02
   0 -13   4   10.64    0.79
   0 -13  -4    9.14    0.63
   0  13   4   10.91    1.01
   0  13  -4    9.50    0.83
   1  13   4    5.22    0.81
  -2 -14   4   15.25    0.79
   1 -14  -4   11.63    0.69
   7   0  -5    7.26    0.52
   6   0  -5   55.95    2.24
  -6   0   5   55.54    2.22
  -5   0   5   68.67    3.22
   5   0  -5   65.45    2.58
  -5   0   5   64.94    2.55
   4   0  -5   16.46    0.86
  -4   0   5   16.67    0.85
  -4   0   5   18.27    1.03
   3   0  -5   39.75    1.66
  -3   0   5   42.02    2.07
  -3   0   5   37.76    1.61
   2   0  -5  111.92    4.11
  -2   0   5  112.90    5.31
  -2   0   5  109.30    4.03
   1   0  -5   74.75    2.79
  -1   0   5   72.22    2.71
  -1   0   5   72.24    3.67
   0   0   5   74.68    3.59
   0   0  -5   69.57    2.73
   0   0   5   70.80    2.65
  -1   0  -5  133.27    5.49
   1   0   5  133.34    6.40
   1   0   5  134.06    4.78
  -1   0  -5  138.26    4.93
   2   0   5   84.18    4.54
  -2   0  -5   97.92    3.48
  -2   0  -5   92.25    3.87
  -3   0  -5   42.11    1.89
   3   0   5   34.98    2.25
   4   0   5   33.44    2.18
  -4   0  -5   37.28    1.82
  -7  -1   5   31.63    1.39
   7  -1  -5   29.78    1.35
  -7   1   5   31.39    1.75
  -6  -1   5   53.61    2.13
   6   1  -5   53.66    2.11
  -6   1   5   53.06    2.67
  -6   1   5   50.37    2.09
   5  -1  -5   45.67    1.89
  -5  -1   5   44.32    1.85
   5   1  -5   46.06    1.84
  -5   1   5   48.29    2.33
  -5   1   5   43.16    1.83
   4  -1  -5   55.66    2.29
  -4  -1   5   60.00    2.29
   4   1  -5   58.22    2.26
  -4   1   5   60.18    2.87
  -4   1   5   56.22    2.24
  -3  -1   5   84.68    3.37
   3  -1  -5   92.40    3.44
  -3   1   5   97.10    4.39
   3   1  -5   91.77    3.41
  -3   1   5   91.51    3.37
   2  -1  -5   74.02    2.71
  -2  -1   5   72.17    3.44
  -2  -1   5   70.67    2.65
  -2   1   5   68.26    3.52
   2   1  -5   71.58    2.70
  -2   1   5   65.84    2.62
  -1  -1   5   44.98    1.79
   1  -1  -5   45.52    1.85
  -1  -1   5   46.62    2.44
  -1   1   5   44.74    2.47
   1   1  -5   46.05    1.85
  -1   1   5   46.45    1.78
   0  -1   5   97.94    4.37
   0  -1  -5   86.45    3.34
   0  -1   5   87.55    3.25
   0   1  -5   82.82    3.31
   0   1   5   93.06    4.39
   0   1   5   89.57    3.23
   0   1  -5   87.18    3.68
   1  -1   5  115.94    5.53
  -1  -1  -5  113.58    4.26
   1  -1   5  114.17    4.14
  -1   1  -5  114.83    4.24
  -1   1  -5  114.19    4.75
   1   1   5  117.91    4.11
   1   1   5  116.50    5.57
  -2  -1  -5   39.66    1.67
  -2  -1  -5   38.98    1.80
   2  -1   5   36.20    2.20
  -2   1  -5   41.88    1.85
   2   1   5   36.30    2.22
   3  -1   5   10.65    1.01
  -3  -1  -5   11.48    0.77
  -3   1  -5   12.12    0.79
   3   1   5    9.81    1.01
   4  -1   5   18.00    1.39
  -4  -1  -5   19.75    1.14
  -4   1  -5   19.71    1.15
   4   1   5   16.29    1.42
   7  -2  -5   13.68    0.77
  -7  -2   5   13.35    0.79
  -7   2   5   14.65    1.03
  -6  -2   5   26.52    1.18
   6  -2  -5   21.61    1.09
  -6   2   5   24.85    1.14
  -6   2   5   24.05    1.43
   6   2  -5   24.79    1.12
  -5  -2   5   47.23    1.92
   5  -2  -5   46.27    1.92
  -5   2   5   46.01    2.38
  -5   2   5   46.57    1.87
   5   2  -5   47.14    1.87
   4  -2  -5   67.75    2.54
  -4  -2   5   63.15    2.51
  -4   2   5   64.10    2.46
   4   2  -5   63.58    2.47
  -4   2   5   64.86    3.19
   3  -2  -5   53.23    2.10
  -3  -2   5   48.52    2.06
  -3   2   5   54.56    2.71
   3   2  -5   52.41    2.05
  -3   2   5   53.19    2.03
   2  -2  -5   53.05    2.09
  -2  -2   5   55.71    2.07
  -2   2   5   51.48    2.01
   2   2  -5   54.52    2.07
  -2   2   5   47.46    2.73
  -1  -2   5   95.93    3.41
   1  -2  -5   95.43    3.49
   1   2  -5   92.94    3.46
  -1   2   5   89.78    3.36
  -1   2   5   89.51    4.58
   0  -2  -5  105.61    3.99
   0  -2   5  106.83    3.90
   0   2   5  110.30    3.86
   0   2  -5  101.64    3.95
   0   2  -5  106.97    4.43
   0   2   5  115.18    5.25
  -1  -2  -5   83.39    3.25
   1  -2   5   84.75    4.19
   1  -2   5   87.04    3.17
  -1   2  -5   83.61    3.60
  -1   2  -5   88.32    3.22
   1   2   5   85.65    4.26
   2  -2   5   62.00    3.44
   2  -2   5   71.82    2.59
  -2  -2  -5   64.79    2.65
  -2  -2  -5   69.28    2.92
  -2   2  -5   69.72    2.96
  -3  -2  -5   53.16    2.35
   3  -2   5   50.62    2.79
   3   2   5   46.31    2.84
  -3   2  -5   53.53    2.39
   4  -2   5   31.48    1.99
  -4  -2  -5   34.82    1.67
   4   2   5   26.89    2.03
  -4   2  -5   33.69    1.69
  -7  -3   5   18.33    0.96
   7  -3  -5   17.43    0.92
  -7   3   5   18.77    1.22
   6  -3  -5   21.55    1.06
  -6  -3   5   22.96    1.11
  -6   3   5   23.43    1.39
   6   3  -5   23.83    1.07
   5  -3  -5   57.54    2.26
  -5  -3   5   53.47    2.25
  -5   3   5   56.12    2.85
  -5   3   5   55.53    2.19
   5   3  -5   58.47    2.20
  -4  -3   5   69.29    2.79
   4  -3  -5   75.26    2.81
  -4   3   5   73.61    3.58
   4   3  -5   71.56    2.73
  -4   3   5   72.93    2.73
   3  -3  -5   54.46    2.09
  -3  -3   5   50.81    2.06
   3   3  -5   50.31    2.00
  -3   3   5   51.59    2.69
  -3   3   5   50.44    1.98
  -2  -3   5   64.05    2.44
   2  -3  -5   64.04    2.48
   2   3  -5   62.82    2.42
  -2   3   5   62.85    2.37
   1  -3  -5  116.48    4.19
  -1  -3   5  114.82    4.10
   1   3  -5  115.62    4.62
   1   3  -5  110.42    4.13
  -1   3   5  110.74    5.50
  -1   3   5  108.76    4.02
   0  -3   5   91.94    3.41
   0  -3  -5   93.27    3.48
   0   3  -5   90.05    3.84
   0   3   5   90.30    3.31
   0   3  -5   91.94    3.43
   0   3   5   95.52    4.58
  -1  -3  -5   35.47    1.65
   1  -3   5   38.63    1.62
  -1   3  -5   42.12    1.63
   1   3   5   41.06    2.25
  -1   3  -5   39.16    1.82
   2  -3   5   47.00    1.84
  -2  -3  -5   43.21    1.87
  -2   3  -5   44.16    2.08
   2   3   5   44.76    2.54
  -3  -3  -5   41.61    1.98
  -3   3  -5   44.25    2.04
   3   3   5   39.65    2.47
  -4  -3  -5   14.65    0.96
   4   3   5   13.55    1.30
  -4   3  -5   15.94    1.01
   7  -4  -5   17.83    0.96
   7   4  -5   20.97    0.98
  -7   4   5   18.90    1.28
   6  -4  -5    8.56    0.57
  -6  -4   5    9.48    0.63
   6   4  -5    9.33    0.57
  -6   4   5    8.81    0.77
   5  -4  -5   26.93    1.23
  -5  -4   5   26.09    1.24
   5  -4  -5   24.67    1.16
   5   4  -5   27.01    1.16
  -5   4   5   26.67    1.56
   4  -4  -5  110.47    3.95
  -4  -4   5   96.09    3.92
   4   4  -5  105.42    3.86
  -4   4   5  106.81    3.84
  -4   4   5  108.71    5.09
  -3  -4   5   79.23    3.03
   3  -4  -5   81.33    3.04
   3   4  -5   79.39    2.96
  -3   4   5   76.80    3.96
  -3   4   5   80.69    2.94
   2  -4  -5   31.72    1.39
  -2  -4   5   34.75    1.40
  -2   4   5   32.72    1.29
   2   4  -5   32.17    1.45
   2   4  -5   32.40    1.32
  -2   4   5   25.40    1.83
  -1  -4   5   80.63    3.04
   1  -4  -5   81.82    3.10
   1   4  -5   79.62    3.02
  -1   4   5   79.77    2.94
  -1   4   5   82.68    4.14
   1   4  -5   81.62    3.41
   0  -4   5  119.74    4.39
   0  -4  -5  115.28    4.45
   0   4  -5  120.05    4.99
   0   4  -5  118.36    4.40
   0   4   5  129.45    5.88
  -1  -4  -5   57.11    2.42
   1  -4   5   59.71    2.38
  -1   4  -5   59.74    2.69
   1   4   5   64.32    3.24
  -1   4  -5   64.78    2.38
  -2  -4  -5   40.72    1.78
   2  -4   5   42.28    1.73
  -2   4  -5   40.10    1.96
   2   4   5   42.80    2.42
   3  -4   5   46.58    1.86
  -3  -4  -5   46.15    1.95
  -3   4  -5   46.55    2.19
   3   4   5   41.38    2.60
  -4   4  -5   33.38    1.77
   7   5  -5   15.61    0.83
  -6  -5   5   14.97    0.86
   6  -5  -5   12.94    0.76
  -6   5   5   14.25    1.05
   6   5  -5   15.73    0.78
  -5  -5   5   36.44    1.65
   5  -5  -5   37.56    1.57
  -5   5   5   36.59    2.07
   5   5  -5   39.46    1.56
  -4  -5   5   48.26    2.14
   4  -5  -5   53.78    2.14
   4  -5  -5   55.00    2.07
   4   5  -5   52.94    2.05
  -4   5   5   54.17    2.79
   3  -5  -5   45.36    1.87
  -3  -5   5   47.64    1.90
  -3   5   5   47.77    1.79
   3   5  -5   44.54    1.78
  -3   5   5   41.85    2.47
  -2  -5   5   75.62    2.80
   2  -5  -5   71.23    2.81
   2   5  -5   71.51    2.72
   2   5  -5   74.12    3.08
  -2   5   5   76.94    2.70
  -2   5   5   66.95    3.74
  -1  -5   5   96.88    3.58
   1  -5  -5   92.26    3.60
  -1   5   5   91.75    4.79
   1   5  -5   98.66    4.00
  -1   5   5   98.71    3.44
   1   5  -5   95.65    3.52
   0  -5   5   49.38    2.08
   0  -5  -5   48.87    2.09
   0   5  -5   52.25    2.05
   0   5  -5   53.82    2.36
   0   5   5   55.69    2.87
   1  -5   5   33.44    1.49
  -1  -5  -5   32.74    1.51
   1   5   5   37.36    2.08
  -1   5  -5   34.09    1.68
  -2  -5  -5   49.50    2.09
   2  -5   5   48.98    2.02
  -2   5  -5   51.61    2.35
   2   5   5   49.72    2.80
   3  -5   5   39.96    1.64
  -3  -5  -5   38.63    1.71
   3   5   5   37.79    2.34
  -3   5  -5   36.21    1.89
  -4   5  -5   15.78    1.05
   6  -6  -5   16.76    0.91
  -6   6   5   18.27    1.25
   6   6  -5   19.34    0.92
   5  -6  -5   26.78    1.18
  -5  -6   5   24.97    1.27
  -5   6   5   25.36    1.59
   5   6  -5   27.07    1.16
   4  -6  -5   34.22    1.42
   4  -6  -5   32.90    1.46
  -4  -6   5   32.39    1.52
   4   6  -5   36.25    1.41
  -4   6   5   32.17    1.94
   3  -6  -5   65.67    2.45
   3  -6  -5   60.32    2.52
  -3  -6   5   68.81    2.59
   3   6  -5   65.03    2.45
   3   6  -5   68.06    2.80
  -3   6   5   60.96    3.37
  -2  -6   5   79.86    2.89
   2  -6  -5   72.18    2.86
  -2   6   5   76.34    2.74
   2   6  -5   78.75    3.18
   2   6  -5   70.43    2.76
  -2   6   5   68.03    3.82
   1  -6  -5   45.70    1.97
  -1  -6   5   49.50    2.00
   1   6  -5   49.57    1.91
   1   6  -5   49.80    2.19
  -1   6   5   48.55    2.73
   0  -6  -5   55.56    2.30
   0  -6   5   55.21    2.30
   0   6  -5   59.51    2.24
   0   6   5   62.41    3.15
   0   6  -5   55.47    2.57
  -1  -6  -5   64.36    2.60
   1  -6   5   62.97    2.56
  -1   6  -5   65.33    2.94
   1   6   5   69.09    3.49
   2  -6   5   36.23    1.62
  -2  -6  -5   38.05    1.68
  -2   6  -5   37.62    1.88
   2   6   5   40.57    2.31
   3  -6   5   24.53    1.16
  -3  -6  -5   24.51    1.23
  -3   6  -5   24.44    1.37
   3   6   5   21.62    1.64
  -6  -7   5   19.09    0.98
   6  -7  -5   18.73    1.00
   6   7  -5   22.73    1.02
  -6   7   5   20.45    1.37
  -5  -7   5   12.34    0.71
  -5  -7   5   13.75    0.85
   5  -7  -5   13.82    0.75
   5   7  -5   13.97    0.73
  -5   7   5   14.10    1.06
  -4  -7   5   28.16    1.39
   4  -7  -5   30.42    1.31
   4  -7  -5   30.84    1.28
  -4   7   5   27.70    1.77
   3  -7  -5   73.47    2.69
  -3  -7   5   75.07    2.84
   3  -7  -5   70.91    2.77
   3   7  -5   70.90    3.09
   3   7  -5   69.68    2.69
  -3   7   5   71.78    3.74
  -2  -7   5   57.26    2.28
   2  -7  -5   56.97    2.25
   2  -7  -5   58.71    2.14
   2   7  -5   55.87    2.48
  -2   7   5   52.77    3.05
   2   7  -5   55.02    2.15
   1  -7  -5   23.67    1.11
  -1  -7   5   23.29    1.14
   1   7  -5   22.20    1.19
   1   7  -5   22.88    1.02
  -1   7   5   22.45    1.57
   0  -7  -5   35.61    1.58
   0  -7   5   34.12    1.59
   0   7   5   37.59    2.21
   0   7  -5   37.15    1.50
   0   7  -5   37.31    1.79
   1  -7   5   55.15    2.29
  -1  -7  -5   54.21    2.31
   1   7   5   59.80    3.13
  -1   7  -5   58.07    2.65
  -2  -7  -5   28.08    1.36
   2  -7   5   27.66    1.31
  -2   7  -5   28.21    1.53
   2   7   5   29.41    1.88
  -3  -7  -5   14.72    0.91
   3  -7   5   15.15    0.85
   3   7   5   14.07    1.27
  -3   7  -5   14.30    1.00
   5  -8  -5   23.40    1.10
  -5  -8   5   23.67    1.23
  -5   8   5   22.25    1.51
  -4  -8   5   10.53    0.75
  -4  -8   5   10.84    0.61
   4  -8  -5   11.04    0.64
   4   8  -5   12.03    0.75
  -4   8   5   10.24    0.95
   3  -8  -5   23.89    1.07
  -3  -8   5   26.30    1.23
   3  -8  -5   24.71    1.13
   3   8  -5   22.67    1.06
  -3   8   5   24.13    1.62
   3   8  -5   23.30    1.24
  -2  -8   5   65.62    2.53
   2  -8  -5   63.93    2.47
  -2   8   5   63.43    3.40
   2   8  -5   58.89    2.75
   2   8  -5   61.87    2.38
  -1  -8   5   49.86    2.10
   1  -8  -5   50.44    2.05
  -1   8   5   47.88    2.81
   1   8  -5   49.91    2.30
   1   8  -5   51.41    1.95
   0  -8  -5   28.23    1.32
   0   8  -5   28.09    1.51
   0   8   5   30.56    1.89
   1  -8   5   32.05    1.53
  -1  -8  -5   33.06    1.54
   1   8   5   37.20    2.15
  -1   8  -5   35.62    1.81
   2  -8   5   30.27    1.49
  -2  -8  -5   34.40    1.56
  -2   8  -5   33.09    1.77
   2   8   5   37.37    2.16
   3  -8   5   17.29    1.00
  -3  -8  -5   18.71    1.07
  -3   8  -5   21.06    1.25
  -5  -9   5   13.44    0.75
   5  -9  -5   14.45    0.80
  -5   9   5   14.43    1.14
  -4  -9   5   22.34    1.21
  -4  -9   5   21.05    1.02
   4  -9  -5   23.23    1.07
  -4   9   5   22.92    1.55
   4   9  -5   24.21    1.24
   3  -9  -5   43.96    1.76
   3  -9  -5   42.21    1.70
  -3  -9   5   46.72    1.89
  -3  -9   5   38.00    1.67
   3   9  -5   41.91    1.99
  -3   9   5   40.44    2.43
  -2  -9   5   27.72    1.30
   2  -9  -5   26.92    1.21
   2   9  -5   24.40    1.33
   2   9  -5   25.17    1.12
  -2   9   5   24.27    1.69
  -1  -9   5   13.82    0.86
   1  -9  -5   14.20    0.79
   1   9  -5   13.38    0.89
   1   9  -5   13.36    0.71
  -1   9   5   14.00    1.17
   0  -9  -5   26.97    1.26
   0  -9   5   26.04    1.31
   0   9   5   27.52    1.80
   0   9  -5   25.86    1.44
   1  -9   5   28.44    1.40
  -1  -9  -5   29.79    1.41
   1   9   5   31.79    1.97
  -1   9  -5   30.19    1.66
   2  -9   5   15.06    0.91
  -2  -9  -5   14.80    0.93
  -2   9  -5   18.45    1.14
   2   9   5   16.37    1.32
   5  10  -5   11.47    0.81
   4 -10  -5   15.60    0.82
  -4 -10   5   13.91    0.77
  -4 -10   5   16.65    0.99
  -4  10   5   14.25    1.17
   4  10  -5   15.80    0.95
  -3 -10   5   11.93    0.66
   3 -10  -5   12.28    0.70
  -3 -10   5   11.86    0.81
  -3  10   5   12.08    1.06
   3  10  -5   12.38    0.83
  -2 -10   5   19.14    1.04
   2 -10  -5   17.92    0.92
  -2  10   5   17.65    1.34
   2  10  -5   17.57    1.05
   2  10  -5   16.46    0.84
  -1 -10   5   37.70    1.70
   1 -10  -5   37.43    1.59
   1  10  -5   35.02    1.48
  -1  10   5   36.18    2.23
   1  10  -5   35.02    1.81
   0 -10   5   28.63    1.46
   0 -10  -5   30.14    1.41
   0  10  -5   29.26    1.62
   0  10   5   35.44    2.06
   1 -10   5   16.66    0.96
  -1 -10  -5   15.96    0.94
  -1  10  -5   16.61    1.12
   1  10   5   16.30    1.33
   4 -11  -5   19.93    1.01
   4  11  -5   20.32    1.19
  -3 -11   5    9.34    0.57
  -3 -11   5   11.04    0.78
   3  11  -5    9.13    0.74
  -3  11   5    9.91    0.96
   2 -11  -5   14.59    0.80
  -2 -11   5   13.52    0.73
  -2 -11   5   15.31    0.95
  -2  11   5   14.18    1.21
   2  11  -5   14.01    0.75
   2  11  -5   14.21    0.94
  -1 -11   5   20.35    1.22
   1 -11  -5   24.47    1.15
   1  11  -5   23.45    1.34
  -1  11   5   24.79    1.69
   0 -11  -5   12.19    0.77
   0 -11   5   11.85    0.85
   0  11  -5   13.26    0.94
   0  11   5   12.23    1.13
   1  11   5    8.07    0.93
  -1  11  -5    8.07    0.75
  -3 -12   5   12.89    0.90
   3  12  -5   12.10    0.87
  -2 -12   5    8.48    0.71
   2 -12  -5    7.49    0.55
  -2 -12   5    6.36    0.48
  -2  12   5    8.07    0.89
   2  12  -5    7.07    0.67
  -1 -12   5   14.09    0.94
   1 -12  -5   12.92    0.79
  -1  12   5   13.18    1.19
   1  12  -5   13.03    0.95
   6   0  -6   18.46    0.98
  -6   0   6   17.10    0.96
   5   0  -6   28.36    1.36
  -5   0   6   30.60    1.37
   4   0  -6   19.77    0.99
  -4   0   6   17.95    0.95
  -3   0   6   19.49    0.97
   3   0  -6   19.12    0.99
   2   0  -6   53.00    2.18
  -2   0   6   55.34    2.15
   1   0  -6   65.91    2.60
  -1   0   6   67.10    2.53
   0   0   6   27.03    1.18
   0   0   6   30.39    1.70
   0   0  -6   25.71    1.25
  -1   0  -6   18.14    1.00
   1   0   6   21.44    1.39
   2   0   6   34.60    2.10
   3   0   6   24.03    1.73
   6  -1  -6   47.69    2.00
  -6  -1   6   45.04    1.98
   6   1  -6   46.90    1.98
  -6   1   6   47.05    1.98
   5  -1  -6   36.11    1.57
  -5  -1   6   33.57    1.55
  -5   1   6   34.20    1.54
   5   1  -6   35.46    1.55
  -4  -1   6   31.86    1.52
   4  -1  -6   38.63    1.58
  -4   1   6   35.15    1.53
   4   1  -6   36.06    1.56
   3  -1  -6   97.60    3.61
  -3  -1   6   95.56    3.56
  -3   1   6   95.67    4.66
   3   1  -6   95.22    3.61
  -3   1   6   91.44    3.53
  -2  -1   6  118.90    4.26
   2  -1  -6  117.86    4.34
  -2   1   6  116.37    4.24
   2   1  -6  113.22    4.32
  -1  -1   6   65.28    2.51
   1  -1  -6   62.89    2.58
  -1   1   6   65.09    2.50
   1   1  -6   62.98    2.57
  -1   1   6   74.13    3.47
   0  -1   6   57.19    2.17
   0  -1  -6   53.99    2.24
   0   1   6   56.36    2.14
   0   1  -6   53.78    2.22
   0   1   6   57.69    2.95
   1  -1   6   55.41    2.14
  -1  -1  -6   55.90    2.25
  -1   1  -6   54.45    2.22
   1   1   6   55.33    2.95
   2   1   6   29.92    1.89
   3   1   6   20.98    1.59
  -6  -2   6   12.12    0.79
  -6   2   6   11.52    0.75
   6   2  -6   13.15    0.76
   5  -2  -6   17.02    0.95
  -5  -2   6   17.43    0.99
  -5   2   6   18.76    1.22
  -5   2   6   18.85    0.96
   5   2  -6   19.80    0.97
  -4  -2   6   23.47    1.18
   4  -2  -6   25.64    1.19
   4   2  -6   23.28    1.14
  -4   2   6   25.12    1.52
  -4   2   6   24.29    1.14
   3  -2  -6   33.73    1.44
  -3  -2   6   32.19    1.41
  -3   2   6   30.91    1.37
   3   2  -6   29.64    1.40
  -3   2   6   31.76    1.88
  -2  -2   6   41.13    1.66
   2  -2  -6   41.68    1.71
  -2   2   6   36.21    2.24
  -2   2   6   39.15    1.62
   2   2  -6   39.29    1.69
  -1  -2   6   44.08    1.77
   1  -2  -6   41.71    1.82
  -1   2   6   48.84    2.50
   1   2  -6   40.27    1.79
  -1   2   6   43.43    1.73
   0  -2  -6   40.19    1.76
   0  -2   6   40.83    1.69
   0   2  -6   40.91    1.74
   0   2   6   44.92    2.37
   1  -2   6   38.59    1.59
  -1  -2  -6   40.08    1.69
   1   2   6   36.76    2.19
  -1   2  -6   37.97    1.63
  -2  -2  -6   27.75    1.33
   2   2   6   26.49    1.78
   3   2   6   16.45    1.42
  -3   2  -6   19.67    1.11
   7   3  -6   21.65    1.10
   6  -3  -6   14.81    0.83
  -6  -3   6   15.31    0.90
  -6   3   6   14.66    0.85
   6   3  -6   14.63    0.82
  -6   3   6   14.16    1.08
   5  -3  -6   41.68    1.76
  -5  -3   6   38.32    1.77
  -5   3   6   40.72    1.72
  -5   3   6   42.77    2.28
   5   3  -6   39.55    1.71
  -4  -3   6   63.44    2.62
   4  -3  -6   69.18    2.63
  -4   3   6   65.86    3.41
   4   3  -6   63.55    2.57
  -4   3   6   67.31    2.56
   3  -3  -6   46.04    1.85
  -3  -3   6   45.27    1.83
  -3   3   6   37.57    2.39
   3   3  -6   44.35    1.81
  -3   3   6   42.85    1.75
  -2  -3   6   56.83    2.13
   2  -3  -6   55.75    2.17
   2   3  -6   54.61    2.15
  -2   3   6   48.82    2.04
  -2   3   6   47.56    2.84
   1  -3  -6   83.05    3.34
  -1  -3   6   88.49    3.28
  -1   3   6   96.24    4.48
   1   3  -6   85.98    3.33
  -1   3   6   85.09    3.21
   0  -3  -6   52.37    2.14
   0  -3   6   51.74    2.06
   0   3  -6   49.89    2.08
   0   3   6   53.10    2.82
  -1  -3  -6   30.94    1.44
   1  -3   6   29.87    1.36
   1   3   6   32.64    1.92
  -2  -3  -6   44.76    1.89
  -2   3  -6   41.80    2.01
   2   3   6   42.09    2.48
  -3   3  -6   33.52    1.71
   3   3   6   33.73    2.17
   6  -4  -6    6.22    0.54
  -6  -4   6    6.87    0.61
   6   4  -6    7.77    0.55
  -6   4   6    6.82    0.77
   5  -4  -6    8.46    0.60
  -5  -4   6    7.49    0.62
  -5   4   6    7.95    0.55
  -5   4   6    7.25    0.79
   5   4  -6    8.03    0.55
   4  -4  -6   34.90    1.48
  -4  -4   6   30.04    1.46
  -4   4   6   29.15    1.90
   4   4  -6   32.84    1.40
  -4   4   6   32.35    1.40
   3  -4  -6   48.64    1.92
  -3  -4   6   46.87    1.90
   3   4  -6   44.29    1.85
  -3   4   6   38.82    2.50
  -3   4   6   46.63    1.83
   2  -4  -6   20.87    1.03
  -2  -4   6   21.32    0.99
   2   4  -6   20.09    0.99
  -2   4   6   19.32    0.91
  -2   4   6   16.11    1.35
  -1  -4   6   23.13    1.08
   1  -4  -6   24.35    1.14
  -1   4   6   21.41    0.99
  -1   4   6   24.25    1.57
   1   4  -6   19.78    1.07
   0  -4  -6   63.83    2.53
   0  -4   6   59.68    2.45
   0   4  -6   62.77    2.48
   0   4   6   65.85    3.36
   1  -4   6   54.82    2.18
  -1  -4  -6   52.76    2.24
   1   4   6   53.74    2.94
  -2  -4  -6   16.98    1.02
   2  -4   6   20.04    0.99
  -2   4  -6   17.59    1.07
   2   4   6   19.06    1.41
  -3   4  -6   14.54    0.96
   6  -5  -6   12.65    0.79
  -6  -5   6   13.42    0.89
  -6   5   6   14.02    1.12
   6   5  -6   14.85    0.80
   5  -5  -6   29.11    1.28
  -5  -5   6   23.49    1.29
   5  -5  -6   25.32    1.21
  -5   5   6   27.04    1.70
   5   5  -6   25.94    1.20
   4  -5  -6   50.26    2.03
  -4  -5   6   48.89    2.05
   4   5  -6   47.80    1.95
  -4   5   6   49.41    1.95
  -4   5   6   44.11    2.66
  -3  -5   6   43.54    1.84
   3  -5  -6   46.41    1.86
  -3   5   6   45.39    1.76
   3   5  -6   43.04    1.78
  -3   5   6   36.99    2.44
  -2  -5   6   35.66    1.51
   2  -5  -6   35.04    1.53
  -2   5   6   32.50    2.09
   2   5  -6   33.26    1.47
  -2   5   6   33.85    1.41
   1  -5  -6   42.14    1.85
  -1  -5   6   42.80    1.80
   1   5  -6   42.04    1.81
  -1   5   6   46.75    2.54
   0  -5   6   45.45    1.90
   0  -5  -6   44.14    1.94
   0   5  -6   45.70    1.89
   0   5   6   46.54    2.59
   1  -5   6   37.84    1.68
  -1  -5  -6   37.51    1.72
   1   5   6   39.47    2.29
  -1   5  -6   39.53    1.87
   2  -5   6   34.00    1.55
  -2  -5  -6   33.04    1.61
  -2   5  -6   34.97    1.74
   2   5   6   35.61    2.15
  -3   5  -6   26.53    1.46
  -6  -6   6    6.70    0.63
   5  -6  -6   11.72    0.73
  -5  -6   6   11.24    0.80
   5   6  -6   12.41    0.71
  -5   6   6   12.36    1.09
  -4  -6   6   22.07    1.12
   4  -6  -6   20.43    1.05
   4  -6  -6   21.23    1.01
  -4   6   6   16.91    1.40
   4   6  -6   20.40    0.99
  -3  -6   6   25.81    1.21
   3  -6  -6   25.15    1.20
   3   6  -6   23.48    1.12
  -3   6   6   20.95    1.62
  -3   6   6   25.09    1.11
   2  -6  -6   20.00    1.05
  -2  -6   6   21.37    1.05
  -2   6   6   20.58    0.94
   2   6  -6   20.30    0.99
  -2   6   6   18.49    1.46
   1  -6  -6   25.90    1.27
  -1  -6   6   25.99    1.24
  -1   6   6   29.26    1.81
   1   6  -6   26.13    1.23
   0  -6  -6   30.95    1.51
   0  -6   6   32.25    1.49
   0   6  -6   32.93    1.47
   0   6   6   34.68    2.07
   0   6  -6   34.17    1.67
  -1  -6  -6   28.91    1.44
   1  -6   6   29.83    1.42
  -1   6  -6   30.46    1.57
   1   6   6   32.18    1.95
   2  -6   6   23.42    1.22
  -2  -6  -6   23.87    1.28
  -2   6  -6   25.59    1.37
   2   6   6   24.73    1.71
  -5  -7   6   15.31    0.98
   5  -7  -6   17.21    0.91
   5   7  -6   17.70    0.89
  -5   7   6   16.08    1.30
   4  -7  -6   18.78    0.98
   4  -7  -6   19.06    0.94
  -4  -7   6   19.94    1.06
   4   7  -6   17.71    0.92
  -4   7   6   15.78    1.34
   3  -7  -6   47.51    1.82
   3  -7  -6   44.30    1.89
  -3  -7   6   46.02    1.92
   3   7  -6   45.09    1.82
  -3   7   6   38.53    2.55
   2  -7  -6   39.45    1.70
  -2  -7   6   39.51    1.70
  -2   7   6   36.30    2.33
   2   7  -6   38.53    1.62
   1  -7  -6   17.94    1.01
  -1  -7   6   19.43    1.02
   1   7  -6   19.26    0.97
  -1   7   6   21.71    1.51
   0  -7  -6   28.25    1.45
   0  -7   6   30.03    1.45
   0   7   6   35.23    2.06
   0   7  -6   32.87    1.64
  -1  -7  -6   42.62    1.93
   1  -7   6   42.69    1.90
  -1   7  -6   43.71    2.12
   1   7   6   45.23    2.57
   2  -7   6   25.71    1.30
  -2  -7  -6   25.27    1.34
  -2   7  -6   26.35    1.46
  -5  -8   6   15.95    1.00
   5  -8  -6   15.32    0.88
  -4  -8   6   10.67    0.75
   4  -8  -6    9.80    0.64
   4  -8  -6    9.75    0.65
   4   8  -6    9.51    0.63
  -4   8   6    8.43    0.96
  -3  -8   6   10.41    0.71
   3  -8  -6    9.24    0.65
   3   8  -6    9.26    0.61
  -3   8   6    8.68    1.00
  -2  -8   6   24.65    1.22
   2  -8  -6   24.47    1.20
   2   8  -6   23.98    1.13
  -2   8   6   23.60    1.71
  -1  -8   6   21.14    1.17
   1  -8  -6   23.83    1.19
   1   8  -6   23.96    1.31
   1   8  -6   24.48    1.13
  -1   8   6   23.78    1.67
   0  -8   6    8.49    0.66
   0  -8  -6    7.30    0.65
   0   8  -6    9.53    0.76
   0   8   6   11.71    1.06
  -1  -8  -6   12.70    0.88
   1  -8   6   13.17    0.87
  -1   8  -6   15.49    1.00
   1   8   6   15.20    1.26
   4  -9  -6   17.46    0.93
  -4  -9   6   17.99    1.05
   3  -9  -6   22.75    1.13
  -3  -9   6   25.01    1.23
  -3   9   6   20.61    1.63
   3   9  -6   21.46    1.06
   2  -9  -6   29.87    1.40
  -2  -9   6   30.78    1.44
   2   9  -6   29.61    1.32
  -2   9   6   27.73    1.96
   1  -9  -6   25.55    1.30
  -1  -9   6   26.40    1.34
   1   9  -6   26.11    1.23
  -1   9   6   28.89    1.87
   1   9  -6   27.01    1.46
   0  -9  -6   20.49    1.13
   0  -9   6   20.56    1.14
   0   9  -6   21.67    1.27
   0   9   6   21.63    1.59
  -1   9  -6   23.28    1.40
  -3 -10   6   12.83    0.86
   3 -10  -6   12.26    0.76
   3  10  -6   11.35    0.71
   2 -10  -6   10.99    0.71
  -2 -10   6    9.13    0.73
   2  10  -6    9.69    0.65
   2  10  -6    9.82    0.76
   1 -10  -6    8.27    0.66
   1  10  -6    8.85    0.73
   0  10  -6    9.10    0.80
   3 -11  -6   12.07    0.77
   2  11  -6   14.35    0.98
   1  11  -6   22.04    1.32
   6   0  -7    2.34    0.40
  -5   0   7   12.70    0.82
   5   0  -7   15.23    0.88
  -4   0   7   16.40    0.93
   4   0  -7   17.43    0.95
  -3   0   7   15.61    0.86
   3   0  -7   14.83    0.87
   2   0  -7   29.90    1.40
  -2   0   7   30.12    1.35
  -1   0   7   26.35    1.15
   1   0  -7   23.14    1.20
   0   0  -7    6.01    0.54
  -1   0  -7    9.04    0.68
   6  -1  -7   31.45    1.49
   6   1  -7   31.41    1.51
  -5  -1   7   28.00    1.41
   5  -1  -7   31.39    1.42
  -5   1   7   28.21    1.38
   5   1  -7   30.58    1.43
  -4  -1   7   27.67    1.31
   4  -1  -7   28.32    1.33
  -4   1   7   25.75    1.28
   4   1  -7   27.76    1.33
  -3  -1   7   48.97    1.94
   3  -1  -7   44.86    1.94
  -3   1   7   46.19    1.91
   3   1  -7   43.66    1.94
   2  -1  -7   65.75    2.71
  -2  -1   7   70.93    2.67
  -2   1   7   70.14    2.65
   2   1  -7   66.26    2.71
   1  -1  -7   52.10    2.22
  -1  -1   7   56.06    2.16
   1   1  -7   51.10    2.21
  -1   1   7   57.47    2.15
   0  -1  -7   35.67    1.60
   0  -1   7   37.36    1.52
   0   1  -7   34.77    1.58
  -1  -1  -7   41.75    1.82
   6  -2  -7    3.56    0.48
  -5  -2   7    4.49    0.55
   5  -2  -7    5.36    0.52
  -5   2   7    4.83    0.48
   5   2  -7    5.73    0.53
  -4  -2   7   12.60    0.79
   4  -2  -7   13.05    0.80
   4   2  -7   11.52    0.78
  -4   2   7   12.60    0.76
  -3  -2   7   20.22    1.08
   3  -2  -7   24.28    1.15
   3   2  -7   21.12    1.13
  -3   2   7   22.15    1.08
  -2  -2   7   18.69    0.96
   2  -2  -7   18.08    1.00
  -2   2   7   19.73    0.96
   2   2  -7   17.72    0.99
   1  -2  -7   11.96    0.80
  -1  -2   7   13.70    0.76
  -1   2   7   16.45    1.16
   1   2  -7   12.01    0.78
  -1   2   7   13.01    0.72
   0  -2   7   13.38    0.74
   0  -2  -7   12.67    0.82
   0   2   7   14.40    1.12
   0   2  -7   13.32    0.81
  -1  -2  -7   14.43    0.87
   1   2   7   13.08    1.12
   2   2   7   14.04    1.22
  -5  -3   7   29.74    1.46
   5  -3  -7   30.91    1.43
  -5   3   7   28.38    1.38
   5   3  -7   29.59    1.42
   4  -3  -7   47.45    1.93
  -4  -3   7   44.90    1.92
  -4   3   7   41.61    1.84
  -4   3   7   40.83    2.51
   4   3  -7   45.03    1.92
   3  -3  -7   41.00    1.75
  -3  -3   7   42.29    1.74
  -3   3   7   34.31    2.30
  -3   3   7   41.03    1.69
   3   3  -7   39.17    1.76
   2  -3  -7   35.12    1.61
  -2  -3   7   36.20    1.57
  -2   3   7   37.45    1.54
   2   3  -7   35.62    1.62
  -2   3   7   36.33    2.20
   1  -3  -7   40.01    1.80
  -1  -3   7   41.74    1.74
   1   3  -7   39.89    1.78
  -1   3   7   45.20    2.44
   0  -3  -7   46.39    2.02
   0  -3   7   47.96    1.94
   0   3   7   50.18    2.68
   0   3  -7   45.17    1.97
  -1  -3  -7   35.23    1.63
   1   3   7   35.40    2.14
   5  -4  -7    1.31    0.34
  -5   4   7    1.67    0.32
  -5   4   7    1.19    0.52
   4  -4  -7    5.90    0.55
  -4  -4   7    6.37    0.58
   4   4  -7    5.98    0.54
  -4   4   7    4.63    0.81
  -4   4   7    5.24    0.48
   3  -4  -7   18.83    0.98
  -3  -4   7   18.16    0.95
   3   4  -7   17.96    0.98
  -3   4   7   14.80    0.86
  -3   4   7   14.93    1.31
   2  -4  -7    9.27    0.67
  -2  -4   7    9.87    0.65
  -2   4   7   10.39    0.61
   2   4  -7    8.44    0.67
  -2   4   7   10.33    1.00
   1  -4  -7    6.95    0.60
  -1  -4   7    7.34    0.55
   1   4  -7    6.93    0.59
  -1   4   7    8.49    0.88
   0  -4  -7   17.70    1.01
   0  -4   7   18.10    0.96
   0   4   7   20.03    1.40
   0   4  -7   18.00    0.98
  -1  -4  -7   16.83    0.99
   1  -4   7   15.83    0.89
   1   4   7   16.72    1.30
   5  -5  -7   26.06    1.25
  -5   5   7   22.26    1.68
  -4  -5   7   39.50    1.76
   4  -5  -7   41.15    1.75
  -4   5   7   40.26    1.69
  -4   5   7   32.51    2.30
   4   5  -7   40.14    1.73
  -3  -5   7   36.11    1.55
   3  -5  -7   35.99    1.57
  -3   5   7   34.12    1.47
  -3   5   7   27.10    2.05
   3   5  -7   33.52    1.54
  -2  -5   7   25.25    1.23
   2  -5  -7   25.06    1.27
  -2   5   7   27.54    1.80
   2   5  -7   26.00    1.28
   1  -5  -7   34.74    1.63
  -1  -5   7   35.78    1.59
   1   5  -7   35.02    1.62
  -1   5   7   39.74    2.25
   0  -5   7   37.73    1.69
   0  -5  -7   38.68    1.76
   0   5   7   40.91    2.35
   1  -5   7   24.41    1.20
   4  -6  -7    3.77    0.46
  -4  -6   7    4.11    0.54
   4  -6  -7    4.48    0.54
  -4   6   7    2.59    0.71
  -3  -6   7    3.52    0.48
   3  -6  -7    4.43    0.52
  -3   6   7    3.71    0.42
  -3   6   7    2.86    0.71
   3   6  -7    3.69    0.48
   2  -6  -7   10.61    0.72
  -2  -6   7    9.65    0.67
  -2   6   7    9.75    1.04
   2   6  -7   10.73    0.74
  -1  -6   7   11.99    0.76
   1  -6  -7   11.03    0.79
   1   6  -7   12.25    0.79
  -1   6   7   12.25    1.12
   0  -6   7    9.51    0.67
   0   6   7    9.97    1.01
   4  -7  -7   17.39    0.97
   4  -7  -7   15.87    0.92
   3  -7  -7   26.33    1.25
   3   7  -7   24.68    1.20
  -3   7   7   20.19    1.69
   2  -7  -7   36.64    1.69
  -2  -7   7   36.08    1.66
   2   7  -7   36.59    1.67
  -2   7   7   39.69    2.37
   1   7  -7   29.81    1.46
  -1   7   7   32.33    2.04
   2   8  -7    7.27    0.63
  -3   0   8    2.18    0.38
  -2   0   8    3.19    0.42
  -3   1   8   22.90    1.14
  -2  -1   8   35.94    1.57
  -2   1   8   35.79    1.56
  -1  -1   8   35.08    1.53
  -3   2   8    2.96    0.43
  -2  -2   8    4.00    0.47
  -2   2   8    4.01    0.46
  -1  -2   8    5.14    0.47
  -3   3   8   29.43    1.36
  -3   4   8    5.35    0.51
   0   0   0    0.00    0.00
;
_shelx_hkl_checksum              68254
#END Tags that were not found in dictionaries
loop_
_space_group_symop_operation_xyz
'x, y, z'
'-x, y+1/2, -z'
'-x, -y, -z'
'x, -y-1/2, z'
loop_
_atom_site_label
_atom_site_type_symbol
_atom_site_fract_x
_atom_site_fract_y
_atom_site_fract_z
_atom_site_U_iso_or_equiv
_atom_site_adp_type
_atom_site_occupancy
_atom_site_site_symmetry_order
_atom_site_calc_flag
_atom_site_refinement_flags_posn
_atom_site_refinement_flags_adp
_atom_site_refinement_flags_occupancy
Re1 Re 0.49666(3) 0.2500 0.52359(3) 0.02914(7) Uani 1 2 d S T P
Cl1 Cl 0.22769(16) 0.12060(8) 0.59596(19) 0.0479(2) Uani 1 1 d . . .
O1 O 0.8017(5) 0.0892(3) 0.8521(5) 0.0585(8) Uani 1 1 d . . .
C1 C 0.6880(6) 0.1492(3) 0.7294(6) 0.0403(8) Uani 1 1 d . . .
C2 C 0.5664(7) 0.1568(3) 0.2437(6) 0.0468(9) Uani 1 1 d . . .
H2 H 0.6123 0.0842 0.2667 0.056 Uiso 1 1 calc R U .
C3 C 0.7069(9) 0.2500 0.2967(9) 0.0458(13) Uani 1 2 d S T P
H3 H 0.8619 0.2500 0.3551 0.055 Uiso 1 2 calc R U P
C4 C 0.3448(7) 0.3067(4) 0.1500(6) 0.0493(9) Uani 1 1 d . . .
H4 H 0.2198 0.3512 0.0970 0.059 Uiso 1 1 calc R U .
loop_
_atom_site_aniso_label
_atom_site_aniso_U_11
_atom_site_aniso_U_22
_atom_site_aniso_U_33
_atom_site_aniso_U_23
_atom_site_aniso_U_13
_atom_site_aniso_U_12
Re1 0.02515(10) 0.03476(12) 0.02560(11) 0.000 0.00439(7) 0.000
Cl1 0.0386(5) 0.0419(5) 0.0652(6) 0.0063(4) 0.0184(4) -0.0036(4)
O1 0.0502(17) 0.066(2) 0.0531(18) 0.0184(15) 0.0051(14) 0.0155(15)
C1 0.0338(17) 0.050(2) 0.0357(18) 0.0035(16) 0.0081(14) 0.0026(16)
C2 0.062(2) 0.044(2) 0.0363(19) -0.0037(16) 0.0175(18) 0.0052(18)
C3 0.038(3) 0.069(4) 0.032(3) 0.000 0.013(2) 0.000
C4 0.050(2) 0.064(2) 0.0290(18) 0.0059(16) 0.0029(16) 0.0123(19)
loop_
_atom_type_symbol
_atom_type_description
_atom_type_scat_dispersion_real
_atom_type_scat_dispersion_imag
_atom_type_scat_source
C C 0.0033 0.0016 'International Tables Vol C Tables 4.2.6.8 and 6.1.1.4'
H H 0.0000 0.0000 'International Tables Vol C Tables 4.2.6.8 and 6.1.1.4'
Cl Cl 0.1484 0.1585 'International Tables Vol C Tables 4.2.6.8 and 6.1.1.4'
O O 0.0106 0.0060 'International Tables Vol C Tables 4.2.6.8 and 6.1.1.4'
Re Re -1.0185 7.2310 'International Tables Vol C Tables 4.2.6.8 and 6.1.1.4'
loop_
_geom_angle_atom_site_label_1
_geom_angle_atom_site_label_2
_geom_angle_atom_site_label_3
_geom_angle
_geom_angle_site_symmetry_1
_geom_angle_site_symmetry_3
C1 Re1 C1 79.5(2) . 4_565
C1 Re1 C3 93.55(16) . .
C1 Re1 C3 93.55(16) 4_565 .
C1 Re1 C2 128.72(16) . 4_565
C1 Re1 C2 88.55(16) 4_565 4_565
C3 Re1 C2 37.23(13) . 4_565
C1 Re1 C2 88.55(16) . .
C1 Re1 C2 128.72(16) 4_565 .
C3 Re1 C2 37.23(13) . .
C2 Re1 C2 61.2(2) 4_565 .
C1 Re1 C4 117.92(16) . 4_565
C1 Re1 C4 147.51(16) 4_565 4_565
C3 Re1 C4 60.09(17) . 4_565
C2 Re1 C4 59.02(15) 4_565 4_565
C2 Re1 C4 35.58(15) . 4_565
C1 Re1 C4 147.51(16) . .
C1 Re1 C4 117.92(16) 4_565 .
C3 Re1 C4 60.09(17) . .
C2 Re1 C4 35.58(15) 4_565 .
C2 Re1 C4 59.02(15) . .
C4 Re1 C4 34.1(2) 4_565 .
C1 Re1 Cl1 128.00(11) . 4_565
C1 Re1 Cl1 77.77(11) 4_565 4_565
C3 Re1 Cl1 133.82(7) . 4_565
C2 Re1 Cl1 96.75(11) 4_565 4_565
C2 Re1 Cl1 140.89(11) . 4_565
C4 Re1 Cl1 105.94(11) 4_565 4_565
C4 Re1 Cl1 83.97(11) . 4_565
C1 Re1 Cl1 77.77(11) . .
C1 Re1 Cl1 128.00(11) 4_565 .
C3 Re1 Cl1 133.82(7) . .
C2 Re1 Cl1 140.89(11) 4_565 .
C2 Re1 Cl1 96.75(11) . .
C4 Re1 Cl1 83.97(11) 4_565 .
C4 Re1 Cl1 105.94(11) . .
Cl1 Re1 Cl1 80.62(5) 4_565 .
O1 C1 Re1 179.9(4) . .
C4 C2 C3 108.0(4) 4_565 .
C4 C2 Re1 76.9(2) 4_565 .
C3 C2 Re1 69.9(3) . .
C4 C2 H2 126.0 4_565 .
C3 C2 H2 126.0 . .
Re1 C2 H2 119.0 . .
C2 C3 C2 107.0(5) . 4_565
C2 C3 Re1 72.9(3) . .
C2 C3 Re1 72.9(3) 4_565 .
C2 C3 H3 126.5 . .
C2 C3 H3 126.5 4_565 .
Re1 C3 H3 119.6 . .
C4 C4 C2 108.5(2) 4_565 4_565
C4 C4 Re1 72.94(11) 4_565 .
C2 C4 Re1 67.5(2) 4_565 .
C4 C4 H4 125.8 4_565 .
C2 C4 H4 125.8 4_565 .
Re1 C4 H4 125.3 . .
loop_
_geom_bond_atom_site_label_1
_geom_bond_atom_site_label_2
_geom_bond_distance
_geom_bond_site_symmetry_2
Re1 C1 1.926(4) .
Re1 C3 2.198(5) .
Re1 C2 2.238(4) 4_565
Re1 C4 2.359(4) 4_565
Re1 Cl1 2.4433(9) 4_565
O1 C1 1.147(5) .
C2 C4 1.409(6) 4_565
C2 C3 1.417(5) .
C2 H2 0.9300 .
C3 C2 1.417(5) 4_565
C3 H3 0.9300 .
C4 C4 1.384(9) 4_565
C4 C2 1.409(6) 4_565
C4 H4 0.9300 .
loop_
_geom_torsion_atom_site_label_1
_geom_torsion_atom_site_label_2
_geom_torsion_atom_site_label_3
_geom_torsion_atom_site_label_4
_geom_torsion
_geom_torsion_site_symmetry_1
_geom_torsion_site_symmetry_4
C4 C2 C3 C2 2.7(6) 4_565 4_565
Re1 C2 C3 C2 -65.4(3) . 4_565
C4 C2 C3 Re1 68.1(3) 4_565 .
