#------------------------------------------------------------------------------
#$Date: 2016-03-26 21:20:38 +0200 (Sat, 26 Mar 2016) $
#$Revision: 180473 $
#$URL: svn://www.crystallography.net/cod/cif/7/21/42/7214257.cif $
#------------------------------------------------------------------------------
#
# This file is available in the Crystallography Open Database (COD),
# http://www.crystallography.net/
#
# All data on this site have been placed in the public domain by the
# contributors.
#
data_7214257
loop_
_publ_author_name
'Song, Yuna'
'Yin, Xinbo'
'Tu, Binbin'
'Pang, Qingqing'
'Li, Haiwei'
'Ren, Xiaoqian'
'Wang, Bo'
'Li, Qiaowei'
_publ_section_title
;
 Metal--organic frameworks constructed from mixed infinite inorganic units
 and adenine
;
_journal_issue                   15
_journal_name_full               CrystEngComm
_journal_page_first              3082
_journal_paper_doi               10.1039/c3ce42556h
_journal_volume                  16
_journal_year                    2014
_chemical_formula_sum            'C10 H8 Cd4 Cl7 N10'
_chemical_formula_weight         966.01
_chemical_name_systematic
;
 ?
;
_space_group_crystal_system      orthorhombic
_space_group_IT_number           55
_space_group_name_Hall           '-P 2 2ab'
_space_group_name_H-M_alt        'P b a m'
_symmetry_space_group_name_Hall  '-P 2 2ab'
_symmetry_space_group_name_H-M   'P b a m'
_atom_sites_solution_hydrogens   geom
_audit_creation_method           SHELXL-2013
_cell_angle_alpha                90
_cell_angle_beta                 90
_cell_angle_gamma                90
_cell_formula_units_Z            2
_cell_length_a                   14.857(5)
_cell_length_b                   23.615(9)
_cell_length_c                   3.7317(13)
_cell_measurement_reflns_used    1206
_cell_measurement_temperature    296(2)
_cell_measurement_theta_max      20.47
_cell_measurement_theta_min      2.19
_cell_volume                     1309.3(8)
_computing_cell_refinement       'Bruker SMART'
_computing_data_collection       'Bruker SMART'
_computing_data_reduction        'Bruker SAINT'
_computing_molecular_graphics    'Bruker SHELXTL'
_computing_publication_material  'Bruker SHELXTL'
_computing_structure_refinement  'SHELXL-97 (Sheldrick, 1997)'
_computing_structure_solution    'SHELXS-97 (Sheldrick, 1990)'
_diffrn_ambient_temperature      296(2)
_diffrn_measured_fraction_theta_full 0.999
_diffrn_measured_fraction_theta_max 1.000
_diffrn_measurement_device_type  'CCD area detector'
_diffrn_measurement_method       'phi and omega scans'
_diffrn_radiation_source         'fine-focus sealed tube'
_diffrn_radiation_type           MoK\a
_diffrn_radiation_wavelength     0.71073
_diffrn_reflns_av_R_equivalents  0.1426
_diffrn_reflns_av_unetI/netI     0.1879
_diffrn_reflns_Laue_measured_fraction_full 0.999
_diffrn_reflns_Laue_measured_fraction_max 1.000
_diffrn_reflns_limit_h_max       15
_diffrn_reflns_limit_h_min       -18
_diffrn_reflns_limit_k_max       24
_diffrn_reflns_limit_k_min       -29
_diffrn_reflns_limit_l_max       4
_diffrn_reflns_limit_l_min       -4
_diffrn_reflns_number            6994
_diffrn_reflns_point_group_measured_fraction_full 0.999
_diffrn_reflns_point_group_measured_fraction_max 1.000
_diffrn_reflns_theta_full        25.242
_diffrn_reflns_theta_max         26.367
_diffrn_reflns_theta_min         1.619
_exptl_absorpt_coefficient_mu    3.938
_exptl_absorpt_correction_type   none
_exptl_crystal_colour            colorless
_exptl_crystal_density_diffrn    2.450
_exptl_crystal_description       rod
_exptl_crystal_F_000             898
_exptl_crystal_size_max          0.05
_exptl_crystal_size_mid          0.02
_exptl_crystal_size_min          0.02
_platon_squeeze_details
;
Very little remaining electron density was left, 
because of the highly disordered nature of solvent 
molecules.
;
_refine_diff_density_max         1.767
_refine_diff_density_min         -1.960
_refine_diff_density_rms         0.384
_refine_ls_extinction_method     none
_refine_ls_goodness_of_fit_ref   0.854
_refine_ls_hydrogen_treatment    constr
_refine_ls_matrix_type           full
_refine_ls_number_parameters     95
_refine_ls_number_reflns         1562
_refine_ls_number_restraints     6
_refine_ls_restrained_S_all      0.853
_refine_ls_R_factor_all          0.1518
_refine_ls_R_factor_gt           0.0918
_refine_ls_shift/su_max          0.000
_refine_ls_shift/su_mean         0.000
_refine_ls_structure_factor_coef Fsqd
_refine_ls_weighting_details
;
 w=1/[\s^2^(Fo^2^)+(0.1646P)^2^]
 where P=(Fo^2^+2Fc^2^)/3
;
_refine_ls_weighting_scheme      calc
_refine_ls_wR_factor_gt          0.2457
_refine_ls_wR_factor_ref         0.2693
_reflns_Friedel_coverage         0.000
_reflns_number_gt                737
_reflns_number_total             1562
_reflns_threshold_expression     'I > 2\s(I)'
_cod_data_source_file            c3ce42556h2.cif
_cod_data_source_block           platon
_cod_depositor_comments
;
The following automatic conversions were performed:

'_space_group_crystal_system' value 'Orthorhombic' changed to
'orthorhombic' according to
/usr/data/users/saulius/crontab/automatic-downloads/current/RSC/lib/dictionaries/cif_core.dic
dictionary named 'cif_core.dic' version 2.4.2 from 2011-04-26.

Automatic conversion script
Id: cif_fix_values 2281 2013-09-26 08:29:07Z andrius 
;
_cod_original_cell_volume        1309.2(8)
_cod_database_code               7214257
#BEGIN Tags that were not found in dictionaries:
_shelx_space_group_comment
;
The symmetry employed for this shelxl refinement is uniquely defined
by the following loop, which should always be used as a source of
symmetry information in preference to the above space-group names.
They are only intended as comments.
;
_shelxl_version_number           2013-2
_shelx_res_file
;
TITL Pbam in Pbam
CELL 0.71073  14.8567  23.6151   3.7317  90.000  90.000  90.000
ZERR    2.00   0.0053   0.0085   0.0013   0.000   0.000   0.000
LATT 1
SYMM -X, -Y, Z
SYMM 0.5-X, 0.5+Y, -Z
SYMM 0.5+X, 0.5-Y, -Z
SFAC C  H  N  Cl Cd
UNIT 20  16  20  14  8
L.S. 30
ACTA
BOND
FMAP 2
PLAN 20
TEMP 23.000
ISOR 0.05 C1
WGHT    0.164600
FVAR       1.30286
MOLE 1
CD1   5    0.772286    0.260316    0.500000    10.50000    0.04475    0.04660 =
         0.02142    0.00000    0.00000    0.01976
CL3   4    0.701105    0.196307    0.000000    10.50000    0.06099    0.05951 =
         0.02075    0.00000    0.00000    0.01035
CL4   4    0.846145    0.324941    0.000000    10.50000    0.05483    0.05465 =
         0.02273    0.00000    0.00000    0.00693
MOLE 2
CD2   5    0.610628    0.508270    0.500000    10.50000    0.03785    0.05302 =
         0.08695    0.00000    0.00000   -0.00454
CL99  4    0.731006    0.517662    1.000000    10.50000    0.06346    0.16399 =
         0.09019    0.00000    0.00000   -0.01723
N21   3    0.938819    0.101545    0.500000    10.50000    0.05530    0.05871 =
         0.03329    0.00000    0.00000    0.02294
N23   3    0.900388    0.199557    0.500000    10.50000    0.05236    0.12260 =
         0.01702    0.00000    0.00000    0.03391
C2    1    0.522503    0.378443    0.500000    10.50000    0.08565    0.00758 =
         0.02846    0.00000    0.00000    0.00524
C1    1    1.065757    0.173323    0.500000    10.50000    0.10109    0.00516 =
         0.03597    0.00000    0.00000   -0.00594
N24   3    0.649575    0.324341    0.500000    10.50000    0.01740    0.07576 =
         0.03360    0.00000    0.00000   -0.00675
C3    1    0.877126    0.145156    0.500000    10.50000    0.08370    0.06254 =
         0.04015    0.00000    0.00000    0.05288
AFIX  43
H3    2    0.816208    0.136093    0.500000    10.50000   -1.20000
AFIX   0
N20   3    1.019060    0.275246    0.500000    10.50000    0.06653    0.03094 =
         0.08439    0.00000    0.00000   -0.03725
AFIX  93
H20A  2    1.073808    0.287074    0.500000    10.50000   -1.20000
H20B  2    0.975404    0.299161    0.500000    10.50000   -1.20000
AFIX   0
C4    1    1.001076    0.217297    0.500000    10.50000    0.04070    0.01740 =
         0.01211    0.00000    0.00000    0.01052
N50   3    0.596373    0.413218    0.500000    10.50000    0.05908    0.03141 =
         0.04400    0.00000    0.00000    0.01867
C20   1    0.673677    0.377678    0.500000    10.50000    0.06466    0.06327 =
         0.02437    0.00000    0.00000   -0.00812
AFIX  43
H20   2    0.732870    0.390490    0.500000    10.50000   -1.20000
AFIX   0
CL98  4    0.500000    0.500000    0.000000    10.25000    0.10525    0.36326 =
         0.13317    0.00000    0.00000   -0.00558
HKLF 4

REM  Pbam in Pbam
REM R1 =  0.0918 for     737 Fo > 4sig(Fo)  and  0.1518 for all    1562 data
REM     95 parameters refined using      6 restraints

END

WGHT      0.1312      0.0000

REM Highest difference peak  1.767,  deepest hole -1.960,  1-sigma level  0.384
Q1    1   1.0411  0.3136  0.0000  10.50000  0.05    1.77
Q2    1   0.9724  0.1735  0.5000  10.50000  0.05    1.68
Q3    1   0.9390  0.2901  0.0000  10.50000  0.05    1.51
Q4    1   0.7005  0.2929  0.5000  10.50000  0.05    1.48
Q5    1   0.7590  0.2966  0.5000  10.50000  0.05    1.30
Q6    1   0.6335  0.2696  0.5000  10.50000  0.05    1.25
Q7    1   0.7175  0.2519  0.5000  10.50000  0.05    1.23
Q8    1   0.7985  0.5563  1.0000  10.50000  0.05    1.20
Q9    1   0.8577  0.2858  0.5000  10.50000  0.05    1.18
Q10   1   0.8292  0.2575  0.5000  10.50000  0.05    1.11
Q11   1   0.9890  0.3225  0.5000  10.50000  0.05    1.04
Q12   1   0.8782  0.3234  0.1504  11.00000  0.05    1.04
Q13   1   0.8962  0.2504  0.5000  10.50000  0.05    1.03
Q14   1   1.0489  0.2053  0.5000  10.50000  0.05    1.02
Q15   1   0.7969  0.3206  0.0000  10.50000  0.05    1.00
Q16   1   0.6728  0.2573  0.0000  10.50000  0.05    0.99
Q17   1   0.6648  0.3087  0.0000  10.50000  0.05    0.98
Q18   1   0.8440  0.0838  0.5000  10.50000  0.05    0.95
Q19   1   0.9041  0.3178  0.3152  11.00000  0.05    0.94
Q20   1   0.9155  0.3400  0.0000  10.50000  0.05    0.91
;
_shelx_res_checksum              73299
_shelx_hkl_file
;
   0  -2   0   52105     232                                                       41358   18.24    0.00  1.0000
   0  -4   0  173422    2370                                                      168205   -4.62    0.00  1.0000
   0  -6   0   28291    1201                                                       26667   -3.59    0.00  1.0000
   0  -8   0   57688    2063                                                       58520    1.26    0.00  1.0000
   0 -10   0   17144    1409                                                       17109   -0.10    0.00  1.0000
   0 -12   0   47968    2369                                                       47953   -0.03    0.00  1.0000
   0 -14   0    1599     845                                                        1673   -0.67    0.00  1.0000
   0 -16   0   22963    2002                                                       22474   -1.19    0.00  1.0000
   0 -18   0     893     945                                                         938    0.54    0.00  1.0000
   0 -20   0    2587    1332                                                        2677    0.64   -0.01  1.0000
   0 -22   0     702    1060                                                         727    0.34   -0.01  1.0000
   0 -24   0     355    1354                                                         325   -0.60    0.00  1.0000
   0 -26   0       1    1482                                                          21   -4.18    0.00  1.0000
   0 -28   0     705    2049                                                        1045   -4.23    0.00  1.0000
  -1  -1   0   59383     108                                                       43905  -25.02    0.00  1.0000
  -1   1   0   55003     105                                                       40151  -25.02    0.00  1.0000
  -1   1   0  181066     678                                                      153169  -25.02    0.00  1.0000
  -1  -2   0    2102     212                                                        1691    3.46    0.00  1.0000
  -1   2   0    2353     220                                                        1917   -3.46    0.00  1.0000
   1  -2   0    2370     213                                                        1932   -3.46    0.00  1.0000
   1   2   0    2324     145                                                        1891    3.46    0.00  1.0000
  -1   3   0   32999     772                                                       31514   -3.03    0.00  1.0000
   1  -3   0   32957     763                                                       31473   -3.03    0.00  1.0000
   1   3   0   34573     636                                                       33052   -3.03    0.00  1.0000
   1  -4   0    9030     769                                                        9248   -0.83    0.00  1.0000
  -1  -5   0    2521     683                                                        3201    4.66    0.00  1.0000
   1  -5   0    2706     762                                                        3409    4.66    0.00  1.0000
  -1  -6   0    4590     613                                                        4352   -1.31    0.00  1.0000
   1  -6   0    3692     603                                                        3479    1.31    0.00  1.0000
  -1  -7   0   32043    1421                                                       31761   -0.58    0.00  1.0000
   1  -7   0   32932    1566                                                       32646   -0.58    0.00  1.0000
  -1  -8   0   14838    1127                                                       14903    0.19    0.00  1.0000
   1  -8   0   14523    1211                                                       14587   -0.19    0.00  1.0000
  -1  -9   0   26384    1540                                                       26189   -0.44    0.00  1.0000
   1  -9   0   23256    1561                                                       23073   -0.44    0.00  1.0000
  -1 -10   0     596     511                                                         634    0.55    0.00  1.0000
   1 -10   0    1085     651                                                        1135   -0.55    0.00  1.0000
  -1 -11   0   15506    1417                                                       15622    0.34    0.00  1.0000
   1 -11   0   13001    1386                                                       13107    0.34    0.00  1.0000
  -1 -12   0   28570    1871                                                       28461   -0.24    0.00  1.0000
   1 -12   0   27713    1924                                                       27606    0.24    0.00  1.0000
  -1 -13   0    2571     827                                                        2546   -0.18    0.00  1.0000
   1 -13   0    3653     943                                                        3623   -0.18    0.00  1.0000
  -1 -14   0    5267    1300                                                        5248    0.10    0.00  1.0000
   1 -14   0    5955    1292                                                        5935   -0.10    0.00  1.0000
  -1 -15   0    6714    1445                                                        6953    1.06    0.00  1.0000
   1 -15   0    7533    1501                                                        7786    1.06    0.00  1.0000
  -1 -16   0   40525    2539                                                       40673    0.27    0.00  1.0000
   1 -16   0   35670    2467                                                       35809   -0.27    0.00  1.0000
  -1 -17   0     812     945                                                         825    0.17    0.00  1.0000
   1 -17   0     431     750                                                         441    0.17    0.00  1.0000
  -1 -18   0    4966    1386                                                        5035   -0.36    0.00  1.0000
   1 -18   0    3620    1256                                                        3679    0.36    0.00  1.0000
  -1 -19   0    4245    1205                                                        4103   -0.81    0.00  1.0000
   1 -19   0    2167    1027                                                        2066   -0.81    0.00  1.0000
  -1 -20   0    8804    1715                                                        8603   -0.79    0.00  1.0000
   1 -20   0    9687    1775                                                        9476    0.79    0.00  1.0000
  -1 -21   0     562    1040                                                         565    0.05    0.00  1.0000
   1 -21   0     638    1041                                                         641    0.05    0.01  1.0000
  -1 -22   0     279    1075                                                         266   -0.28    0.00  1.0000
   1 -22   0     218    1030                                                         207    0.28    0.00  1.0000
  -1 -23   0     365    1124                                                         360   -0.10    0.00  1.0000
   1 -23   0     611    1172                                                         604   -0.10    0.00  1.0000
  -1 -24   0    2797    1591                                                        2902    0.72    0.00  1.0000
   1 -24   0    2992    1620                                                        3101   -0.72    0.00  1.0000
  -1 -25   0      12    1338                                                          31    1.55    0.00  1.0000
   1 -25   0     150    1301                                                         206    1.55    0.00  1.0000
  -1 -26   0     334    1472                                                         316    0.37    0.00  1.0000
   1 -26   0       0    1529                                                           0   -0.37    0.00  1.0000
  -1 -27   0       2    1648                                                          14    3.74    0.00  1.0000
   1 -27   0     492    1727                                                         745    3.74    0.00  1.0000
  -1 -28   0    2682    2094                                                        2571   -0.80    0.00  1.0000
   1 -28   0    1722    1945                                                        1633    0.80    0.00  1.0000
  -1 -29   0     153    1894                                                         107    1.49    0.00  1.0000
   1 -29   0     120    1913                                                          80    1.49    0.00  1.0000
  -2   0   0   67909     732                                                       58350   13.94    0.00  1.0000
  -2   0   0   16120     108                                                       11649   13.94    0.00  1.0000
   2   0   0   66132     549                                                       56704   13.94    0.00  1.0000
  -2  -1   0    7203     459                                                        6549   -2.89    0.00  1.0000
  -2   1   0    6948     480                                                        6306    2.89    0.00  1.0000
  -2   1   0    7636     463                                                        6963    2.89    0.00  1.0000
   2  -1   0    7369     426                                                        6708    2.89    0.00  1.0000
   2   1   0    6081     272                                                        5482   -2.89    0.00  1.0000
  -2  -2   0   28081    1221                                                       30800    5.81    0.00  1.0000
  -2   2   0   30653    1317                                                       33491    5.81    0.00  1.0000
  -2   2   0   25637    1119                                                       28238    5.81    0.00  1.0000
   2  -2   0   21232    1112                                                       23605    5.81    0.00  1.0000
   2   2   0   24067     712                                                       26589    5.81    0.00  1.0000
  -2  -3   0     702     465                                                         905   -2.63    0.00  1.0000
  -2   3   0     238     411                                                         362    2.63    0.00  1.0000
  -2   3   0     357     379                                                         505    2.63    0.00  1.0000
   2  -3   0     184     331                                                         294    2.63    0.00  1.0000
   2   3   0     482     347                                                         653   -2.63    0.00  1.0000
  -2  -4   0   29570    1338                                                       30552   -2.07    0.00  1.0000
  -2   4   0   31310    1385                                                       32320   -2.07    0.00  1.0000
   2  -4   0   32508    1402                                                       33537   -2.07    0.00  1.0000
   2   4   0   34848    1055                                                       35913   -2.07    0.00  1.0000
  -2   5   0    2923     761                                                        3159   -1.57    0.00  1.0000
   2  -5   0    3414     746                                                        3669   -1.57    0.00  1.0000
   2   5   0    3957     583                                                        4231    1.57    0.00  1.0000
   2  -6   0   12373    1040                                                       12586    0.70    0.00  1.0000
  -2  -7   0    1949     686                                                        1985    0.30    0.00  1.0000
   2  -7   0    2609     860                                                        2651   -0.30    0.00  1.0000
  -2  -8   0    9394     947                                                        9167    0.86    0.00  1.0000
   2  -8   0    7883    1111                                                        7675    0.86    0.00  1.0000
  -2  -9   0   22255    1342                                                       21642   -1.52    0.00  1.0000
   2  -9   0   20980    1531                                                       20385    1.52    0.00  1.0000
  -2 -10   0   19267    1334                                                       18906   -0.96    0.00  1.0000
   2 -10   0   18333    1484                                                       17981   -0.96    0.00  1.0000
  -2 -11   0    1673     683                                                        1663   -0.09    0.00  1.0000
   2 -11   0    1183     679                                                        1175    0.09    0.00  1.0000
  -2 -12   0    5613    1012                                                        5488    0.61    0.00  1.0000
   2 -12   0    6366    1182                                                        6233    0.61    0.00  1.0000
  -2 -13   0   13456    1458                                                       13437   -0.06    0.00  1.0000
   2 -13   0   11006    1485                                                       10989    0.06    0.00  1.0000
  -2 -14   0   10625    1464                                                       10654    0.10    0.00  1.0000
   2 -14   0   10827    1592                                                       10856    0.10    0.00  1.0000
  -2 -15   0    5550    1320                                                        5372   -0.88    0.00  1.0000
   2 -15   0    4328    1212                                                        4171    0.88    0.00  1.0000
  -2 -16   0    5404    1492                                                        5520   -0.58    0.00  1.0000
   2 -16   0    4742    1355                                                        4851   -0.58    0.00  1.0000
  -2 -17   0    3007    1253                                                        2972   -0.23    0.00  1.0000
   2 -17   0    2914    1152                                                        2880    0.23    0.00  1.0000
  -2 -18   0    6760    1716                                                        6919    0.70    0.00  1.0000
   2 -18   0    6764    1525                                                        6923    0.70    0.00  1.0000
  -2 -19   0    5407    1462                                                        5514    0.53    0.00  1.0000
   2 -19   0    4555    1413                                                        4653   -0.53    0.00  1.0000
  -2 -20   0     668     986                                                         692   -0.34    0.00  1.0000
   2 -20   0    1580    1101                                                        1617   -0.34    0.00  1.0000
  -2 -21   0    2222    1305                                                        2303    0.62    0.00  1.0000
   2 -21   0    4096    1621                                                        4205   -0.62    0.00  1.0000
  -2 -22   0    1010    1143                                                         946   -0.75    0.00  1.0000
   2 -22   0    1381    1104                                                        1306   -0.75    0.00  1.0000
  -2 -23   0    2916    1557                                                        2862   -0.37    0.00  1.0000
   2 -23   0    3197    1590                                                        3141    0.37    0.00  1.0000
  -2 -24   0     195    1343                                                         222    0.68    0.00  1.0000
   2 -24   0      21    1241                                                          30    0.68    0.00  1.0000
  -2 -25   0     201    1370                                                         166   -0.94    0.00  1.0000
   2 -25   0    1115    1545                                                        1031    0.94    0.00  1.0000
  -2 -26   0     265    1577                                                         277   -0.26    0.00  1.0000
   2 -26   0     508    1623                                                         524   -0.26    0.00  1.0000
   2 -27   0     836    1744                                                         903   -0.84    0.00  1.0000
   2 -28   0     479    1838                                                         435   -0.75    0.00  1.0000
   2 -29   0     161    1953                                                         215   -1.46    0.00  1.0000
  -3  -1   0    5439     680                                                        5615   -0.87    0.00  1.0000
  -3   1   0    5535     699                                                        5713   -0.87    0.00  1.0000
  -3   1   0    5077     620                                                        5247   -0.87    0.00  1.0000
   3  -1   0    5838     624                                                        6020   -0.87    0.00  1.0000
   3   1   0    4520     431                                                        4681   -0.87    0.00  1.0000
  -3  -2   0      55     314                                                          22    1.97    0.00  1.0000
  -3   2   0      71     340                                                          33   -1.97    0.00  1.0000
  -3   2   0      17     328                                                           2   -1.97    0.00  1.0000
   3  -2   0      81     266                                                          40   -1.97    0.00  1.0000
   3   2   0      45     163                                                          16    1.97    0.00  1.0000
  -3  -3   0   40629    1259                                                       39680    1.74    0.00  1.0000
  -3   3   0   45020    1364                                                       44020    1.74    0.00  1.0000
  -3   3   0   40778    1192                                                       39827    1.74    0.00  1.0000
   3  -3   0   43285    1265                                                       42305    1.74    0.00  1.0000
   3   3   0   37339     716                                                       36429    1.74    0.00  1.0000
  -3  -4   0       3     341                                                           0   -1.23    0.00  1.0000
  -3   4   0       3     367                                                           0    1.23    0.00  1.0000
  -3   4   0      10     312                                                           2    1.23    0.00  1.0000
   3  -4   0      31     153                                                          15    1.23    0.00  1.0000
   3   4   0     136     175                                                         100   -1.23    0.00  1.0000
  -3  -5   0     375     458                                                         349   -0.50    0.00  1.0000
  -3   5   0     170     451                                                         153   -0.50    0.00  1.0000
  -3   5   0     356     390                                                         331   -0.50    0.00  1.0000
   3  -5   0     396     423                                                         369   -0.50    0.00  1.0000
   3   5   0     346     271                                                         321   -0.50    0.00  1.0000
  -3  -6   0    2609     603                                                        2473   -0.99    0.00  1.0000
  -3   6   0    3153     645                                                        3004    0.99    0.00  1.0000
   3  -6   0    3340     624                                                        3186    0.99    0.00  1.0000
   3   6   0    3505     551                                                        3347   -0.99    0.00  1.0000
  -3  -7   0   15720    1400                                                       16093   -1.08    0.00  1.0000
  -3   7   0   15237    1368                                                       15604   -1.08    0.00  1.0000
   3  -7   0   16969    1451                                                       17356   -1.08    0.00  1.0000
   3   7   0   16478    1065                                                       16860   -1.08    0.00  1.0000
  -3  -8   0    4034     774                                                        3709    1.91    0.00  1.0000
   3  -8   0    4076     881                                                        3749   -1.91    0.00  1.0000
  -3  -9   0    4475     773                                                        4182    1.63    0.00  1.0000
   3  -9   0    3503     837                                                        3245    1.63    0.00  1.0000
  -3 -10   0   27836    1541                                                       28160    0.71    0.00  1.0000
   3 -10   0   25222    1728                                                       25531   -0.71    0.00  1.0000
  -3 -11   0    2285     729                                                        2271    0.11    0.00  1.0000
   3 -11   0    3281     970                                                        3264    0.11    0.00  1.0000
  -3 -12   0    4712    1053                                                        4705    0.04    0.00  1.0000
   3 -12   0    3137    1006                                                        3131   -0.04    0.00  1.0000
  -3 -13   0    3380    1208                                                        3587   -1.29    0.00  1.0000
   3 -13   0    2939    1143                                                        3133   -1.29    0.00  1.0000
  -3 -14   0   19333    1761                                                       19927    1.55    0.00  1.0000
   3 -14   0   18674    1966                                                       19258   -1.55    0.00  1.0000
  -3 -15   0    5613    1219                                                        5547    0.32    0.00  1.0000
   3 -15   0    4091    1174                                                        4035    0.32    0.00  1.0000
  -3 -16   0     599     818                                                         528    1.09    0.00  1.0000
   3 -16   0     737     756                                                         658   -1.09    0.00  1.0000
  -3 -17   0    1108    1037                                                        1094   -0.15    0.00  1.0000
   3 -17   0     759     820                                                         748   -0.15    0.00  1.0000
  -3 -18   0   11636    1811                                                       11735    0.34    0.00  1.0000
   3 -18   0   10614    1710                                                       10709   -0.34    0.00  1.0000
  -3 -19   0    2667    1254                                                        2659    0.06    0.00  1.0000
   3 -19   0    1213    1057                                                        1207    0.06    0.00  1.0000
  -3 -20   0      20     877                                                          18    0.17    0.00  1.0000
   3 -20   0     213     914                                                         206   -0.17    0.00  1.0000
  -3 -21   0     571    1127                                                         682    1.62    0.00  1.0000
   3 -21   0     393    1121                                                         485    1.62    0.00  1.0000
  -3 -22   0   11917    1978                                                       11829   -0.29    0.00  1.0000
   3 -22   0   13839    2129                                                       13745    0.29    0.00  1.0000
  -3 -23   0      21    1076                                                          28   -0.53    0.00  1.0000
   3 -23   0    1277    1310                                                        1329   -0.53    0.00  1.0000
  -3 -24   0     484    1403                                                         460    0.40    0.00  1.0000
   3 -24   0     492    1360                                                         468   -0.40    0.00  1.0000
   3 -25   0     148    1333                                                          71   -2.75    0.00  1.0000
   3 -26   0    4049    1948                                                        4063   -0.08    0.00  1.0000
   3 -27   0     553    1700                                                         659   -1.57    0.00  1.0000
   3 -28   0     614    1816                                                         735    1.70    0.00  1.0000
   3 -29   0     194    1827                                                         179   -0.40    0.00  1.0000
  -4   0   0     892     520                                                         774   -1.50    0.00  1.0000
  -4   0   0     169     198                                                         120   -1.50    0.00  1.0000
   4   0   0     753     363                                                         645   -1.50    0.00  1.0000
  -4  -1   0    6065     878                                                        6218   -0.72    0.00  1.0000
  -4  -1   0    6287     864                                                        6443   -0.72    0.00  1.0000
  -4   1   0    6034     922                                                        6187    0.72    0.00  1.0000
  -4   1   0    6415     835                                                        6573    0.72    0.00  1.0000
   4  -1   0    6848     759                                                        7011    0.72    0.00  1.0000
   4   1   0    6979     609                                                        7143   -0.72    0.00  1.0000
  -4  -2   0   62069    1968                                                       63489   -2.08    0.00  1.0000
  -4   2   0   63686    2068                                                       65124   -2.08    0.00  1.0000
  -4   2   0   60090    1972                                                       61487   -2.08    0.00  1.0000
   4  -2   0   62846    1868                                                       64275   -2.08    0.00  1.0000
   4   2   0   53497    1172                                                       54816   -2.08    0.00  1.0000
  -4  -3   0    8330     920                                                        8498    0.67    0.00  1.0000
  -4   3   0    7904     940                                                        8067   -0.67    0.00  1.0000
  -4   3   0    7703     848                                                        7864   -0.67    0.00  1.0000
   4  -3   0    9665     877                                                        9845   -0.67    0.00  1.0000
   4   3   0    6296     469                                                        6442    0.67    0.00  1.0000
  -4  -4   0   15153     997                                                       14825   -0.98    0.00  1.0000
  -4   4   0   16153    1095                                                       15814   -0.98    0.00  1.0000
  -4   4   0   15570     959                                                       15237   -0.98    0.00  1.0000
   4  -4   0   17045    1018                                                       16697   -0.98    0.00  1.0000
   4   4   0   13906     561                                                       13592   -0.98    0.00  1.0000
  -4  -5   0    7293     900                                                        6926    1.60    0.00  1.0000
  -4   5   0    7347     907                                                        6978   -1.60    0.00  1.0000
  -4   5   0    5957     782                                                        5625   -1.60    0.00  1.0000
   4  -5   0     433     186                                                         347   -1.60    0.00  1.0000
   4   5   0    8024     561                                                        7638    1.60    0.00  1.0000
  -4  -6   0   92939    2466                                                       92860    0.09    0.00  1.0000
  -4   6   0   94759    2547                                                       94679    0.09    0.00  1.0000
  -4   6   0   91433    2220                                                       91355    0.09    0.00  1.0000
   4  -6   0   95571    2551                                                       95491    0.09    0.00  1.0000
   4   6   0  103852    1740                                                      103769    0.09    0.00  1.0000
  -4  -7   0    7761    1013                                                        7493   -1.12    0.00  1.0000
  -4   7   0    9673    1179                                                        9374    1.12    0.00  1.0000
   4  -7   0    9381    1060                                                        9086    1.12    0.00  1.0000
   4   7   0    8338     720                                                        8060   -1.12    0.00  1.0000
  -4  -8   0    4381    1073                                                        4000   -2.16    0.00  1.0000
  -4   8   0    3914     995                                                        3554   -2.16    0.00  1.0000
   4  -8   0    4764     989                                                        4366   -2.16    0.00  1.0000
   4   8   0    4905     764                                                        4501   -2.16    0.00  1.0000
  -4  -9   0    6906     949                                                        7093   -0.82    0.00  1.0000
  -4  -9   0    6978    1207                                                        7166   -0.82    0.00  1.0000
  -4   9   0    7027    1174                                                        7216    0.82    0.00  1.0000
   4  -9   0    6673    1079                                                        6857    0.82    0.00  1.0000
  -4 -10   0   35256    1643                                                       36151   -1.74    0.00  1.0000
  -4 -10   0   31609    1994                                                       32457   -1.74    0.00  1.0000
   4 -10   0   31802    2032                                                       32652   -1.74    0.00  1.0000
  -4 -11   0   13883    1338                                                       14012    0.40    0.00  1.0000
  -4 -11   0   13886    1694                                                       14015    0.40    0.00  1.0000
   4 -11   0   12181    1522                                                       12302   -0.40    0.00  1.0000
  -4 -12   0    6271     990                                                        6023    1.16    0.00  1.0000
  -4 -12   0    6829    1248                                                        6570    1.16    0.00  1.0000
   4 -12   0    4618     977                                                        4406    1.16    0.00  1.0000
  -4 -13   0    2584     915                                                        2828   -1.72    0.00  1.0000
  -4 -13   0    2408    1064                                                        2644   -1.72    0.00  1.0000
   4 -13   0    3026    1082                                                        3289    1.72    0.00  1.0000
  -4 -14   0   12758    1468                                                       12624    0.44    0.00  1.0000
   4 -14   0   12391    1620                                                       12258    0.44    0.00  1.0000
  -4 -15   0    2421     907                                                        2189   -1.77    0.00  1.0000
   4 -15   0    1348     810                                                        1176    1.77    0.00  1.0000
  -4 -16   0     290     831                                                         310   -0.43    0.00  1.0000
   4 -16   0     121     723                                                         134   -0.43    0.00  1.0000
  -4 -17   0     369     940                                                         347   -0.43    0.00  1.0000
   4 -17   0     761     918                                                         729    0.43    0.00  1.0000
  -4 -18   0    3715    1293                                                        3691    0.14    0.00  1.0000
   4 -18   0    4005    1388                                                        3980    0.14    0.00  1.0000
  -4 -19   0     779    1133                                                         863   -1.07    0.00  1.0000
   4 -19   0      73     806                                                         100    1.07    0.00  1.0000
  -4 -20   0       0     942                                                           2   -1.18    0.00  1.0000
   4 -20   0       0     948                                                           4   -1.18    0.00  1.0000
  -4 -21   0    5530    1542                                                        5510   -0.10    0.00  1.0000
   4 -21   0    3393    1469                                                        3378    0.10    0.00  1.0000
   4 -22   0     904    1321                                                         955   -0.62    0.00  1.0000
   4 -23   0       2    1189                                                           8   -1.03    0.00  1.0000
   4 -24   0      56    1183                                                          14    2.76    0.00  1.0000
   4 -25   0     160    1417                                                         151    0.26    0.00  1.0000
  -4 -26   0    1020    1767                                                        1323    3.25    0.00  1.0000
   4 -26   0     104    1477                                                         214    3.25    0.00  1.0000
  -4 -27   0       9    1909                                                           9    0.05    0.00  1.0000
   4 -27   0     448    1840                                                         451   -0.05    0.00  1.0000
  -4 -28   0     723    2170                                                         655    0.95    0.00  1.0000
   4 -28   0     695    2032                                                         628    0.95    0.00  1.0000
  -5  -1   0   26969    1434                                                       27360   -0.87    0.00  1.0000
  -5  -1   0   26529    1462                                                       26917   -0.87    0.00  1.0000
  -5   1   0   23901    1412                                                       24269   -0.87    0.00  1.0000
  -5   1   0   25460    1408                                                       25840   -0.87    0.00  1.0000
   5  -1   0   26612    1181                                                       27000   -0.87    0.00  1.0000
   5   1   0   25850     999                                                       26233   -0.87    0.00  1.0000
  -5  -2   0    3180     856                                                        3281    0.65    0.00  1.0000
  -5   2   0    3386     976                                                        3490   -0.65    0.00  1.0000
  -5   2   0    3292     838                                                        3395   -0.65    0.00  1.0000
   5  -2   0    3099     729                                                        3199   -0.65    0.00  1.0000
   5   2   0    2007     486                                                        2087    0.65    0.00  1.0000
  -5  -3   0     903     441                                                         862    0.51    0.00  1.0000
  -5   3   0     685     458                                                         649    0.51    0.00  1.0000
  -5   3   0     659     402                                                         624    0.51    0.00  1.0000
   5  -3   0     519     318                                                         488    0.51    0.00  1.0000
   5   3   0     369     206                                                         343    0.51    0.00  1.0000
  -5  -4   0      46     471                                                          66   -1.00    0.00  1.0000
  -5   4   0     594     554                                                         663    1.00    0.00  1.0000
  -5   4   0     452     485                                                         512    1.00    0.00  1.0000
   5  -4   0     883     509                                                         966    1.00    0.00  1.0000
   5   4   0     528     292                                                         593   -1.00    0.00  1.0000
  -5  -5   0   43879    1953                                                       43337    0.95    0.00  1.0000
  -5   5   0   50056    2135                                                       49477    0.95    0.00  1.0000
  -5   5   0   41900    1800                                                       41371    0.95    0.00  1.0000
   5  -5   0   46075    1948                                                       45520    0.95    0.00  1.0000
   5   5   0   42041    1099                                                       41511    0.95    0.00  1.0000
  -5  -6   0      13     437                                                          14   -0.13    0.00  1.0000
  -5   6   0      13     455                                                          14    0.13    0.00  1.0000
  -5   6   0      98     417                                                         102    0.13    0.00  1.0000
   5  -6   0       2     215                                                           2    0.13    0.00  1.0000
   5   6   0      13     213                                                          14   -0.13    0.00  1.0000
  -5  -7   0     166     664                                                         256    2.28    0.00  1.0000
  -5   7   0     129     655                                                         209    2.28    0.00  1.0000
  -5   7   0     186     585                                                         280    2.28    0.00  1.0000
   5  -7   0     159     587                                                         247    2.28    0.00  1.0000
   5   7   0     124     362                                                         203    2.28    0.00  1.0000
  -5  -8   0    2452     850                                                        2509    0.42    0.00  1.0000
  -5   8   0    3106     947                                                        3170   -0.42    0.00  1.0000
   5  -8   0    2104     770                                                        2157   -0.42    0.00  1.0000
   5   8   0    2622     648                                                        2681    0.42    0.00  1.0000
  -5  -9   0   21530    1738                                                       20400    2.86    0.00  1.0000
  -5   9   0   23338    1825                                                       22161    2.86    0.00  1.0000
   5  -9   0   19585    1594                                                       18508    2.86    0.00  1.0000
  -5 -10   0    8237    1117                                                        8505   -1.07    0.00  1.0000
  -5 -10   0    8460    1458                                                        8732   -1.07    0.00  1.0000
  -5  10   0    7828    1385                                                        8090    1.07    0.00  1.0000
   5 -10   0    7671    1304                                                        7930    1.07    0.00  1.0000
  -5 -11   0    6065    1089                                                        6001    0.30    0.00  1.0000
  -5 -11   0    6175    1389                                                        6110    0.30    0.00  1.0000
   5 -11   0    6648    1214                                                        6581    0.30    0.00  1.0000
  -5 -12   0    6186    1076                                                        6346    0.74    0.00  1.0000
  -5 -12   0    6593    1304                                                        6758    0.74    0.00  1.0000
   5 -12   0    7967    1214                                                        8148   -0.74    0.00  1.0000
  -5 -13   0   13838    1510                                                       14082   -0.76    0.00  1.0000
  -5 -13   0   13771    1807                                                       14014   -0.76    0.00  1.0000
   5 -13   0   12464    1652                                                       12695   -0.76    0.00  1.0000
  -5 -14   0    3797     941                                                        3483    1.90    0.00  1.0000
  -5 -14   0    3450    1156                                                        3151    1.90    0.00  1.0000
   5 -14   0    2306     829                                                        2063   -1.90    0.00  1.0000
  -5 -15   0     474     747                                                         452    0.38    0.00  1.0000
  -5 -15   0     486     819                                                         464    0.38    0.00  1.0000
   5 -15   0     729     672                                                         702    0.38    0.00  1.0000
  -5 -16   0       9     789                                                           6   -0.37    0.00  1.0000
  -5 -16   0     532     926                                                         509   -0.37    0.00  1.0000
   5 -16   0       9     701                                                           6    0.37    0.00  1.0000
  -5 -17   0    5335    1368                                                        5323    0.06    0.00  1.0000
  -5 -17   0    8143    1813                                                        8129    0.06    0.00  1.0000
   5 -17   0    4850    1409                                                        4839    0.06    0.00  1.0000
  -5 -18   0    2375    1253                                                        2342    0.25    0.00  1.0000
  -5 -18   0    3895    1546                                                        3853    0.25    0.00  1.0000
   5 -18   0    1983    1233                                                        1953   -0.25    0.00  1.0000
  -5 -19   0     686    1196                                                         693    0.09    0.00  1.0000
   5 -19   0     914    1034                                                         922    0.09    0.00  1.0000
  -5 -20   0     861    1279                                                         951    1.10    0.00  1.0000
   5 -20   0     460    1064                                                         527   -1.10    0.00  1.0000
  -5 -21   0   10506    2254                                                       10325    0.65    0.00  1.0000
   5 -21   0    7337    1886                                                        7186    0.65    0.00  1.0000
  -5 -22   0    4240    1915                                                        4482   -1.34    0.00  1.0000
   5 -22   0    2289    1525                                                        2468    1.34    0.00  1.0000
  -5 -23   0    3379    1997                                                        3226   -0.97    0.00  1.0000
   5 -23   0    1734    1477                                                        1625   -0.97    0.00  1.0000
  -5 -24   0       6    1505                                                           1   -1.10    0.00  1.0000
   5 -24   0    1358    1482                                                        1250    1.10    0.00  1.0000
  -5 -25   0    1848    1878                                                        2132   -2.34    0.00  1.0000
   5 -25   0    1519    1473                                                        1778   -2.34    0.00  1.0000
  -5 -26   0    2569    1984                                                        2443    0.93    0.00  1.0000
   5 -26   0    2682    1717                                                        2553   -0.93    0.00  1.0000
  -5 -27   0    1530    2045                                                        1392   -1.32    0.00  1.0000
   5 -27   0     366    1680                                                         300   -1.32    0.00  1.0000
  -5 -28   0     414    2149                                                         432    0.33    0.00  1.0000
   5 -28   0     665    1732                                                         688   -0.33    0.00  1.0000
  -6   0   0   23097    1365                                                       21620    3.62    0.00  1.0000
  -6   0   0     608     331                                                         389    3.62    0.00  1.0000
   6   0   0   25670    1038                                                       24111    3.62    0.00  1.0000
  -6  -1   0     541     517                                                         478   -1.02    0.00  1.0000
  -6  -1   0     876     501                                                         795   -1.02    0.00  1.0000
  -6   1   0     685     582                                                         614    1.02    0.00  1.0000
  -6   1   0    2336     655                                                        2203    1.02    0.00  1.0000
   6  -1   0    2021     413                                                        1898    1.02    0.00  1.0000
   6   1   0    1390     316                                                        1288   -1.02    0.00  1.0000
  -6  -2   0    4193     797                                                        3834    2.08    0.00  1.0000
  -6  -2   0    4935     917                                                        4545    2.08    0.00  1.0000
  -6   2   0    5037     873                                                        4642    2.08    0.00  1.0000
  -6   2   0    4085     818                                                        3730    2.08    0.00  1.0000
   6  -2   0    4633     732                                                        4255    2.08    0.00  1.0000
   6   2   0    3695     532                                                        3358    2.08    0.00  1.0000
  -6  -3   0    7162    1110                                                        7263   -0.44    0.00  1.0000
  -6   3   0    6235    1082                                                        6329    0.44    0.00  1.0000
  -6   3   0    6969    1091                                                        7069    0.44    0.00  1.0000
   6  -3   0    5722     870                                                        5812    0.44    0.00  1.0000
   6   3   0    5172     585                                                        5258   -0.44    0.00  1.0000
  -6  -4   0   40478    1906                                                       40567   -0.16    0.00  1.0000
  -6   4   0   39177    1917                                                       39264   -0.16    0.00  1.0000
  -6   4   0   37457    1794                                                       37542   -0.16    0.00  1.0000
   6  -4   0   39142    1746                                                       39229   -0.16    0.00  1.0000
   6   4   0   33642     977                                                       33723   -0.16    0.00  1.0000
  -6  -5   0   13268    1367                                                       13487    0.69    0.00  1.0000
  -6   5   0   14425    1462                                                       14653   -0.69    0.00  1.0000
  -6   5   0   13437    1340                                                       13657   -0.69    0.00  1.0000
   6  -5   0   13351    1237                                                       13571   -0.69    0.00  1.0000
   6   5   0   12007     729                                                       12215    0.69    0.00  1.0000
  -6  -6   0    5178    1167                                                        4897   -1.45    0.00  1.0000
  -6   6   0    6749    1274                                                        6428   -1.45    0.00  1.0000
  -6   6   0    6845    1209                                                        6522   -1.45    0.00  1.0000
   6  -6   0    7268    1116                                                        6935   -1.45    0.00  1.0000
   6   6   0    6581     665                                                        6264   -1.45    0.00  1.0000
  -6  -7   0   28677    1874                                                       28721   -0.10    0.00  1.0000
  -6   7   0   27126    1833                                                       27169    0.10    0.00  1.0000
  -6   7   0   26345    1672                                                       26388    0.10    0.00  1.0000
   6   7   0   29474    1091                                                       29519   -0.10    0.00  1.0000
  -6  -8   0   30147    1842                                                       31193   -2.19    0.00  1.0000
  -6   8   0   33899    1997                                                       35007   -2.19    0.00  1.0000
  -6   8   0   27310    1624                                                       28306   -2.19    0.00  1.0000
   6  -8   0   27929    1686                                                       28936   -2.19    0.00  1.0000
   6   8   0   30254    1127                                                       31301   -2.19    0.00  1.0000
  -6  -9   0    4391    1136                                                        4550    0.87    0.00  1.0000
  -6   9   0    4162    1143                                                        4317   -0.87    0.00  1.0000
   6  -9   0    4643    1012                                                        4806   -0.87    0.00  1.0000
   6   9   0    3202     701                                                        3338    0.87    0.00  1.0000
  -6 -10   0    1106     644                                                        1011   -1.07    0.00  1.0000
  -6 -10   0    1217     849                                                        1117   -1.07    0.00  1.0000
  -6  10   0    1476     878                                                        1366   -1.07    0.00  1.0000
   6 -10   0     608     689                                                         538   -1.07    0.00  1.0000
  -6 -11   0   12139    1122                                                       11957    0.61    0.00  1.0000
  -6 -11   0   15817    1624                                                       15610    0.61    0.00  1.0000
  -6  11   0   17618    1615                                                       17399   -0.61    0.00  1.0000
   6 -11   0   15163    1459                                                       14960   -0.61    0.00  1.0000
  -6 -12   0   11398    1198                                                       11249    0.51    0.00  1.0000
  -6 -12   0   11369    1546                                                       11220    0.51    0.00  1.0000
   6 -12   0   12041    1437                                                       11887    0.51    0.00  1.0000
  -6 -13   0     566     662                                                         488   -1.25    0.00  1.0000
  -6 -13   0       7     816                                                           1   -1.25    0.00  1.0000
   6 -13   0     527     629                                                         452    1.25    0.00  1.0000
  -6 -14   0     365     698                                                         374    0.17    0.00  1.0000
  -6 -14   0     534    1005                                                         545    0.17    0.00  1.0000
   6 -14   0     337     676                                                         346    0.17    0.00  1.0000
  -6 -15   0    2738    1287                                                        2624    0.81    0.00  1.0000
   6 -15   0    2473    1023                                                        2365   -0.81    0.00  1.0000
  -6 -16   0    2400    1293                                                        2419   -0.14    0.00  1.0000
   6 -16   0    1192    1013                                                        1205   -0.14    0.00  1.0000
  -6 -17   0    1712    1057                                                        1501    1.93    0.00  1.0000
   6 -17   0    1540     841                                                        1341   -1.93    0.00  1.0000
  -6 -18   0    1266    1284                                                        1301    0.36    0.00  1.0000
   6 -18   0    1260     960                                                        1295    0.36    0.00  1.0000
  -6 -19   0    3575    1649                                                        3677   -0.62    0.00  1.0000
   6 -19   0    2540    1257                                                        2626    0.62    0.00  1.0000
  -6 -20   0    5195    1873                                                        5167    0.14    0.00  1.0000
   6 -20   0    1841    1249                                                        1825    0.14    0.00  1.0000
  -6 -21   0    3657    1771                                                        3642    0.09    0.00  1.0000
   6 -21   0    1493    1292                                                        1483   -0.09    0.00  1.0000
  -6 -22   0    1397    1558                                                        1398    0.01    0.00  1.0000
   6 -22   0    1330    1247                                                        1331    0.01    0.00  1.0000
  -6 -23   0    1169    1660                                                        1007    1.80    0.00  1.0000
   6 -23   0    1475    1458                                                        1292   -1.80    0.00  1.0000
  -6 -24   0     864    1764                                                         835    0.37    0.00  1.0000
   6 -24   0     879    1479                                                         850    0.37    0.00  1.0000
  -6 -25   0    1918    2006                                                        1897    0.18    0.00  1.0000
   6 -25   0    1648    1643                                                        1628   -0.18    0.00  1.0000
  -6 -26   0     921    1882                                                         955    0.41    0.00  1.0000
   6 -26   0      42    1500                                                          49    0.41    0.00  1.0000
  -6 -27   0     174    2077                                                         191   -0.46    0.00  1.0000
   6 -27   0     334    1746                                                         357    0.46    0.00  1.0000
  -7  -1   0      32     531                                                           3   -2.88    0.00  1.0000
  -7  -1   0      32     470                                                           3   -2.88    0.00  1.0000
  -7   1   0      32     485                                                           3   -2.88    0.00  1.0000
  -7   1   0     432     524                                                         284   -2.88    0.00  1.0000
   7  -1   0      32     296                                                           3   -2.88    0.00  1.0000
   7   1   0      32     241                                                           3   -2.88    0.00  1.0000
  -7  -2   0    1478     630                                                        1388    0.87    0.00  1.0000
  -7  -2   0    1381     605                                                        1294    0.87    0.00  1.0000
  -7   2   0     957     562                                                         885   -0.87    0.00  1.0000
  -7   2   0    1431     626                                                        1342   -0.87    0.00  1.0000
   7  -2   0    2019     462                                                        1913   -0.87    0.00  1.0000
   7   2   0     751     283                                                         687    0.87    0.00  1.0000
  -7  -3   0     461     598                                                         530   -1.14    0.00  1.0000
  -7  -3   0     476     635                                                         546   -1.14    0.00  1.0000
  -7   3   0     475     592                                                         545   -1.14    0.00  1.0000
  -7   3   0     556     590                                                         632   -1.14    0.00  1.0000
   7  -3   0     439     414                                                         507   -1.14    0.00  1.0000
   7   3   0     230     259                                                         280   -1.14    0.00  1.0000
  -7  -4   0     135     583                                                         160   -0.76    0.00  1.0000
  -7   4   0     573     653                                                         623    0.76    0.00  1.0000
  -7   4   0     442     595                                                         486    0.76    0.00  1.0000
   7  -4   0     652     502                                                         706    0.76    0.00  1.0000
   7   4   0     490     279                                                         537   -0.76    0.00  1.0000
  -7  -5   0    7620    1155                                                        7686    0.28    0.00  1.0000
  -7   5   0    6945    1166                                                        7008    0.28    0.00  1.0000
  -7   5   0    6638    1106                                                        6700    0.28    0.00  1.0000
   7  -5   0    5874     939                                                        5932    0.28    0.00  1.0000
   7   5   0    5526     550                                                        5582    0.28    0.00  1.0000
  -7  -6   0     261     611                                                         279   -0.40    0.00  1.0000
  -7   6   0     272     627                                                         290    0.40    0.00  1.0000
  -7   6   0     285     598                                                         304    0.40    0.00  1.0000
   7  -6   0     193     463                                                         209    0.40    0.00  1.0000
   7   6   0     320     263                                                         340   -0.40    0.00  1.0000
  -7  -7   0    3208    1159                                                        3109    0.64    0.00  1.0000
  -7   7   0    3485    1183                                                        3382    0.64    0.00  1.0000
  -7   7   0    3123    1179                                                        3025    0.64    0.00  1.0000
   7  -7   0    3826    1049                                                        3718    0.64    0.00  1.0000
   7   7   0    3068     615                                                        2971    0.64    0.00  1.0000
  -7  -8   0   12348    1484                                                       12334    0.04    0.00  1.0000
  -7   8   0   16952    1668                                                       16936   -0.04    0.00  1.0000
  -7   8   0   12897    1463                                                       12883   -0.04    0.00  1.0000
   7  -8   0   10576    1175                                                       10563   -0.04    0.00  1.0000
   7   8   0   12311     826                                                       12297    0.04    0.00  1.0000
  -7  -9   0   13413    1589                                                       13403   -0.03    0.00  1.0000
  -7   9   0   14698    1568                                                       14687   -0.03    0.00  1.0000
  -7   9   0   10926    1372                                                       10917   -0.03    0.00  1.0000
   7  -9   0    7152    1093                                                        7145   -0.03    0.00  1.0000
  -7 -10   0    1437    1002                                                        1537   -0.95    0.00  1.0000
  -7  10   0    1930    1090                                                        2045    0.95    0.00  1.0000
   7 -10   0    2138     989                                                        2259    0.95    0.00  1.0000
  -7 -11   0    4188    1470                                                        4377   -1.06    0.00  1.0000
  -7  11   0    5244    1513                                                        5455   -1.06    0.00  1.0000
   7 -11   0    4111    1187                                                        4298   -1.06    0.00  1.0000
  -7 -12   0   10192    1775                                                       10132    0.22    0.00  1.0000
  -7  12   0    7856    1687                                                        7804   -0.22    0.00  1.0000
   7 -12   0    9411    1455                                                        9354   -0.22    0.00  1.0000
  -7 -13   0    6481    1460                                                        6280   -0.92    0.00  1.0000
   7 -13   0    5709    1135                                                        5521   -0.92    0.00  1.0000
  -7 -14   0    1701    1024                                                        1710   -0.08    0.00  1.0000
   7 -14   0     834     618                                                         840    0.08    0.00  1.0000
  -7 -15   0     106     931                                                         112   -0.22    0.00  1.0000
   7 -15   0       8    1522                                                          10   -0.22    0.00  1.0000
  -7 -16   0    6627    1877                                                        7204   -2.54    0.00  1.0000
   7 -16   0    5617    1440                                                        6150    2.54    0.00  1.0000
  -7 -17   0    3067    1470                                                        3015   -0.34    0.00  1.0000
   7 -17   0    2325    1135                                                        2280   -0.34    0.00  1.0000
  -7 -18   0    2541    1463                                                        2712   -1.22    0.00  1.0000
   7 -18   0     476     982                                                         551    1.22    0.00  1.0000
  -7 -19   0    2019    1477                                                        2074   -0.45    0.00  1.0000
   7 -19   0     749     947                                                         783   -0.45    0.00  1.0000
  -7 -20   0    8600    2069                                                        8493    0.43    0.00  1.0000
   7 -20   0    6028    1618                                                        5938   -0.43    0.00  1.0000
  -7 -21   0    4693    1988                                                        4711    0.09   -0.01  1.0000
   7 -21   0    5093    1792                                                        5111    0.09    0.00  1.0000
  -7 -22   0     577    1571                                                         648   -1.04    0.00  1.0000
   7 -22   0     430     986                                                         491    1.04    0.00  1.0000
  -7 -23   0    3478    1867                                                        3401    0.48    0.00  1.0000
   7 -23   0    2815    1343                                                        2745    0.48    0.00  1.0000
  -7 -24   0    2347    2008                                                        2507   -1.19    0.00  1.0000
   7 -24   0    1993    1590                                                        2140    1.19    0.00  1.0000
  -7 -25   0    2905    2218                                                        2942    0.25    0.00  1.0000
   7 -25   0    2340    1753                                                        2373    0.25    0.00  1.0000
  -7 -26   0     794    2156                                                         857   -0.81    0.00  1.0000
   7 -26   0      63    1448                                                          82    0.81    0.00  1.0000
  -7 -27   0     541    2047                                                         564   -0.36    0.00  1.0000
   7 -27   0     482    1658                                                         504   -0.36    0.00  1.0000
  -8   0   0   31805    1915                                                       32409    1.24    0.00  1.0000
  -8   0   0     569     518                                                         652    1.24    0.00  1.0000
   8   0   0   31048    1419                                                       31645    1.24    0.00  1.0000
  -8  -1   0   12615    1570                                                       12735   -0.39    0.00  1.0000
  -8  -1   0   11513    1500                                                       11628   -0.39    0.00  1.0000
  -8   1   0   11992    1519                                                       12109    0.39    0.00  1.0000
  -8   1   0   15350    1648                                                       15482    0.39    0.00  1.0000
   8  -1   0   12869    1158                                                       12990    0.39    0.00  1.0000
   8   1   0   11220     988                                                       11333   -0.39    0.00  1.0000
  -8  -2   0    6167    1113                                                        6390    1.03    0.00  1.0000
  -8  -2   0    6059    1140                                                        6280    1.03    0.00  1.0000
  -8   2   0    6647    1195                                                        6878    1.03    0.00  1.0000
  -8   2   0    6262    1170                                                        6487    1.03    0.00  1.0000
   8  -2   0    6397     876                                                        6624    1.03    0.00  1.0000
   8   2   0    5527     713                                                        5738    1.03    0.00  1.0000
  -8  -3   0    7926    1262                                                        8062    0.56    0.00  1.0000
  -8  -3   0    7226    1236                                                        7356    0.56    0.00  1.0000
  -8   3   0    8966    1383                                                        9111   -0.56    0.00  1.0000
  -8   3   0    7741    1227                                                        7876   -0.56    0.00  1.0000
   8  -3   0    9747    1077                                                        9898   -0.56    0.00  1.0000
   8   3   0    8645     723                                                        8787    0.56    0.00  1.0000
  -8  -4   0   31593    2032                                                       31757    0.34    0.00  1.0000
  -8  -4   0   35017    2232                                                       35190    0.34    0.00  1.0000
  -8   4   0   30097    2014                                                       30257    0.34    0.00  1.0000
  -8   4   0   32949    2036                                                       33117    0.34    0.00  1.0000
   8  -4   0   32199    1797                                                       32365    0.34    0.00  1.0000
   8   4   0   28394    1102                                                       28550    0.34    0.00  1.0000
  -8  -5   0   21996    1788                                                       21553    1.10    0.00  1.0000
  -8   5   0   23467    1833                                                       23010   -1.10    0.00  1.0000
  -8   5   0   22756    1739                                                       22306   -1.10    0.00  1.0000
   8  -5   0   24847    1658                                                       24376   -1.10    0.00  1.0000
   8   5   0   19486     880                                                       19070    1.10    0.00  1.0000
  -8  -6   0    4006    1221                                                        3997   -0.05    0.00  1.0000
  -8   6   0    3826    1222                                                        3818   -0.05    0.00  1.0000
  -8   6   0    3600    1185                                                        3592   -0.05    0.00  1.0000
   8  -6   0    2947     971                                                        2940   -0.05    0.00  1.0000
  -8  -7   0    7387    1434                                                        7356   -0.13    0.00  1.0000
  -8   7   0    7851    1401                                                        7819    0.13    0.00  1.0000
  -8   7   0    6910    1350                                                        6880    0.13    0.00  1.0000
   8  -7   0    6617    1109                                                        6588    0.13    0.00  1.0000
  -8  -8   0   21833    2047                                                       22244    1.01    0.00  1.0000
  -8   8   0   25539    2232                                                       25984    1.01    0.00  1.0000
  -8   8   0   19118    1882                                                       19503    1.01    0.00  1.0000
   8  -8   0   21794    1938                                                       22205    1.01    0.00  1.0000
  -8  -9   0   28976    2206                                                       28644    0.72    0.00  1.0000
  -8   9   0   29741    2270                                                       29404   -0.72    0.00  1.0000
  -8   9   0   26569    2018                                                       26251   -0.72    0.00  1.0000
   8  -9   0   25406    1906                                                       25095   -0.72    0.00  1.0000
  -8 -10   0     529    1001                                                         689    2.37    0.00  1.0000
  -8  10   0     382     897                                                         519    2.37    0.00  1.0000
  -8  10   0     613     917                                                         784    2.37    0.00  1.0000
   8 -10   0      83     414                                                         153    2.37    0.00  1.0000
  -8 -11   0       0     858                                                           2    0.81    0.00  1.0000
  -8  11   0     502     994                                                         553   -0.81    0.00  1.0000
   8 -11   0     132     589                                                         159   -0.81    0.00  1.0000
  -8 -12   0    9293    1892                                                        9821    1.98    0.00  1.0000
  -8  12   0   11030    1965                                                       11605    1.98    0.00  1.0000
   8 -12   0    9161    1545                                                        9685    1.98    0.00  1.0000
  -8 -13   0    5532    1594                                                        5720   -0.92    0.00  1.0000
  -8  13   0    4815    1535                                                        4991    0.92    0.00  1.0000
   8 -13   0    5006    1432                                                        5185    0.92    0.00  1.0000
  -8 -14   0     928    1024                                                         979    0.60    0.00  1.0000
   8 -14   0    1039     857                                                        1093    0.60    0.00  1.0000
  -8 -15   0    1075    1165                                                        1049    0.29    0.00  1.0000
   8 -15   0       7     639                                                           5   -0.29    0.00  1.0000
  -8 -16   0    3143    1482                                                        3185    0.27    0.00  1.0000
   8 -16   0    2459    1124                                                        2496    0.27    0.00  1.0000
  -8 -17   0    4069    1508                                                        3817    1.47    0.00  1.0000
   8 -17   0    2547    1010                                                        2349   -1.47    0.00  1.0000
  -8 -18   0      13    1160                                                          19    0.57    0.00  1.0000
   8 -18   0      39     813                                                          49    0.57    0.00  1.0000
  -8 -19   0    2485    1645                                                        2457    0.20    0.00  1.0000
   8 -19   0     411     969                                                         400   -0.20    0.00  1.0000
  -8 -20   0    1016    1532                                                        1017    0.01    0.00  1.0000
   8 -20   0     733    1055                                                         734    0.01    0.00  1.0000
  -8 -21   0     322    1535                                                         293    0.60    0.00  1.0000
   8 -21   0    1018    1132                                                         966   -0.60    0.00  1.0000
  -8 -22   0     197    1643                                                         225   -0.71    0.01  1.0000
   8 -22   0     142     981                                                         166   -0.71    0.00  1.0000
  -8 -23   0    1908    1849                                                        1737    1.47    0.00  1.0000
   8 -23   0    1924    1307                                                        1752   -1.47    0.00  1.0000
  -8 -24   0    1284    1984                                                        1272   -0.12    0.00  1.0000
   8 -24   0       8    1016                                                           7   -0.12    0.00  1.0000
  -8 -25   0     987    2144                                                        1112    1.41   -0.01  1.0000
   8 -25   0     875    1344                                                         993   -1.41    0.00  1.0000
  -8 -26   0      48    2142                                                          32    0.93    0.00  1.0000
   8 -26   0      48    1226                                                          32    0.93    0.00  1.0000
  -9  -1   0   16734    1818                                                       16800    0.19    0.00  1.0000
  -9  -1   0   14335    1639                                                       14396    0.19    0.00  1.0000
  -9   1   0   16413    1749                                                       16479    0.19    0.00  1.0000
  -9   1   0   17292    1766                                                       17360    0.19    0.00  1.0000
   9  -1   0   15800    1305                                                       15865    0.19    0.00  1.0000
   9   1   0   15085    1140                                                       15148    0.19    0.00  1.0000
  -9  -2   0    1726     873                                                        1744   -0.16    0.00  1.0000
  -9  -2   0    2816     965                                                        2839   -0.16    0.00  1.0000
  -9   2   0     979     816                                                         993    0.16    0.00  1.0000
  -9   2   0    2015     860                                                        2034    0.16    0.00  1.0000
   9  -2   0    1804     571                                                        1822    0.16    0.00  1.0000
   9   2   0    1911     464                                                        1930   -0.16    0.00  1.0000
  -9  -3   0   23968    1975                                                       23763   -0.49    0.00  1.0000
  -9  -3   0   25938    2056                                                       25724   -0.49    0.00  1.0000
  -9   3   0   27973    2108                                                       27751   -0.49    0.00  1.0000
  -9   3   0   21966    1830                                                       21770   -0.49    0.00  1.0000
   9  -3   0   28117    1711                                                       27895   -0.49    0.00  1.0000
  -9  -4   0    3222    1034                                                        3064   -1.03    0.00  1.0000
  -9  -4   0    2652    1017                                                        2509   -1.03    0.00  1.0000
  -9   4   0    3260    1036                                                        3101    1.03    0.00  1.0000
  -9   4   0    3098    1021                                                        2944    1.03    0.00  1.0000
   9  -4   0    3618     861                                                        3451    1.03    0.00  1.0000
  -9  -5   0   12059    1533                                                       12020   -0.13    0.00  1.0000
  -9  -5   0   12064    1616                                                       12025   -0.13    0.00  1.0000
  -9   5   0   11463    1575                                                       11425   -0.13    0.00  1.0000
  -9   5   0   12101    1591                                                       12062   -0.13    0.00  1.0000
   9  -5   0   12529    1311                                                       12489   -0.13    0.00  1.0000
  -9  -6   0     685     904                                                         708   -0.32    0.00  1.0000
  -9   6   0     645     849                                                         668    0.32    0.00  1.0000
  -9   6   0    1564     903                                                        1599    0.32    0.00  1.0000
   9  -6   0    1202     700                                                        1233    0.32    0.00  1.0000
  -9  -7   0   27550    2055                                                       27332   -0.48    0.00  1.0000
  -9   7   0   29389    2165                                                       29164   -0.48    0.00  1.0000
  -9   7   0   25368    1978                                                       25159   -0.48    0.00  1.0000
   9  -7   0   28153    1864                                                       27932   -0.48    0.00  1.0000
  -9  -8   0    1039     913                                                        1105   -0.74    0.00  1.0000
  -9   8   0      39     792                                                          53    0.74    0.00  1.0000
  -9   8   0      45     729                                                          60    0.74    0.00  1.0000
   9  -8   0     656     645                                                         709    0.74    0.00  1.0000
  -9  -9   0    2117     996                                                        1830   -2.37    0.00  1.0000
  -9   9   0     208     863                                                         125   -2.37    0.00  1.0000
  -9   9   0    2734     962                                                        2406   -2.37    0.00  1.0000
   9  -9   0    2680     803                                                        2355   -2.37    0.00  1.0000
  -9 -10   0     675     935                                                         546   -1.91    0.00  1.0000
  -9  10   0    1640     991                                                        1436    1.91    0.00  1.0000
  -9  10   0    1759     940                                                        1547    1.91    0.00  1.0000
   9 -10   0    1697     644                                                        1489    1.91    0.00  1.0000
  -9 -11   0   20468    2047                                                       19441   -2.66    0.00  1.0000
  -9  11   0   22823    2174                                                       21737   -2.66    0.00  1.0000
   9 -11   0     767     424                                                         579   -2.66    0.00  1.0000
  -9 -12   0    1209    1030                                                        1151    0.62    0.00  1.0000
  -9  12   0    1459    1112                                                        1395   -0.62    0.00  1.0000
   9 -12   0     717     681                                                         673   -0.62    0.00  1.0000
  -9 -13   0     784    1050                                                         728   -0.74    0.00  1.0000
  -9  13   0     793    1088                                                         737   -0.74    0.00  1.0000
   9 -13   0     199     727                                                         171   -0.74    0.00  1.0000
  -9 -14   0     579    1164                                                         753    2.48    0.00  1.0000
  -9  14   0     588    1263                                                         764   -2.48    0.00  1.0000
   9 -14   0     736     937                                                         931   -2.48    0.00  1.0000
  -9 -15   0   11456    2087                                                       11552    0.33    0.00  1.0000
   9 -15   0    9227    1599                                                        9313    0.33    0.00  1.0000
  -9 -16   0     510    1298                                                         551    0.66    0.00  1.0000
   9 -16   0     223     845                                                         251   -0.66    0.00  1.0000
  -9 -17   0    1702    1544                                                        1744   -0.37    0.00  1.0000
   9 -17   0     759     904                                                         787   -0.37    0.00  1.0000
  -9 -18   0    1013    1457                                                        1029   -0.18    0.00  1.0000
   9 -18   0       6     725                                                           7    0.18    0.00  1.0000
  -9 -19   0    5978    1859                                                        5842   -0.65    0.00  1.0000
   9 -19   0    3427    1313                                                        3324   -0.65    0.00  1.0000
  -9 -20   0     616    1581                                                         586   -0.45    0.00  1.0000
   9 -20   0     205     857                                                         188    0.45    0.00  1.0000
  -9 -21   0    1727    1906                                                        1688    0.35    0.00  1.0000
   9 -21   0    1417    1205                                                        1382    0.35    0.00  1.0000
  -9 -22   0     213    1846                                                         284   -1.66    0.00  1.0000
   9 -22   0     831    1267                                                         966    1.66    0.00  1.0000
  -9 -23   0    3826    2322                                                        3888    0.37    0.00  1.0000
   9 -23   0    2232    1446                                                        2280    0.37    0.00  1.0000
  -9 -24   0    2123    2090                                                        1926   -1.60    0.00  1.0000
   9 -24   0     106    1031                                                          66    1.60    0.00  1.0000
  -9 -25   0    1597    2300                                                        1729   -1.19    0.00  1.0000
   9 -25   0     785    1320                                                         879   -1.19    0.00  1.0000
 -10   0   0    5674    1384                                                        5448   -1.11    0.00  1.0000
 -10   0   0     389     669                                                         331   -1.11    0.00  1.0000
  10   0   0    5832     974                                                        5603   -1.11    0.00  1.0000
 -10  -1   0    8652    1672                                                        8695    0.17    0.00  1.0000
 -10  -1   0    8920    1451                                                        8964    0.17    0.00  1.0000
 -10   1   0    7784    1570                                                        7825   -0.17    0.00  1.0000
 -10   1   0    8145    1497                                                        8187   -0.17    0.00  1.0000
  10  -1   0    9430    1100                                                        9475   -0.17    0.00  1.0000
 -10  -2   0    6362    1568                                                        6363    0.00    0.00  1.0000
 -10  -2   0    9014    1590                                                        9015    0.00    0.00  1.0000
 -10   2   0    7500    1665                                                        7501    0.00    0.00  1.0000
 -10   2   0    8479    1632                                                        8480    0.00    0.00  1.0000
  10  -2   0    9257    1189                                                        9258    0.00    0.00  1.0000
 -10  -3   0    6929    1510                                                        6757    0.76    0.00  1.0000
 -10  -3   0    6095    1452                                                        5934    0.76    0.00  1.0000
 -10   3   0    6639    1476                                                        6471   -0.76    0.00  1.0000
 -10   3   0    6553    1500                                                        6386   -0.76    0.00  1.0000
  10  -3   0    6835    1141                                                        6665   -0.76    0.00  1.0000
 -10  -4   0    8638    1675                                                        8822    0.72    0.00  1.0000
 -10  -4   0    9141    1693                                                        9330    0.72    0.00  1.0000
 -10   4   0    7431    1640                                                        7602    0.72    0.00  1.0000
 -10   4   0    7739    1576                                                        7913    0.72    0.00  1.0000
  10  -4   0   10522    1366                                                       10725    0.72    0.00  1.0000
 -10  -5   0   12099    1821                                                       12199    0.33    0.00  1.0000
 -10  -5   0    8751    1678                                                        8836    0.33    0.00  1.0000
 -10   5   0   12131    1818                                                       12231   -0.33    0.00  1.0000
 -10   5   0   10976    1760                                                       11071   -0.33    0.00  1.0000
  10  -5   0   12037    1425                                                       12136   -0.33    0.00  1.0000
 -10  -6   0    5296    1427                                                        5308    0.06    0.00  1.0000
 -10  -6   0    5364    1565                                                        5376    0.06    0.00  1.0000
 -10   6   0    6272    1584                                                        6285    0.06    0.00  1.0000
 -10   6   0    5696    1506                                                        5708    0.06    0.00  1.0000
  10  -6   0    5117    1189                                                        5129    0.06    0.00  1.0000
 -10  -7   0    3167    1250                                                        3150    0.11    0.00  1.0000
 -10  -7   0    1408    1069                                                        1396    0.11    0.00  1.0000
 -10   7   0    2762    1226                                                        2746   -0.11    0.00  1.0000
 -10   7   0    3227    1245                                                        3210   -0.11    0.00  1.0000
  10  -7   0    2617     994                                                        2601   -0.11    0.00  1.0000
 -10  -8   0    2791    1306                                                        2919    0.88    0.00  1.0000
 -10   8   0    1776    1191                                                        1878    0.88    0.00  1.0000
 -10   8   0    2620    1294                                                        2744    0.88    0.00  1.0000
  10  -8   0    2932    1131                                                        3063    0.88    0.00  1.0000
 -10  -9   0   11278    1940                                                       11859    1.98    0.00  1.0000
 -10   9   0   12850    2009                                                       13469   -1.98    0.00  1.0000
 -10   9   0   12300    1886                                                       12906   -1.98    0.00  1.0000
  10  -9   0   12696    1684                                                       13311   -1.98    0.00  1.0000
 -10 -10   0    9520    1830                                                       10041    1.93    0.00  1.0000
 -10  10   0    9097    1898                                                        9607    1.93    0.00  1.0000
 -10  10   0    7748    1788                                                        8219    1.93    0.00  1.0000
  10 -10   0    7967    1434                                                        8444    1.93    0.00  1.0000
 -10 -11   0    1879    1103                                                        1772    0.92    0.00  1.0000
 -10  11   0     697     986                                                         632   -0.92    0.00  1.0000
 -10  11   0    1693    1149                                                        1591   -0.92    0.00  1.0000
  10 -11   0    1639     801                                                        1539   -0.92    0.00  1.0000
 -10 -12   0     223     953                                                         197    0.66    0.00  1.0000
 -10  12   0     151    1035                                                         130    0.66    0.00  1.0000
  10 -12   0       5     562                                                           2    0.66    0.00  1.0000
 -10 -13   0    8437    1677                                                        7719   -2.93    0.00  1.0000
 -10  13   0    9127    1926                                                        8380    2.93    0.00  1.0000
  10 -13   0    6010    1296                                                        5407    2.93    0.00  1.0000
 -10 -14   0    9290    2107                                                        9018   -1.04    0.00  1.0000
 -10  14   0    8911    2002                                                        8645   -1.04    0.00  1.0000
  10 -14   0    9599    1646                                                        9323   -1.04    0.00  1.0000
 -10 -15   0     792    1259                                                        1016   -2.73    0.00  1.0000
 -10  15   0      61    1318                                                         133    2.73    0.00  1.0000
  10 -15   0       8     836                                                          42    2.73    0.00  1.0000
 -10 -16   0     184    1271                                                         217   -0.85    0.00  1.0000
  10 -16   0       0     795                                                           2   -0.85    0.00  1.0000
 -10 -17   0    3670    1788                                                        3599   -0.43    0.00  1.0000
  10 -17   0    1606    1213                                                        1559    0.43    0.00  1.0000
 -10 -18   0    1061    1617                                                        1098    0.42    0.00  1.0000
  10 -18   0     308     901                                                         328    0.42    0.00  1.0000
 -10 -19   0    1043    1640                                                        1050    0.08    0.00  1.0000
  10 -19   0    1696    1024                                                        1705   -0.08    0.00  1.0000
 -10 -20   0     444    1676                                                         481    0.62    0.00  1.0000
  10 -20   0       8    1071                                                          14    0.62    0.00  1.0000
 -10 -21   0     604    1855                                                         668    0.93    0.00  1.0000
  10 -21   0     974    1257                                                        1055   -0.93    0.00  1.0000
 -10 -22   0     745    1983                                                         735   -0.14    0.00  1.0000
  10 -22   0     397    1200                                                         390   -0.14    0.00  1.0000
 -10 -23   0     819    2208                                                         943    1.53    0.00  1.0000
  10 -23   0      64    1128                                                         102   -1.53    0.00  1.0000
 -10 -24   0     368    2289                                                         351    0.34    0.00  1.0000
  10 -24   0     158    1277                                                         147    0.34    0.00  1.0000
 -11  -1   0       1     922                                                           5    0.86    0.00  1.0000
 -11  -1   0     463     898                                                         515    0.86    0.00  1.0000
 -11   1   0       1     960                                                           5    0.86    0.00  1.0000
 -11   1   0     636     968                                                         697    0.86    0.00  1.0000
 -11  -2   0    2123    1180                                                        1981   -1.15    0.00  1.0000
 -11  -2   0    2194    1175                                                        2050   -1.15    0.00  1.0000
 -11   2   0    2145    1213                                                        2003    1.15    0.00  1.0000
 -11   2   0    2332    1185                                                        2183    1.15    0.00  1.0000
 -11  -3   0    1201    1159                                                        1259   -0.61    0.00  1.0000
 -11  -3   0    1279    1122                                                        1339   -0.61    0.00  1.0000
 -11   3   0     870    1063                                                         920   -0.61    0.00  1.0000
 -11   3   0    2500    1238                                                        2584   -0.61    0.00  1.0000
  11  -3   0    1647     816                                                        1715   -0.61    0.00  1.0000
 -11  -4   0    1521    1197                                                        1619   -0.91    0.00  1.0000
 -11  -4   0    1813    1243                                                        1920   -0.91    0.00  1.0000
 -11   4   0    1631    1181                                                        1732    0.91    0.00  1.0000
 -11   4   0    1409    1073                                                        1503    0.91    0.00  1.0000
  11  -4   0    2482     984                                                        2607    0.91    0.00  1.0000
 -11  -5   0    2207    1256                                                        2169   -0.30    0.00  1.0000
 -11  -5   0    3285    1394                                                        3239   -0.30    0.00  1.0000
 -11   5   0    3693    1418                                                        3644   -0.30    0.00  1.0000
 -11   5   0    2686    1281                                                        2644   -0.30    0.00  1.0000
  11  -5   0    4858    1213                                                        4801   -0.30    0.00  1.0000
 -11  -6   0    1698    1261                                                        1787    0.78    0.00  1.0000
 -11  -6   0    2799    1368                                                        2913    0.78    0.00  1.0000
 -11   6   0    2564    1233                                                        2674   -0.78    0.00  1.0000
 -11   6   0    2966    1333                                                        3084   -0.78    0.00  1.0000
  11  -6   0    2775    1067                                                        2889   -0.78    0.00  1.0000
 -11  -7   0    2231    1233                                                        2204    0.21    0.00  1.0000
 -11  -7   0    2366    1236                                                        2338    0.21    0.00  1.0000
 -11   7   0    2486    1233                                                        2457    0.21    0.00  1.0000
 -11   7   0    1948    1142                                                        1922    0.21    0.00  1.0000
 -11  -8   0    4015    1386                                                        4041    0.15    0.00  1.0000
 -11  -8   0    4198    1555                                                        4224    0.15    0.00  1.0000
 -11   8   0    4270    1472                                                        4297   -0.15    0.00  1.0000
  11  -8   0    4150    1277                                                        4176   -0.15    0.00  1.0000
 -11  -9   0    3435    1351                                                        3352   -0.52    0.00  1.0000
 -11   9   0    3326    1425                                                        3244   -0.52    0.00  1.0000
 -11   9   0    2667    1378                                                        2594   -0.52    0.00  1.0000
  11  -9   0    2951    1117                                                        2874   -0.52    0.00  1.0000
 -11 -10   0      15     972                                                          31   -1.25    0.00  1.0000
 -11  10   0     318    1133                                                         382    1.25    0.00  1.0000
 -11  10   0     286    1138                                                         347    1.25    0.00  1.0000
  11 -10   0     231     734                                                         286    1.25    0.00  1.0000
 -11 -11   0     898    1108                                                         924   -0.32    0.00  1.0000
 -11  11   0    1359    1294                                                        1391   -0.32    0.00  1.0000
 -11  11   0    1590    1251                                                        1625   -0.32    0.00  1.0000
  11 -11   0    1645     897                                                        1680   -0.32    0.00  1.0000
 -11 -12   0    5229    1677                                                        5453    1.12    0.00  1.0000
 -11  12   0    4730    1739                                                        4943   -1.12    0.00  1.0000
  11 -12   0    5323    1525                                                        5549   -1.12    0.00  1.0000
 -11 -13   0    5763    1779                                                        5953    0.91    0.00  1.0000
 -11  13   0    4197    1717                                                        4360    0.91    0.00  1.0000
  11 -13   0    2580    1256                                                        2708    0.91    0.00  1.0000
 -11 -14   0      42    1277                                                         107    2.84    0.00  1.0000
 -11  14   0      40    1341                                                         104   -2.84    0.00  1.0000
  11 -14   0       6     786                                                           2   -2.84    0.00  1.0000
 -11 -15   0    2152    1475                                                        1946    1.67    0.00  1.0000
 -11  15   0    2929    1675                                                        2688    1.67    0.00  1.0000
  11 -15   0    1676    1042                                                        1495    1.67    0.00  1.0000
 -11 -16   0    2436    1681                                                        2542    0.78    0.00  1.0000
  11 -16   0    2427    1319                                                        2533   -0.78    0.00  1.0000
 -11 -17   0    2165    1718                                                        2346    1.40    0.00  1.0000
  11 -17   0    2343    1349                                                        2531    1.40    0.00  1.0000
 -11 -18   0    2427    1872                                                        2383   -0.33    0.00  1.0000
  11 -18   0    2437    1330                                                        2393    0.33    0.00  1.0000
 -11 -19   0    1216    1751                                                        1199    0.18    0.00  1.0000
  11 -19   0    1636    1308                                                        1616    0.18    0.00  1.0000
 -11 -20   0    2724    2125                                                        2721   -0.02    0.00  1.0000
  11 -20   0    1819    1279                                                        1816    0.02    0.00  1.0000
 -11 -21   0    1175    2009                                                        1134   -0.45    0.00  1.0000
  11 -21   0    1125    1322                                                        1085   -0.45    0.00  1.0000
 -11 -22   0    1294    2264                                                        1253   -0.42    0.00  1.0000
  11 -22   0       0    1228                                                           0    0.42    0.00  1.0000
 -11 -23   0     628    2242                                                         641   -0.19    0.00  1.0000
  11 -23   0     905    1332                                                         920   -0.19    0.00  1.0000
 -12   0   0    5037    1859                                                        5282   -1.25    0.00  1.0000
 -12   0   0     886    1245                                                         990   -1.25    0.00  1.0000
 -12  -1   0   10805    2030                                                       10555    0.89    0.00  1.0000
 -12  -1   0    3896    1442                                                        3747    0.89    0.00  1.0000
 -12   1   0    9090    1888                                                        8861   -0.89    0.00  1.0000
 -12   1   0   10844    1986                                                       10594   -0.89    0.00  1.0000
 -12  -2   0    2185    1416                                                        2232   -0.37    0.00  1.0000
 -12  -2   0    2617    1444                                                        2669   -0.37    0.00  1.0000
 -12   2   0    2159    1360                                                        2206   -0.37    0.00  1.0000
 -12   2   0    3394    1568                                                        3453   -0.37    0.00  1.0000
 -12  -3   0    6284    1683                                                        6679    1.80    0.00  1.0000
 -12  -3   0    6296    1740                                                        6691    1.80    0.00  1.0000
 -12   3   0    5893    1619                                                        6275   -1.80    0.00  1.0000
 -12   3   0    6694    1719                                                        7101   -1.80    0.00  1.0000
 -12  -4   0    2289    1366                                                        2284    0.04    0.00  1.0000
 -12  -4   0    2540    1424                                                        2535    0.04    0.00  1.0000
 -12   4   0    2435    1364                                                        2430    0.04    0.00  1.0000
 -12   4   0    3122    1503                                                        3116    0.04    0.00  1.0000
 -12  -5   0    3304    1387                                                        3309   -0.03    0.00  1.0000
 -12  -5   0    3034    1461                                                        3039   -0.03    0.00  1.0000
 -12   5   0    5632    1624                                                        5638    0.03    0.00  1.0000
 -12   5   0    3506    1481                                                        3511    0.03    0.00  1.0000
 -12  -6   0    2291    1351                                                        2380   -0.67    0.00  1.0000
 -12  -6   0    1443    1442                                                        1514   -0.67    0.00  1.0000
 -12   6   0    1769    1352                                                        1847   -0.67    0.00  1.0000
 -12   6   0    1962    1457                                                        2044   -0.67    0.00  1.0000
  12  -6   0    2070    1147                                                        2154   -0.67    0.00  1.0000
 -12  -7   0    8656    1671                                                        8112   -2.18    0.00  1.0000
 -12  -7   0    6152    1659                                                        5695   -2.18    0.00  1.0000
 -12   7   0    5709    1563                                                        5269    2.18    0.00  1.0000
 -12   7   0    8372    1714                                                        7837    2.18    0.00  1.0000
  12  -7   0    8867    1394                                                        8316    2.18    0.00  1.0000
 -12  -8   0     369    1151                                                         387   -0.33    0.00  1.0000
 -12  -8   0      51    1176                                                          58   -0.33    0.00  1.0000
 -12   8   0    1086    1358                                                        1116   -0.33    0.00  1.0000
 -12   8   0     840    1227                                                         867   -0.33    0.00  1.0000
  12  -8   0    1244    1002                                                        1276   -0.33    0.00  1.0000
 -12  -9   0     865    1189                                                         933   -0.83    0.00  1.0000
 -12  -9   0     992    1311                                                        1064   -0.83    0.00  1.0000
 -12   9   0    1439    1340                                                        1526    0.83    0.00  1.0000
 -12   9   0     926    1256                                                         996    0.83    0.00  1.0000
  12  -9   0     771     880                                                         835    0.83    0.00  1.0000
 -12 -10   0     939    1298                                                         935    0.05    0.00  1.0000
 -12 -10   0    1183    1388                                                        1179    0.05    0.00  1.0000
 -12  10   0    1216    1394                                                        1211    0.05    0.00  1.0000
 -12  10   0    1645    1438                                                        1640    0.05    0.00  1.0000
  12 -10   0     139     825                                                         137    0.05    0.00  1.0000
 -12 -11   0    4646    1693                                                        4708    0.33    0.00  1.0000
 -12  11   0    4389    1832                                                        4450   -0.33    0.00  1.0000
  12 -11   0    3942    1430                                                        3999   -0.33    0.00  1.0000
 -12 -12   0    1110    1332                                                        1142   -0.35    0.00  1.0000
 -12  12   0    1220    1536                                                        1253   -0.35    0.00  1.0000
  12 -12   0     842     984                                                         870   -0.35    0.00  1.0000
 -12 -13   0     458    1350                                                         519   -1.01    0.00  1.0000
 -12  13   0     419    1489                                                         477    1.01    0.00  1.0000
  12 -13   0     581    1050                                                         649    1.01    0.00  1.0000
 -12 -14   0     384    1423                                                         432   -0.86    0.00  1.0000
 -12  14   0    1090    1566                                                        1169   -0.86    0.00  1.0000
  12 -14   0     835    1208                                                         905   -0.86    0.00  1.0000
 -12 -15   0    4473    1731                                                        4319   -0.85    0.00  1.0000
 -12  15   0    4246    1886                                                        4096    0.85    0.00  1.0000
  12 -15   0      89     699                                                          68    0.85    0.00  1.0000
 -12 -16   0     698    1571                                                         852   -2.02    0.00  1.0000
  12 -16   0      31     817                                                          70   -2.02    0.00  1.0000
 -12 -17   0     800    1633                                                         834    0.44    0.00  1.0000
  12 -17   0     736    1293                                                         769   -0.44    0.00  1.0000
 -12 -18   0      14    1736                                                          50   -2.47    0.00  1.0000
  12 -18   0     278    1100                                                         402   -2.47    0.00  1.0000
 -12 -19   0     782    1891                                                         800    0.24    0.00  1.0000
  12 -19   0     943    1185                                                         963   -0.24    0.00  1.0000
 -12 -20   0     994    1949                                                        1078   -0.95    0.00  1.0000
  12 -20   0       2    1053                                                           0   -0.95    0.00  1.0000
 -12 -21   0       9    1935                                                           8   -0.16    0.00  1.0000
  12 -21   0     882    1268                                                         869    0.16    0.00  1.0000
  12 -22   0      51    1169                                                          45    0.33    0.00  1.0000
 -13  -1   0    5293    1247                                                        5010    1.45    0.00  1.0000
 -13  -1   0     907     954                                                         792    1.45    0.00  1.0000
 -13   1   0    5218    1324                                                        4937    1.45    0.00  1.0000
 -13   1   0    7417    1505                                                        7081    1.45    0.00  1.0000
 -13  -2   0       2    1000                                                           9   -1.10    0.00  1.0000
 -13  -2   0      11    1098                                                          24   -1.10    0.00  1.0000
 -13   2   0     342    1141                                                         400    1.10    0.00  1.0000
 -13   2   0       2    1164                                                           9    1.10    0.00  1.0000
 -13  -3   0    1597    1173                                                        1543    0.50    0.00  1.0000
 -13  -3   0    2003    1215                                                        1942    0.50    0.00  1.0000
 -13   3   0    1654    1188                                                        1599    0.50    0.00  1.0000
 -13   3   0    2592    1288                                                        2523    0.50    0.00  1.0000
 -13  -4   0       0    1085                                                           2   -1.12    0.00  1.0000
 -13  -4   0     438    1180                                                         505   -1.12    0.00  1.0000
 -13   4   0     478    1224                                                         547    1.12    0.00  1.0000
 -13   4   0     393    1198                                                         456    1.12    0.00  1.0000
 -13  -5   0    3372    1382                                                        3245    0.81    0.00  1.0000
 -13  -5   0    5832    1764                                                        5665    0.81    0.00  1.0000
 -13   5   0    4745    1498                                                        4594    0.81    0.00  1.0000
 -13   5   0    6699    1836                                                        6520    0.81    0.00  1.0000
 -13  -6   0     954    1294                                                        1083    1.48    0.00  1.0000
 -13  -6   0    1033    1409                                                        1166    1.48    0.00  1.0000
 -13   6   0     700    1360                                                         811   -1.48    0.00  1.0000
 -13   6   0    1648    1496                                                        1816   -1.48    0.00  1.0000
 -13  -7   0    1387    1221                                                        1310    0.76    0.00  1.0000
 -13  -7   0    1450    1321                                                        1372    0.76    0.00  1.0000
 -13   7   0    1729    1306                                                        1643    0.76    0.00  1.0000
 -13   7   0    1487    1447                                                        1408    0.76    0.00  1.0000
 -13  -8   0      21    1104                                                          67    2.62    0.00  1.0000
 -13  -8   0      21    1110                                                          67    2.62    0.00  1.0000
 -13   8   0      21    1275                                                          67   -2.62    0.00  1.0000
 -13   8   0       9    1381                                                          44   -2.62    0.00  1.0000
 -13  -9   0    4574    1656                                                        4573    0.00    0.00  1.0000
 -13  -9   0    3416    1622                                                        3415    0.00    0.00  1.0000
 -13   9   0    4135    1725                                                        4134    0.00    0.00  1.0000
  13  -9   0    2127    1092                                                        2127    0.00    0.00  1.0000
 -13 -10   0     860    1320                                                         866    0.07    0.00  1.0000
 -13 -10   0     633    1367                                                         638    0.07    0.00  1.0000
 -13  10   0    1583    1524                                                        1591   -0.07    0.00  1.0000
  13 -10   0     690     900                                                         695   -0.07    0.00  1.0000
 -13 -11   0      61    1279                                                          59    0.11    0.00  1.0000
 -13 -11   0      61    1224                                                          59    0.11    0.00  1.0000
 -13  11   0      61    1409                                                          59    0.11    0.00  1.0000
  13 -11   0     153     947                                                         149    0.11    0.00  1.0000
 -13 -12   0     252    1395                                                         310   -1.27    0.00  1.0000
 -13 -12   0     684    1430                                                         778   -1.27    0.00  1.0000
 -13  12   0     376    1534                                                         446    1.27    0.00  1.0000
  13 -12   0     243    1060                                                         300    1.27    0.00  1.0000
 -13 -13   0    6380    1884                                                        6351    0.13    0.00  1.0000
 -13 -13   0    5791    2023                                                        5764    0.13    0.00  1.0000
 -13  13   0    8059    2248                                                        8027    0.13    0.00  1.0000
  13 -13   0    5115    1531                                                        5089    0.13    0.00  1.0000
 -13 -14   0    5287    2138                                                        5266   -0.11    0.00  1.0000
 -13  14   0    2765    2020                                                        2750    0.11    0.00  1.0000
  13 -14   0    3693    1638                                                        3675    0.11    0.00  1.0000
 -13 -15   0     606    1670                                                         650    0.64    0.00  1.0000
 -13  15   0      20    1712                                                          28    0.64    0.00  1.0000
  13 -15   0     170    1091                                                         193    0.64    0.00  1.0000
 -13 -16   0     417    1722                                                         394    0.42    0.00  1.0000
 -13  16   0     646    1860                                                         617   -0.42    0.00  1.0000
  13 -16   0     578    1022                                                         550   -0.42    0.00  1.0000
  13 -17   0     734     930                                                         563    2.46    0.00  1.0000
  13 -18   0    1384    1221                                                        1388   -0.04    0.00  1.0000
  13 -19   0      41    1188                                                         103    2.76    0.00  1.0000
  13 -20   0       2    1288                                                           1    0.38    0.00  1.0000
  13 -21   0     281    1528                                                         238    0.97    0.00  1.0000
 -14   0   0    1220    1614                                                        1464   -2.45    0.00  1.0000
 -14   0   0    1202    1773                                                        1445   -2.45    0.00  1.0000
 -14  -1   0    6898    1833                                                        6888   -0.04    0.00  1.0000
 -14  -1   0    1074    1282                                                        1070   -0.04    0.00  1.0000
 -14   1   0    6264    1747                                                        6255    0.04    0.00  1.0000
 -14   1   0    7855    2065                                                        7845    0.04    0.00  1.0000
 -14  -2   0    9975    2315                                                       10297   -1.17    0.00  1.0000
 -14  -2   0    7508    2296                                                        7788   -1.17    0.00  1.0000
 -14   2   0    8900    2338                                                        9204   -1.17    0.00  1.0000
 -14   2   0    8257    2287                                                        8550   -1.17    0.00  1.0000
 -14  -3   0    5096    1741                                                        4977    0.62    0.00  1.0000
 -14  -3   0    4550    1812                                                        4437    0.62    0.00  1.0000
 -14   3   0    5766    1813                                                        5639   -0.62    0.00  1.0000
 -14   3   0    6475    2054                                                        6340   -0.62    0.00  1.0000
 -14  -4   0    2721    1582                                                        2744   -0.16    0.00  1.0000
 -14  -4   0    1601    1569                                                        1619   -0.16    0.00  1.0000
 -14   4   0    1796    1498                                                        1815   -0.16    0.00  1.0000
 -14   4   0    3305    1773                                                        3330   -0.16    0.00  1.0000
 -14  -5   0    3103    1575                                                        3134    0.20    0.00  1.0000
 -14  -5   0    2253    1618                                                        2279    0.20    0.00  1.0000
 -14   5   0    2843    1657                                                        2872   -0.20    0.00  1.0000
 -14   5   0    2782    1685                                                        2811   -0.20    0.00  1.0000
 -14  -6   0    3490    1652                                                        3578   -0.54    0.00  1.0000
 -14  -6   0    2047    1725                                                        2114   -0.54    0.00  1.0000
 -14   6   0    2988    1760                                                        3069   -0.54    0.00  1.0000
 -14   6   0    3050    1735                                                        3132   -0.54    0.00  1.0000
 -14  -7   0     278    1346                                                         370   -1.88    0.00  1.0000
 -14  -7   0     400    1484                                                         509   -1.88    0.00  1.0000
 -14   7   0     175    1425                                                         249    1.88    0.00  1.0000
 -14   7   0    1065    1608                                                        1239    1.88    0.00  1.0000
 -14  -8   0    3722    1740                                                        3739   -0.10    0.00  1.0000
 -14  -8   0    1622    1697                                                        1633   -0.10    0.00  1.0000
 -14   8   0    1985    1655                                                        1997   -0.10    0.00  1.0000
 -14  -9   0      59    1377                                                          41   -0.93    0.00  1.0000
 -14   9   0     545    1600                                                         487    0.93    0.00  1.0000
 -14 -10   0    1778    1691                                                        1783   -0.05    0.00  1.0000
 -14  10   0    2096    1797                                                        2102   -0.05    0.00  1.0000
 -14 -11   0      37    1503                                                           9    2.29    0.00  1.0000
 -14  11   0    1542    1779                                                        1306   -2.29    0.00  1.0000
 -14 -12   0     602    1590                                                         640   -0.57    0.00  1.0000
 -14  12   0     878    1901                                                         924   -0.57    0.00  1.0000
 -14 -13   0     719    1633                                                         896    2.29    0.00  1.0000
 -14  13   0    1366    1875                                                        1606   -2.29    0.00  1.0000
  14 -13   0     784    1032                                                         968   -2.29    0.00  1.0000
 -14 -14   0     372    1631                                                         379   -0.13    0.00  1.0000
 -14  14   0      16    1940                                                          17   -0.13    0.00  1.0000
  14 -14   0     828    1204                                                         838   -0.13    0.00  1.0000
 -14 -15   0     729    1755                                                         749   -0.27    0.00  1.0000
 -14  15   0    1656    2156                                                        1686    0.27    0.00  1.0000
  14 -15   0     447    1221                                                         462    0.27    0.00  1.0000
 -14 -16   0      35    1604                                                          43   -0.44    0.00  1.0000
 -14  16   0     927    2195                                                         964   -0.44    0.00  1.0000
  14 -16   0    1194    1260                                                        1236   -0.44    0.00  1.0000
 -14 -17   0      17    1687                                                           6   -1.25    0.00  1.0000
  14 -17   0      49    1148                                                          28    1.25    0.00  1.0000
  14 -18   0      32    1061                                                          63   -1.68    0.00  1.0000
  14 -19   0       1    1057                                                           1    0.02    0.00  1.0000
 -15  -1   0     523    1337                                                         407    1.97    0.00  1.0000
 -15   1   0    4224    1722                                                        3881    1.97    0.00  1.0000
 -15  -2   0     510    1558                                                         500    0.16    0.00  1.0000
 -15   2   0     986    1579                                                         972   -0.16    0.00  1.0000
 -15  -3   0    2351    1735                                                        2402   -0.38    0.00  1.0000
 -15   3   0    1875    1635                                                        1921   -0.38    0.00  1.0000
 -15   3   0    2339    1796                                                        2390   -0.38    0.00  1.0000
 -15  -4   0     346    1492                                                         314   -0.64    0.00  1.0000
 -15   4   0      24    1437                                                          16    0.64    0.00  1.0000
 -15   4   0     573    1590                                                         532    0.64    0.00  1.0000
 -15  -5   0     483    1699                                                         516   -0.55    0.00  1.0000
 -15   5   0    1136    1717                                                        1187   -0.55    0.00  1.0000
 -15   5   0     648    1656                                                         687   -0.55    0.00  1.0000
 -15  -6   0     289    1510                                                         282    0.16    0.00  1.0000
 -15   6   0     511    1596                                                         501   -0.16    0.00  1.0000
 -15   6   0     760    1725                                                         748   -0.16    0.00  1.0000
 -15  -7   0     675    1631                                                         673    0.03    0.00  1.0000
 -15   7   0     744    1730                                                         741    0.03    0.00  1.0000
 -15  -8   0      42    1539                                                          30    0.76    0.00  1.0000
 -15   8   0      42    1741                                                          30   -0.76    0.00  1.0000
 -15  -9   0      15    1484                                                          16   -0.12    0.00  1.0000
 -15   9   0     671    1721                                                         680   -0.12    0.00  1.0000
 -15 -10   0     779    1652                                                         927   -1.85    0.00  1.0000
 -15  10   0    1370    1850                                                        1564    1.85    0.00  1.0000
 -15 -11   0    1810    1757                                                        1720    0.78    0.00  1.0000
 -15  11   0    2812    2100                                                        2700    0.78    0.00  1.0000
 -15 -12   0     414    1767                                                         650   -3.77    0.00  1.0000
 -15  12   0     313    1945                                                         521    3.77    0.00  1.0000
 -15 -13   0       6    1745                                                          16    1.14    0.00  1.0000
 -15  13   0     388    2108                                                         452    1.14    0.00  1.0000
 -15 -14   0    3297    2022                                                        3568   -1.70    0.00  1.0000
 -15  14   0    4687    2431                                                        5009    1.70    0.00  1.0000
 -15 -15   0       7    1774                                                           7   -0.03    0.00  1.0000
 -15  15   0    2133    2397                                                        2137   -0.03    0.00  1.0000
 -15 -16   0     689    1956                                                         758    0.94    0.00  1.0000
 -15  16   0     316    2366                                                         363   -0.94    0.00  1.0000
 -15 -17   0       8    1913                                                           5   -0.44    0.00  1.0000
  15 -17   0       8    1332                                                           5   -0.44    0.00  1.0000
 -16   0   0    3317    2168                                                        3531   -1.34    0.00  1.0000
 -16  -1   0     407    1699                                                         416   -0.15    0.00  1.0000
 -16   1   0    3151    2135                                                        3175    0.15    0.00  1.0000
 -16  -2   0    2389    1910                                                        2424    0.26    0.00  1.0000
 -16   2   0    4650    2234                                                        4699    0.26    0.00  1.0000
 -16  -3   0     868    1829                                                         894    0.32    0.00  1.0000
 -16   3   0    1268    1818                                                        1299   -0.32    0.00  1.0000
 -16  -4   0    3205    1980                                                        3002    1.33    0.00  1.0000
 -16   4   0    2560    1948                                                        2379    1.33    0.00  1.0000
 -16  -5   0    2024    2016                                                        1944    0.66    0.00  1.0000
 -16  -6   0    1810    2015                                                        1836    0.22    0.00  1.0000
 -16  -7   0       0    1697                                                           0    0.08    0.00  1.0000
 -16  -8   0       9    1743                                                           8    0.18    0.00  1.0000
 -16  -9   0     800    1895                                                         715    1.13    0.00  1.0000
 -16 -10   0     128    1809                                                         128   -0.01    0.00  1.0000
 -16 -11   0    1082    1947                                                         805    3.31    0.00  1.0000
 -16 -12   0     923    1956                                                        1036   -1.33    0.00  1.0000
 -16 -13   0    1732    2037                                                        1409    2.99    0.00  1.0000
 -16 -14   0     716    2086                                                         647   -0.97    0.00  1.0000
 -17  -1   0    1142    1955                                                        1105   -0.41    0.00  1.0000
 -17   1   0    2734    2199                                                        2676   -0.41    0.00  1.0000
 -17  -2   0     202    1830                                                         214    0.32    0.00  1.0000
 -17   2   0     648    2050                                                         670   -0.32    0.00  1.0000
 -17  -3   0     440    1822                                                         364   -1.40    0.00  1.0000
 -17   3   0    1136    2080                                                        1011   -1.40    0.00  1.0000
 -17  -4   0    1103    2098                                                        1125   -0.24    0.00  1.0000
 -17  -5   0     311    1945                                                         290   -0.43    0.00  1.0000
 -17  -6   0     676    1960                                                         632   -0.63    0.00  1.0000
 -17  -7   0    2040    2233                                                        2056    0.13    0.00  1.0000
 -17  -8   0    1226    2095                                                        1325   -1.02    0.00  1.0000
 -17  -9   0     489    1992                                                         454   -0.58    0.00  1.0000
 -17 -10   0     270    2162                                                         370   -2.06    0.00  1.0000
 -17 -11   0     201    2075                                                         210    0.22    0.00  1.0000
 -18   0   0    6560    2721                                                        6626    0.30    0.00  1.0000
 -18  -1   0     634    2203                                                         587   -0.70    0.00  1.0000
 -18   1   0    2294    2397                                                        2204    0.70    0.00  1.0000
 -18  -2   0       1    2100                                                           4    0.94    0.00  1.0000
 -18  -3   0    1781    2369                                                        1895   -0.98    0.00  1.0000
 -18  -4   0    5948    2850                                                        6120    0.81    0.00  1.0000
 -18  -5   0    1646    2271                                                        1666    0.18    0.00  1.0000
 -18  -6   0       0    2191                                                           0   -0.17    0.00  1.0000
 -18  -7   0     206    2153                                                         163    1.17    0.00  1.0000
   0   0  -1  221567    3640                                                      225042   -2.69    0.00  1.0000
   0   0  -1  230266    2960                                                      233808   -2.69    0.00  1.0000
   0  -2  -1   14788     904                                                       14022   -2.34    0.00  1.0000
   0  -2  -1   12529     743                                                       11825   -2.34    0.00  1.0000
   0   2  -1   11702     879                                                       11022   -2.34    0.00  1.0000
   0   2  -1   11491     724                                                       10817   -2.34    0.00  1.0000
   0  -2   1   12978     635                                                       12261   -2.34    0.00  1.0000
   0  -4  -1   63759    2194                                                       63551    0.30    0.00  1.0000
   0  -4  -1   59411    1987                                                       59210    0.30    0.00  1.0000
   0   4  -1   58158    2206                                                       57959    0.30    0.00  1.0000
   0   4  -1   59539    1890                                                       59338    0.30    0.00  1.0000
   0  -4   1   55879    1445                                                       55684    0.30    0.00  1.0000
   0  -6  -1   33087    1639                                                       33891    1.61    0.00  1.0000
   0  -6  -1   34298    1670                                                       35116    1.61    0.00  1.0000
   0   6  -1   33021    1750                                                       33824    1.61    0.00  1.0000
   0   6  -1   32256    1582                                                       33050    1.61    0.00  1.0000
   0  -6   1   29325    1068                                                       30082    1.61    0.00  1.0000
   0  -8  -1  121640    3250                                                      122463   -0.86    0.00  1.0000
   0   8  -1  122446    3460                                                      123272   -0.86    0.00  1.0000
   0 -10  -1    1486     633                                                        1520    0.32    0.00  1.0000
   0  10  -1    1727     607                                                        1763    0.32    0.00  1.0000
   0 -12  -1   25665    1775                                                       24458    2.79    0.00  1.0000
   0  12  -1   26254    1837                                                       25033    2.79    0.00  1.0000
   0 -14  -1     926     875                                                         928   -0.03    0.00  1.0000
   0  14  -1     669     733                                                         671   -0.03    0.00  1.0000
   0 -16  -1    3699    1446                                                        3880   -1.07    0.00  1.0000
   0  16  -1    5315    1524                                                        5531   -1.07    0.00  1.0000
   0 -18  -1       3     730                                                           0    1.29    0.00  1.0000
   0 -18   1     978    1059                                                         871    1.29    0.00  1.0000
   0 -20  -1    2526    1464                                                        2563   -0.27    0.00  1.0000
   0 -20   1    2862    1675                                                        2901   -0.27    0.00  1.0000
   0 -22  -1      22    1335                                                          91   -3.55    0.00  1.0000
   0 -22   1     212    1485                                                         377   -3.55    0.00  1.0000
   0 -24  -1    2275    1738                                                        2862   -4.25    0.00  1.0000
   0 -24   1    1366    1747                                                        1828   -4.25    0.00  1.0000
   0 -26  -1    1295    1685                                                        1508   -2.09    0.00  1.0000
   0 -26   1     479    1581                                                         612   -2.09    0.00  1.0000
   0 -28  -1     708    2047                                                         896    2.44    0.00  1.0000
   0 -28   1     808    2148                                                        1009    2.44    0.00  1.0000
  -1  -1  -1   67849    1826                                                       66964    1.25    0.00  1.0000
  -1  -1  -1   66040    1754                                                       65167    1.25    0.00  1.0000
  -1   1  -1   65581    1846                                                       64711    1.25    0.00  1.0000
  -1   1  -1   65901    1747                                                       65028    1.25    0.00  1.0000
   1  -1  -1   66817    1947                                                       65938    1.25    0.00  1.0000
   1  -1  -1   65170    1314                                                       64302    1.25    0.00  1.0000
   1   1  -1   61357    1866                                                       60515    1.25    0.00  1.0000
   1   1  -1   65766    1231                                                       64894    1.25    0.00  1.0000
  -1  -1   1   63781    1656                                                       62923    1.25    0.00  1.0000
  -1   1   1   66245    1824                                                       65370    1.25    0.00  1.0000
  -1  -2  -1    2978     600                                                        2883   -0.65    0.00  1.0000
  -1  -2  -1    3557     630                                                        3453   -0.65    0.00  1.0000
  -1   2  -1    2838     633                                                        2745    0.65    0.00  1.0000
  -1   2  -1    2827     577                                                        2734    0.65    0.00  1.0000
   1  -2  -1    4275     785                                                        4161    0.65    0.00  1.0000
   1  -2  -1    3722     601                                                        3615    0.65    0.00  1.0000
   1   2  -1    2584     580                                                        2495   -0.65    0.00  1.0000
   1   2  -1    2928     550                                                        2833   -0.65    0.00  1.0000
  -1  -2   1    2897     627                                                        2803   -0.65    0.00  1.0000
  -1  -3  -1    2131     807                                                        2275    1.12    0.00  1.0000
  -1  -3  -1    2092     799                                                        2235    1.12    0.00  1.0000
  -1   3  -1    2100     879                                                        2243    1.12    0.00  1.0000
  -1   3  -1    2329     834                                                        2479    1.12    0.00  1.0000
   1  -3  -1    2032     932                                                        2173    1.12    0.00  1.0000
   1  -3  -1    1929     676                                                        2066    1.12    0.00  1.0000
   1   3  -1    2531     862                                                        2688    1.12    0.00  1.0000
   1   3  -1    1983     641                                                        2122    1.12    0.00  1.0000
  -1  -3   1    1999     670                                                        2139    1.12    0.00  1.0000
  -1  -4  -1    3110     784                                                        3205   -0.62    0.00  1.0000
  -1  -4  -1    2666     689                                                        2754   -0.62    0.00  1.0000
  -1   4  -1    3144     852                                                        3240    0.62    0.00  1.0000
  -1   4  -1    3473     741                                                        3574    0.62    0.00  1.0000
   1  -4  -1    3381     877                                                        3480    0.62    0.00  1.0000
   1  -4  -1    3782     730                                                        3887    0.62    0.00  1.0000
   1   4  -1    3222     755                                                        3319   -0.62    0.00  1.0000
   1   4  -1    3242     700                                                        3339   -0.62    0.00  1.0000
  -1  -4   1    3244     604                                                        3341   -0.62    0.00  1.0000
   1  -4   1    3245     386                                                        3342    0.62    0.00  1.0000
  -1  -5  -1   17169    1188                                                       17527   -1.00    0.00  1.0000
  -1  -5  -1      22     211                                                          36   -1.00    0.00  1.0000
  -1   5  -1   16876    1275                                                       17231   -1.00    0.00  1.0000
  -1   5  -1   15546    1170                                                       15887   -1.00    0.00  1.0000
   1  -5  -1   16610    1298                                                       16962   -1.00    0.00  1.0000
   1   5  -1   16332    1215                                                       16681   -1.00    0.00  1.0000
   1   5  -1   13677    1007                                                       13997   -1.00    0.00  1.0000
  -1  -5   1   15772     917                                                       16115   -1.00    0.00  1.0000
  -1  -6  -1   10401    1076                                                       10406    0.02    0.00  1.0000
  -1  -6  -1    6403     834                                                        6407    0.02    0.00  1.0000
  -1   6  -1    9037    1127                                                        9042   -0.02    0.00  1.0000
  -1   6  -1    9974    1118                                                        9979   -0.02    0.00  1.0000
   1  -6  -1   10414    1133                                                       10419   -0.02    0.00  1.0000
   1   6  -1   11407    1199                                                       11412    0.02    0.00  1.0000
  -1  -6   1    9343     787                                                        9348    0.02    0.00  1.0000
   1  -6   1    8504     525                                                        8509   -0.02    0.00  1.0000
  -1  -7  -1   12620    1159                                                       12688   -0.22    0.00  1.0000
  -1  -7  -1   11357    1154                                                       11421   -0.22    0.00  1.0000
  -1   7  -1   10878    1301                                                       10941   -0.22    0.00  1.0000
  -1   7  -1   11069    1212                                                       11132   -0.22    0.00  1.0000
   1  -7  -1   12363    1323                                                       12430   -0.22    0.00  1.0000
   1   7  -1   10467    1160                                                       10529   -0.22    0.00  1.0000
  -1  -7   1   10547     865                                                       10609   -0.22    0.00  1.0000
   1  -7   1   10599     626                                                       10661   -0.22    0.00  1.0000
  -1  -8  -1   21168    1454                                                       21138    0.07    0.00  1.0000
  -1  -8  -1   23927    1642                                                       23895    0.07    0.00  1.0000
  -1   8  -1   19741    1574                                                       19712   -0.07    0.00  1.0000
  -1   8  -1    8612    1147                                                        8593   -0.07    0.00  1.0000
   1  -8  -1   20419    1536                                                       20390   -0.07    0.00  1.0000
   1   8  -1   19672    1487                                                       19643    0.07    0.00  1.0000
  -1  -9  -1    2553     661                                                        2428    0.92    0.00  1.0000
  -1  -9  -1    2827     740                                                        2695    0.92    0.00  1.0000
  -1   9  -1    2777     696                                                        2646    0.92    0.00  1.0000
  -1   9  -1     424     401                                                         374    0.92    0.00  1.0000
   1  -9  -1    4334     870                                                        4170    0.92    0.00  1.0000
   1   9  -1    2921     665                                                        2787    0.92    0.00  1.0000
  -1 -10  -1    8366    1169                                                        8291   -0.30    0.00  1.0000
  -1 -10  -1    7879    1166                                                        7806   -0.30    0.00  1.0000
  -1  10  -1    8124    1183                                                        8050    0.30    0.00  1.0000
   1 -10  -1    7993    1190                                                        7920    0.30    0.00  1.0000
   1  10  -1    9027    1176                                                        8949   -0.30    0.00  1.0000
  -1 -11  -1   20057    1627                                                       20813   -1.94    0.00  1.0000
  -1 -11  -1   24767    1905                                                       25607   -1.94    0.00  1.0000
  -1  11  -1   20901    1784                                                       21673   -1.94    0.00  1.0000
   1 -11  -1   21863    1800                                                       22652   -1.94    0.00  1.0000
   1  11  -1   21949    1800                                                       22740   -1.94    0.00  1.0000
  -1 -12  -1   10193    1369                                                       10266   -0.26    0.00  1.0000
  -1  12  -1    9588    1369                                                        9659    0.26    0.00  1.0000
   1 -12  -1    9572    1522                                                        9643    0.26    0.00  1.0000
   1  12  -1    8752    1340                                                        8820   -0.26    0.00  1.0000
  -1 -13  -1      12     622                                                          33   -1.63    0.00  1.0000
  -1  13  -1      12     448                                                          33   -1.63    0.00  1.0000
   1 -13  -1     460     765                                                         561   -1.63    0.00  1.0000
   1  13  -1      12     491                                                          33   -1.63    0.00  1.0000
  -1 -14  -1     420     778                                                         396   -0.43    0.00  1.0000
  -1  14  -1     931     718                                                         896    0.43    0.00  1.0000
   1 -14  -1     167     719                                                         152    0.43    0.00  1.0000
   1  14  -1     824     682                                                         791   -0.43    0.00  1.0000
  -1 -15  -1    4203    1095                                                        3968    1.35    0.00  1.0000
  -1  15  -1    3086     917                                                        2885    1.35    0.00  1.0000
   1 -15  -1    3813    1077                                                        3590    1.35    0.00  1.0000
   1  15  -1    2932     837                                                        2736    1.35    0.00  1.0000
  -1 -16  -1    8275    1675                                                        8335   -0.24    0.00  1.0000
   1 -16  -1    7137    1512                                                        7193    0.24    0.00  1.0000
   1  16  -1    8224    1590                                                        8284   -0.24    0.00  1.0000
   1 -16   1    8141    1687                                                        8200    0.24    0.00  1.0000
  -1 -17  -1    1196    1046                                                        1206   -0.10    0.00  1.0000
   1 -17  -1    1052     862                                                        1061   -0.10    0.00  1.0000
   1  17  -1     953     850                                                         962   -0.10    0.00  1.0000
   1 -17   1     724     994                                                         731   -0.10    0.00  1.0000
  -1 -18  -1    1100     971                                                        1199    1.07    0.00  1.0000
   1 -18  -1    1141    1033                                                        1242   -1.07    0.00  1.0000
  -1 -18   1     629    1053                                                         704    1.07    0.00  1.0000
   1 -18   1    1154    1094                                                        1256   -1.07    0.00  1.0000
  -1 -19  -1    1638    1098                                                        1757   -1.05    0.00  1.0000
   1 -19  -1    1332    1109                                                        1439   -1.05    0.00  1.0000
  -1 -19   1     875    1192                                                         962   -1.05    0.00  1.0000
   1 -19   1     805    1125                                                         889   -1.05    0.00  1.0000
  -1 -20  -1    7655    1775                                                        7287    1.56    0.00  1.0000
   1 -20  -1    8270    1784                                                        7888   -1.56    0.00  1.0000
  -1 -20   1    9935    2021                                                        9515    1.56    0.00  1.0000
   1 -20   1    8089    1886                                                        7711   -1.56    0.00  1.0000
  -1 -21  -1       5    1055                                                           0    1.71    0.00  1.0000
   1 -21  -1       5    1121                                                           0    1.71    0.00  1.0000
  -1 -21   1       5    1278                                                           0    1.71    0.00  1.0000
   1 -21   1      56    1267                                                          97    1.71    0.00  1.0000
  -1 -22  -1    1069    1246                                                        1125    0.62    0.00  1.0000
   1 -22  -1    2396    1467                                                        2479   -0.62    0.00  1.0000
  -1 -22   1    1445    1367                                                        1510    0.62    0.00  1.0000
   1 -22   1    1618    1429                                                        1687   -0.62    0.00  1.0000
  -1 -23  -1    2167    1247                                                        1761    3.36    0.00  1.0000
   1 -23  -1    2567    1357                                                        2123    3.36    0.00  1.0000
  -1 -23   1    4726    1625                                                        4116    3.36    0.00  1.0000
   1 -23   1    2207    1380                                                        1797    3.36    0.00  1.0000
  -1 -24  -1    6532    2044                                                        6541   -0.04    0.00  1.0000
   1 -24  -1    5414    1928                                                        5422    0.04    0.00  1.0000
  -1 -24   1    6956    2254                                                        6965   -0.04    0.00  1.0000
   1 -24   1    7398    2312                                                        7408    0.04    0.00  1.0000
  -1 -25  -1      43    1571                                                         111    2.91    0.00  1.0000
   1 -25  -1       1    1502                                                          24    2.91    0.00  1.0000
  -1 -25   1      49    1663                                                         120    2.91    0.00  1.0000
   1 -25   1      36    1436                                                         100    2.91    0.00  1.0000
   1 -26  -1     534    1700                                                         512    0.36    0.00  1.0000
  -1 -26   1       0    1491                                                           0   -0.36    0.00  1.0000
   1 -26   1     866    1694                                                         838    0.36    0.00  1.0000
  -1 -27  -1      32    1543                                                          29    0.19    0.00  1.0000
   1 -27  -1     486    1835                                                         474    0.19    0.00  1.0000
  -1 -27   1     245    1710                                                         237    0.19    0.00  1.0000
   1 -27   1     344    1812                                                         334    0.19    0.00  1.0000
  -1 -28  -1    2436    2098                                                        2492   -0.41    0.00  1.0000
   1 -28  -1    1393    2063                                                        1435    0.41    0.00  1.0000
  -1 -28   1    2508    2139                                                        2564   -0.41    0.00  1.0000
   1 -28   1     411    1956                                                         434    0.41    0.00  1.0000
  -2   0  -1    5581     732                                                        5228    1.76    0.00  1.0000
  -2   0  -1     244     194                                                         175    1.76    0.00  1.0000
   2   0  -1    4940     659                                                        4608    1.76    0.00  1.0000
  -2   0   1    4434     620                                                        4120    1.76    0.00  1.0000
  -2  -1  -1    1034     444                                                        1042   -0.09    0.00  1.0000
  -2  -1  -1       7     178                                                           8   -0.09    0.00  1.0000
  -2   1  -1    1252     500                                                        1261    0.09    0.00  1.0000
  -2   1  -1       1     223                                                           1    0.09    0.00  1.0000
   2  -1  -1     981     478                                                         989    0.09    0.00  1.0000
   2  -1  -1    1252     296                                                        1261    0.09    0.00  1.0000
   2   1  -1    1385     525                                                        1395   -0.09    0.00  1.0000
  -2  -1   1     718     452                                                         725   -0.09    0.00  1.0000
  -2   1   1    1211     485                                                        1220    0.09    0.00  1.0000
  -2  -2  -1   27980    1287                                                       27987   -0.01    0.00  1.0000
  -2   2  -1   35328    1560                                                       35336   -0.01    0.00  1.0000
  -2   2  -1      32     214                                                          32   -0.01    0.00  1.0000
   2  -2  -1   29623    1555                                                       29630   -0.01    0.00  1.0000
   2  -2  -1   32231    1025                                                       32238   -0.01    0.00  1.0000
   2   2  -1   29042    1552                                                       29049   -0.01    0.00  1.0000
  -2  -2   1   29707    1415                                                       29714   -0.01    0.00  1.0000
  -2   2   1   28191    1505                                                       28198   -0.01    0.00  1.0000
  -2  -3  -1    2814     658                                                        2840    0.18    0.00  1.0000
  -2  -3  -1    3721     696                                                        3751    0.18    0.00  1.0000
  -2   3  -1    3531     751                                                        3560   -0.18    0.00  1.0000
  -2   3  -1      49     218                                                          53   -0.18    0.00  1.0000
   2  -3  -1    3700     824                                                        3730   -0.18    0.00  1.0000
   2   3  -1    3299     703                                                        3327    0.18    0.00  1.0000
  -2  -3   1    3945     724                                                        3976    0.18    0.00  1.0000
  -2  -4  -1   14089     945                                                       13895   -0.60    0.00  1.0000
  -2  -4  -1   14479    1101                                                       14282   -0.60    0.00  1.0000
  -2   4  -1   14735    1189                                                       14536   -0.60    0.00  1.0000
  -2   4  -1     509     241                                                         473   -0.60    0.00  1.0000
   2  -4  -1   13247    1124                                                       13058   -0.60    0.00  1.0000
   2   4  -1   13284    1073                                                       13095   -0.60    0.00  1.0000
  -2  -4   1   13994     946                                                       13800   -0.60    0.00  1.0000
  -2  -5  -1   14836    1042                                                       14737    0.30    0.00  1.0000
  -2  -5  -1   16442    1288                                                       16338    0.30    0.00  1.0000
  -2   5  -1   17142    1302                                                       17036   -0.30    0.00  1.0000
  -2   5  -1     556     356                                                         537   -0.30    0.00  1.0000
   2  -5  -1   16769    1326                                                       16664   -0.30    0.00  1.0000
   2   5  -1   14380    1139                                                       14283    0.30    0.00  1.0000
  -2  -5   1   15368    1027                                                       15268    0.30    0.00  1.0000
  -2  -6  -1   47587    1659                                                       47300    0.48    0.00  1.0000
  -2  -6  -1   46581    1960                                                       46297    0.48    0.00  1.0000
  -2   6  -1   45683    1990                                                       45402    0.48    0.00  1.0000
  -2   6  -1   41060    1805                                                       40794    0.48    0.00  1.0000
   2  -6  -1   47793    2054                                                       47506    0.48    0.00  1.0000
   2   6  -1   41383    1783                                                       41116    0.48    0.00  1.0000
  -2  -6   1   45141    1632                                                       44862    0.48    0.00  1.0000
  -2  -7  -1     167     405                                                         170    0.07    0.00  1.0000
  -2  -7  -1     285     462                                                         288    0.07    0.00  1.0000
  -2   7  -1     487     490                                                         491   -0.07    0.00  1.0000
  -2   7  -1     626     534                                                         631   -0.07    0.00  1.0000
   2  -7  -1     474     565                                                         478   -0.07    0.00  1.0000
   2   7  -1     430     406                                                         434    0.07    0.00  1.0000
  -2  -7   1     750     447                                                         756    0.07    0.00  1.0000
  -2  -8  -1   24352    1431                                                       24049   -0.71    0.00  1.0000
  -2  -8  -1   24532    1677                                                       24228   -0.71    0.00  1.0000
  -2   8  -1   22501    1706                                                       22210   -0.71    0.00  1.0000
  -2   8  -1   22419    1691                                                       22128   -0.71    0.00  1.0000
   2  -8  -1   25378    1755                                                       25069   -0.71    0.00  1.0000
  -2  -9  -1    9053    1085                                                        8923    0.50    0.00  1.0000
  -2  -9  -1   10732    1273                                                       10591    0.50    0.00  1.0000
  -2   9  -1   11227    1423                                                       11082   -0.50    0.00  1.0000
  -2   9  -1   10493    1385                                                       10353   -0.50    0.00  1.0000
   2  -9  -1    8788    1254                                                        8660   -0.50    0.00  1.0000
   2   9  -1     151     248                                                         135    0.50    0.00  1.0000
  -2 -10  -1   44209    1985                                                       44117    0.16    0.00  1.0000
  -2 -10  -1   46796    2434                                                       46701    0.16    0.00  1.0000
  -2  10  -1   40350    2278                                                       40262    0.16    0.00  1.0000
  -2  10  -1   47427    2460                                                       47331    0.16    0.00  1.0000
   2 -10  -1   40891    2270                                                       40802    0.16    0.00  1.0000
   2  10  -1      18     241                                                          16    0.16    0.00  1.0000
  -2 -11  -1    6295    1062                                                        6178    0.54    0.00  1.0000
  -2 -11  -1    6820    1201                                                        6698    0.54    0.00  1.0000
  -2  11  -1    7908    1224                                                        7777   -0.54    0.00  1.0000
  -2  11  -1    7435    1302                                                        7308   -0.54    0.00  1.0000
   2 -11  -1    7032    1256                                                        6908   -0.54    0.00  1.0000
   2  11  -1      22     294                                                          16    0.54    0.00  1.0000
  -2 -12  -1    9563    1435                                                       10091    1.95    0.00  1.0000
  -2 -12  -1    8615    1516                                                        9116    1.95    0.00  1.0000
  -2  12  -1    8853    1443                                                        9361    1.95    0.00  1.0000
   2 -12  -1    6920    1451                                                        7370    1.95    0.00  1.0000
   2  12  -1      51     309                                                          96    1.95    0.00  1.0000
  -2 -13  -1     582     692                                                         555    0.42    0.00  1.0000
  -2 -13  -1     615     717                                                         587    0.42    0.00  1.0000
  -2  13  -1    1177     792                                                        1138   -0.42    0.00  1.0000
   2 -13  -1     827     794                                                         795   -0.42    0.00  1.0000
   2  13  -1       0     382                                                           0    0.42    0.00  1.0000
  -2 -14  -1    4121    1181                                                        4181   -0.34    0.00  1.0000
  -2 -14  -1    4817    1285                                                        4882   -0.34    0.00  1.0000
  -2  14  -1    4001    1213                                                        4060   -0.34    0.00  1.0000
   2 -14  -1    4505    1352                                                        4568   -0.34    0.00  1.0000
   2  14  -1     194     488                                                         207   -0.34    0.00  1.0000
  -2 -15  -1    5345    1260                                                        5164    0.92    0.00  1.0000
  -2 -15  -1    5533    1390                                                        5348    0.92    0.00  1.0000
   2 -15  -1    5790    1345                                                        5601   -0.92    0.00  1.0000
   2  15  -1    2674     934                                                        2546    0.92    0.00  1.0000
   2 -15   1    5786    1440                                                        5597   -0.92    0.00  1.0000
  -2 -16  -1    3255    1099                                                        3083   -1.12    0.00  1.0000
  -2 -16  -1    1977     979                                                        1844   -1.12    0.00  1.0000
   2 -16  -1    1793     842                                                        1666   -1.12    0.00  1.0000
   2  16  -1    2493     907                                                        2343   -1.12    0.00  1.0000
   2 -16   1    2869    1063                                                        2708   -1.12    0.00  1.0000
  -2 -17  -1    6475    1472                                                        6514   -0.18    0.00  1.0000
  -2 -17  -1    7585    1622                                                        7628   -0.18    0.00  1.0000
   2 -17  -1    4997    1350                                                        5032    0.18    0.00  1.0000
   2  17  -1    4775    1223                                                        4809   -0.18    0.00  1.0000
   2 -17   1    8685    1696                                                        8731    0.18    0.00  1.0000
  -2 -18  -1    1758    1130                                                        1655    0.92    0.00  1.0000
  -2 -18  -1    2822    1249                                                        2691    0.92    0.00  1.0000
   2 -18  -1    3070    1143                                                        2933    0.92    0.00  1.0000
   2  18  -1    2066    1043                                                        1954    0.92    0.00  1.0000
   2 -18   1    2727    1298                                                        2598    0.92    0.00  1.0000
  -2 -19  -1     205     871                                                         289   -1.98    0.00  1.0000
  -2 -19  -1       0     967                                                           7   -1.98    0.00  1.0000
   2 -19  -1     672    1027                                                         819    1.98    0.00  1.0000
  -2 -19   1     303    1156                                                         404   -1.98    0.00  1.0000
   2 -19   1       0     985                                                           7    1.98    0.00  1.0000
  -2 -20  -1    2219    1128                                                        2234    0.12    0.00  1.0000
  -2 -20  -1    1433    1164                                                        1445    0.12    0.00  1.0000
   2 -20  -1    2442    1287                                                        2458    0.12    0.00  1.0000
  -2 -20   1    1415    1236                                                        1427    0.12    0.00  1.0000
   2 -20   1    1141    1207                                                        1152    0.12    0.00  1.0000
  -2 -21  -1    5251    1614                                                        5513   -1.31    0.00  1.0000
  -2 -21  -1    7333    2044                                                        7643   -1.31    0.00  1.0000
   2 -21  -1    6170    1821                                                        6454    1.31    0.00  1.0000
  -2 -21   1    5048    1815                                                        5305   -1.31    0.00  1.0000
   2 -21   1    6588    2001                                                        6882    1.31    0.00  1.0000
  -2 -22  -1    1373    1430                                                        1518   -1.39    0.00  1.0000
  -2 -22  -1    1082    1431                                                        1211   -1.39    0.00  1.0000
   2 -22  -1     470    1338                                                         556   -1.39    0.00  1.0000
  -2 -22   1     550    1508                                                         643   -1.39    0.00  1.0000
   2 -22   1     840    1470                                                         954   -1.39    0.00  1.0000
  -2 -23  -1    2744    1534                                                        2755   -0.07    0.00  1.0000
  -2 -23  -1    3614    1661                                                        3626   -0.07    0.00  1.0000
   2 -23  -1    2338    1567                                                        2348    0.07    0.00  1.0000
  -2 -23   1    3225    1722                                                        3236   -0.07    0.00  1.0000
   2 -23   1    4982    1859                                                        4996    0.07    0.00  1.0000
  -2 -24  -1     121    1316                                                         170   -1.48    0.00  1.0000
   2 -24  -1      41    1414                                                          71   -1.48    0.00  1.0000
  -2 -24   1    1158    1636                                                        1299   -1.48    0.00  1.0000
   2 -24   1    1049    1604                                                        1184   -1.48    0.00  1.0000
  -2 -25  -1     122    1636                                                         120    0.08    0.00  1.0000
   2 -25  -1       1    1506                                                           1   -0.08    0.00  1.0000
  -2 -25   1     428    1614                                                         424    0.08    0.00  1.0000
   2 -25   1       1    1469                                                           1   -0.08    0.00  1.0000
  -2 -26  -1     353    1570                                                         285   -1.39    0.00  1.0000
   2 -26  -1     283    1598                                                         223   -1.39    0.00  1.0000
  -2 -26   1      21    1741                                                           7   -1.39    0.00  1.0000
   2 -26   1     658    1654                                                         564   -1.39    0.00  1.0000
  -2 -27  -1    2634    1941                                                        2585    0.35    0.00  1.0000
   2 -27  -1    1799    2068                                                        1759   -0.35    0.00  1.0000
  -2 -27   1    1803    1977                                                        1763    0.35    0.00  1.0000
   2 -27   1    2794    2032                                                        2744   -0.35    0.00  1.0000
  -2 -28  -1      22    1764                                                          22   -0.03    0.00  1.0000
   2 -28  -1     206    1931                                                         207   -0.03    0.00  1.0000
  -2 -28   1     399    1922                                                         401   -0.03    0.00  1.0000
   2 -28   1     239    1915                                                         240   -0.03    0.00  1.0000
  -3  -1  -1   25017    1139                                                       24285   -1.71    0.00  1.0000
  -3  -1  -1   23678    1359                                                       22966   -1.71    0.00  1.0000
  -3   1  -1   26078    1219                                                       25330   -1.71    0.00  1.0000
  -3   1  -1   24446    1388                                                       23722   -1.71    0.00  1.0000
   3  -1  -1   21045    1246                                                       20374   -1.71    0.00  1.0000
   3   1  -1   19296    1153                                                       18654   -1.71    0.00  1.0000
  -3  -1   1   24168    1281                                                       23448   -1.71    0.00  1.0000
  -3   1   1   24076    1323                                                       23358   -1.71    0.00  1.0000
  -3  -2  -1    8697     774                                                        8405    1.16    0.00  1.0000
  -3  -2  -1    9535     982                                                        9229    1.16    0.00  1.0000
  -3   2  -1    9970     968                                                        9657   -1.16    0.00  1.0000
  -3   2  -1   10101    1021                                                        9786   -1.16    0.00  1.0000
   3  -2  -1   10101    1012                                                        9786   -1.16    0.00  1.0000
   3   2  -1    4236     647                                                        4033    1.16    0.00  1.0000
  -3  -2   1    9440     902                                                        9136    1.16    0.00  1.0000
  -3   2   1    8877     884                                                        8582   -1.16    0.00  1.0000
  -3  -3  -1    1212     352                                                        1151    0.65    0.00  1.0000
  -3  -3  -1    1282     508                                                        1219    0.65    0.00  1.0000
  -3   3  -1    1134     440                                                        1075    0.65    0.00  1.0000
  -3   3  -1    1637     536                                                        1566    0.65    0.00  1.0000
   3  -3  -1    1101     467                                                        1043    0.65    0.00  1.0000
   3   3  -1     322     166                                                         291    0.65    0.00  1.0000
  -3  -3   1    1492     486                                                        1424    0.65    0.00  1.0000
  -3   3   1    1416     466                                                        1350    0.65    0.00  1.0000
  -3  -4  -1    3328     685                                                        3359    0.20    0.00  1.0000
  -3  -4  -1    4085     915                                                        4119    0.20    0.00  1.0000
  -3   4  -1    2990     698                                                        3019   -0.20    0.00  1.0000
  -3   4  -1    3509     802                                                        3541   -0.20    0.00  1.0000
   3  -4  -1    3807     795                                                        3840   -0.20    0.00  1.0000
   3   4  -1      50     208                                                          54    0.20    0.00  1.0000
  -3  -4   1    3574     703                                                        3606    0.20    0.00  1.0000
  -3   4   1    3676     839                                                        3708   -0.20    0.00  1.0000
  -3  -5  -1   19789    1081                                                       19733   -0.15    0.00  1.0000
  -3  -5  -1   20795    1483                                                       20737   -0.15    0.00  1.0000
  -3   5  -1   21756    1513                                                       21697   -0.15    0.00  1.0000
  -3   5  -1   20973    1477                                                       20915   -0.15    0.00  1.0000
   3  -5  -1   22745    1506                                                       22685   -0.15    0.00  1.0000
   3   5  -1   18402    1312                                                       18348   -0.15    0.00  1.0000
  -3  -5   1   23607    1381                                                       23545   -0.15    0.00  1.0000
  -3  -6  -1   21219    1209                                                       21345   -0.32    0.00  1.0000
  -3  -6  -1   25061    1716                                                       25198   -0.32    0.00  1.0000
  -3   6  -1   27616    1799                                                       27760    0.32    0.00  1.0000
  -3   6  -1   23540    1651                                                       23673    0.32    0.00  1.0000
   3  -6  -1   25356    1720                                                       25494    0.32    0.00  1.0000
   3   6  -1   19201    1419                                                       19321   -0.32    0.00  1.0000
  -3  -6   1   21644    1416                                                       21771   -0.32    0.00  1.0000
  -3  -7  -1    9874     925                                                        9780   -0.35    0.00  1.0000
  -3  -7  -1    9045    1107                                                        8955   -0.35    0.00  1.0000
  -3   7  -1   10388    1183                                                       10292   -0.35    0.00  1.0000
  -3   7  -1   11188    1278                                                       11088   -0.35    0.00  1.0000
   3  -7  -1   10177    1196                                                       10082   -0.35    0.00  1.0000
   3   7  -1    8722    1054                                                        8634   -0.35    0.00  1.0000
  -3  -7   1    8692     922                                                        8604   -0.35    0.00  1.0000
  -3  -8  -1     950     515                                                         916   -0.41    0.00  1.0000
  -3  -8  -1     881     643                                                         848   -0.41    0.00  1.0000
  -3   8  -1     980     594                                                         946    0.41    0.00  1.0000
  -3   8  -1    1205     686                                                        1167    0.41    0.00  1.0000
   3  -8  -1     412     579                                                         390    0.41    0.00  1.0000
   3   8  -1     578     478                                                         552   -0.41    0.00  1.0000
  -3  -8   1    1499     580                                                        1456   -0.41    0.00  1.0000
  -3  -9  -1    1249     562                                                        1178    0.74    0.00  1.0000
  -3  -9  -1     985     672                                                         922    0.74    0.00  1.0000
  -3   9  -1    1005     665                                                         942    0.74    0.00  1.0000
  -3   9  -1     592     654                                                         544    0.74    0.00  1.0000
   3  -9  -1    1179     692                                                        1110    0.74    0.00  1.0000
   3   9  -1     277     433                                                         244    0.74    0.00  1.0000
  -3 -10  -1   26124    1612                                                       26451   -0.74    0.00  1.0000
  -3 -10  -1   28955    2091                                                       29299   -0.74    0.00  1.0000
  -3  10  -1   25638    2002                                                       25962    0.74    0.00  1.0000
  -3  10  -1   26872    2023                                                       27204    0.74    0.00  1.0000
   3 -10  -1   25107    1958                                                       25428    0.74    0.00  1.0000
   3  10  -1   27045    1877                                                       27378   -0.74    0.00  1.0000
  -3 -11  -1   19487    1448                                                       19212   -0.72    0.00  1.0000
  -3 -11  -1   20236    1764                                                       19956   -0.72    0.00  1.0000
  -3  11  -1   21136    1945                                                       20849   -0.72    0.00  1.0000
  -3  11  -1   26184    2064                                                       25865   -0.72    0.00  1.0000
   3 -11  -1   18848    1760                                                       18577   -0.72    0.00  1.0000
   3  11  -1   18607    1548                                                       18338   -0.72    0.00  1.0000
  -3 -12  -1       3     549                                                           4   -0.29    0.00  1.0000
  -3 -12  -1       0     615                                                           1   -0.29    0.00  1.0000
  -3  12  -1       0     546                                                           1    0.29    0.00  1.0000
  -3  12  -1       0     763                                                           1    0.29    0.00  1.0000
   3 -12  -1     172     747                                                         182    0.29    0.00  1.0000
   3  12  -1     570     577                                                         589   -0.29    0.00  1.0000
  -3 -13  -1     370     719                                                         407   -0.69    0.00  1.0000
  -3 -13  -1     247     699                                                         277   -0.69    0.00  1.0000
   3 -13  -1     588     899                                                         635   -0.69    0.00  1.0000
   3  13  -1     229     609                                                         258   -0.69    0.00  1.0000
  -3 -14  -1   13995    1571                                                       14213   -0.67    0.00  1.0000
  -3 -14  -1   15525    1771                                                       15755   -0.67    0.00  1.0000
   3 -14  -1   11616    1731                                                       11815    0.67    0.00  1.0000
   3  14  -1   14472    1706                                                       14694   -0.67    0.00  1.0000
   3 -14   1   12697    1668                                                       12905    0.67    0.00  1.0000
  -3 -15  -1    7443    1476                                                        7686    1.02    0.00  1.0000
  -3 -15  -1    7011    1565                                                        7247    1.02    0.00  1.0000
   3 -15  -1    6292    1467                                                        6516    1.02    0.00  1.0000
   3  15  -1    6393    1495                                                        6618    1.02    0.00  1.0000
   3 -15   1    5978    1653                                                        6196    1.02    0.00  1.0000
  -3 -16  -1      16     765                                                          31   -1.18    0.00  1.0000
  -3 -16  -1      16     668                                                          31   -1.18    0.00  1.0000
   3 -16  -1      16     677                                                          31    1.18    0.00  1.0000
   3  16  -1      16     578                                                          31   -1.18    0.00  1.0000
   3 -16   1       1     796                                                           8    1.18    0.00  1.0000
  -3 -17  -1       8     882                                                           7   -0.15    0.00  1.0000
  -3 -17  -1    2030    1079                                                        2011   -0.15    0.00  1.0000
   3 -17  -1       8     788                                                           7   -0.15    0.00  1.0000
   3  17  -1    1417     959                                                        1401   -0.15    0.00  1.0000
   3 -17   1     471     853                                                         462   -0.15    0.00  1.0000
  -3 -18  -1    8769    1832                                                        8647    0.48    0.00  1.0000
  -3 -18  -1    9117    1728                                                        8992    0.48    0.00  1.0000
   3 -18  -1    8953    1833                                                        8830   -0.48    0.00  1.0000
   3  18  -1    9620    1844                                                        9492    0.48    0.00  1.0000
   3 -18   1    8330    1782                                                        8211   -0.48    0.00  1.0000
  -3 -19  -1     391    1036                                                         346   -0.86    0.00  1.0000
  -3 -19  -1    1967    1156                                                        1864   -0.86    0.00  1.0000
   3 -19  -1    1742    1087                                                        1646   -0.86    0.00  1.0000
   3 -19   1    1306    1064                                                        1223   -0.86    0.00  1.0000
  -3 -20  -1     222     972                                                         271    1.16    0.00  1.0000
  -3 -20  -1     735    1105                                                         823    1.16    0.00  1.0000
   3 -20  -1       0     960                                                           4   -1.16    0.00  1.0000
  -3 -20   1       0    1089                                                           4    1.16    0.00  1.0000
   3 -20   1       0     997                                                           4   -1.16    0.00  1.0000
  -3 -21  -1     298    1167                                                         311    0.28    0.00  1.0000
   3 -21  -1      58    1118                                                          64    0.28    0.00  1.0000
  -3 -21   1     325    1281                                                         339    0.28    0.00  1.0000
   3 -21   1     874    1221                                                         896    0.28    0.00  1.0000
  -3 -22  -1   11334    2157                                                       11342   -0.03    0.00  1.0000
   3 -22  -1   10509    2217                                                       10517    0.03    0.00  1.0000
  -3 -22   1    8896    2185                                                        8903   -0.03    0.00  1.0000
   3 -22   1   12279    2274                                                       12287    0.03    0.00  1.0000
  -3 -23  -1    1436    1486                                                        1444    0.08    0.00  1.0000
   3 -23  -1     672    1291                                                         677    0.08    0.00  1.0000
  -3 -23   1       1    1428                                                           1    0.08    0.00  1.0000
   3 -23   1    1660    1423                                                        1668    0.08    0.00  1.0000
  -3 -24  -1     167    1381                                                         167    0.01    0.00  1.0000
   3 -24  -1    2157    1681                                                        2159   -0.01    0.00  1.0000
  -3 -24   1       0    1553                                                           0    0.01    0.00  1.0000
   3 -24   1     593    1473                                                         594   -0.01    0.00  1.0000
  -3 -25  -1     171    1494                                                         159    0.33    0.00  1.0000
   3 -25  -1      25    1522                                                          21    0.33    0.00  1.0000
  -3 -25   1      21    1692                                                          17    0.33    0.00  1.0000
   3 -25   1      81    1408                                                          73    0.33    0.00  1.0000
  -3 -26  -1    3386    1979                                                        3365    0.13    0.00  1.0000
   3 -26  -1    3702    1983                                                        3680   -0.13    0.00  1.0000
  -3 -26   1    3480    2175                                                        3458    0.13    0.00  1.0000
   3 -26   1    3636    1859                                                        3614   -0.13    0.00  1.0000
  -3 -27  -1    1056    1901                                                        1164    1.19    0.00  1.0000
   3 -27  -1    1271    1831                                                        1390    1.19    0.00  1.0000
  -3 -27   1    1278    1964                                                        1397    1.19    0.00  1.0000
   3 -27   1      27    1669                                                          47    1.19    0.00  1.0000
  -3 -28  -1     100    1880                                                          96   -0.16    0.00  1.0000
   3 -28  -1       0    1910                                                           0    0.16    0.00  1.0000
   3 -28   1     731    1777                                                         719    0.16    0.00  1.0000
  -4   0  -1    2643     741                                                        2731    0.62    0.00  1.0000
  -4   0  -1    2573     810                                                        2659    0.62    0.00  1.0000
   4   0  -1       7     193                                                          12    0.62    0.00  1.0000
  -4   0   1    2979    1151                                                        3072    0.62    0.00  1.0000
  -4  -1  -1   12011     935                                                       11768   -0.82    0.00  1.0000
  -4  -1  -1   12917    1264                                                       12665   -0.82    0.00  1.0000
  -4   1  -1   12347    1011                                                       12101    0.82    0.00  1.0000
  -4   1  -1    9601    1167                                                        9384    0.82    0.00  1.0000
   4  -1  -1   10112     994                                                        9889    0.82    0.00  1.0000
   4   1  -1    1218     382                                                        1141   -0.82    0.00  1.0000
  -4  -1   1   12322    1151                                                       12076   -0.82    0.00  1.0000
  -4   1   1   11377    1114                                                       11141    0.82    0.00  1.0000
  -4  -2  -1  135049    2270                                                      134553   -0.49    0.00  1.0000
  -4  -2  -1  143024    3440                                                      142514   -0.49    0.00  1.0000
  -4   2  -1  145736    2910                                                      145221   -0.49    0.00  1.0000
  -4   2  -1  134396    3310                                                      133901   -0.49    0.00  1.0000
   4  -2  -1  137732    3270                                                      137231   -0.49    0.00  1.0000
   4   2  -1  124650    2990                                                      124173   -0.49    0.00  1.0000
  -4  -2   1  141016    3290                                                      140509   -0.49    0.00  1.0000
  -4   2   1  120187    3100                                                      119719   -0.49    0.00  1.0000
  -4  -3  -1   17268     998                                                       17428   -0.45    0.00  1.0000
  -4  -3  -1   18205    1487                                                       18370   -0.45    0.00  1.0000
  -4   3  -1   20266    1397                                                       20440    0.45    0.00  1.0000
  -4   3  -1   19651    1549                                                       19822    0.45    0.00  1.0000
   4  -3  -1   19626    1482                                                       19797    0.45    0.00  1.0000
   4   3  -1   16058    1277                                                       16213   -0.45    0.00  1.0000
  -4  -3   1   18052    1388                                                       18216   -0.45    0.00  1.0000
  -4   3   1   18724    1517                                                       18891    0.45    0.00  1.0000
  -4  -4  -1    1196     359                                                        1169   -0.28    0.00  1.0000
  -4  -4  -1     899     562                                                         876   -0.28    0.00  1.0000
  -4   4  -1    1622     565                                                        1591   -0.28    0.00  1.0000
  -4   4  -1    1689     631                                                        1657   -0.28    0.00  1.0000
   4  -4  -1    1171     516                                                        1145   -0.28    0.00  1.0000
   4   4  -1    1297     482                                                        1269   -0.28    0.00  1.0000
  -4  -4   1    1268     377                                                        1241   -0.28    0.00  1.0000
  -4  -4   1    1571     573                                                        1541   -0.28    0.00  1.0000
  -4   4   1    1092     591                                                        1067   -0.28    0.00  1.0000
  -4  -5  -1    6893     823                                                        7019    0.55    0.00  1.0000
  -4  -5  -1   10388    1353                                                       10543    0.55    0.00  1.0000
  -4   5  -1   10448    1236                                                       10603   -0.55    0.00  1.0000
  -4   5  -1    8913    1286                                                        9056   -0.55    0.00  1.0000
   4  -5  -1    8215    1181                                                        8352   -0.55    0.00  1.0000
   4   5  -1    7606    1141                                                        7738    0.55    0.00  1.0000
  -4  -5   1    9797     937                                                        9947    0.55    0.00  1.0000
  -4  -5   1    8126    1060                                                        8263    0.55    0.00  1.0000
  -4   5   1    7156    1214                                                        7284   -0.55    0.00  1.0000
  -4  -6  -1   73751    1863                                                       74557    1.08    0.00  1.0000
  -4  -6  -1   75847    2951                                                       76664    1.08    0.00  1.0000
  -4   6  -1   88361    2987                                                       89243    1.08    0.00  1.0000
  -4   6  -1   77663    2983                                                       78490    1.08    0.00  1.0000
   4  -6  -1   83897    3055                                                       84756    1.08    0.00  1.0000
   4   6  -1   72881    2629                                                       73682    1.08    0.00  1.0000
  -4  -6   1   87701    2916                                                       88580    1.08    0.00  1.0000
  -4  -7  -1    9621     923                                                        9644   -0.08    0.00  1.0000
  -4  -7  -1   11635    1374                                                       11660   -0.08    0.00  1.0000
  -4   7  -1   11284    1349                                                       11308    0.08    0.00  1.0000
  -4   7  -1   11305    1412                                                       11329    0.08    0.00  1.0000
   4  -7  -1   12312    1343                                                       12338    0.08    0.00  1.0000
   4   7  -1    9846    1176                                                        9869   -0.08    0.00  1.0000
  -4  -7   1   11550    1191                                                       11575   -0.08    0.00  1.0000
  -4  -8  -1      46     373                                                          42   -0.20    0.00  1.0000
  -4  -8  -1       0     504                                                           0   -0.20    0.00  1.0000
  -4   8  -1      15     517                                                          13   -0.20    0.00  1.0000
  -4   8  -1       9     546                                                           7   -0.20    0.00  1.0000
   4  -8  -1     235     478                                                         227   -0.20    0.00  1.0000
   4   8  -1     134     421                                                         128   -0.20    0.00  1.0000
  -4  -8   1     239     508                                                         231   -0.20    0.00  1.0000
  -4  -9  -1     205     419                                                         212    0.18    0.00  1.0000
  -4  -9  -1     532     600                                                         543    0.18    0.00  1.0000
  -4   9  -1     483     600                                                         494   -0.18    0.00  1.0000
  -4   9  -1     637     680                                                         649   -0.18    0.00  1.0000
   4  -9  -1       6     431                                                           7   -0.18    0.00  1.0000
   4   9  -1    1017     573                                                        1033    0.18    0.00  1.0000
  -4  -9   1     748     528                                                         761    0.18    0.00  1.0000
  -4 -10  -1   44826    1760                                                       44553   -0.47    0.00  1.0000
  -4 -10  -1   47266    2488                                                       46986   -0.47    0.00  1.0000
  -4  10  -1   46285    2511                                                       46007   -0.47    0.00  1.0000
  -4  10  -1   49677    2581                                                       49389   -0.47    0.00  1.0000
   4 -10  -1   46628    2473                                                       46349   -0.47    0.00  1.0000
   4  10  -1   48124    2256                                                       47841   -0.47    0.00  1.0000
  -4 -11  -1    3076     792                                                        3021    0.37    0.00  1.0000
  -4 -11  -1    3929    1113                                                        3866    0.37    0.00  1.0000
  -4  11  -1    3569    1105                                                        3509   -0.37    0.00  1.0000
   4 -11  -1    3553    1090                                                        3494   -0.37    0.00  1.0000
   4  11  -1    3122     890                                                        3066    0.37    0.00  1.0000
  -4 -12  -1      53     554                                                          69    0.74    0.00  1.0000
  -4 -12  -1       1     649                                                           4    0.74    0.00  1.0000
  -4  12  -1      10     687                                                          17    0.74    0.00  1.0000
   4 -12  -1      40     653                                                          54    0.74    0.00  1.0000
   4  12  -1     199     541                                                         228    0.74    0.00  1.0000
   4 -12   1     242     697                                                         274    0.74    0.00  1.0000
  -4 -13  -1     840     730                                                         850   -0.13    0.00  1.0000
  -4 -13  -1    1573     867                                                        1587   -0.13    0.00  1.0000
  -4  13  -1    1743    1043                                                        1757    0.13    0.00  1.0000
   4 -13  -1     948     825                                                         959    0.13    0.00  1.0000
   4  13  -1    1045     797                                                        1056   -0.13    0.00  1.0000
   4 -13   1    1037     753                                                        1048    0.13    0.00  1.0000
  -4 -14  -1   17789    1682                                                       17739   -0.14    0.00  1.0000
  -4 -14  -1   19609    2082                                                       19556   -0.14    0.00  1.0000
  -4  14  -1   21481    2211                                                       21426   -0.14    0.00  1.0000
   4 -14  -1   16885    1908                                                       16836   -0.14    0.00  1.0000
   4  14  -1   20481    1917                                                       20427   -0.14    0.00  1.0000
   4 -14   1   15942    1861                                                       15894   -0.14    0.00  1.0000
  -4 -15  -1    1195     833                                                        1107    0.95    0.00  1.0000
  -4 -15  -1    1244     893                                                        1154    0.95    0.00  1.0000
   4 -15  -1    1173     833                                                        1086   -0.95    0.00  1.0000
   4  15  -1    1566     903                                                        1465    0.95    0.00  1.0000
   4 -15   1    1112     858                                                        1027   -0.95    0.00  1.0000
  -4 -16  -1       3     769                                                           2   -0.14    0.00  1.0000
  -4 -16  -1       8     839                                                           7   -0.14    0.00  1.0000
   4 -16  -1       3     754                                                           2   -0.14    0.00  1.0000
   4  16  -1     319     760                                                         312   -0.14    0.00  1.0000
   4 -16   1      59     626                                                          56   -0.14    0.00  1.0000
  -4 -17  -1       7     899                                                          18    1.17    0.00  1.0000
   4 -17  -1     368     914                                                         432   -1.17    0.00  1.0000
   4  17  -1       7     648                                                          18    1.17    0.00  1.0000
   4 -17   1       4     739                                                          13   -1.17    0.00  1.0000
  -4 -18  -1    1988    1478                                                        2105    0.95    0.00  1.0000
   4 -18  -1    1662    1272                                                        1769    0.95    0.00  1.0000
   4  18  -1    2784    1382                                                        2923    0.95    0.00  1.0000
   4 -18   1    1043    1244                                                        1128    0.95    0.00  1.0000
  -4 -19  -1    1026    1278                                                        1035   -0.10    0.00  1.0000
   4 -19  -1    1635    1280                                                        1646    0.10    0.00  1.0000
   4  19  -1    2400    1221                                                        2414   -0.10    0.00  1.0000
   4 -19   1    1194    1191                                                        1204    0.10    0.00  1.0000
  -4 -20  -1     596    1270                                                         592   -0.06    0.00  1.0000
   4 -20  -1    1271    1303                                                        1265   -0.06    0.00  1.0000
  -4 -20   1     761    1330                                                         756   -0.06    0.00  1.0000
   4 -20   1     935    1207                                                         930   -0.06    0.00  1.0000
  -4 -21  -1     875    1364                                                         857    0.22    0.00  1.0000
   4 -21  -1      10    1096                                                           8   -0.22    0.00  1.0000
  -4 -21   1     469    1333                                                         456    0.22    0.00  1.0000
   4 -21   1     293    1234                                                         283   -0.22    0.00  1.0000
  -4 -22  -1     375    1365                                                         358   -0.33    0.00  1.0000
   4 -22  -1    2793    1597                                                        2746   -0.33    0.00  1.0000
  -4 -22   1    1145    1449                                                        1115   -0.33    0.00  1.0000
   4 -22   1    1400    1364                                                        1367   -0.33    0.00  1.0000
  -4 -23  -1       7    1361                                                           5    0.34    0.00  1.0000
   4 -23  -1       7    1284                                                           5   -0.34    0.00  1.0000
  -4 -23   1       7    1418                                                           5    0.34    0.00  1.0000
   4 -23   1       7    1136                                                           5   -0.34    0.00  1.0000
  -4 -24  -1      68    1512                                                          82    0.60    0.00  1.0000
   4 -24  -1      68    1316                                                          82    0.60    0.00  1.0000
  -4 -24   1     104    1593                                                         121    0.60    0.00  1.0000
   4 -24   1     104    1401                                                         121    0.60    0.00  1.0000
  -4 -25  -1    2450    1880                                                        2491   -0.30    0.00  1.0000
   4 -25  -1       1    1468                                                           2    0.30    0.00  1.0000
   4 -25   1     935    1592                                                         960    0.30    0.00  1.0000
  -4 -26  -1     504    1867                                                         484   -0.33    0.00  1.0000
   4 -26  -1     428    1718                                                         409   -0.33    0.00  1.0000
   4 -26   1    1332    2245                                                        1299   -0.33    0.00  1.0000
  -4 -27  -1     316    1902                                                         338    0.45    0.00  1.0000
   4 -27  -1       1    1698                                                           3   -0.45    0.00  1.0000
   4 -27   1    1064    1713                                                        1105   -0.45    0.00  1.0000
  -4 -28  -1       2    2024                                                           0   -1.00    0.00  1.0000
   4 -28  -1       2    1803                                                           0   -1.00    0.00  1.0000
   4 -28   1       2    1706                                                           0   -1.00    0.00  1.0000
  -5  -1  -1   31023    1329                                                       31363    0.70    0.00  1.0000
  -5  -1  -1   29338    1925                                                       29668    0.70    0.00  1.0000
  -5   1  -1   31783    1510                                                       32127    0.70    0.00  1.0000
  -5   1  -1   23925    1766                                                       24223    0.70    0.00  1.0000
   5   1  -1   26418    1654                                                       26732    0.70    0.00  1.0000
  -5  -1   1   29549    1839                                                       29881    0.70    0.00  1.0000
  -5   1   1   27343     972                                                       27662    0.70    0.00  1.0000
  -5   1   1   25954    1736                                                       26265    0.70    0.00  1.0000
  -5  -2  -1    3134     736                                                        3069   -0.43    0.00  1.0000
  -5  -2  -1    2888     927                                                        2826   -0.43    0.00  1.0000
  -5   2  -1    4299     941                                                        4223    0.43    0.00  1.0000
  -5   2  -1    2676     888                                                        2616    0.43    0.00  1.0000
   5  -2  -1     391     486                                                         368    0.43    0.00  1.0000
   5   2  -1    3165     846                                                        3100   -0.43    0.00  1.0000
  -5  -2   1    3485     978                                                        3416   -0.43    0.00  1.0000
  -5   2   1    3737    1092                                                        3666    0.43    0.00  1.0000
  -5  -3  -1   30119    1173                                                       30562    0.93    0.00  1.0000
  -5  -3  -1   27480    1908                                                       27904    0.93    0.00  1.0000
  -5   3  -1   33101    1742                                                       33566    0.93    0.00  1.0000
  -5   3  -1   28137    1916                                                       28566    0.93    0.00  1.0000
  -5   3  -1   28987    1266                                                       29422    0.93    0.00  1.0000
   5  -3  -1   28899    1815                                                       29333    0.93    0.00  1.0000
   5   3  -1   23187    1602                                                       23576    0.93    0.00  1.0000
  -5  -3   1   30303    1909                                                       30748    0.93    0.00  1.0000
  -5   3   1   29200    1975                                                       29636    0.93    0.00  1.0000
  -5  -4  -1    2157     646                                                        2357   -1.54    0.00  1.0000
  -5  -4  -1    3014     981                                                        3249   -1.54    0.00  1.0000
  -5   4  -1    3799     974                                                        4063    1.54    0.00  1.0000
  -5   4  -1    3784    1097                                                        4047    1.54    0.00  1.0000
  -5   4  -1    2834     638                                                        3062    1.54    0.00  1.0000
   5  -4  -1    3084     936                                                        3322    1.54    0.00  1.0000
   5   4  -1    2168     765                                                        2368   -1.54    0.00  1.0000
  -5  -4   1    2371     661                                                        2580   -1.54    0.00  1.0000
  -5  -4   1    2989     906                                                        3224   -1.54    0.00  1.0000
  -5   4   1    3486    1099                                                        3739    1.54    0.00  1.0000
  -5  -5  -1   19823     894                                                       19724   -0.26    0.00  1.0000
  -5  -5  -1   21500    1650                                                       21397   -0.26    0.00  1.0000
  -5   5  -1   25332    1632                                                       25220   -0.26    0.00  1.0000
  -5   5  -1   23214    1687                                                       23107   -0.26    0.00  1.0000
  -5   5  -1   21832     931                                                       21728   -0.26    0.00  1.0000
   5  -5  -1   22014    1578                                                       21910   -0.26    0.00  1.0000
   5   5  -1   21378    1515                                                       21276   -0.26    0.00  1.0000
  -5  -5   1   22945    1125                                                       22839   -0.26    0.00  1.0000
  -5  -5   1   24260    1595                                                       24151   -0.26    0.00  1.0000
  -5   5   1   20586    1631                                                       20485   -0.26    0.00  1.0000
  -5  -6  -1    4448     674                                                        4413   -0.19    0.00  1.0000
  -5  -6  -1    6199    1290                                                        6158   -0.19    0.00  1.0000
  -5   6  -1    6135    1203                                                        6094    0.19    0.00  1.0000
  -5   6  -1    5580    1166                                                        5541    0.19    0.00  1.0000
  -5   6  -1    5121     624                                                        5084    0.19    0.00  1.0000
   5  -6  -1    6093    1093                                                        6052    0.19    0.00  1.0000
   5   6  -1    5842    1001                                                        5802   -0.19    0.00  1.0000
  -5  -6   1    5359     863                                                        5321   -0.19    0.00  1.0000
  -5  -6   1    5435     963                                                        5397   -0.19    0.00  1.0000
  -5   6   1    5242    1147                                                        5204    0.19    0.00  1.0000
  -5  -7  -1    7976     743                                                        7946   -0.12    0.00  1.0000
  -5  -7  -1    9307    1400                                                        9274   -0.12    0.00  1.0000
  -5   7  -1    8121    1276                                                        8090   -0.12    0.00  1.0000
  -5   7  -1    9826    1393                                                        9792   -0.12    0.00  1.0000
   5  -7  -1   11127    1260                                                       11091   -0.12    0.00  1.0000
   5   7  -1    7811    1042                                                        7781   -0.12    0.00  1.0000
  -5  -7   1    8599     996                                                        8567   -0.12    0.00  1.0000
  -5  -7   1   11914    1189                                                       11877   -0.12    0.00  1.0000
  -5   7   1    6102    1141                                                        6075   -0.12    0.00  1.0000
  -5  -8  -1     516     448                                                         569    0.83    0.00  1.0000
  -5  -8  -1     849     857                                                         916    0.83    0.00  1.0000
  -5   8  -1     728     748                                                         790   -0.83    0.00  1.0000
  -5   8  -1     276     712                                                         315   -0.83    0.00  1.0000
   5  -8  -1     597     677                                                         654   -0.83    0.00  1.0000
   5   8  -1     340     542                                                         383    0.83    0.00  1.0000
  -5  -8   1     475     625                                                         526    0.83    0.00  1.0000
  -5  -8   1     600     667                                                         657    0.83    0.00  1.0000
  -5  -9  -1   25267    1317                                                       25557    0.67    0.00  1.0000
  -5  -9  -1   23999    2122                                                       24282    0.67    0.00  1.0000
  -5   9  -1   24900    2139                                                       25188    0.67    0.00  1.0000
   5  -9  -1   26733    2073                                                       27031    0.67    0.00  1.0000
   5   9  -1   23620    1766                                                       23900    0.67    0.00  1.0000
  -5  -9   1   24852    1705                                                       25140    0.67    0.00  1.0000
  -5  -9   1   25707    1892                                                       26000    0.67    0.00  1.0000
   5  -9   1   24119    1965                                                       24402    0.67    0.00  1.0000
  -5 -10  -1    1938     624                                                        1914   -0.20    0.00  1.0000
  -5 -10  -1    1944    1006                                                        1920   -0.20    0.00  1.0000
  -5  10  -1    1855     940                                                        1831    0.20    0.00  1.0000
   5 -10  -1    1919     879                                                        1895    0.20    0.00  1.0000
   5  10  -1    1460     670                                                        1439   -0.20    0.00  1.0000
  -5 -10   1    2144     852                                                        2118   -0.20    0.00  1.0000
   5 -10   1    1393     799                                                        1372    0.20    0.00  1.0000
  -5 -11  -1     751     623                                                         722   -0.40    0.00  1.0000
  -5 -11  -1    1773    1075                                                        1728   -0.40    0.00  1.0000
  -5  11  -1    1206     935                                                        1169   -0.40    0.00  1.0000
   5 -11  -1     397     690                                                         376   -0.40    0.00  1.0000
   5  11  -1    1321     787                                                        1282   -0.40    0.00  1.0000
   5 -11   1    1408     907                                                        1368   -0.40    0.00  1.0000
  -5 -12  -1      57     559                                                          51    0.32    0.00  1.0000
  -5 -12  -1     145     784                                                         135    0.32    0.00  1.0000
  -5  12  -1     592     849                                                         571   -0.32    0.00  1.0000
   5 -12  -1      94     623                                                          86   -0.32    0.00  1.0000
   5  12  -1     262     579                                                         248    0.32    0.00  1.0000
   5 -12   1      17     607                                                          14   -0.32    0.00  1.0000
  -5 -13  -1   30440    2389                                                       30220   -0.46    0.00  1.0000
  -5  13  -1   31233    2465                                                       31010   -0.46    0.00  1.0000
   5 -13  -1   28617    2248                                                       28403   -0.46    0.00  1.0000
   5  13  -1   30072    2090                                                       29853   -0.46    0.00  1.0000
   5 -13   1   25923    2112                                                       25720   -0.46    0.00  1.0000
  -5 -14  -1    5966    1589                                                        6057    0.43    0.00  1.0000
  -5  14  -1    7249    1742                                                        7349   -0.43    0.00  1.0000
   5 -14  -1    4721    1452                                                        4802   -0.43    0.00  1.0000
   5  14  -1    5390    1391                                                        5476    0.43    0.00  1.0000
   5 -14   1    5860    1374                                                        5950   -0.43    0.00  1.0000
  -5 -15  -1    1450    1111                                                        1435    0.15    0.00  1.0000
  -5  15  -1    1935    1234                                                        1917    0.15    0.00  1.0000
   5 -15  -1    2319    1094                                                        2300    0.15    0.00  1.0000
   5  15  -1    2220     979                                                        2201    0.15    0.00  1.0000
   5 -15   1    2217    1061                                                        2198    0.15    0.00  1.0000
  -5 -16  -1    1627    1179                                                        1749   -1.09    0.00  1.0000
   5 -16  -1    1461    1133                                                        1577    1.09    0.00  1.0000
   5  16  -1    2137    1068                                                        2276   -1.09    0.00  1.0000
   5 -16   1    1419    1051                                                        1533    1.09    0.00  1.0000
  -5 -17  -1    5974    1632                                                        5802   -0.82    0.00  1.0000
   5 -17  -1    4752    1355                                                        4599   -0.82    0.00  1.0000
   5  17  -1    7356    1549                                                        7165   -0.82    0.00  1.0000
   5 -17   1    6761    1584                                                        6578   -0.82    0.00  1.0000
  -5 -18  -1    8179    1977                                                        8005   -0.71    0.00  1.0000
   5 -18  -1    5439    1591                                                        5298    0.71    0.00  1.0000
   5  18  -1    6583    1639                                                        6427   -0.71    0.00  1.0000
   5 -18   1    4081    1393                                                        3959    0.71    0.00  1.0000
  -5 -19  -1    1245    1423                                                        1268   -0.24    0.00  1.0000
   5 -19  -1     829    1261                                                         848   -0.24    0.00  1.0000
   5  19  -1    1581    1231                                                        1607   -0.24    0.00  1.0000
   5 -19   1     990    1140                                                        1011   -0.24    0.00  1.0000
  -5 -20  -1      36    1246                                                          40   -0.21    0.00  1.0000
   5 -20  -1     408    1049                                                         420    0.21    0.00  1.0000
   5 -20   1    1602    1047                                                        1625    0.21    0.00  1.0000
  -5 -21  -1    3753    1730                                                        3966    1.25    0.00  1.0000
   5 -21  -1    3624    1623                                                        3833    1.25    0.00  1.0000
  -5 -21   1    4213    1800                                                        4438    1.25    0.00  1.0000
   5 -21   1    2973    1403                                                        3163    1.25    0.00  1.0000
  -5 -22  -1     454    1396                                                         411   -0.76    0.00  1.0000
   5 -22  -1    1304    1417                                                        1230    0.76    0.00  1.0000
  -5 -22   1    1946    1542                                                        1856   -0.76    0.00  1.0000
   5 -22   1     513    1218                                                         467    0.76    0.00  1.0000
  -5 -23  -1       5    1467                                                           4    0.11    0.00  1.0000
   5 -23  -1     533    1303                                                         526    0.11    0.00  1.0000
   5 -23   1       0    1175                                                           0    0.11    0.00  1.0000
  -5 -24  -1     837    1582                                                         839   -0.03    0.00  1.0000
   5 -24  -1      57    1397                                                          58    0.03    0.00  1.0000
   5 -24   1       6    1298                                                           6    0.03    0.00  1.0000
  -5 -25  -1    1015    1724                                                         956   -0.68    0.00  1.0000
   5 -25  -1      91    1403                                                          74   -0.68    0.00  1.0000
   5 -25   1     996    1494                                                         938   -0.68    0.00  1.0000
  -5 -26  -1     947    2005                                                         923   -0.29    0.00  1.0000
   5 -26  -1     453    2798                                                         436    0.29    0.00  1.0000
   5 -26   1    1114    1648                                                        1088    0.29    0.00  1.0000
  -5 -27  -1      17    1788                                                          13    0.38    0.00  1.0000
   5 -27  -1      17    1805                                                          13    0.38    0.00  1.0000
   5 -27   1     421    1744                                                         400    0.38    0.00  1.0000
  -6   0  -1   48259    1707                                                       48549    0.48    0.00  1.0000
  -6   0  -1   46998    2492                                                       47284    0.48    0.00  1.0000
   6   0  -1   42794    2097                                                       43067    0.48    0.00  1.0000
  -6   0   1   46518    1349                                                       46803    0.48    0.00  1.0000
  -6   0   1   44856    2339                                                       45136    0.48    0.00  1.0000
  -6  -1  -1   26836    1252                                                       26590    0.55    0.00  1.0000
  -6  -1  -1   21737    1827                                                       21516    0.55    0.00  1.0000
  -6   1  -1   26944    1466                                                       26698   -0.55    0.00  1.0000
  -6   1  -1   20909    1862                                                       20692   -0.55    0.00  1.0000
   6  -1  -1   20839    1623                                                       20622   -0.55    0.00  1.0000
   6   1  -1   20683    1528                                                       20467    0.55    0.00  1.0000
  -6  -1   1   22571    1007                                                       22345    0.55    0.00  1.0000
  -6  -1   1   24004    1773                                                       23771    0.55    0.00  1.0000
  -6   1   1   24049    1136                                                       23816   -0.55    0.00  1.0000
  -6   1   1   21350    1775                                                       21131   -0.55    0.00  1.0000
  -6  -2  -1    6123     774                                                        6172   -0.23    0.00  1.0000
  -6  -2  -1    4939    1236                                                        4983   -0.23    0.00  1.0000
  -6   2  -1    6885    1014                                                        6937   -0.23    0.00  1.0000
  -6   2  -1    5684    1217                                                        5731   -0.23    0.00  1.0000
   6  -2  -1    5371    1064                                                        5417   -0.23    0.00  1.0000
   6   2  -1    5329     974                                                        5374   -0.23    0.00  1.0000
  -6  -2   1    5885     751                                                        5933   -0.23    0.00  1.0000
  -6  -2   1    5768    1105                                                        5815   -0.23    0.00  1.0000
  -6   2   1    5234     796                                                        5279   -0.23    0.00  1.0000
  -6   2   1    7133    1270                                                        7185   -0.23    0.00  1.0000
  -6  -3  -1   22458     960                                                       23295    2.03    0.00  1.0000
  -6  -3  -1   18514    1714                                                       19275    2.03    0.00  1.0000
  -6   3  -1   22134    1515                                                       22965   -2.03    0.00  1.0000
  -6   3  -1   21645    1887                                                       22467   -2.03    0.00  1.0000
  -6   3  -1   19387    1202                                                       20166   -2.03    0.00  1.0000
   6  -3  -1     102     328                                                         166   -2.03    0.00  1.0000
   6   3  -1   17131    1387                                                       17863    2.03    0.00  1.0000
  -6  -3   1   20233    1025                                                       21028    2.03    0.00  1.0000
  -6  -3   1   20922    1675                                                       21731    2.03    0.00  1.0000
  -6   3   1   20693    1185                                                       21497   -2.03    0.00  1.0000
  -6   3   1   19022    1682                                                       19793   -2.03    0.00  1.0000
  -6  -4  -1   19072    1801                                                       18728   -0.92    0.00  1.0000
  -6   4  -1   17535    1430                                                       17206   -0.92    0.00  1.0000
  -6   4  -1   19778    1821                                                       19428   -0.92    0.00  1.0000
  -6   4  -1   16936    1104                                                       16612   -0.92    0.00  1.0000
   6  -4  -1   15398    1380                                                       15089   -0.92    0.00  1.0000
   6   4  -1   13935    1279                                                       13642   -0.92    0.00  1.0000
  -6  -4   1   15225    1011                                                       14918   -0.92    0.00  1.0000
  -6  -4   1   17642    1537                                                       17312   -0.92    0.00  1.0000
  -6   4   1   15647    1576                                                       15336   -0.92    0.00  1.0000
  -6  -5  -1    2117     858                                                        1935    1.48    0.00  1.0000
  -6   5  -1    2740     874                                                        2532   -1.48    0.00  1.0000
  -6   5  -1    2035     534                                                        1857   -1.48    0.00  1.0000
   6  -5  -1    3230     877                                                        3004   -1.48    0.00  1.0000
   6   5  -1    2730     681                                                        2523    1.48    0.00  1.0000
  -6  -5   1    2496     580                                                        2298    1.48    0.00  1.0000
  -6  -5   1    2634     844                                                        2431    1.48    0.00  1.0000
  -6   5   1    2073     757                                                        1893   -1.48    0.00  1.0000
  -6  -6  -1     389     779                                                         449   -1.08    0.00  1.0000
  -6   6  -1      77     677                                                         105   -1.08    0.00  1.0000
  -6   6  -1     170     444                                                         211   -1.08    0.00  1.0000
   6  -6  -1       4     482                                                          12   -1.08    0.00  1.0000
   6   6  -1     262     508                                                         312   -1.08    0.00  1.0000
  -6  -6   1     268     515                                                         318   -1.08    0.00  1.0000
  -6  -6   1     311     635                                                         365   -1.08    0.00  1.0000
  -6   6   1     180     667                                                         222   -1.08    0.00  1.0000
   6  -6   1     261     604                                                         311   -1.08    0.00  1.0000
  -6  -7  -1    9393    1426                                                        9225   -0.64    0.00  1.0000
  -6   7  -1   10303    1486                                                       10127    0.64    0.00  1.0000
  -6   7  -1    8397     838                                                        8238    0.64    0.00  1.0000
   6  -7  -1    9608    1308                                                        9438    0.64    0.00  1.0000
   6   7  -1    7705    1032                                                        7553   -0.64    0.00  1.0000
  -6  -7   1    8988    1042                                                        8823   -0.64    0.00  1.0000
  -6  -7   1    9251    1191                                                        9084   -0.64    0.00  1.0000
  -6   7   1    8548    1301                                                        8387    0.64    0.00  1.0000
   6  -7   1    8553    1170                                                        8392    0.64    0.00  1.0000
  -6  -8  -1    4007     624                                                        3824   -1.07    0.00  1.0000
  -6  -8  -1    5869    1317                                                        5647   -1.07    0.00  1.0000
  -6   8  -1    5419    1254                                                        5205   -1.07    0.00  1.0000
   6  -8  -1    4515    1089                                                        4320   -1.07    0.00  1.0000
   6   8  -1    4635    1011                                                        4438   -1.07    0.00  1.0000
  -6  -8   1    4833    1047                                                        4631   -1.07    0.00  1.0000
  -6  -8   1    4709    1114                                                        4510   -1.07    0.00  1.0000
  -6   8   1    6559    1376                                                        6324   -1.07    0.00  1.0000
   6  -8   1    5176    1093                                                        4967   -1.07    0.00  1.0000
  -6  -9  -1    2130     959                                                        2122   -0.06    0.00  1.0000
  -6   9  -1    2338     959                                                        2330    0.06    0.00  1.0000
   6  -9  -1    1573     718                                                        1566    0.06    0.00  1.0000
   6   9  -1    2514     752                                                        2506   -0.06    0.00  1.0000
  -6  -9   1    2221     795                                                        2213   -0.06    0.00  1.0000
  -6  -9   1    3006     927                                                        2997   -0.06    0.00  1.0000
   6  -9   1     305     453                                                         302    0.06    0.00  1.0000
  -6 -10  -1     150     802                                                         145    0.14    0.00  1.0000
  -6  10  -1       1     729                                                           1    0.14    0.00  1.0000
   6 -10  -1     456     757                                                         448    0.14    0.00  1.0000
   6  10  -1     136     575                                                         132    0.14    0.00  1.0000
  -6 -10   1     214     739                                                         209    0.14    0.00  1.0000
  -6 -10   1     268     638                                                         262    0.14    0.00  1.0000
   6 -10   1      12     593                                                          11    0.14    0.00  1.0000
  -6 -11  -1   10184    1724                                                       10244    0.22    0.00  1.0000
  -6  11  -1    9301    1651                                                        9359   -0.22    0.00  1.0000
   6 -11  -1    9798    1492                                                        9857   -0.22    0.00  1.0000
   6  11  -1    9905    1385                                                        9965    0.22    0.00  1.0000
  -6 -11   1   10539    1482                                                       10600    0.22    0.00  1.0000
  -6 -11   1   11007    1503                                                       11070    0.22    0.00  1.0000
   6 -11   1    8885    1489                                                        8941   -0.22    0.00  1.0000
  -6 -12  -1   22423    2188                                                       22708    0.70    0.00  1.0000
  -6  12  -1   21394    2134                                                       21673    0.70    0.00  1.0000
   6 -12  -1   16462    1763                                                       16707    0.70    0.00  1.0000
   6  12  -1   21068    1745                                                       21345    0.70    0.00  1.0000
  -6 -12   1   22469    1907                                                       22755    0.70    0.00  1.0000
   6 -12   1   16673    1725                                                       16919    0.70    0.00  1.0000
  -6 -13  -1    1230    1050                                                        1334   -1.07    0.00  1.0000
  -6  13  -1       3     833                                                          10    1.07    0.00  1.0000
   6 -13  -1     136     639                                                         172    1.07    0.00  1.0000
   6  13  -1       0     592                                                           1   -1.07    0.00  1.0000
  -6 -13   1     224     929                                                         270   -1.07    0.00  1.0000
   6 -13   1     493     712                                                         560    1.07    0.00  1.0000
  -6 -14  -1    2294    1198                                                        2339   -0.34    0.00  1.0000
  -6  14  -1    2934    1330                                                        2985   -0.34    0.00  1.0000
   6 -14  -1    2779    1209                                                        2828   -0.34    0.00  1.0000
   6  14  -1    2593    1031                                                        2641   -0.34    0.00  1.0000
  -6 -14   1    4074    1366                                                        4134   -0.34    0.00  1.0000
   6 -14   1    1260     891                                                        1293   -0.34    0.00  1.0000
  -6 -15  -1    9002    1823                                                        9017    0.06    0.00  1.0000
  -6  15  -1    8664    1815                                                        8679   -0.06    0.00  1.0000
   6 -15  -1    8502    1504                                                        8517   -0.06    0.00  1.0000
   6  15  -1   10135    1572                                                       10151    0.06    0.00  1.0000
  -6 -15   1   10362    1877                                                       10378    0.06    0.00  1.0000
   6 -15   1    7987    1475                                                        8001   -0.06    0.00  1.0000
  -6 -16  -1    4143    1478                                                        4161    0.10    0.00  1.0000
  -6  16  -1    5200    1656                                                        5220    0.10    0.00  1.0000
   6 -16  -1    5645    1601                                                        5665    0.10    0.00  1.0000
   6  16  -1    5223    1390                                                        5243    0.10    0.00  1.0000
  -6 -16   1    4836    1434                                                        4855    0.10    0.00  1.0000
   6 -16   1    4261    1280                                                        4279    0.10    0.00  1.0000
  -6 -17  -1    1574    1341                                                        1660    0.79    0.00  1.0000
   6 -17  -1     108     865                                                         132   -0.79    0.00  1.0000
   6  17  -1    1024     877                                                        1094    0.79    0.00  1.0000
  -6 -17   1    1095    1137                                                        1167    0.79    0.00  1.0000
   6 -17   1     862     840                                                         926   -0.79    0.00  1.0000
  -6 -18  -1    1780    1278                                                        1701    0.70    0.00  1.0000
   6 -18  -1    1369    1199                                                        1300    0.70    0.00  1.0000
   6  18  -1    1298     981                                                        1230    0.70    0.00  1.0000
  -6 -18   1     640    1164                                                         593    0.70    0.00  1.0000
   6 -18   1     576     844                                                         531    0.70    0.00  1.0000
  -6 -19  -1    2500    1494                                                        2455   -0.33    0.00  1.0000
   6 -19  -1    2008    1358                                                        1967    0.33    0.00  1.0000
  -6 -19   1    4100    1539                                                        4042   -0.33    0.00  1.0000
   6 -19   1    1193    1003                                                        1162    0.33    0.00  1.0000
  -6 -20  -1    3030    1696                                                        2884   -0.98    0.00  1.0000
   6 -20  -1    1204    1265                                                        1113   -0.98    0.00  1.0000
  -6 -20   1    1416    1483                                                        1317   -0.98    0.00  1.0000
   6 -20   1    1028    1038                                                         944   -0.98    0.00  1.0000
  -6 -21  -1    2457    1675                                                        2521    0.47    0.00  1.0000
   6 -21  -1    2017    1419                                                        2075   -0.47    0.00  1.0000
  -6 -21   1    2846    1771                                                        2915    0.47    0.00  1.0000
   6 -21   1    1186    1074                                                        1231   -0.47    0.00  1.0000
  -6 -22  -1       0    1409                                                           6   -1.33    0.00  1.0000
   6 -22  -1     206    1313                                                         261   -1.33    0.00  1.0000
  -6 -22   1     191    1481                                                         244   -1.33    0.00  1.0000
   6 -22   1       0     820                                                           6   -1.33    0.00  1.0000
  -6 -23  -1       6    1574                                                          13    0.91    0.00  1.0000
   6 -23  -1      20    1412                                                          33   -0.91    0.00  1.0000
  -6 -23   1     583    1800                                                         645    0.91    0.00  1.0000
   6 -23   1       2    1048                                                           7   -0.91    0.00  1.0000
  -6 -24  -1     483    1719                                                         500    0.28    0.00  1.0000
   6 -24  -1       3    1431                                                           4    0.28    0.00  1.0000
  -6 -24   1     120    1880                                                         129    0.28    0.00  1.0000
   6 -24   1      10    1145                                                          13    0.28    0.00  1.0000
  -6 -25  -1    1387    1890                                                        1379   -0.08    0.00  1.0000
   6 -25  -1     469    1685                                                         464    0.08    0.00  1.0000
  -6 -25   1    2061    2178                                                        2051   -0.08    0.00  1.0000
   6 -25   1    1674    1667                                                        1665    0.08    0.00  1.0000
  -6 -26  -1       6    1790                                                           5    0.21    0.00  1.0000
   6 -26  -1     568    1657                                                         555    0.21    0.00  1.0000
  -6 -26   1     327    2200                                                         317    0.21    0.00  1.0000
   6 -26   1       6    1480                                                           5    0.21    0.00  1.0000
  -6 -27  -1     356    2023                                                         399    0.80    0.00  1.0000
   6 -27  -1       1    1660                                                           0   -0.80    0.00  1.0000
  -6 -27   1     187    2398                                                         218    0.80    0.00  1.0000
   6 -27   1     111    1595                                                         135   -0.80    0.00  1.0000
  -7  -1  -1    1375     962                                                        1555   -1.73    0.00  1.0000
  -7   1  -1    1336     978                                                        1514   -1.73    0.00  1.0000
   7  -1  -1     657     703                                                         784   -1.73    0.00  1.0000
   7   1  -1     895     754                                                        1042   -1.73    0.00  1.0000
  -7  -1   1     407     525                                                         508   -1.73    0.00  1.0000
  -7  -1   1    1296     949                                                        1471   -1.73    0.00  1.0000
  -7   1   1    1365     634                                                        1545   -1.73    0.00  1.0000
  -7   1   1    1413     993                                                        1596   -1.73    0.00  1.0000
   7  -1   1    1590     688                                                        1784   -1.73    0.00  1.0000
   7   1   1    1311     623                                                        1487   -1.73    0.00  1.0000
  -7  -2  -1     124     685                                                         104   -0.69    0.00  1.0000
  -7   2  -1     497     739                                                         456    0.69    0.00  1.0000
  -7   2  -1     483     591                                                         442    0.69    0.00  1.0000
   7  -2  -1     151     520                                                         129    0.69    0.00  1.0000
   7   2  -1     307     508                                                         275   -0.69    0.00  1.0000
  -7  -2   1     391     470                                                         355   -0.69    0.00  1.0000
  -7  -2   1     273     634                                                         243   -0.69    0.00  1.0000
  -7   2   1      56     471                                                          43    0.69    0.00  1.0000
  -7   2   1    1191     864                                                        1127    0.69    0.00  1.0000
   7  -2   1     810     593                                                         757    0.69    0.00  1.0000
   7   2   1     568     383                                                         524   -0.69    0.00  1.0000
  -7  -3  -1     112     682                                                         115    0.12    0.00  1.0000
  -7   3  -1     348     693                                                         354    0.12    0.00  1.0000
  -7   3  -1     341     511                                                         347    0.12    0.00  1.0000
   7  -3  -1     656     499                                                         664    0.12    0.00  1.0000
   7   3  -1     112     408                                                         115    0.12    0.00  1.0000
  -7  -3   1     256     440                                                         261    0.12    0.00  1.0000
  -7  -3   1      21     471                                                          23    0.12    0.00  1.0000
  -7   3   1      21     464                                                          23    0.12    0.00  1.0000
  -7   3   1     908     721                                                         918    0.12    0.00  1.0000
   7  -3   1     766     519                                                         775    0.12    0.00  1.0000
   7   3   1     546     263                                                         554    0.12    0.00  1.0000
  -7  -4  -1       0     628                                                           6   -1.55    0.00  1.0000
  -7   4  -1       0     658                                                           6    1.55    0.00  1.0000
  -7   4  -1       0     495                                                           6    1.55    0.00  1.0000
   7  -4  -1      96     420                                                         142    1.55    0.00  1.0000
   7   4  -1     147     418                                                         203   -1.55    0.00  1.0000
  -7  -4   1     150     431                                                         206   -1.55    0.00  1.0000
  -7  -4   1     174     529                                                         234   -1.55    0.00  1.0000
  -7   4   1       0     464                                                           6    1.55    0.00  1.0000
  -7   4   1     414     667                                                         505    1.55    0.00  1.0000
   7  -4   1     163     442                                                         222    1.55    0.00  1.0000
  -7  -5  -1    5069    1317                                                        4727    1.79    0.00  1.0000
  -7   5  -1    4269    1254                                                        3955    1.79    0.00  1.0000
  -7   5  -1    4472     952                                                        4151    1.79    0.00  1.0000
   7  -5  -1     366     403                                                         278    1.79    0.00  1.0000
   7   5  -1    4247    1019                                                        3934    1.79    0.00  1.0000
  -7  -5   1    3516     961                                                        3232    1.79    0.00  1.0000
  -7  -5   1    4288    1095                                                        3974    1.79    0.00  1.0000
  -7   5   1    4196    1204                                                        3885    1.79    0.00  1.0000
   7  -5   1    4616     997                                                        4290    1.79    0.00  1.0000
  -7  -6  -1       7     687                                                           4   -0.47    0.00  1.0000
  -7   6  -1     134     710                                                         119    0.47    0.00  1.0000
  -7   6  -1       7     482                                                           4    0.47    0.00  1.0000
   7  -6  -1     463     543                                                         436    0.47    0.00  1.0000
   7   6  -1     296     444                                                         274   -0.47    0.00  1.0000
  -7  -6   1       7     498                                                           4   -0.47    0.00  1.0000
  -7  -6   1     113     563                                                         100   -0.47    0.00  1.0000
  -7   6   1      79     628                                                          68    0.47    0.00  1.0000
   7  -6   1     240     535                                                         220    0.47    0.00  1.0000
  -7  -7  -1     175     790                                                         109    2.04    0.00  1.0000
  -7   7  -1     433     837                                                         325    2.04    0.00  1.0000
  -7   7  -1     586     559                                                         459    2.04    0.00  1.0000
   7  -7  -1     256     609                                                         175    2.04    0.00  1.0000
   7   7  -1     344     517                                                         249    2.04    0.00  1.0000
  -7  -7   1     561     610                                                         437    2.04    0.00  1.0000
  -7  -7   1     741     727                                                         597    2.04    0.00  1.0000
  -7   7   1     637     764                                                         504    2.04    0.00  1.0000
   7  -7   1     105     536                                                          56    2.04    0.00  1.0000
  -7  -8  -1    2474    1185                                                        2446   -0.20    0.00  1.0000
  -7   8  -1    3927    1333                                                        3892    0.20    0.00  1.0000
   7  -8  -1    3426    1163                                                        3393    0.20    0.00  1.0000
   7   8  -1    3491    1004                                                        3458   -0.20    0.00  1.0000
  -7  -8   1    4226    1152                                                        4190   -0.20    0.00  1.0000
  -7  -8   1    4465    1363                                                        4428   -0.20    0.00  1.0000
  -7   8   1    3956    1283                                                        3921    0.20    0.00  1.0000
   7  -8   1    3781    1087                                                        3747    0.20    0.00  1.0000
  -7  -9  -1    1752     977                                                        1681    0.63    0.00  1.0000
  -7   9  -1    1576     966                                                        1509    0.63    0.00  1.0000
   7  -9  -1    2310     835                                                        2228    0.63    0.00  1.0000
   7   9  -1    1612     651                                                        1544    0.63    0.00  1.0000
  -7  -9   1    2244     805                                                        2164    0.63    0.00  1.0000
  -7  -9   1    1046     670                                                         991    0.63    0.00  1.0000
  -7   9   1    1799     890                                                        1727    0.63    0.00  1.0000
   7  -9   1     892     719                                                         842    0.63    0.00  1.0000
  -7 -10  -1    1899     982                                                        1794   -0.89    0.00  1.0000
  -7  10  -1     135     755                                                         108    0.89    0.00  1.0000
   7 -10  -1    1552     718                                                        1457    0.89    0.00  1.0000
   7  10  -1    1233     604                                                        1149   -0.89    0.00  1.0000
  -7 -10   1    1381     816                                                        1292   -0.89    0.00  1.0000
  -7 -10   1    1151     796                                                        1070   -0.89    0.00  1.0000
   7 -10   1      36     524                                                          23    0.89    0.00  1.0000
  -7 -11  -1    3533    1384                                                        3443   -0.56    0.00  1.0000
  -7  11  -1    4370    1457                                                        4270   -0.56    0.00  1.0000
   7 -11  -1    2942    1075                                                        2860   -0.56    0.00  1.0000
   7  11  -1    4079    1206                                                        3982   -0.56    0.00  1.0000
  -7 -11   1    4905    1274                                                        4799   -0.56    0.00  1.0000
  -7 -11   1    2892    1223                                                        2810   -0.56    0.00  1.0000
   7 -11   1    2090    1034                                                        2021   -0.56    0.00  1.0000
  -7 -12  -1    5931    1524                                                        6025    0.45    0.00  1.0000
  -7  12  -1    7634    1664                                                        7741   -0.45    0.00  1.0000
   7 -12  -1    6868    1366                                                        6969   -0.45    0.00  1.0000
   7  12  -1    8410    1384                                                        8522    0.45    0.00  1.0000
  -7 -12   1    6812    1382                                                        6913    0.45    0.00  1.0000
  -7 -12   1    5628    1433                                                        5720    0.45    0.00  1.0000
   7 -12   1    5074    1160                                                        5161   -0.45    0.00  1.0000
  -7 -13  -1    8268    1660                                                        8177    0.37    0.00  1.0000
  -7  13  -1    8452    1803                                                        8360    0.37    0.00  1.0000
   7 -13  -1    5970    1420                                                        5893    0.37    0.00  1.0000
   7  13  -1    8419    1461                                                        8328    0.37    0.00  1.0000
  -7 -13   1    8269    1625                                                        8178    0.37    0.00  1.0000
   7 -13   1    7842    1385                                                        7754    0.37    0.00  1.0000
  -7 -14  -1    1279    1039                                                        1255    0.25    0.00  1.0000
  -7  14  -1    2368    1205                                                        2335   -0.25    0.00  1.0000
   7 -14  -1      58     609                                                          53   -0.25    0.00  1.0000
   7  14  -1     528     801                                                         512    0.25    0.00  1.0000
  -7 -14   1     907    1032                                                         886    0.25    0.00  1.0000
   7 -14   1    1311     801                                                        1286   -0.25    0.00  1.0000
  -7 -15  -1    9349    1989                                                        9613    0.99    0.00  1.0000
  -7  15  -1    6739    1925                                                        6963    0.99    0.00  1.0000
   7 -15  -1    6363    1562                                                        6581    0.99    0.00  1.0000
   7  15  -1    7491    1690                                                        7727    0.99    0.00  1.0000
  -7 -15   1    7480    1926                                                        7716    0.99    0.00  1.0000
   7 -15   1    5900    1401                                                        6110    0.99    0.00  1.0000
  -7 -16  -1    7117    1774                                                        6816   -1.32    0.00  1.0000
  -7  16  -1    8184    2045                                                        7861    1.32    0.00  1.0000
   7 -16  -1    5645    1653                                                        5377    1.32    0.00  1.0000
  -7 -16   1    7433    1804                                                        7125   -1.32    0.00  1.0000
   7 -16   1    6818    1437                                                        6523    1.32    0.00  1.0000
  -7 -17  -1    8118    1949                                                        8155   -0.15    0.00  1.0000
  -7  17  -1    8104    2006                                                        8141   -0.15    0.00  1.0000
   7 -17  -1    5235    1418                                                        5265   -0.15    0.00  1.0000
  -7 -17   1    9893    1860                                                        9934   -0.15    0.00  1.0000
   7 -17   1    4397    1328                                                        4425   -0.15    0.00  1.0000
  -7 -18  -1     228    1194                                                         239    0.27    0.00  1.0000
   7 -18  -1     783     911                                                         804   -0.27    0.00  1.0000
  -7 -18   1    1561    1326                                                        1590    0.27    0.00  1.0000
   7 -18   1    1261     996                                                        1287   -0.27    0.00  1.0000
  -7 -19  -1    4918    1840                                                        4889   -0.15    0.00  1.0000
   7 -19  -1    3562    1408                                                        3538   -0.15    0.00  1.0000
  -7 -19   1    6370    1876                                                        6337   -0.15    0.00  1.0000
   7 -19   1    3780    1330                                                        3755   -0.15    0.00  1.0000
  -7 -20  -1    4246    2111                                                        4407    0.90    0.00  1.0000
   7 -20  -1    4335    1850                                                        4498   -0.90    0.00  1.0000
  -7 -20   1    5006    1978                                                        5181    0.90    0.00  1.0000
   7 -20   1    4147    1700                                                        4307   -0.90    0.00  1.0000
  -7 -21  -1     353    1335                                                         307    0.93    0.00  1.0000
   7 -21  -1     290    1241                                                         248    0.93    0.00  1.0000
  -7 -21   1     234    1582                                                         197    0.93    0.00  1.0000
   7 -21   1     318    1014                                                         274    0.93    0.00  1.0000
  -7 -22  -1     903    1614                                                         818   -1.06    0.00  1.0000
   7 -22  -1     392    1597                                                         337    1.06    0.00  1.0000
  -7 -22   1    1489    1663                                                        1379   -1.06    0.00  1.0000
   7 -22   1     325     979                                                         275    1.06    0.00  1.0000
  -7 -23  -1     216    1657                                                         242    0.64    0.00  1.0000
   7 -23  -1     838    1506                                                         889    0.64    0.00  1.0000
  -7 -23   1       0    1701                                                           1    0.64    0.00  1.0000
   7 -23   1       0    1140                                                           1    0.64    0.00  1.0000
  -7 -24  -1    2487    2018                                                        2426   -0.45    0.00  1.0000
   7 -24  -1    1431    1614                                                        1385    0.45    0.00  1.0000
   7 -24   1    1122    1235                                                        1081    0.45    0.00  1.0000
  -7 -25  -1     388    1870                                                         374    0.26    0.00  1.0000
   7 -25  -1     474    1585                                                         459    0.26    0.00  1.0000
   7 -25   1     658    1390                                                         640    0.26    0.00  1.0000
  -7 -26  -1    1052    2087                                                        1103    0.57    0.00  1.0000
   7 -26  -1     519    1693                                                         555   -0.57    0.00  1.0000
   7 -26   1       8    1263                                                          13   -0.57    0.00  1.0000
  -8   0  -1   29454    2099                                                       28554    1.94    0.00  1.0000
   8   0  -1   27040    1685                                                       26178    1.94    0.00  1.0000
  -8   0   1   32859    1496                                                       31908    1.94    0.00  1.0000
  -8   0   1   31830    2144                                                       30894    1.94    0.00  1.0000
   8   0   1   29811    1266                                                       28906    1.94    0.00  1.0000
  -8  -1  -1   38559    2410                                                       38327   -0.43    0.00  1.0000
  -8   1  -1   38167    2440                                                       37936    0.43    0.00  1.0000
  -8   1  -1   41478    2037                                                       41238    0.43    0.00  1.0000
   8  -1  -1   39156    2081                                                       38922    0.43    0.00  1.0000
   8   1  -1   34364    1890                                                       34145   -0.43    0.00  1.0000
  -8  -1   1   38821    1612                                                       38588   -0.43    0.00  1.0000
  -8  -1   1   38542    2361                                                       38310   -0.43    0.00  1.0000
  -8   1   1   40986    1741                                                       40747    0.43    0.00  1.0000
  -8   1   1   39795    2423                                                       39560    0.43    0.00  1.0000
   8  -1   1   36923    1574                                                       36696    0.43    0.00  1.0000
   8   1   1   36921    1313                                                       36694   -0.43    0.00  1.0000
  -8  -2  -1    4789    1506                                                        4999    1.10    0.00  1.0000
  -8   2  -1    4073    1326                                                        4267    1.10    0.00  1.0000
  -8   2  -1    3839    1122                                                        4027    1.10    0.00  1.0000
   8  -2  -1    5185    1169                                                        5403    1.10    0.00  1.0000
   8   2  -1    4406    1045                                                        4607    1.10    0.00  1.0000
  -8  -2   1    3607    1006                                                        3789    1.10    0.00  1.0000
  -8  -2   1    4144    1344                                                        4339    1.10    0.00  1.0000
  -8   2   1    3934    1102                                                        4124    1.10    0.00  1.0000
  -8   2   1    5408    1339                                                        5631    1.10    0.00  1.0000
   8  -2   1    4506     966                                                        4710    1.10    0.00  1.0000
  -8  -3  -1   17894    2110                                                       17881    0.04    0.00  1.0000
  -8   3  -1   15511    1987                                                       15499   -0.04    0.00  1.0000
  -8   3  -1   17180    1487                                                       17167   -0.04    0.00  1.0000
   8  -3  -1   19458    1726                                                       19445   -0.04    0.00  1.0000
   8   3  -1   15126    1495                                                       15114    0.04    0.00  1.0000
  -8  -3   1   17357    1340                                                       17344    0.04    0.00  1.0000
  -8  -3   1   16216    1750                                                       16204    0.04    0.00  1.0000
  -8   3   1   18011    1411                                                       17998   -0.04    0.00  1.0000
  -8   3   1   19009    1926                                                       18996   -0.04    0.00  1.0000
   8  -3   1   17050    1361                                                       17038   -0.04    0.00  1.0000
  -8  -4  -1   18206    1975                                                       18445   -0.65    0.00  1.0000
  -8   4  -1   19906    1995                                                       20156   -0.65    0.00  1.0000
  -8   4  -1   15978    1394                                                       16202   -0.65    0.00  1.0000
   8  -4  -1   19979    1732                                                       20229   -0.65    0.00  1.0000
   8   4  -1   17381    1488                                                       17615   -0.65    0.00  1.0000
  -8  -4   1   17679    1386                                                       17915   -0.65    0.00  1.0000
  -8  -4   1   16879    1667                                                       17109   -0.65    0.00  1.0000
  -8   4   1   21365    1521                                                       21624   -0.65    0.00  1.0000
  -8   4   1   19353    1886                                                       19599   -0.65    0.00  1.0000
   8  -4   1   19013    1450                                                       19257   -0.65    0.00  1.0000
  -8  -5  -1    5247    1441                                                        5381    0.67    0.00  1.0000
  -8   5  -1    5604    1425                                                        5742   -0.67    0.00  1.0000
  -8   5  -1    5293    1155                                                        5427   -0.67    0.00  1.0000
   8  -5  -1    4970    1110                                                        5100   -0.67    0.00  1.0000
   8   5  -1    4998    1069                                                        5128    0.67    0.00  1.0000
  -8  -5   1    4969    1093                                                        5099    0.67    0.00  1.0000
  -8  -5   1    5512    1241                                                        5649    0.67    0.00  1.0000
  -8   5   1    6159    1163                                                        6304   -0.67    0.00  1.0000
  -8   5   1    5003    1362                                                        5134   -0.67    0.00  1.0000
   8  -5   1    5836    1054                                                        5977   -0.67    0.00  1.0000
  -8  -6  -1     356     846                                                         452   -1.75    0.00  1.0000
  -8   6  -1      44     786                                                          81   -1.75    0.00  1.0000
  -8   6  -1     583     653                                                         704   -1.75    0.00  1.0000
   8  -6  -1       0     393                                                           3   -1.75    0.00  1.0000
   8   6  -1     536     508                                                         652   -1.75    0.00  1.0000
  -8  -6   1     204     588                                                         278   -1.75    0.00  1.0000
  -8  -6   1      77     641                                                         125   -1.75    0.00  1.0000
  -8   6   1     528     648                                                         643   -1.75    0.00  1.0000
  -8   6   1     794     732                                                         934   -1.75    0.00  1.0000
   8  -6   1     609     604                                                         732   -1.75    0.00  1.0000
  -8  -7  -1    1522    1087                                                        1475    0.44    0.00  1.0000
  -8   7  -1    1095    1005                                                        1055   -0.44    0.00  1.0000
   8  -7  -1     481     711                                                         455   -0.44    0.00  1.0000
   8   7  -1     619     596                                                         589    0.44    0.00  1.0000
  -8  -7   1     655     721                                                         624    0.44    0.00  1.0000
  -8  -7   1     794     881                                                         760    0.44    0.00  1.0000
  -8   7   1    1269     955                                                        1226   -0.44    0.00  1.0000
   8  -7   1     519     656                                                         492   -0.44    0.00  1.0000
  -8  -8  -1    5232    1467                                                        5483   -1.26    0.00  1.0000
  -8   8  -1    6684    1602                                                        6967   -1.26    0.00  1.0000
   8  -8  -1    5042    1220                                                        5289   -1.26    0.00  1.0000
   8   8  -1    5376    1161                                                        5630   -1.26    0.00  1.0000
  -8  -8   1    5078    1256                                                        5325   -1.26    0.00  1.0000
  -8  -8   1    5468    1346                                                        5725   -1.26    0.00  1.0000
  -8   8   1    6087    1569                                                        6358   -1.26    0.00  1.0000
   8  -8   1    4590    1116                                                        4825   -1.26    0.00  1.0000
  -8  -9  -1    4255    1319                                                        4428    0.96    0.00  1.0000
  -8   9  -1    3780    1247                                                        3943   -0.96    0.00  1.0000
   8  -9  -1    4275    1237                                                        4448   -0.96    0.00  1.0000
   8   9  -1    4662    1119                                                        4843    0.96    0.00  1.0000
  -8  -9   1    3894    1087                                                        4059    0.96    0.00  1.0000
  -8  -9   1    3390    1242                                                        3544    0.96    0.00  1.0000
  -8   9   1    4698    1368                                                        4879   -0.96    0.00  1.0000
   8  -9   1    3936    1191                                                        4102   -0.96    0.00  1.0000
  -8 -10  -1     499     943                                                         505   -0.10    0.00  1.0000
  -8  10  -1     501     969                                                         507   -0.10    0.00  1.0000
   8 -10  -1     428     728                                                         433   -0.10    0.00  1.0000
   8  10  -1     358     705                                                         363   -0.10    0.00  1.0000
  -8 -10   1     792     901                                                         799   -0.10    0.00  1.0000
  -8 -10   1     175     814                                                         178   -0.10    0.00  1.0000
   8 -10   1     255     690                                                         259   -0.10    0.00  1.0000
  -8 -11  -1    1465     980                                                        1427    0.37    0.00  1.0000
  -8  11  -1    1214     976                                                        1179   -0.37    0.00  1.0000
   8 -11  -1    1558     744                                                        1519   -0.37    0.00  1.0000
   8  11  -1     803     644                                                         775    0.37    0.00  1.0000
  -8 -11   1    1330     933                                                        1294    0.37    0.00  1.0000
  -8 -11   1    1181     886                                                        1147    0.37    0.00  1.0000
   8 -11   1     436     614                                                         415   -0.37    0.00  1.0000
  -8 -12  -1    4381    1435                                                        4415   -0.19    0.00  1.0000
  -8  12  -1    4114    1475                                                        4147   -0.19    0.00  1.0000
   8 -12  -1    6090    1490                                                        6130   -0.19    0.00  1.0000
  -8 -12   1    4116    1369                                                        4149   -0.19    0.00  1.0000
  -8 -12   1    3963    1368                                                        3995   -0.19    0.00  1.0000
   8 -12   1     245     471                                                         253   -0.19    0.00  1.0000
  -8 -13  -1    6025    1616                                                        6033    0.04    0.00  1.0000
  -8  13  -1    5456    1619                                                        5464   -0.04    0.00  1.0000
   8 -13  -1    4853    1332                                                        4860   -0.04    0.00  1.0000
  -8 -13   1    5759    1471                                                        5767    0.04    0.00  1.0000
  -8 -13   1    5193    1480                                                        5200    0.04    0.00  1.0000
   8 -13   1    2706    1014                                                        2711   -0.04    0.00  1.0000
  -8 -14  -1    1802    1353                                                        1938   -1.15    0.00  1.0000
  -8  14  -1    1576    1393                                                        1704   -1.15    0.00  1.0000
   8 -14  -1    1623    1043                                                        1753   -1.15    0.00  1.0000
  -8 -14   1    1764    1322                                                        1899   -1.15    0.00  1.0000
  -8 -14   1     740    1131                                                         828   -1.15    0.00  1.0000
   8 -14   1    1199     981                                                        1311   -1.15    0.00  1.0000
  -8 -15  -1    1051    1347                                                         859    2.28    0.00  1.0000
  -8  15  -1    1683    1442                                                        1438   -2.28    0.00  1.0000
   8 -15  -1    1193    1064                                                         988   -2.28    0.00  1.0000
  -8 -15   1     534    1276                                                         400    2.28    0.00  1.0000
   8 -15   1     781     827                                                         617   -2.28    0.00  1.0000
  -8 -16  -1    4283    1896                                                        4458   -0.97    0.00  1.0000
  -8  16  -1    4163    1875                                                        4335   -0.97    0.00  1.0000
   8 -16  -1    2385    1246                                                        2516   -0.97    0.00  1.0000
  -8 -16   1    4635    1678                                                        4817   -0.97    0.00  1.0000
  -8 -17  -1    4257    1757                                                        4568    1.71    0.00  1.0000
  -8  17  -1    2321    1595                                                        2552   -1.71    0.00  1.0000
   8 -17  -1    1623    1097                                                        1817   -1.71    0.00  1.0000
  -8 -17   1    2051    1326                                                        2268    1.71    0.00  1.0000
   8 -17   1     929     947                                                        1077   -1.71    0.00  1.0000
  -8 -18  -1     303    1284                                                         304    0.03    0.00  1.0000
   8 -18  -1     785     887                                                         787    0.03    0.00  1.0000
   8 -18   1    1080     930                                                        1083    0.03    0.00  1.0000
  -8 -19  -1    2562    1602                                                        2393   -1.24    0.00  1.0000
   8 -19  -1     996    1003                                                         892    1.24    0.00  1.0000
   8 -19   1    2263    1041                                                        2105    1.24    0.00  1.0000
  -8 -20  -1    2207    1637                                                        2179    0.22    0.00  1.0000
   8 -20  -1    1139    1057                                                        1119    0.22    0.00  1.0000
   8 -20   1    1003    1081                                                         984    0.22    0.00  1.0000
  -8 -21  -1    1083    1595                                                        1051   -0.36    0.00  1.0000
   8 -21  -1    1099    1107                                                        1067    0.36    0.00  1.0000
   8 -21   1     986    1027                                                         956    0.36    0.00  1.0000
  -8 -22  -1       2    1534                                                           1   -0.20    0.00  1.0000
   8 -22  -1       2    1086                                                           1   -0.20    0.00  1.0000
   8 -22   1     220    1874                                                         212   -0.20    0.00  1.0000
  -8 -23  -1     943    1807                                                        1010    0.79    0.00  1.0000
   8 -23  -1     717    1489                                                         776   -0.79    0.00  1.0000
   8 -23   1    1683    1458                                                        1772   -0.79    0.00  1.0000
  -8 -24  -1     359    1799                                                         397   -0.71    0.00  1.0000
   8 -24  -1       0    1427                                                           1   -0.71    0.00  1.0000
   8 -24   1     655    1198                                                         706   -0.71    0.00  1.0000
  -8 -25  -1      18    1809                                                          10   -0.79    0.00  1.0000
   8 -25  -1      18    1504                                                          10    0.79    0.00  1.0000
   8 -25   1     157    1194                                                         131    0.79    0.00  1.0000
  -9  -1  -1    2727    1169                                                        2763   -0.25    0.00  1.0000
  -9   1  -1    2318    1125                                                        2352   -0.25    0.00  1.0000
  -9   1  -1    2928    1028                                                        2966   -0.25    0.00  1.0000
   9  -1  -1    3627    1018                                                        3669   -0.25    0.00  1.0000
   9   1  -1    3353     972                                                        3393   -0.25    0.00  1.0000
  -9  -1   1    2201     808                                                        2234   -0.25    0.00  1.0000
  -9  -1   1    3536    1225                                                        3577   -0.25    0.00  1.0000
  -9   1   1    2448     842                                                        2482   -0.25    0.00  1.0000
  -9   1   1    2696    1146                                                        2732   -0.25    0.00  1.0000
  -9  -2  -1     773     831                                                         711    0.83    0.00  1.0000
  -9   2  -1     848     929                                                         783   -0.83    0.00  1.0000
  -9   2  -1      80     734                                                          61   -0.83    0.00  1.0000
   9  -2  -1    1078     606                                                        1005   -0.83    0.00  1.0000
   9   2  -1     439     517                                                         393    0.83    0.00  1.0000
  -9  -2   1     449     639                                                         402    0.83    0.00  1.0000
  -9  -2   1    1829     894                                                        1733    0.83    0.00  1.0000
  -9   2   1     717     634                                                         657   -0.83    0.00  1.0000
  -9   2   1     673     785                                                         615   -0.83    0.00  1.0000
   9  -2   1    1023     518                                                         952   -0.83    0.00  1.0000
  -9  -3  -1   12380    1820                                                       12400   -0.06    0.00  1.0000
  -9   3  -1   12553    1854                                                       12573   -0.06    0.00  1.0000
  -9   3  -1   11180    1449                                                       11199   -0.06    0.00  1.0000
   9  -3  -1   12004    1454                                                       12023   -0.06    0.00  1.0000
   9   3  -1   11517    1323                                                       11536   -0.06    0.00  1.0000
  -9  -3   1   11499    1340                                                       11518   -0.06    0.00  1.0000
  -9  -3   1   12967    1785                                                       12987   -0.06    0.00  1.0000
  -9   3   1    9912    1329                                                        9929   -0.06    0.00  1.0000
  -9   3   1   11422    1682                                                       11441   -0.06    0.00  1.0000
   9  -3   1   10649    1132                                                       10667   -0.06    0.00  1.0000
  -9  -4  -1    1012     905                                                         996   -0.19    0.00  1.0000
  -9   4  -1     939     865                                                         923    0.19    0.00  1.0000
  -9   4  -1    1180     844                                                        1163    0.19    0.00  1.0000
   9  -4  -1     890     706                                                         875    0.19    0.00  1.0000
   9   4  -1    1171     613                                                        1154   -0.19    0.00  1.0000
  -9  -4   1    1170     912                                                        1153   -0.19    0.00  1.0000
  -9   4   1    1065     727                                                        1048    0.19    0.00  1.0000
  -9   4   1    1850    1009                                                        1828    0.19    0.00  1.0000
   9  -4   1    1290     644                                                        1272    0.19    0.00  1.0000
  -9  -5  -1    1524     948                                                        1479    0.42    0.00  1.0000
  -9   5  -1    1392     894                                                        1349    0.42    0.00  1.0000
  -9   5  -1    1846     857                                                        1797    0.42    0.00  1.0000
   9  -5  -1     651     683                                                         622    0.42    0.00  1.0000
   9   5  -1     997     639                                                         961    0.42    0.00  1.0000
  -9  -5   1    2114     992                                                        2061    0.42    0.00  1.0000
  -9   5   1    1277     772                                                        1236    0.42    0.00  1.0000
  -9   5   1    1240     935                                                        1200    0.42    0.00  1.0000
   9  -5   1    1742     700                                                        1694    0.42    0.00  1.0000
  -9  -6  -1       4     762                                                           6   -0.40    0.00  1.0000
  -9   6  -1     315     853                                                         335    0.40    0.00  1.0000
   9  -6  -1     246     648                                                         263    0.40    0.00  1.0000
   9   6  -1     779     620                                                         810   -0.40    0.00  1.0000
  -9  -6   1     174     753                                                         189   -0.40    0.00  1.0000
  -9   6   1       4     627                                                           6    0.40    0.00  1.0000
  -9   6   1     572     904                                                         598    0.40    0.00  1.0000
   9  -6   1     647     651                                                         675    0.40    0.00  1.0000
  -9  -7  -1    9393    1543                                                        9234    0.60    0.00  1.0000
  -9   7  -1    6533    1503                                                        6401    0.60    0.00  1.0000
   9  -7  -1    4267    1050                                                        4160    0.60    0.00  1.0000
   9   7  -1    7022    1193                                                        6885    0.60    0.00  1.0000
  -9  -7   1    6969    1403                                                        6832    0.60    0.00  1.0000
  -9   7   1    9097    1451                                                        8941    0.60    0.00  1.0000
  -9   7   1    8596    1547                                                        8444    0.60    0.00  1.0000
   9  -7   1    9357    1255                                                        9199    0.60    0.00  1.0000
  -9  -8  -1      28     806                                                          25   -0.22    0.00  1.0000
  -9   8  -1     510    1004                                                         496    0.22    0.00  1.0000
   9  -8  -1     139     565                                                         132    0.22    0.00  1.0000
   9   8  -1      94     532                                                          88   -0.22    0.00  1.0000
  -9  -8   1       5     783                                                           4   -0.22    0.00  1.0000
  -9   8   1      41     793                                                          37    0.22    0.00  1.0000
   9  -8   1     277     700                                                         267    0.22    0.00  1.0000
  -9  -9  -1     718     875                                                         695    0.32    0.00  1.0000
  -9   9  -1     947     966                                                         920    0.32    0.00  1.0000
   9  -9  -1     896     706                                                         870    0.32    0.00  1.0000
  -9  -9   1     598     870                                                         577    0.32    0.00  1.0000
  -9   9   1    1085     950                                                        1057    0.32    0.00  1.0000
   9  -9   1     715     655                                                         692    0.32    0.00  1.0000
  -9 -10  -1    1338    1019                                                        1311   -0.27    0.00  1.0000
  -9  10  -1     995    1016                                                         972    0.27    0.00  1.0000
   9 -10  -1    1273     815                                                        1247    0.27    0.00  1.0000
  -9 -10   1     684     868                                                         665   -0.27    0.00  1.0000
  -9  10   1     546     826                                                         529    0.27    0.00  1.0000
   9 -10   1     691     643                                                         672    0.27    0.00  1.0000
  -9 -11  -1    8697    1724                                                        8645    0.20    0.00  1.0000
  -9  11  -1    9787    1936                                                        9732    0.20    0.00  1.0000
   9 -11  -1   11291    1611                                                       11232    0.20    0.00  1.0000
  -9 -11   1    9666    1737                                                        9611    0.20    0.00  1.0000
   9 -11   1    8434    1364                                                        8383    0.20    0.00  1.0000
  -9 -12  -1     657    1118                                                         657    0.00    0.00  1.0000
  -9  12  -1     434    1119                                                         434    0.00    0.00  1.0000
   9 -12  -1     661     868                                                         661    0.00    0.00  1.0000
  -9 -12   1    1348    1125                                                        1348    0.00    0.00  1.0000
   9 -12   1     237     715                                                         237    0.00    0.00  1.0000
  -9 -13  -1     275    1010                                                         255    0.45    0.00  1.0000
  -9  13  -1    1036    1244                                                         997    0.45    0.00  1.0000
   9 -13  -1     537     828                                                         509    0.45    0.00  1.0000
  -9 -13   1     782    1084                                                         748    0.45    0.00  1.0000
   9 -13   1       6     673                                                           3    0.45    0.00  1.0000
  -9 -14  -1     990    1298                                                         831   -1.93    0.00  1.0000
  -9  14  -1     163    1210                                                         103    1.93    0.00  1.0000
   9 -14  -1     493     872                                                         383    1.93    0.00  1.0000
  -9 -14   1     241    1028                                                         166   -1.93    0.00  1.0000
   9 -14   1     740     917                                                         604    1.93    0.00  1.0000
  -9 -15  -1   16299    2253                                                       16032    0.77    0.00  1.0000
  -9  15  -1   17309    2447                                                       17033    0.77    0.00  1.0000
   9 -15  -1   14980    1999                                                       14724    0.77    0.00  1.0000
  -9 -15   1   15583    2150                                                       15322    0.77    0.00  1.0000
   9 -15   1   11337    1837                                                       11114    0.77    0.00  1.0000
  -9 -16  -1     636    1347                                                         899   -3.48    0.00  1.0000
  -9  16  -1     283    1422                                                         466    3.48    0.00  1.0000
   9 -16  -1     256     909                                                         431    3.48    0.00  1.0000
  -9 -16   1      61    1179                                                         158   -3.48    0.00  1.0000
   9 -16   1     251     852                                                         424    3.48    0.00  1.0000
  -9 -17  -1    2071    1685                                                        2164    0.74    0.00  1.0000
  -9  17  -1    3314    1891                                                        3431    0.74    0.00  1.0000
   9 -17  -1    2900    1394                                                        3010    0.74    0.00  1.0000
  -9 -17   1    2960    1631                                                        3071    0.74    0.00  1.0000
   9 -17   1    1187    1109                                                        1257    0.74    0.00  1.0000
  -9 -18  -1       1    1344                                                           0   -0.72    0.00  1.0000
  -9  18  -1     860    1495                                                         803    0.72    0.00  1.0000
   9 -18  -1       1     832                                                           0    0.72    0.00  1.0000
   9 -18   1     134     940                                                         112    0.72    0.00  1.0000
  -9 -19  -1    7032    2143                                                        6991    0.18    0.00  1.0000
   9 -19   1    3189    1321                                                        3161    0.18    0.00  1.0000
  -9 -20  -1     701    1730                                                         778    1.04    0.00  1.0000
   9 -20  -1     446    1024                                                         508   -1.04    0.00  1.0000
   9 -20   1      20     940                                                          35   -1.04    0.00  1.0000
  -9 -21  -1       2    1678                                                           1   -0.26    0.00  1.0000
   9 -21  -1     409    1131                                                         395   -0.26    0.00  1.0000
   9 -21   1    1302    1161                                                        1276   -0.26    0.00  1.0000
  -9 -22  -1     453    1668                                                         448   -0.09    0.00  1.0000
   9 -22  -1       2    1053                                                           2    0.09    0.00  1.0000
   9 -22   1     486    1014                                                         480    0.09    0.00  1.0000
  -9 -23  -1     712    2367                                                         711    0.01    0.00  1.0000
   9 -23  -1      63    1086                                                          63    0.01    0.00  1.0000
   9 -23   1    1220    1229                                                        1219    0.01    0.00  1.0000
  -9 -24  -1     961    2065                                                         923    0.46    0.00  1.0000
   9 -24  -1       4    1240                                                           2   -0.46    0.00  1.0000
   9 -24   1       4    1200                                                           2   -0.46    0.00  1.0000
  -9 -25  -1     413    2108                                                         446    0.58    0.00  1.0000
   9 -25   1     984    1395                                                        1035    0.58    0.00  1.0000
 -10   0  -1    7573    1753                                                        7868   -1.23    0.00  1.0000
 -10   0  -1    4054    1433                                                        4271   -1.23    0.00  1.0000
  10   0  -1    5706    1313                                                        5962   -1.23    0.00  1.0000
 -10   0   1    5371    1665                                                        5620   -1.23    0.00  1.0000
 -10  -1  -1   12088    1815                                                       12257   -0.56    0.00  1.0000
 -10  -1  -1   12614    1767                                                       12787   -0.56    0.00  1.0000
 -10   1  -1   12914    1952                                                       13089    0.56    0.00  1.0000
 -10   1  -1   11001    1691                                                       11162    0.56    0.00  1.0000
  10  -1  -1    7596    1382                                                        7730    0.56    0.00  1.0000
  10   1  -1    9480    1477                                                        9630   -0.56    0.00  1.0000
 -10  -1   1   10927    1880                                                       11088   -0.56    0.00  1.0000
 -10   1   1    9466    1778                                                        9616    0.56    0.00  1.0000
 -10  -2  -1    9164    1790                                                        9352   -0.72    0.00  1.0000
 -10   2  -1    9505    1794                                                        9697   -0.72    0.00  1.0000
 -10   2  -1    8756    1605                                                        8940   -0.72    0.00  1.0000
  10  -2  -1   10063    1602                                                       10260   -0.72    0.00  1.0000
  10   2  -1    9419    1424                                                        9610   -0.72    0.00  1.0000
 -10  -2   1    7601    1705                                                        7772   -0.72    0.00  1.0000
 -10   2   1    7887    1781                                                        8062   -0.72    0.00  1.0000
 -10  -3  -1    7112    1536                                                        7087   -0.11    0.00  1.0000
 -10   3  -1    8911    1669                                                        8883    0.11    0.00  1.0000
 -10   3  -1    9240    1526                                                        9212    0.11    0.00  1.0000
  10  -3  -1    8930    1413                                                        8902    0.11    0.00  1.0000
  10   3  -1    7579    1313                                                        7553   -0.11    0.00  1.0000
 -10  -3   1    8387    1674                                                        8360   -0.11    0.00  1.0000
 -10   3   1    9640    1733                                                        9611    0.11    0.00  1.0000
 -10  -4  -1    4210    1426                                                        4214   -0.02    0.00  1.0000
 -10   4  -1    3604    1366                                                        3608   -0.02    0.00  1.0000
 -10   4  -1    3584    1205                                                        3588   -0.02    0.00  1.0000
  10  -4  -1    4118    1298                                                        4122   -0.02    0.00  1.0000
  10   4  -1    3348    1032                                                        3351   -0.02    0.00  1.0000
 -10  -4   1    1581    1133                                                        1583   -0.02    0.00  1.0000
 -10   4   1    4137    1493                                                        4141   -0.02    0.00  1.0000
  10  -4   1    3640    1079                                                        3644   -0.02    0.00  1.0000
 -10  -5  -1    3798    1318                                                        3676    0.73    0.00  1.0000
 -10   5  -1    4438    1444                                                        4306   -0.73    0.00  1.0000
  10  -5  -1    4751    1204                                                        4615   -0.73    0.00  1.0000
  10   5  -1    5411    1124                                                        5265    0.73    0.00  1.0000
 -10  -5   1    4338    1350                                                        4208    0.73    0.00  1.0000
 -10   5   1    3888    1095                                                        3765   -0.73    0.00  1.0000
 -10   5   1    4865    1481                                                        4727   -0.73    0.00  1.0000
  10  -5   1    5076    1066                                                        4935   -0.73    0.00  1.0000
 -10  -6  -1    6152    1584                                                        6093    0.28    0.00  1.0000
 -10   6  -1    4306    1460                                                        4257    0.28    0.00  1.0000
  10  -6  -1    6367    1323                                                        6307    0.28    0.00  1.0000
 -10  -6   1    5363    1580                                                        5308    0.28    0.00  1.0000
 -10   6   1    5467    1466                                                        5411    0.28    0.00  1.0000
 -10   6   1    6388    1702                                                        6328    0.28    0.00  1.0000
  10  -6   1    4013    1165                                                        3965    0.28    0.00  1.0000
 -10  -7  -1    2873    1201                                                        2872    0.00    0.00  1.0000
 -10   7  -1    3003    1263                                                        3002    0.00    0.00  1.0000
  10  -7  -1    3051     997                                                        3050    0.00    0.00  1.0000
 -10  -7   1    3121    1212                                                        3120    0.00    0.00  1.0000
 -10   7   1    2818    1068                                                        2817    0.00    0.00  1.0000
 -10   7   1    3084    1219                                                        3083    0.00    0.00  1.0000
  10  -7   1    1765     884                                                        1765    0.00    0.00  1.0000
 -10  -8  -1    1563    1095                                                        1523    0.38    0.00  1.0000
 -10   8  -1    1687    1252                                                        1645    0.38    0.00  1.0000
  10  -8  -1    2261    1015                                                        2212    0.38    0.00  1.0000
 -10  -8   1    1722    1181                                                        1680    0.38    0.00  1.0000
 -10   8   1    1652    1110                                                        1610    0.38    0.00  1.0000
 -10   8   1    1623    1194                                                        1582    0.38    0.00  1.0000
 -10  -9  -1    5333    1604                                                        5408   -0.37    0.00  1.0000
 -10   9  -1    5753    1658                                                        5831    0.37    0.00  1.0000
  10  -9  -1     318     618                                                         337    0.37    0.00  1.0000
 -10  -9   1    3788    1367                                                        3851   -0.37    0.00  1.0000
 -10   9   1    4841    1541                                                        4912    0.37    0.00  1.0000
  10  -9   1    4819    1257                                                        4890    0.37    0.00  1.0000
 -10 -10  -1    4730    1618                                                        4723    0.04    0.00  1.0000
 -10  10  -1    3739    1546                                                        3732    0.04    0.00  1.0000
  10 -10  -1    5215    1450                                                        5207    0.04    0.00  1.0000
 -10 -10   1    3085    1430                                                        3079    0.04    0.00  1.0000
 -10  10   1      17     879                                                          17    0.04    0.00  1.0000
  10 -10   1    3736    1232                                                        3729    0.04    0.00  1.0000
 -10 -11  -1    1664    1356                                                        1613   -0.46    0.00  1.0000
 -10  11  -1    2327    1538                                                        2267    0.46    0.00  1.0000
  10 -11  -1    2098    1178                                                        2041    0.46    0.00  1.0000
 -10 -11   1    1304    1296                                                        1259   -0.46    0.00  1.0000
 -10  11   1    1619    1411                                                        1569    0.46    0.00  1.0000
  10 -11   1    2122    1165                                                        2065    0.46    0.00  1.0000
 -10 -12  -1    2563    1422                                                        2585   -0.16    0.00  1.0000
 -10  12  -1    2221    1431                                                        2241   -0.16    0.00  1.0000
  10 -12  -1    1995    1046                                                        2014   -0.16    0.00  1.0000
 -10 -12   1    3541    1528                                                        3566   -0.16    0.00  1.0000
  10 -12   1    2212    1092                                                        2232   -0.16    0.00  1.0000
 -10 -13  -1    3118    1535                                                        3079    0.26    0.00  1.0000
 -10  13  -1    3063    1623                                                        3024   -0.26    0.00  1.0000
  10 -13  -1    3589    1366                                                        3547   -0.26    0.00  1.0000
 -10 -13   1    2852    1464                                                        2815    0.26    0.00  1.0000
  10 -13   1    4095    1364                                                        4050   -0.26    0.00  1.0000
 -10 -14  -1    3847    1534                                                        3820    0.16    0.00  1.0000
 -10  14  -1    2858    1570                                                        2835    0.16    0.00  1.0000
  10 -14  -1    4341    1430                                                        4313    0.16    0.00  1.0000
 -10 -14   1    3695    1509                                                        3669    0.16    0.00  1.0000
  10 -14   1    1977    1169                                                        1958    0.16    0.00  1.0000
 -10 -15  -1     956    1318                                                        1166    2.36    0.00  1.0000
 -10  15  -1      37    1303                                                          86   -2.36    0.00  1.0000
  10 -15  -1      37     750                                                          86   -2.36    0.00  1.0000
 -10 -15   1     431    1212                                                         575    2.36    0.00  1.0000
  10 -15   1     496     696                                                         650   -2.36    0.00  1.0000
 -10 -16  -1       4    1373                                                           4   -0.07    0.00  1.0000
 -10  16  -1       4    1330                                                           4   -0.07    0.00  1.0000
  10 -16  -1     472     871                                                         468   -0.07    0.00  1.0000
 -10 -16   1     202    1248                                                         199   -0.07    0.00  1.0000
  10 -16   1     252     844                                                         249   -0.07    0.00  1.0000
 -10 -17  -1    2220    1659                                                        1965    2.05    0.00  1.0000
 -10  17  -1    1412    1707                                                        1210   -2.04    0.00  1.0000
  10 -17  -1    1243    1053                                                        1054   -2.04    0.00  1.0000
 -10 -17   1     870    1273                                                         713    2.05    0.00  1.0000
  10 -17   1     753     937                                                         608   -2.04    0.00  1.0000
 -10 -18  -1     699    1543                                                         753   -0.74    0.00  1.0000
 -10  18  -1     868    1750                                                         929   -0.74    0.00  1.0000
  10 -18  -1    2227    1295                                                        2323   -0.74    0.00  1.0000
 -10 -18   1     890    1468                                                         951   -0.74    0.00  1.0000
  10 -18   1    1214    1121                                                        1285   -0.74    0.00  1.0000
 -10 -19  -1     357    1606                                                         353   -0.08    0.00  1.0000
 -10  19  -1       0    1670                                                           0    0.08    0.00  1.0000
  10 -19  -1     195     985                                                         192    0.08    0.00  1.0000
 -10 -19   1     327    1383                                                         323   -0.08    0.00  1.0000
  10 -19   1     178    1003                                                         175    0.08    0.00  1.0000
 -10 -20  -1     478    1648                                                         434   -0.75    0.00  1.0000
  10 -20  -1     780    1612                                                         724   -0.75    0.00  1.0000
 -10 -20   1     792    1492                                                         736   -0.75    0.00  1.0000
  10 -20   1     208    1117                                                         180   -0.75    0.00  1.0000
 -10 -21  -1     567    1872                                                         568   -0.02    0.00  1.0000
  10 -21  -1     697    1354                                                         698    0.02    0.00  1.0000
 -10 -21   1       1    1543                                                           1   -0.02    0.00  1.0000
  10 -21   1     541    1099                                                         542    0.02    0.00  1.0000
 -10 -22  -1    1441    1956                                                        1448   -0.07    0.00  1.0000
  10 -22  -1     248    1189                                                         251   -0.07    0.00  1.0000
  10 -22   1       3    1116                                                           3   -0.07    0.00  1.0000
 -10 -23  -1     523    2040                                                         525   -0.03    0.00  1.0000
  10 -23  -1     615    1270                                                         617    0.03    0.00  1.0000
  10 -23   1     386    1282                                                         388    0.03    0.00  1.0000
 -10 -24  -1     714    2062                                                         761    0.63    0.00  1.0000
  10 -24   1     605    1315                                                         648    0.63    0.00  1.0000
 -11  -1  -1    1036    1002                                                         929    1.25    0.00  1.0000
 -11  -1  -1    2144    1105                                                        1989    1.25    0.00  1.0000
 -11   1  -1    1347    1002                                                        1225    1.25    0.00  1.0000
 -11   1  -1    2064    1108                                                        1912    1.25    0.00  1.0000
  11  -1  -1    2505    1009                                                        2337    1.25    0.00  1.0000
  11   1  -1    2125     803                                                        1971    1.25    0.00  1.0000
 -11  -1   1    1512    1130                                                        1382    1.25    0.00  1.0000
 -11   1   1    1510    1169                                                        1381    1.25    0.00  1.0000
 -11  -2  -1      74     959                                                          84    0.40    0.00  1.0000
 -11  -2  -1     671    1114                                                         700    0.40    0.00  1.0000
 -11   2  -1     825    1025                                                         857   -0.40    0.00  1.0000
 -11   2  -1      10     935                                                          14   -0.40    0.00  1.0000
  11  -2  -1     234     688                                                         251   -0.40    0.00  1.0000
  11   2  -1     713     747                                                         742    0.40    0.00  1.0000
 -11  -2   1     914    1068                                                         947    0.40    0.00  1.0000
 -11   2   1      78     931                                                          88   -0.40    0.00  1.0000
 -11  -3  -1       3     979                                                           2    0.28    0.00  1.0000
 -11   3  -1     963    1078                                                         940    0.28    0.00  1.0000
 -11   3  -1     892    1009                                                         870    0.28    0.00  1.0000
  11  -3  -1     867     839                                                         845    0.28    0.00  1.0000
 -11  -3   1    1667    1271                                                        1636    0.28    0.00  1.0000
 -11   3   1    1776    1180                                                        1744    0.28    0.00  1.0000
 -11  -4  -1     747    1074                                                         811   -0.84    0.00  1.0000
 -11   4  -1    1423    1188                                                        1510    0.84    0.00  1.0000
  11  -4  -1     860     823                                                         928    0.84    0.00  1.0000
 -11  -4   1    1024    1187                                                        1098   -0.84    0.00  1.0000
 -11   4   1    1840    1303                                                        1939    0.84    0.00  1.0000
 -11  -5  -1    1778    1252                                                        1821   -0.37    0.00  1.0000
 -11   5  -1    2130    1256                                                        2177   -0.37    0.00  1.0000
  11  -5  -1    1721    1044                                                        1764   -0.37    0.00  1.0000
 -11  -5   1    1342    1152                                                        1380   -0.37    0.00  1.0000
 -11   5   1    1778    1322                                                        1821   -0.37    0.00  1.0000
 -11  -6  -1       1     936                                                           0   -0.82    0.00  1.0000
 -11   6  -1     372    1074                                                         416    0.82    0.00  1.0000
  11  -6  -1       1     693                                                           0    0.82    0.00  1.0000
 -11  -6   1      42     859                                                          58   -0.82    0.00  1.0000
 -11   6   1     286    1059                                                         325    0.82    0.00  1.0000
 -11  -7  -1     722    1056                                                         662   -0.83    0.00  1.0000
 -11   7  -1    1063    1139                                                         990   -0.83    0.00  1.0000
  11  -7  -1     981     825                                                         911   -0.83    0.00  1.0000
 -11  -7   1    1858    1060                                                        1761   -0.83    0.00  1.0000
 -11   7   1     846    1115                                                         781   -0.83    0.00  1.0000
  11  -7   1    1319     735                                                        1238   -0.83    0.00  1.0000
 -11  -8  -1    2146    1313                                                        2124    0.18    0.00  1.0000
 -11   8  -1    3033    1402                                                        3006   -0.18    0.00  1.0000
  11  -8  -1    3258    1140                                                        3230   -0.18    0.00  1.0000
 -11  -8   1    3140    1391                                                        3113    0.18    0.00  1.0000
 -11   8   1    2567    1319                                                        2543   -0.18    0.00  1.0000
  11  -8   1    3563     997                                                        3534   -0.18    0.00  1.0000
 -11  -9  -1    5380    1800                                                        5527   -0.73    0.00  1.0000
 -11   9  -1    5901    1868                                                        6055   -0.73    0.00  1.0000
  11  -9  -1    4635    1482                                                        4772   -0.73    0.00  1.0000
 -11  -9   1    3782    1598                                                        3905   -0.73    0.00  1.0000
 -11   9   1      19     997                                                          29   -0.73    0.00  1.0000
  11  -9   1    4213    1298                                                        4343   -0.73    0.00  1.0000
 -11 -10  -1    1493    1406                                                        1431    0.60    0.00  1.0000
 -11  10  -1    1216    1465                                                        1160   -0.60    0.00  1.0000
  11 -10  -1     183     783                                                         162   -0.60    0.00  1.0000
 -11 -10   1      88    1067                                                          73    0.60    0.00  1.0000
 -11  10   1     247    1142                                                         222   -0.60    0.00  1.0000
  11 -10   1     570     883                                                         532   -0.60    0.00  1.0000
 -11 -11  -1    3161    1529                                                        3177    0.10    0.00  1.0000
 -11  11  -1    3711    1693                                                        3728    0.10    0.00  1.0000
  11 -11  -1    2695    1151                                                        2710    0.10    0.00  1.0000
 -11 -11   1    1633    1297                                                        1644    0.10    0.00  1.0000
 -11  11   1    2211    1557                                                        2224    0.10    0.00  1.0000
  11 -11   1    3206    1279                                                        3222    0.10    0.00  1.0000
 -11 -12  -1    1759    1561                                                        1646    1.00    0.00  1.0000
 -11  12  -1     753    1407                                                         680   -1.00    0.00  1.0000
  11 -12  -1    1940    1259                                                        1821   -1.00    0.00  1.0000
 -11 -12   1     768    1291                                                         694    1.00    0.00  1.0000
  11 -12   1    1157    1090                                                        1066   -1.00    0.00  1.0000
 -11 -13  -1    2629    1554                                                        2628    0.01    0.00  1.0000
 -11  13  -1    3082    1773                                                        3081    0.01    0.00  1.0000
  11 -13  -1    4101    1462                                                        4100    0.01    0.00  1.0000
 -11 -13   1    2341    1458                                                        2340    0.01    0.00  1.0000
  11 -13   1    4220    1395                                                        4219    0.01    0.00  1.0000
 -11 -14  -1    1913    1491                                                        1884    0.25    0.00  1.0000
 -11  14  -1    2187    1518                                                        2156   -0.25    0.00  1.0000
  11 -14  -1    1166     995                                                        1143   -0.25    0.00  1.0000
 -11 -14   1    1980    1368                                                        1950    0.25    0.00  1.0000
  11 -14   1    1997    1099                                                        1967   -0.25    0.00  1.0000
 -11 -15  -1    3470    1603                                                        3350   -0.75    0.00  1.0000
 -11  15  -1    1206    1641                                                        1135   -0.75    0.00  1.0000
  11 -15  -1     968    1080                                                         905   -0.75    0.00  1.0000
 -11 -15   1     441    1250                                                         399   -0.75    0.00  1.0000
  11 -15   1    2324    1275                                                        2226   -0.75    0.00  1.0000
 -11 -16  -1    3639    1810                                                        3771   -0.79    0.00  1.0000
 -11  16  -1    1251    1615                                                        1329    0.79    0.00  1.0000
  11 -16  -1    1247    1139                                                        1324    0.79    0.00  1.0000
 -11 -16   1    1869    1468                                                        1964   -0.79    0.00  1.0000
  11 -16   1      21     691                                                          32    0.79    0.00  1.0000
 -11 -17  -1     902    1679                                                         925   -0.28    0.00  1.0000
 -11  17  -1    3086    2042                                                        3129   -0.28    0.00  1.0000
  11 -17  -1    1184    1270                                                        1211   -0.28    0.00  1.0000
 -11 -17   1     727    1449                                                         748   -0.28    0.00  1.0000
  11 -17   1     251     856                                                         263   -0.28    0.00  1.0000
 -11 -18  -1       0    1544                                                           0   -0.15    0.00  1.0000
 -11  18  -1     410    1715                                                         418    0.15    0.00  1.0000
  11 -18  -1     920    1070                                                         933    0.15    0.00  1.0000
 -11 -18   1     336    1521                                                         344   -0.15    0.00  1.0000
  11 -18   1     310    1033                                                         317    0.15    0.00  1.0000
 -11 -19  -1    1628    1921                                                        1741    1.01    0.00  1.0000
 -11  19  -1     948    1941                                                        1035    1.01    0.00  1.0000
  11 -19  -1    2936    1574                                                        3088    1.01    0.00  1.0000
 -11 -19   1     951    1718                                                        1038    1.01    0.00  1.0000
  11 -19   1    1578    1302                                                        1690    1.01    0.00  1.0000
 -11 -20  -1    2540    2056                                                        2567   -0.19    0.00  1.0000
  11 -20  -1     140    1155                                                         146    0.19    0.00  1.0000
 -11 -20   1    1159    1833                                                        1177   -0.19    0.00  1.0000
  11 -20   1     598    1216                                                         611    0.19    0.00  1.0000
 -11 -21  -1      27    1862                                                          12    1.28    0.00  1.0000
  11 -21  -1     499    1144                                                         424    1.28    0.00  1.0000
 -11 -21   1     404    1869                                                         337    1.28    0.00  1.0000
  11 -21   1     739    1210                                                         647    1.28    0.00  1.0000
 -11 -22  -1    1197    2248                                                        1281   -0.87    0.00  1.0000
  11 -22  -1     542    1339                                                         599    0.87    0.00  1.0000
 -11 -22   1    1088    2110                                                        1168   -0.87    0.00  1.0000
  11 -22   1     673    1346                                                         736    0.87    0.00  1.0000
 -12   0  -1    1770    1227                                                        1698   -0.63    0.00  1.0000
 -12   0  -1    1102    1168                                                        1045   -0.63    0.00  1.0000
 -12   0   1    1192    1206                                                        1133   -0.63    0.00  1.0000
 -12  -1  -1     512    1092                                                         492   -0.33    0.00  1.0000
 -12  -1  -1    3316    1405                                                        3264   -0.33    0.00  1.0000
 -12   1  -1    1156    1153                                                        1125    0.33    0.00  1.0000
 -12   1  -1    2144    1315                                                        2102    0.33    0.00  1.0000
 -12  -1   1    1383    1248                                                        1349   -0.33    0.00  1.0000
 -12   1   1    2644    1478                                                        2597    0.33    0.00  1.0000
 -12  -2  -1    1693    1291                                                        1681   -0.11    0.00  1.0000
 -12  -2  -1    1611    1260                                                        1599   -0.11    0.00  1.0000
 -12   2  -1    1939    1398                                                        1926   -0.11    0.00  1.0000
 -12   2  -1    1785    1321                                                        1773   -0.11    0.00  1.0000
  12  -2  -1    1887    1037                                                        1875   -0.11    0.00  1.0000
 -12  -2   1    1922    1391                                                        1909   -0.11    0.00  1.0000
 -12   2   1    2790    1547                                                        2775   -0.11    0.00  1.0000
 -12  -3  -1    5011    1617                                                        4956    0.29    0.00  1.0000
 -12  -3  -1    4480    1510                                                        4428    0.29    0.00  1.0000
 -12   3  -1    5620    1722                                                        5561   -0.29    0.00  1.0000
  12  -3  -1    5181    1297                                                        5125   -0.29    0.00  1.0000
 -12  -3   1    4555    1653                                                        4502    0.29    0.00  1.0000
 -12   3   1    4612    1636                                                        4559   -0.29    0.00  1.0000
 -12  -4  -1    1122    1372                                                        1159    0.40    0.00  1.0000
 -12  -4  -1    1493    1433                                                        1535    0.40    0.00  1.0000
 -12   4  -1    2299    1579                                                        2351    0.40    0.00  1.0000
  12  -4  -1    2693    1224                                                        2749    0.40    0.00  1.0000
 -12  -4   1     936    1294                                                         969    0.40    0.00  1.0000
 -12   4   1    1352    1411                                                        1392    0.40    0.00  1.0000
 -12  -5  -1    6251    1957                                                        6510    1.19    0.00  1.0000
 -12   5  -1    5396    1801                                                        5637   -1.19    0.00  1.0000
  12  -5  -1    5042    1405                                                        5275   -1.19    0.00  1.0000
 -12  -5   1    4868    1862                                                        5097    1.19    0.00  1.0000
 -12   5   1    5101    1933                                                        5335   -1.19    0.00  1.0000
 -12  -6  -1    3766    1810                                                        3870    0.61    0.00  1.0000
 -12   6  -1    4346    1857                                                        4457    0.61    0.00  1.0000
  12  -6  -1    2426    1354                                                        2509    0.61    0.00  1.0000
 -12  -6   1    2672    1655                                                        2759    0.61    0.00  1.0000
 -12   6   1    4569    1976                                                        4683    0.61    0.00  1.0000
 -12  -7  -1   17398    2370                                                       17192    0.57    0.00  1.0000
 -12   7  -1   16677    2386                                                       16476   -0.57    0.00  1.0000
  12  -7  -1   19473    2116                                                       19255   -0.57    0.00  1.0000
 -12  -7   1   18288    2392                                                       18077    0.57    0.00  1.0000
 -12   7   1   18159    2460                                                       17949   -0.57    0.00  1.0000
 -12  -8  -1    3518    1843                                                        3685    1.02    0.00  1.0000
 -12   8  -1    3927    1960                                                        4104    1.02    0.00  1.0000
  12  -8  -1    2662    1504                                                        2808    1.02    0.00  1.0000
 -12  -8   1    1614    1484                                                        1728    1.02    0.00  1.0000
 -12   8   1    3127    1724                                                        3285    1.02    0.00  1.0000
 -12  -9  -1    1749    1447                                                        1737   -0.10    0.00  1.0000
 -12   9  -1    2231    1551                                                        2218    0.10    0.00  1.0000
  12  -9  -1    2109    1166                                                        2096    0.10    0.00  1.0000
 -12  -9   1    2341    1427                                                        2328   -0.10    0.00  1.0000
 -12   9   1      77    1102                                                          75    0.10    0.00  1.0000
 -12 -10  -1    1828    1606                                                        1878    0.43    0.00  1.0000
 -12  10  -1    2340    1625                                                        2397    0.43    0.00  1.0000
  12 -10  -1    1081    1030                                                        1120    0.43    0.00  1.0000
 -12 -10   1     990    1314                                                        1027    0.43    0.00  1.0000
 -12  10   1    1005    1409                                                        1042    0.43    0.00  1.0000
  12 -10   1    1019    1063                                                        1057    0.43    0.00  1.0000
 -12 -11  -1    6749    1865                                                        6955   -0.91    0.00  1.0000
 -12  11  -1    5714    1860                                                        5903    0.91    0.00  1.0000
  12 -11  -1    4661    1427                                                        4832    0.91    0.00  1.0000
 -12 -11   1    5635    1749                                                        5823   -0.91    0.00  1.0000
 -12  11   1    5249    1777                                                        5430    0.91    0.00  1.0000
  12 -11   1    5130    1357                                                        5309    0.91    0.00  1.0000
 -12 -12  -1    2346    1530                                                        2287   -0.45    0.00  1.0000
 -12  12  -1    1833    1593                                                        1781   -0.45    0.00  1.0000
  12 -12  -1     350     768                                                         328   -0.45    0.00  1.0000
 -12 -12   1    1032    1266                                                         993   -0.45    0.00  1.0000
 -12  12   1    2007    1626                                                        1953   -0.45    0.00  1.0000
  12 -12   1    2786    1212                                                        2722   -0.45    0.00  1.0000
 -12 -13  -1    1917    1703                                                        2106   -1.54    0.00  1.0000
 -12  13  -1    1425    1659                                                        1588    1.54    0.00  1.0000
  12 -13  -1     788     996                                                         911    1.54    0.00  1.0000
 -12 -13   1     525    1271                                                         626   -1.54    0.00  1.0000
  12 -13   1     444    1091                                                         537    1.54    0.00  1.0000
 -12 -14  -1       3    1472                                                           4    0.13    0.00  1.0000
 -12  14  -1    1020    1564                                                        1031    0.13    0.00  1.0000
  12 -14  -1     298    1064                                                         304    0.13    0.00  1.0000
 -12 -14   1     312    1233                                                         318    0.13    0.00  1.0000
  12 -14   1     184     967                                                         189    0.13    0.00  1.0000
 -12 -15  -1    1418    1739                                                        1501   -0.80    0.00  1.0000
 -12  15  -1    1529    1954                                                        1615    0.80    0.00  1.0000
  12 -15  -1     441    1173                                                         488    0.80    0.00  1.0000
 -12 -15   1    1610    1565                                                        1698   -0.80    0.00  1.0000
  12 -15   1    2345    1373                                                        2452    0.80    0.00  1.0000
 -12 -16  -1      19    1541                                                          30    0.82    0.00  1.0000
 -12  16  -1      19    1763                                                          30    0.82    0.00  1.0000
  12 -16  -1     369    1221                                                         413    0.82    0.00  1.0000
 -12 -16   1       4    1561                                                           9    0.82    0.00  1.0000
  12 -16   1       1     973                                                           5    0.82    0.00  1.0000
 -12 -17  -1     855    1812                                                         897   -0.52    0.00  1.0000
 -12  17  -1      25    1735                                                          33    0.52    0.00  1.0000
  12 -17  -1     494    1251                                                         526    0.52    0.00  1.0000
 -12 -17   1     437    1527                                                         467   -0.52    0.00  1.0000
  12 -17   1     124    1091                                                         140    0.52    0.00  1.0000
 -12 -18  -1    1621    1876                                                        1629    0.08    0.00  1.0000
 -12  18  -1    1217    2008                                                        1224    0.08    0.00  1.0000
  12 -18  -1     319    1170                                                         323    0.08    0.00  1.0000
 -12 -18   1     877    1658                                                         883    0.08    0.00  1.0000
  12 -18   1     158     885                                                         161    0.08    0.00  1.0000
 -12 -19  -1    1412    1963                                                        1476   -0.62    0.00  1.0000
 -12  19  -1    1287    2163                                                        1348    0.62    0.00  1.0000
  12 -19  -1     761    1346                                                         808    0.62    0.00  1.0000
 -12 -19   1    1644    1925                                                        1713   -0.62    0.00  1.0000
  12 -19   1    1130    1206                                                        1188    0.62    0.00  1.0000
 -12 -20  -1       3    2026                                                           0   -1.18    0.00  1.0000
  12 -20  -1       1    1213                                                           6   -1.18    0.00  1.0000
 -12 -20   1     395    1900                                                         462   -1.18    0.00  1.0000
  12 -20   1      96    1063                                                         130   -1.18    0.00  1.0000
 -12 -21  -1     584    2138                                                         542    0.66    0.00  1.0000
  12 -21  -1       5    1414                                                           2   -0.66    0.00  1.0000
 -12 -21   1      82    1990                                                          67    0.66    0.00  1.0000
  12 -21   1     486    1134                                                         447   -0.66    0.00  1.0000
 -13  -1  -1    7760    1892                                                        7651   -0.45    0.00  1.0000
 -13  -1  -1    8531    1949                                                        8417   -0.45    0.00  1.0000
 -13   1  -1    6393    1808                                                        6294   -0.45    0.00  1.0000
 -13   1  -1    7131    1871                                                        7027   -0.45    0.00  1.0000
 -13  -1   1    7852    2023                                                        7743   -0.45    0.00  1.0000
 -13   1   1    5759    1797                                                        5665   -0.45    0.00  1.0000
 -13  -2  -1     354    1235                                                         356   -0.03    0.00  1.0000
 -13  -2  -1     703    1294                                                         705   -0.03    0.00  1.0000
 -13   2  -1    1276    1378                                                        1279    0.03    0.00  1.0000
 -13  -2   1     228    1230                                                         229   -0.03    0.00  1.0000
 -13   2   1     504    1352                                                         506    0.03    0.00  1.0000
 -13  -3  -1    5268    1630                                                        5173   -0.48    0.00  1.0000
 -13  -3  -1    6152    1695                                                        6049   -0.48    0.00  1.0000
 -13   3  -1    5895    1710                                                        5794   -0.48    0.00  1.0000
 -13  -3   1    6056    1761                                                        5954   -0.48    0.00  1.0000
 -13   3   1    5635    1668                                                        5536   -0.48    0.00  1.0000
 -13  -4  -1    1745    1371                                                        1656   -0.79    0.00  1.0000
 -13  -4  -1    1770    1477                                                        1681   -0.79    0.00  1.0000
 -13   4  -1    2605    1470                                                        2497    0.79    0.00  1.0000
 -13  -4   1    1009    1354                                                         942   -0.79    0.00  1.0000
 -13   4   1    2169    1423                                                        2070    0.79    0.00  1.0000
 -13  -5  -1    8523    1854                                                        8494   -0.12    0.00  1.0000
 -13  -5  -1    9447    2021                                                        9416   -0.12    0.00  1.0000
 -13   5  -1    9128    1969                                                        9098   -0.12    0.00  1.0000
  13  -5  -1    9685    1602                                                        9654   -0.12    0.00  1.0000
 -13  -5   1    8279    1895                                                        8250   -0.12    0.00  1.0000
 -13   5   1   10251    2053                                                       10219   -0.12    0.00  1.0000
 -13  -6  -1    3057    1687                                                        3146   -0.59    0.00  1.0000
 -13   6  -1    3620    1733                                                        3717    0.59    0.00  1.0000
  13  -6  -1    3038    1275                                                        3127    0.59    0.00  1.0000
 -13  -6   1    3914    1836                                                        4015   -0.59    0.00  1.0000
 -13   6   1    3210    1752                                                        3302    0.59    0.00  1.0000
 -13  -7  -1    1724    1328                                                        1667   -0.51    0.00  1.0000
 -13   7  -1    2886    1435                                                        2812   -0.51    0.00  1.0000
  13  -7  -1    1950     917                                                        1889   -0.51    0.00  1.0000
 -13  -7   1    2235    1294                                                        2170   -0.51    0.00  1.0000
 -13   7   1    2827    1443                                                        2754   -0.51    0.00  1.0000
 -13  -8  -1    1305    1520                                                        1302   -0.03    0.00  1.0000
 -13   8  -1      84    1400                                                          83    0.03    0.00  1.0000
  13  -8  -1     804     948                                                         801    0.03    0.00  1.0000
 -13  -8   1    1228    1343                                                        1225   -0.03    0.00  1.0000
 -13   8   1     152    1167                                                         151    0.03    0.00  1.0000
 -13  -9  -1    8540    2014                                                        8298   -0.97    0.00  1.0000
 -13   9  -1    9519    2191                                                        9264   -0.97    0.00  1.0000
  13  -9  -1    8552    1679                                                        8310   -0.97    0.00  1.0000
 -13  -9   1    9754    2100                                                        9495   -0.97    0.00  1.0000
 -13   9   1     195    1273                                                         160   -0.97    0.00  1.0000
 -13 -10  -1     563    1469                                                         547    0.25    0.00  1.0000
 -13  10  -1    1501    1656                                                        1474   -0.25    0.00  1.0000
  13 -10  -1    2756    1335                                                        2720   -0.25    0.00  1.0000
 -13 -10   1    1831    1445                                                        1802    0.25    0.00  1.0000
 -13  10   1    1076    1539                                                        1053   -0.25    0.00  1.0000
 -13 -11  -1     866    1536                                                         848   -0.23    0.00  1.0000
 -13  11  -1    1536    1712                                                        1511   -0.23    0.00  1.0000
  13 -11  -1     643    1478                                                         627   -0.23    0.00  1.0000
 -13 -11   1     802    1313                                                         784   -0.23    0.00  1.0000
 -13  11   1     471    1542                                                         457   -0.23    0.00  1.0000
 -13 -12  -1     591    1597                                                         664    1.07    0.00  1.0000
 -13  12  -1      13    1617                                                          26   -1.07    0.00  1.0000
  13 -12  -1      13     945                                                          26   -1.07    0.00  1.0000
 -13 -12   1      13    1276                                                          26    1.07    0.00  1.0000
 -13  12   1      13    1578                                                          26   -1.07    0.00  1.0000
 -13 -13  -1    2864    1902                                                        2895    0.21    0.00  1.0000
 -13  13  -1    4048    2165                                                        4085    0.21    0.00  1.0000
  13 -13  -1     872    1112                                                         889    0.21    0.00  1.0000
 -13 -13   1    1653    1608                                                        1677    0.21    0.00  1.0000
 -13 -14  -1    1480    1686                                                        1379    0.98    0.00  1.0000
 -13  14  -1    1351    1841                                                        1255   -0.98    0.00  1.0000
  13 -14  -1     542    1025                                                         482   -0.98    0.00  1.0000
 -13 -14   1     684    1409                                                         616    0.98    0.00  1.0000
  13 -14   1     358     947                                                         309   -0.98    0.00  1.0000
 -13 -15  -1    1108    1688                                                        1103   -0.06    0.00  1.0000
 -13  15  -1       0    1678                                                           0   -0.06    0.00  1.0000
  13 -15  -1     296    1058                                                         293   -0.06    0.00  1.0000
 -13 -15   1       0    1532                                                           0   -0.06    0.00  1.0000
  13 -15   1       0    1004                                                           0   -0.06    0.00  1.0000
 -13 -16  -1      45    1612                                                          50    0.26    0.00  1.0000
 -13  16  -1      15    1831                                                          18   -0.26    0.00  1.0000
  13 -16  -1     665    1172                                                         683   -0.26    0.00  1.0000
 -13 -16   1      54    1474                                                          59    0.26    0.00  1.0000
  13 -16   1     104    1074                                                         111   -0.26    0.00  1.0000
 -13 -17  -1     478    1943                                                         481    0.04    0.00  1.0000
 -13  17  -1    1165    2029                                                        1169    0.04    0.00  1.0000
  13 -17  -1     613    1366                                                         616    0.04    0.00  1.0000
 -13 -17   1     969    1827                                                         973    0.04    0.00  1.0000
  13 -17   1    1242    1332                                                        1246    0.04    0.00  1.0000
 -13 -18  -1     520    1910                                                         468    0.86    0.00  1.0000
 -13  18  -1    1328    2988                                                        1244   -0.86    0.00  1.0000
  13 -18  -1    1073    1309                                                         998   -0.86    0.00  1.0000
 -13 -18   1    1101    1883                                                        1025    0.86    0.00  1.0000
  13 -18   1     693    1199                                                         633   -0.86    0.00  1.0000
 -13 -19  -1    2161    2233                                                        2101    0.47    0.00  1.0000
 -13  19  -1      13    2195                                                           9    0.47    0.00  1.0000
  13 -19  -1      13    1472                                                           9    0.47    0.00  1.0000
 -13 -19   1      13    1960                                                           9    0.47    0.00  1.0000
  13 -19   1      13     997                                                           9    0.47    0.00  1.0000
 -13 -20  -1     387    2122                                                         432    0.82    0.00  1.0000
 -13  20  -1     476    2470                                                         526   -0.82    0.00  1.0000
  13 -20  -1      42    1545                                                          58   -0.82    0.00  1.0000
 -13 -20   1     648    1968                                                         706    0.82    0.00  1.0000
  13 -20   1      28    1138                                                          41   -0.82    0.00  1.0000
 -14   0  -1    2863    1804                                                        2990    0.86    0.00  1.0000
 -14   0  -1    4584    1911                                                        4744    0.86    0.00  1.0000
 -14   0   1    3080    1778                                                        3211    0.86    0.00  1.0000
 -14  -1  -1     103    1372                                                         104   -0.05    0.00  1.0000
 -14  -1  -1    1151    1581                                                        1156   -0.05    0.00  1.0000
 -14   1  -1    1429    1593                                                        1434    0.05    0.00  1.0000
 -14  -1   1    1144    1523                                                        1149   -0.05    0.00  1.0000
 -14   1   1    1153    1557                                                        1158    0.05    0.00  1.0000
 -14  -2  -1    6223    2132                                                        6309    0.40    0.00  1.0000
 -14  -2  -1    6051    2071                                                        6136    0.40    0.00  1.0000
 -14   2  -1    5067    2050                                                        5144    0.40    0.00  1.0000
 -14  -2   1    4906    2034                                                        4982    0.40    0.00  1.0000
 -14   2   1    6325    2184                                                        6411    0.40    0.00  1.0000
 -14  -3  -1    2682    1689                                                        2726    0.31    0.00  1.0000
 -14  -3  -1    4334    1837                                                        4390    0.31    0.00  1.0000
 -14   3  -1    3984    1853                                                        4038   -0.31    0.00  1.0000
 -14  -3   1    4605    1952                                                        4663    0.31    0.00  1.0000
 -14   3   1    4380    1921                                                        4436   -0.31    0.00  1.0000
 -14  -4  -1    2070    1793                                                        1987   -0.68    0.00  1.0000
 -14  -4  -1    1159    1623                                                        1097   -0.68    0.00  1.0000
 -14   4  -1    2425    1758                                                        2335   -0.68    0.00  1.0000
 -14  -4   1     683    1579                                                         636   -0.68    0.00  1.0000
 -14   4   1    2049    2024                                                        1966   -0.68    0.00  1.0000
 -14  -5  -1    2418    1681                                                        2378    0.30    0.00  1.0000
 -14  -5  -1    3148    1863                                                        3103    0.30    0.00  1.0000
 -14   5  -1    3226    1849                                                        3180   -0.30    0.00  1.0000
 -14  -5   1    2590    1823                                                        2549    0.30    0.00  1.0000
 -14   5   1    1525    1657                                                        1494   -0.30    0.00  1.0000
 -14  -6  -1    6912    2355                                                        6761   -0.67    0.00  1.0000
 -14  -6  -1    6164    2312                                                        6021   -0.67    0.00  1.0000
 -14   6  -1    6428    2290                                                        6282   -0.67    0.00  1.0000
 -14  -6   1    4869    2246                                                        4742   -0.67    0.00  1.0000
 -14   6   1    5609    2167                                                        5473   -0.67    0.00  1.0000
 -14  -7  -1    5024    1869                                                        4944   -0.42    0.00  1.0000
 -14  -7  -1     345    1402                                                         324   -0.42    0.00  1.0000
 -14   7  -1    6403    2089                                                        6312    0.42    0.00  1.0000
 -14  -7   1    3655    1801                                                        3586   -0.42    0.00  1.0000
 -14   7   1    7386    2115                                                        7288    0.42    0.00  1.0000
 -14  -8  -1    1570    1774                                                        1651    0.74    0.00  1.0000
 -14   8  -1     699    1753                                                         753    0.74    0.00  1.0000
  14  -8  -1    1002    1203                                                        1067    0.74    0.00  1.0000
 -14  -8   1    1599    1615                                                        1681    0.74    0.00  1.0000
 -14   8   1      71    1331                                                          89    0.74    0.00  1.0000
 -14  -9  -1     828    1644                                                         851   -0.30    0.00  1.0000
 -14   9  -1    2092    1968                                                        2129    0.30    0.00  1.0000
  14  -9  -1     814    1202                                                         837    0.30    0.00  1.0000
 -14  -9   1    1506    1612                                                        1537   -0.30    0.00  1.0000
 -14   9   1     921    1585                                                         946    0.30    0.00  1.0000
 -14 -10  -1    2334    1841                                                        2503    1.26    0.00  1.0000
 -14  10  -1    2439    1958                                                        2611    1.26    0.00  1.0000
  14 -10  -1    4131    1589                                                        4354    1.26    0.00  1.0000
 -14 -10   1    1179    1571                                                        1300    1.26    0.00  1.0000
 -14  10   1    3350    1980                                                        3551    1.26    0.00  1.0000
 -14 -11  -1    1089    1693                                                        1074   -0.17    0.00  1.0000
 -14  11  -1    3016    2100                                                        2991    0.17    0.00  1.0000
  14 -11  -1    1724    1252                                                        1705    0.17    0.00  1.0000
 -14 -11   1    1400    1588                                                        1383   -0.17    0.00  1.0000
 -14  11   1    3034    2065                                                        3009    0.17    0.00  1.0000
 -14 -12  -1     635    1780                                                         691    0.79    0.00  1.0000
 -14  12  -1    1608    1912                                                        1696    0.79    0.00  1.0000
  14 -12  -1    1010    1118                                                        1080    0.79    0.00  1.0000
 -14 -12   1     716    1431                                                         775    0.79    0.00  1.0000
 -14  12   1     649    1708                                                         705    0.79    0.00  1.0000
 -14 -13  -1      84    1755                                                          93   -0.36    0.00  1.0000
 -14  13  -1     766    1907                                                         793    0.36    0.00  1.0000
  14 -13  -1      56    1132                                                          63    0.36    0.00  1.0000
 -14 -13   1     319    1461                                                         337   -0.36    0.00  1.0000
 -14 -14  -1       5    1787                                                           7    0.24    0.00  1.0000
 -14  14  -1     874    1937                                                         893    0.24    0.00  1.0000
  14 -14  -1     589    1112                                                         605    0.24    0.00  1.0000
 -14 -14   1     677    1624                                                         694    0.24    0.00  1.0000
 -14 -15  -1    1367    1933                                                        1406    0.38    0.00  1.0000
 -14  15  -1     340    1893                                                         359   -0.38    0.00  1.0000
  14 -15  -1     312     964                                                         331   -0.38    0.00  1.0000
 -14 -15   1    1124    1652                                                        1159    0.38    0.00  1.0000
 -14 -16  -1     374    1998                                                         330   -0.86    0.00  1.0000
 -14  16  -1     982    2158                                                         910   -0.86    0.00  1.0000
  14 -16  -1    2043    1414                                                        1938   -0.86    0.00  1.0000
 -14 -16   1    1302    1931                                                        1219   -0.86    0.00  1.0000
 -14 -17  -1     165    2165                                                         153    0.35    0.00  1.0000
 -14  17  -1     295    2290                                                         279   -0.35    0.00  1.0000
  14 -17  -1     571    1480                                                         548   -0.35    0.00  1.0000
 -14 -17   1     197    1856                                                         184    0.35    0.00  1.0000
 -14 -18  -1      14    2199                                                          31   -1.32    0.00  1.0000
 -14  18  -1      14    2203                                                          31   -1.32    0.00  1.0000
  14 -18  -1     973    1528                                                        1088   -1.32    0.00  1.0000
 -14 -18   1     595    1969                                                         686   -1.32    0.00  1.0000
 -15  -1  -1     273    1625                                                         280    0.16    0.00  1.0000
 -15   1  -1      20    1552                                                          22    0.16    0.00  1.0000
 -15  -1   1     840    1597                                                         853    0.16    0.00  1.0000
 -15   1   1     724    1575                                                         736    0.16    0.00  1.0000
 -15  -2  -1     251    1636                                                         277    0.58    0.00  1.0000
 -15  -2  -1     915    1735                                                         963    0.58    0.00  1.0000
 -15   2  -1       1    1478                                                           4   -0.58    0.00  1.0000
 -15  -2   1     173    1552                                                         194    0.58    0.00  1.0000
 -15   2   1     249    1540                                                         274   -0.58    0.00  1.0000
 -15  -3  -1    1185    1699                                                        1318    1.38    0.00  1.0000
 -15  -3  -1    1233    1756                                                        1368    1.38    0.00  1.0000
 -15   3  -1     601    1531                                                         697    1.38    0.00  1.0000
 -15  -3   1     911    1560                                                        1028    1.38    0.00  1.0000
 -15   3   1     806    1570                                                         916    1.38    0.00  1.0000
 -15  -4  -1       1    1563                                                           1    0.01    0.00  1.0000
 -15  -4  -1     593    1630                                                         594    0.01    0.00  1.0000
 -15   4  -1     200    1476                                                         200   -0.01    0.00  1.0000
 -15  -4   1       1    1448                                                           1    0.01    0.00  1.0000
 -15   4   1       1    1584                                                           1   -0.01    0.00  1.0000
 -15  -5  -1     536    1710                                                         663    1.90    0.00  1.0000
 -15  -5  -1       9    1650                                                          32    1.90    0.00  1.0000
 -15   5  -1     834    1732                                                         991    1.90    0.00  1.0000
 -15  -5   1      13    1617                                                          38    1.90    0.00  1.0000
 -15   5   1       9    1433                                                          32    1.90    0.00  1.0000
 -15  -6  -1     383    1684                                                         393    0.18    0.00  1.0000
 -15  -6  -1     729    1728                                                         742    0.18    0.00  1.0000
 -15   6  -1    2152    1920                                                        2175   -0.18    0.00  1.0000
 -15  -6   1     404    1524                                                         414    0.18    0.00  1.0000
 -15   6   1     881    1698                                                         896   -0.18    0.00  1.0000
 -15  -7  -1    1647    1852                                                        1675    0.25    0.00  1.0000
 -15  -7  -1     560    1739                                                         576    0.25    0.00  1.0000
 -15   7  -1    1572    1818                                                        1599    0.25    0.00  1.0000
 -15  -7   1    1190    1759                                                        1214    0.25    0.00  1.0000
 -15   7   1    1499    1705                                                        1525    0.25    0.00  1.0000
 -15  -8  -1     105    1696                                                          89    0.60    0.00  1.0000
 -15  -8  -1     105    1533                                                          89    0.60    0.00  1.0000
 -15   8  -1      11    1710                                                           6   -0.60    0.00  1.0000
 -15  -8   1     105    1610                                                          89    0.60    0.00  1.0000
 -15   8   1     105    1525                                                          89   -0.60    0.00  1.0000
 -15  -9  -1      19    1767                                                          40   -1.42    0.00  1.0000
 -15  -9  -1       4    1678                                                           0   -1.42    0.00  1.0000
 -15   9  -1       4    1764                                                           0   -1.42    0.00  1.0000
 -15  -9   1     403    1542                                                         484   -1.42    0.00  1.0000
 -15   9   1       4    1718                                                           0   -1.42    0.00  1.0000
 -15 -10  -1     939    1883                                                         942    0.03    0.00  1.0000
 -15 -10  -1    1665    1978                                                        1668    0.03    0.00  1.0000
 -15  10  -1    3277    2244                                                        3282   -0.03    0.00  1.0000
 -15 -10   1    2249    1887                                                        2253    0.03    0.00  1.0000
 -15  10   1    2277    2094                                                        2281   -0.03    0.00  1.0000
 -15 -11  -1     677    1849                                                         571   -1.56    0.00  1.0000
 -15  11  -1    1274    2053                                                        1127   -1.56    0.00  1.0000
 -15 -11   1    1156    1706                                                        1016   -1.56    0.00  1.0000
 -15  11   1     568    1964                                                         471   -1.56    0.00  1.0000
 -15 -12  -1     147    1766                                                         154   -0.21    0.00  1.0000
 -15  12  -1     386    1935                                                         397    0.21    0.00  1.0000
  15 -12  -1     521    1223                                                         534    0.21    0.00  1.0000
 -15 -12   1       1    1512                                                           1   -0.21    0.00  1.0000
 -15  12   1     283    1966                                                         293    0.21    0.00  1.0000
 -15 -13  -1      40    2021                                                          65   -1.26    0.00  1.0000
 -15  13  -1      22    2014                                                          41   -1.26    0.00  1.0000
  15 -13  -1      12    1236                                                          27   -1.26    0.00  1.0000
 -15 -13   1      22    1701                                                          41   -1.26    0.00  1.0000
 -15 -14  -1    2242    2286                                                        2199   -0.33    0.00  1.0000
 -15  14  -1    2700    2553                                                        2653    0.33    0.00  1.0000
  15 -14  -1    1785    1462                                                        1747    0.33    0.00  1.0000
 -15 -14   1     737    1946                                                         713   -0.33    0.00  1.0000
 -15 -15  -1     515    2141                                                         521    0.10    0.00  1.0000
 -15  15  -1    1902    2344                                                        1914    0.10    0.00  1.0000
  15 -15  -1     870    1404                                                         878    0.10    0.00  1.0000
 -15 -15   1     519    2050                                                         525    0.10    0.00  1.0000
 -15 -16  -1      64    2070                                                          84   -0.86    0.00  1.0000
 -15  16  -1     105    2272                                                         130    0.86    0.00  1.0000
  15 -16  -1      48    1203                                                          66    0.86    0.00  1.0000
 -15 -16   1     599    1992                                                         658   -0.86    0.00  1.0000
 -16   0  -1    1000    1933                                                         832   -2.04    0.00  1.0000
 -16   0   1     621    1718                                                         490   -2.04    0.00  1.0000
 -16  -1  -1     855    1917                                                         773   -1.05    0.00  1.0000
 -16   1  -1    1584    1942                                                        1472    1.05    0.00  1.0000
 -16  -1   1    1138    1806                                                        1043   -1.05    0.00  1.0000
 -16   1   1     983    1859                                                         895    1.05    0.00  1.0000
 -16  -2  -1     284    1818                                                         394   -2.19    0.00  1.0000
 -16   2  -1    1384    1886                                                        1616   -2.19    0.00  1.0000
 -16  -2   1    1709    1878                                                        1966   -2.19    0.00  1.0000
 -16   2   1    3445    2139                                                        3806   -2.19    0.00  1.0000
 -16  -3  -1     138    1813                                                         172   -1.00    0.00  1.0000
 -16  -3  -1    1299    1937                                                        1399   -1.00    0.00  1.0000
 -16   3  -1      29    1736                                                          46    1.00    0.00  1.0000
 -16  -3   1     747    1695                                                         824   -1.00    0.00  1.0000
 -16   3   1    1304    1914                                                        1404    1.00    0.00  1.0000
 -16  -4  -1    2074    2083                                                        1801   -2.27    0.00  1.0000
 -16  -4  -1     780    1983                                                         616   -2.27    0.00  1.0000
 -16   4  -1    1114    1911                                                         916   -2.27    0.00  1.0000
 -16  -4   1    1746    1941                                                        1496   -2.27    0.00  1.0000
 -16   4   1    2502    2097                                                        2201   -2.27    0.00  1.0000
 -16  -5  -1    1659    2016                                                        1717    0.52    0.00  1.0000
 -16  -5  -1    1940    2097                                                        2003    0.52    0.00  1.0000
 -16   5  -1    2885    2192                                                        2962   -0.52    0.00  1.0000
 -16  -5   1    1144    1916                                                        1193    0.52    0.00  1.0000
 -16   5   1    1954    2121                                                        2017   -0.52    0.00  1.0000
 -16  -6  -1    1964    2120                                                        2093   -1.05    0.00  1.0000
 -16  -6  -1    2075    2071                                                        2208   -1.05    0.00  1.0000
 -16   6  -1    2603    2135                                                        2751   -1.05    0.00  1.0000
 -16  -6   1    2439    2066                                                        2582   -1.05    0.00  1.0000
 -16   6   1    2487    2112                                                        2632   -1.05    0.00  1.0000
 -16  -7  -1     611    2040                                                         597    0.21    0.00  1.0000
 -16  -7  -1    2284    2218                                                        2256    0.21    0.00  1.0000
 -16   7  -1    1703    2117                                                        1679   -0.21    0.00  1.0000
 -16  -7   1    1286    2013                                                        1265    0.21    0.00  1.0000
 -16   7   1     271    1731                                                         262   -0.21    0.00  1.0000
 -16  -8  -1    2613    2182                                                        2729    0.82    0.00  1.0000
 -16  -8  -1       1    1749                                                           0    0.82    0.00  1.0000
 -16   8  -1    1520    2117                                                        1609    0.82    0.00  1.0000
 -16  -8   1     126    1743                                                         153    0.82    0.00  1.0000
 -16   8   1     335    1901                                                         377    0.82    0.00  1.0000
 -16  -9  -1    2286    2188                                                        2248   -0.29    0.00  1.0000
 -16  -9  -1    1541    1996                                                        1510   -0.29    0.00  1.0000
 -16   9  -1    3297    2347                                                        3251    0.29    0.00  1.0000
 -16  -9   1    2208    2108                                                        2171   -0.29    0.00  1.0000
 -16   9   1    2401    2096                                                        2362    0.29    0.00  1.0000
 -16 -10  -1     361    2101                                                         300    1.24    0.00  1.0000
 -16 -10  -1     140    2009                                                         103    1.24    0.00  1.0000
 -16  10  -1     938    2305                                                         837    1.24    0.00  1.0000
 -16 -10   1     744    1884                                                         655    1.24    0.00  1.0000
 -16  10   1     568    2121                                                         490    1.24    0.00  1.0000
 -16 -11  -1    1334    2195                                                        1315    0.19    0.00  1.0000
 -16 -11  -1       0    2051                                                           0    0.19    0.00  1.0000
 -16  11  -1    2158    2331                                                        2134   -0.19    0.00  1.0000
 -16 -11   1     679    1848                                                         665    0.19    0.00  1.0000
 -16  11   1     116    2137                                                         110   -0.19    0.00  1.0000
 -16 -12  -1      73    2209                                                         102    1.15    0.00  1.0000
 -16 -12  -1     138    2136                                                         177    1.15    0.00  1.0000
 -16  12  -1     356    2291                                                         418    1.15    0.00  1.0000
 -16 -12   1     475    2052                                                         546    1.15    0.00  1.0000
 -16 -13  -1     766    2243                                                         778    0.16    0.00  1.0000
 -16 -13  -1    1354    2356                                                        1370    0.16    0.00  1.0000
 -16  13  -1    2341    2528                                                        2362   -0.16    0.00  1.0000
 -16 -13   1    1631    2057                                                        1649    0.16    0.00  1.0000
 -17  -1  -1     115    1951                                                          30    3.83    0.00  1.0000
 -17   1  -1     931    2140                                                         639    3.83    0.00  1.0000
 -17  -1   1     916    2011                                                         627    3.83    0.00  1.0000
 -17   1   1     249    1969                                                         111    3.83    0.00  1.0000
 -17  -2  -1     253    2055                                                         327    1.61    0.00  1.0000
 -17   2  -1     386    2123                                                         477   -1.61    0.00  1.0000
 -17  -2   1    1217    2003                                                        1375    1.61    0.00  1.0000
 -17   2   1       1    1886                                                           2   -1.61    0.00  1.0000
 -17  -3  -1     883    2161                                                         703    2.35    0.00  1.0000
 -17   3  -1      62    2110                                                          22    2.35    0.00  1.0000
 -17  -3   1    1114    2100                                                         910    2.35    0.00  1.0000
 -17   3   1     337    2028                                                         230    2.35    0.00  1.0000
 -17  -4  -1      60    2055                                                          52   -0.37    0.00  1.0000
 -17   4  -1     310    2161                                                         292    0.37    0.00  1.0000
 -17  -4   1      13    1843                                                          10   -0.37    0.00  1.0000
 -17   4   1      10    1949                                                           7    0.37    0.00  1.0000
 -17  -5  -1     332    2117                                                         287    0.94    0.00  1.0000
 -17  -5  -1      60    2061                                                          42    0.94    0.00  1.0000
 -17   5  -1     375    2118                                                         327    0.94    0.00  1.0000
 -17  -5   1      17    1886                                                           8    0.94    0.00  1.0000
 -17   5   1     150    2038                                                         120    0.94    0.00  1.0000
 -17  -6  -1      10    2139                                                          28   -1.56    0.00  1.0000
 -17  -6  -1     831    2178                                                         959   -1.56    0.00  1.0000
 -17   6  -1     971    2235                                                        1108    1.56    0.00  1.0000
 -17  -6   1      10    1844                                                          28   -1.56    0.00  1.0000
 -17   6   1     163    2094                                                         222    1.56    0.00  1.0000
 -17  -7  -1     823    2259                                                         846   -0.29    0.00  1.0000
 -17  -7  -1    1532    2337                                                        1563   -0.29    0.00  1.0000
 -17   7  -1    1332    2291                                                        1361   -0.29    0.00  1.0000
 -17  -7   1     373    2003                                                         388   -0.29    0.00  1.0000
 -17   7   1       1    2006                                                           2   -0.29    0.00  1.0000
 -17  -8  -1     691    2288                                                         680   -0.15    0.00  1.0000
 -17  -8  -1      15    1981                                                          13   -0.15    0.00  1.0000
 -17   8  -1    1256    2502                                                        1241    0.15    0.00  1.0000
 -17  -8   1    1927    2376                                                        1909   -0.15    0.00  1.0000
 -17   8   1    1766    2355                                                        1748    0.15    0.00  1.0000
 -17  -9  -1       0    2199                                                           1   -0.66    0.00  1.0000
 -17  -9  -1     961    2315                                                        1018   -0.66    0.00  1.0000
 -17   9  -1     272    2333                                                         303   -0.66    0.00  1.0000
 -17  -9   1     131    2001                                                         153   -0.66    0.00  1.0000
 -17   9   1    1044    2357                                                        1103   -0.66    0.00  1.0000
 -17 -10  -1      17    2410                                                          14    0.31    0.00  1.0000
 -17 -10  -1      17    2169                                                          14    0.31    0.00  1.0000
 -17  10  -1    2023    2428                                                        1985   -0.31    0.00  1.0000
 -17  10   1     591    2494                                                         571   -0.31    0.00  1.0000
 -18   0  -1    5577    2745                                                        6556   -4.61    0.00  1.0000
 -18   0   1    6147    2896                                                        7173   -4.61    0.00  1.0000
 -18  -1  -1     790    2327                                                         854   -0.82    0.00  1.0000
 -18   1  -1    1292    2444                                                        1374    0.82    0.00  1.0000
 -18  -1   1    1173    2338                                                        1251   -0.82    0.00  1.0000
 -18   1   1    2379    2397                                                        2489    0.82    0.00  1.0000
 -18  -2  -1     678    2352                                                         904   -2.95    0.00  1.0000
 -18   2  -1     607    2567                                                         822   -2.95    0.00  1.0000
 -18  -2   1     502    2318                                                         698   -2.95    0.00  1.0000
 -18   2   1    1271    2392                                                        1574   -2.95    0.00  1.0000
 -18  -3  -1    1876    2508                                                        1856   -0.17    0.00  1.0000
 -18   3  -1    1161    2767                                                        1146    0.17    0.00  1.0000
 -18  -3   1     727    2284                                                         715   -0.17    0.00  1.0000
 -18   3   1    2309    2535                                                        2287    0.17    0.00  1.0000
   0   0  -2  321947    6300                                                      326684    3.05    0.00  1.0000
   0   0  -2  319900    4980                                                      324622    3.05    0.00  1.0000
   0  -2  -2   20115    1682                                                       19777    0.88    0.00  1.0000
   0  -2  -2   20472    1419                                                       20131    0.88    0.00  1.0000
   0   2  -2   18653    1706                                                       18327    0.88    0.00  1.0000
   0   2  -2   17511    1379                                                       17195    0.88    0.00  1.0000
   0  -4  -2   55943    2701                                                       55259   -1.06    0.00  1.0000
   0  -4  -2   56378    2283                                                       55691   -1.06    0.00  1.0000
   0   4  -2   53134    2695                                                       52467   -1.06    0.00  1.0000
   0   4  -2   53547    2177                                                       52877   -1.06    0.00  1.0000
   0  -6  -2    3522    1202                                                        3450   -0.45    0.00  1.0000
   0  -6  -2    2418     931                                                        2358   -0.45    0.00  1.0000
   0   6  -2    1640     947                                                        1591   -0.45    0.00  1.0000
   0   6  -2    1986     879                                                        1932   -0.45    0.00  1.0000
   0  -6   2    1679     654                                                        1629   -0.45    0.00  1.0000
   0  -8  -2   20415    1871                                                       20240   -0.45    0.00  1.0000
   0  -8  -2   21172    1755                                                       20994   -0.45    0.00  1.0000
   0   8  -2   21002    1988                                                       20825   -0.45    0.00  1.0000
   0   8  -2   18943    1733                                                       18774   -0.45    0.00  1.0000
   0  -8   2   19271    1229                                                       19101   -0.45    0.00  1.0000
   0 -10  -2    3839    1254                                                        3825   -0.08    0.00  1.0000
   0 -10  -2    2696    1013                                                        2684   -0.08    0.00  1.0000
   0  10  -2    3463    1071                                                        3450   -0.08    0.00  1.0000
   0  10  -2    1629     923                                                        1620   -0.08    0.00  1.0000
   0 -12  -2   19729    2257                                                       19797    0.18    0.00  1.0000
   0 -12  -2   19068    2103                                                       19134    0.18    0.00  1.0000
   0  12  -2   20120    2215                                                       20188    0.18    0.00  1.0000
   0 -14  -2    2120    1159                                                        2249   -1.01    0.00  1.0000
   0 -14  -2    1694    1081                                                        1810   -1.01    0.00  1.0000
   0  14  -2    2115    1077                                                        2244   -1.01    0.00  1.0000
   0 -16  -2   15880    1973                                                       15945    0.19    0.00  1.0000
   0 -16  -2     601     964                                                         614    0.19    0.00  1.0000
   0  16  -2   15881    1974                                                       15946    0.19    0.00  1.0000
   0 -18  -2    1468    1454                                                        1827    3.25    0.00  1.0000
   0 -18  -2     182    1166                                                         321    3.25    0.00  1.0000
   0  18  -2     121    1005                                                         238    3.25    0.00  1.0000
   0 -20  -2    1390    1535                                                        1785    3.64    0.00  1.0000
   0 -20  -2    1515    1527                                                        1927    3.64    0.00  1.0000
   0  20  -2     314    1132                                                         515    3.64    0.00  1.0000
   0 -22  -2      34    1438                                                          72    1.92    0.00  1.0000
   0 -22  -2     154    1307                                                         226    1.92    0.00  1.0000
   0  22  -2     104    1382                                                         164    1.92    0.00  1.0000
   0 -24  -2     322    1734                                                         299   -0.47    0.00  1.0000
   0 -24  -2     200    1423                                                         182   -0.47    0.00  1.0000
   0 -24   2     674    1941                                                         641   -0.47    0.00  1.0000
   0 -26  -2      31    1598                                                          70   -2.06    0.00  1.0000
   0 -26   2       0    1980                                                           5   -2.06    0.00  1.0000
  -1  -1  -2   19441    1525                                                       18779   -1.75    0.00  1.0000
  -1  -1  -2   19787    1407                                                       19119   -1.75    0.00  1.0000
  -1   1  -2   20722    1658                                                       20038   -1.75    0.00  1.0000
  -1   1  -2   20441    1477                                                       19762   -1.75    0.00  1.0000
   1  -1  -2   22094    1682                                                       21388   -1.75    0.00  1.0000
   1  -1  -2   19057    1188                                                       18402   -1.75    0.00  1.0000
   1   1  -2   20135    1709                                                       19461   -1.75    0.00  1.0000
   1   1  -2   20242    1214                                                       19566   -1.75    0.00  1.0000
  -1  -2  -2     865     670                                                         838    0.34    0.00  1.0000
  -1  -2  -2     551     569                                                         529    0.34    0.00  1.0000
  -1   2  -2     739     675                                                         714   -0.34    0.00  1.0000
  -1   2  -2     525     615                                                         504   -0.34    0.00  1.0000
   1  -2  -2    1097     702                                                        1066   -0.34    0.00  1.0000
   1  -2  -2     733     499                                                         708   -0.34    0.00  1.0000
   1   2  -2     511     540                                                         490    0.34    0.00  1.0000
   1   2  -2     300     473                                                         284    0.34    0.00  1.0000
  -1  -2   2     514     452                                                         493    0.34    0.00  1.0000
  -1  -3  -2    8127    1410                                                        8256    0.52    0.00  1.0000
  -1  -3  -2    6796    1188                                                        6914    0.52    0.00  1.0000
  -1   3  -2    6976    1456                                                        7095    0.52    0.00  1.0000
  -1   3  -2    6159    1144                                                        6271    0.52    0.00  1.0000
   1  -3  -2    7276    1334                                                        7398    0.52    0.00  1.0000
   1  -3  -2    6609    1050                                                        6725    0.52    0.00  1.0000
   1   3  -2    8086    1401                                                        8214    0.52    0.00  1.0000
   1   3  -2    6117    1020                                                        6229    0.52    0.00  1.0000
  -1  -3   2    6115     964                                                        6227    0.52    0.00  1.0000
  -1  -4  -2    3213     996                                                        3264    0.33    0.00  1.0000
  -1  -4  -2    3211     898                                                        3262    0.33    0.00  1.0000
  -1   4  -2    3249    1032                                                        3300   -0.33    0.00  1.0000
  -1   4  -2    3207     905                                                        3258   -0.33    0.00  1.0000
   1  -4  -2    3603    1094                                                        3657   -0.33    0.00  1.0000
   1  -4  -2    3633     851                                                        3687   -0.33    0.00  1.0000
   1   4  -2    2713     872                                                        2760    0.33    0.00  1.0000
   1   4  -2    3412     775                                                        3464    0.33    0.00  1.0000
  -1  -4   2    3206     810                                                        3257    0.33    0.00  1.0000
  -1  -5  -2    1558     753                                                        1609    0.47    0.00  1.0000
  -1  -5  -2    1096     647                                                        1139    0.47    0.00  1.0000
  -1   5  -2    1227     720                                                        1272    0.47    0.00  1.0000
  -1   5  -2    1200     749                                                        1244    0.47    0.00  1.0000
   1  -5  -2    1936     915                                                        1992    0.47    0.00  1.0000
   1  -5  -2    1815     676                                                        1870    0.47    0.00  1.0000
   1   5  -2    1271     689                                                        1317    0.47    0.00  1.0000
   1   5  -2    1494     649                                                        1544    0.47    0.00  1.0000
  -1  -5   2    1689     573                                                        1742    0.47    0.00  1.0000
  -1  -6  -2     103     694                                                         111    0.27    0.00  1.0000
  -1  -6  -2      70     554                                                          76    0.27    0.00  1.0000
  -1   6  -2     101     579                                                         109   -0.27    0.00  1.0000
  -1   6  -2       0     585                                                           0   -0.27    0.00  1.0000
   1  -6  -2       0     610                                                           0   -0.27    0.00  1.0000
   1  -6  -2     182     541                                                         192   -0.27    0.00  1.0000
   1   6  -2     452     522                                                         468    0.27    0.00  1.0000
   1   6  -2     503     593                                                         520    0.27    0.00  1.0000
  -1  -6   2      10     375                                                          13    0.27    0.00  1.0000
  -1  -7  -2    7201    1272                                                        7222    0.09    0.00  1.0000
  -1  -7  -2    6794    1167                                                        6815    0.09    0.00  1.0000
  -1   7  -2    7852    1414                                                        7874    0.09    0.00  1.0000
  -1   7  -2    6421    1263                                                        6441    0.09    0.00  1.0000
   1  -7  -2    6834    1413                                                        6855    0.09    0.00  1.0000
   1  -7  -2    7249    1168                                                        7270    0.09    0.00  1.0000
   1   7  -2    7293    1250                                                        7315    0.09    0.00  1.0000
   1   7  -2    7345    1257                                                        7367    0.09    0.00  1.0000
  -1  -7   2    7517     982                                                        7539    0.09    0.00  1.0000
  -1  -8  -2    6253    1375                                                        6216   -0.17    0.00  1.0000
  -1  -8  -2    6260    1240                                                        6223   -0.17    0.00  1.0000
  -1   8  -2    6637    1563                                                        6598    0.17    0.00  1.0000
  -1   8  -2    4965    1210                                                        4932    0.17    0.00  1.0000
   1  -8  -2    6206    1381                                                        6169    0.17    0.00  1.0000
   1  -8  -2    6019    1215                                                        5982    0.17    0.00  1.0000
   1   8  -2    5159    1305                                                        5125   -0.17    0.00  1.0000
   1   8  -2    5172    1249                                                        5138   -0.17    0.00  1.0000
  -1  -8   2    5104     965                                                        5070   -0.17    0.00  1.0000
  -1  -9  -2    8236    1553                                                        8352    0.47    0.00  1.0000
  -1  -9  -2    6346    1400                                                        6448    0.47    0.00  1.0000
  -1   9  -2    8000    1666                                                        8115    0.47    0.00  1.0000
  -1   9  -2    8630    1595                                                        8749    0.47    0.00  1.0000
   1  -9  -2    6814    1508                                                        6920    0.47    0.00  1.0000
   1  -9  -2    7964    1393                                                        8079    0.47    0.00  1.0000
   1   9  -2    5517    1354                                                        5612    0.47    0.00  1.0000
   1   9  -2    6868    1365                                                        6974    0.47    0.00  1.0000
  -1  -9   2    6455    1043                                                        6558    0.47    0.00  1.0000
  -1 -10  -2     563     855                                                         610   -0.71    0.00  1.0000
  -1 -10  -2     181     745                                                         208   -0.71    0.00  1.0000
  -1  10  -2       1     592                                                           4    0.71    0.00  1.0000
  -1  10  -2       2     826                                                           6    0.71    0.00  1.0000
   1 -10  -2      10     789                                                          17    0.71    0.00  1.0000
   1 -10  -2       2     751                                                           6    0.71    0.00  1.0000
   1  10  -2       2     512                                                           6   -0.71    0.00  1.0000
  -1 -10   2      84     502                                                         103   -0.71    0.00  1.0000
  -1 -11  -2    4946    1305                                                        4916   -0.15    0.00  1.0000
  -1 -11  -2    4127    1219                                                        4100   -0.15    0.00  1.0000
  -1  11  -2    4295    1254                                                        4268   -0.15    0.00  1.0000
  -1  11  -2    4606    1330                                                        4578   -0.15    0.00  1.0000
   1 -11  -2    3760    1253                                                        3734   -0.15    0.00  1.0000
   1 -11  -2    4023    1185                                                        3996   -0.15    0.00  1.0000
   1  11  -2    4102    1199                                                        4075   -0.15    0.00  1.0000
  -1 -12  -2   12840    1865                                                       12714   -0.41    0.00  1.0000
  -1 -12  -2   12944    1720                                                       12817   -0.41    0.00  1.0000
  -1  12  -2   12643    1738                                                       12518    0.41    0.00  1.0000
  -1  12  -2   15064    1989                                                       14927    0.41    0.00  1.0000
   1 -12  -2   11499    1763                                                       11380    0.41    0.00  1.0000
   1 -12  -2   15093    1776                                                       14956    0.41    0.00  1.0000
   1  12  -2   12133    1736                                                       12010   -0.41    0.00  1.0000
  -1 -13  -2    1382    1076                                                        1411    0.28    0.00  1.0000
  -1 -13  -2     715     709                                                         736    0.28    0.00  1.0000
  -1  13  -2    1063     777                                                        1088    0.28    0.00  1.0000
   1 -13  -2    1142     864                                                        1168    0.28    0.00  1.0000
   1 -13  -2    1288     908                                                        1316    0.28    0.00  1.0000
   1  13  -2    1511     876                                                        1541    0.28    0.00  1.0000
  -1 -14  -2    6340    1491                                                        6379   -0.18    0.00  1.0000
  -1 -14  -2     222     696                                                         229   -0.18    0.00  1.0000
  -1  14  -2    5770    1523                                                        5807    0.18    0.00  1.0000
   1 -14  -2    5120    1486                                                        5155    0.18    0.00  1.0000
   1 -14  -2    7202    1499                                                        7243    0.18    0.00  1.0000
   1  14  -2    4123    1373                                                        4154   -0.18    0.00  1.0000
  -1 -15  -2    1096    1131                                                        1151    0.60    0.00  1.0000
  -1 -15  -2    2221    1473                                                        2299    0.60    0.00  1.0000
  -1  15  -2    1605    1251                                                        1671    0.60    0.00  1.0000
   1 -15  -2    2302    1432                                                        2381    0.60    0.00  1.0000
   1 -15  -2    1569    1204                                                        1634    0.60    0.00  1.0000
   1  15  -2    1281    1066                                                        1340    0.60    0.00  1.0000
  -1 -16  -2   20350    2253                                                       20059   -0.75    0.00  1.0000
  -1 -16  -2   19491    2266                                                       19207   -0.75    0.00  1.0000
  -1  16  -2   19710    2295                                                       19424    0.75    0.00  1.0000
   1 -16  -2   16283    2247                                                       16023    0.75    0.00  1.0000
   1 -16  -2   22196    2311                                                       21893    0.75    0.00  1.0000
   1  16  -2   18938    2258                                                       18658   -0.75    0.00  1.0000
  -1 -17  -2      82    1026                                                          44   -1.79    0.00  1.0000
  -1 -17  -2      55     966                                                          25   -1.79    0.00  1.0000
  -1  17  -2     295     989                                                         217   -1.79    0.00  1.0000
   1 -17  -2      37    1102                                                          13   -1.79    0.00  1.0000
   1 -17  -2      38     929                                                          14   -1.79    0.00  1.0000
   1  17  -2     119     875                                                          72   -1.79    0.00  1.0000
  -1 -18  -2    3791    1490                                                        3916   -0.74    0.00  1.0000
  -1 -18  -2    3710    1527                                                        3834   -0.74    0.00  1.0000
  -1  18  -2    5031    1694                                                        5175    0.74    0.00  1.0000
   1 -18  -2    4749    1653                                                        4889    0.74    0.00  1.0000
   1 -18  -2       0     842                                                           2    0.74    0.00  1.0000
   1  18  -2    3590    1510                                                        3712   -0.74    0.00  1.0000
  -1 -19  -2    1970    1328                                                        1582   -3.38    0.00  1.0000
  -1 -19  -2    3320    1393                                                        2810   -3.38    0.00  1.0000
  -1  19  -2    2143    1256                                                        1737   -3.38    0.00  1.0000
   1 -19  -2    1493    1305                                                        1158   -3.38    0.00  1.0000
   1 -19  -2      85     812                                                          21   -3.38    0.00  1.0000
   1  19  -2    1534    1091                                                        1194   -3.38    0.00  1.0000
  -1 -20  -2    4916    1775                                                        4953    0.19    0.00  1.0000
  -1 -20  -2    3954    1744                                                        3987    0.19    0.00  1.0000
  -1  20  -2    4487    1784                                                        4523   -0.19    0.00  1.0000
   1 -20  -2    3648    1743                                                        3680   -0.19    0.00  1.0000
   1 -20  -2    4997    1886                                                        5035   -0.19    0.00  1.0000
   1  20  -2    4925    1904                                                        4962    0.19    0.00  1.0000
  -1 -21  -2     544    1472                                                         713   -2.47    0.00  1.0000
  -1 -21  -2      28    1161                                                          75   -2.47    0.00  1.0000
  -1  21  -2     438    1224                                                         590   -2.47    0.00  1.0000
   1 -21  -2      28    1385                                                          75   -2.47    0.00  1.0000
   1 -21  -2      21    1320                                                          63   -2.47    0.00  1.0000
   1  21  -2      28    1121                                                          75   -2.47    0.00  1.0000
  -1 -22  -2     199    1367                                                         226    0.67    0.00  1.0000
  -1  22  -2     106    1031                                                         126   -0.67    0.00  1.0000
   1 -22  -2       1    1383                                                           3   -0.67    0.00  1.0000
   1 -22  -2       1    1224                                                           3   -0.67    0.00  1.0000
   1  22  -2       1    1148                                                           3    0.67    0.00  1.0000
  -1 -23  -2    1268    1402                                                        1207   -0.64    0.00  1.0000
   1 -23  -2     109    1593                                                          92   -0.64    0.00  1.0000
   1 -23  -2     109    1409                                                          92   -0.64    0.00  1.0000
   1  23  -2     493    1319                                                         455   -0.64    0.00  1.0000
   1 -23   2    1400    1659                                                        1336   -0.64    0.00  1.0000
  -1 -24  -2    1087    1551                                                        1114    0.30    0.00  1.0000
   1 -24  -2    1796    1921                                                        1831   -0.30    0.00  1.0000
   1 -24  -2       5    1528                                                           7   -0.30    0.00  1.0000
  -1 -24   2     502    1863                                                         521    0.30    0.00  1.0000
   1 -24   2     603    1701                                                         623   -0.30    0.00  1.0000
  -1 -25  -2      32    1493                                                          61    1.58    0.00  1.0000
   1 -25  -2      80    1798                                                         123    1.58    0.00  1.0000
   1 -25  -2       1    1622                                                           1    1.58    0.00  1.0000
  -1 -25   2      63    1856                                                         102    1.58    0.00  1.0000
   1 -25   2       1    1858                                                          11    1.58    0.00  1.0000
  -1 -26  -2     288    1652                                                         288    0.00    0.00  1.0000
   1 -26  -2       0    1876                                                           0    0.00    0.00  1.0000
   1 -26  -2     212    1650                                                         212    0.00    0.00  1.0000
  -1 -26   2    1219    2187                                                        1219    0.00    0.00  1.0000
   1 -26   2    1570    2196                                                        1570    0.00    0.00  1.0000
  -2   0  -2   22855    1626                                                       22502    0.86    0.00  1.0000
  -2   0  -2   21552    1512                                                       21209    0.86    0.00  1.0000
   2   0  -2   23144    1750                                                       22788    0.86    0.00  1.0000
   2   0  -2   22981    1122                                                       22627    0.86    0.00  1.0000
  -2   0   2   21499    1411                                                       21156    0.86    0.00  1.0000
  -2  -1  -2    2849     902                                                        2844   -0.03    0.00  1.0000
  -2  -1  -2    4114     956                                                        4108   -0.03    0.00  1.0000
  -2   1  -2    3979    1059                                                        3973    0.03    0.00  1.0000
  -2   1  -2    4126     977                                                        4120    0.03    0.00  1.0000
   2  -1  -2    2326     900                                                        2321    0.03    0.00  1.0000
   2  -1  -2    3532     639                                                        3526    0.03    0.00  1.0000
   2   1  -2    4226    1076                                                        4220   -0.03    0.00  1.0000
   2   1  -2    2948     591                                                        2943   -0.03    0.00  1.0000
  -2  -1   2    3673     906                                                        3667   -0.03    0.00  1.0000
  -2  -2  -2   27374    1949                                                       27304   -0.16    0.00  1.0000
  -2  -2  -2   27658    1886                                                       27588   -0.16    0.00  1.0000
  -2   2  -2   29990    2112                                                       29917   -0.16    0.00  1.0000
  -2   2  -2   27285    1843                                                       27215   -0.16    0.00  1.0000
   2  -2  -2   29622    2126                                                       29549   -0.16    0.00  1.0000
   2  -2  -2   27826    1391                                                       27755   -0.16    0.00  1.0000
   2   2  -2   27742    2029                                                       27672   -0.16    0.00  1.0000
   2   2  -2   25130    1275                                                       25063   -0.16    0.00  1.0000
  -2  -2   2   24405    1655                                                       24339   -0.16    0.00  1.0000
  -2  -3  -2     681     662                                                         675    0.08    0.00  1.0000
  -2  -3  -2    1088     693                                                        1081    0.08    0.00  1.0000
  -2   3  -2     242     648                                                         239   -0.08    0.00  1.0000
  -2   3  -2     823     705                                                         817   -0.08    0.00  1.0000
   2  -3  -2    1435     854                                                        1427   -0.08    0.00  1.0000
   2  -3  -2    1116     549                                                        1109   -0.08    0.00  1.0000
   2   3  -2     560     602                                                         555    0.08    0.00  1.0000
   2   3  -2    1142     520                                                        1135    0.08    0.00  1.0000
  -2  -3   2    1401     693                                                        1393    0.08    0.00  1.0000
  -2  -4  -2   17697    1675                                                       17824   -0.35    0.00  1.0000
  -2  -4  -2   18711    1680                                                       18842   -0.35    0.00  1.0000
  -2   4  -2   18982    1823                                                       19114   -0.35    0.00  1.0000
  -2   4  -2   18492    1707                                                       18622   -0.35    0.00  1.0000
   2  -4  -2   19416    1877                                                       19549   -0.35    0.00  1.0000
   2  -4  -2   19389    1348                                                       19522   -0.35    0.00  1.0000
   2   4  -2   16639    1684                                                       16763   -0.35    0.00  1.0000
   2   4  -2   17924    1257                                                       18052   -0.35    0.00  1.0000
  -2  -4   2   17259    1432                                                       17385   -0.35    0.00  1.0000
  -2  -5  -2    2536     908                                                        2517   -0.14    0.00  1.0000
  -2  -5  -2    2244     864                                                        2226   -0.14    0.00  1.0000
  -2   5  -2    2380     923                                                        2362    0.14    0.00  1.0000
  -2   5  -2    1640     830                                                        1625    0.14    0.00  1.0000
   2  -5  -2    2494     990                                                        2475    0.14    0.00  1.0000
   2  -5  -2    1772     670                                                        1756    0.14    0.00  1.0000
   2   5  -2    2259     881                                                        2241   -0.14    0.00  1.0000
   2   5  -2    1988     641                                                        1971   -0.14    0.00  1.0000
  -2  -5   2    2266     755                                                        2248   -0.14    0.00  1.0000
  -2  -6  -2    9468    1455                                                        9623    0.58    0.00  1.0000
  -2  -6  -2    9183    1441                                                        9336    0.58    0.00  1.0000
  -2   6  -2    7838    1513                                                        7979    0.58    0.00  1.0000
  -2   6  -2    9365    1432                                                        9519    0.58    0.00  1.0000
   2  -6  -2   11262    1640                                                       11431    0.58    0.00  1.0000
   2  -6  -2    8266    1168                                                        8411    0.58    0.00  1.0000
   2   6  -2    8794    1490                                                        8944    0.58    0.00  1.0000
   2   6  -2    8343    1205                                                        8489    0.58    0.00  1.0000
  -2  -6   2    8626    1160                                                        8774    0.58    0.00  1.0000
  -2  -7  -2     584     651                                                         560   -0.36    0.00  1.0000
  -2  -7  -2     320     716                                                         302   -0.36    0.00  1.0000
  -2   7  -2     274     630                                                         258    0.36    0.00  1.0000
  -2   7  -2     587     715                                                         563    0.36    0.00  1.0000
   2  -7  -2     935     791                                                         905    0.36    0.00  1.0000
   2  -7  -2     216     585                                                         202    0.36    0.00  1.0000
   2   7  -2     343     510                                                         325   -0.36    0.00  1.0000
  -2  -7   2     945     560                                                         915   -0.36    0.00  1.0000
  -2  -8  -2    5252    1288                                                        5278   -0.13    0.00  1.0000
  -2  -8  -2    5013    1244                                                        5039   -0.13    0.00  1.0000
  -2   8  -2    2451    1007                                                        2469   -0.13    0.00  1.0000
  -2   8  -2    5001    1241                                                        5027   -0.13    0.00  1.0000
   2  -8  -2    4410    1324                                                        4434   -0.13    0.00  1.0000
   2  -8  -2    4879    1106                                                        4904   -0.13    0.00  1.0000
   2   8  -2    4018    1178                                                        4041   -0.13    0.00  1.0000
  -2  -8   2    4702    1032                                                        4727   -0.13    0.00  1.0000
  -2  -9  -2    5788    1465                                                        5886    0.47    0.00  1.0000
  -2  -9  -2    5404    1292                                                        5499    0.47    0.00  1.0000
  -2   9  -2    6474    1589                                                        6578   -0.47    0.00  1.0000
  -2   9  -2    6294    1486                                                        6396   -0.47    0.00  1.0000
   2  -9  -2    6045    1444                                                        6145   -0.47    0.00  1.0000
   2  -9  -2    5376    1258                                                        5470   -0.47    0.00  1.0000
   2   9  -2    4845    1225                                                        4935    0.47    0.00  1.0000
  -2  -9   2    5076    1058                                                        5168    0.47    0.00  1.0000
  -2 -10  -2    9880    1597                                                        9772   -0.40    0.00  1.0000
  -2 -10  -2     617     609                                                         590   -0.40    0.00  1.0000
  -2  10  -2    9708    1660                                                        9601   -0.40    0.00  1.0000
  -2  10  -2    8865    1642                                                        8763   -0.40    0.00  1.0000
   2 -10  -2   10003    1569                                                        9895   -0.40    0.00  1.0000
   2 -10  -2   11288    1468                                                       11173   -0.40    0.00  1.0000
   2  10  -2    9522    1433                                                        9416   -0.40    0.00  1.0000
  -2 -10   2    9388    1166                                                        9283   -0.40    0.00  1.0000
  -2 -11  -2      84     804                                                         105    0.80    0.00  1.0000
  -2 -11  -2     317     686                                                         357    0.80    0.00  1.0000
  -2  11  -2     144     764                                                         171   -0.80    0.00  1.0000
  -2  11  -2       5     852                                                          11   -0.80    0.00  1.0000
   2 -11  -2      63     707                                                          81   -0.80    0.00  1.0000
   2 -11  -2     199     795                                                         231   -0.80    0.00  1.0000
   2  11  -2      66     613                                                          85    0.80    0.00  1.0000
  -2 -11   2     119     606                                                         144    0.80    0.00  1.0000
  -2 -12  -2    3414    1164                                                        3398    0.10    0.00  1.0000
  -2 -12  -2    3441    1104                                                        3425    0.10    0.00  1.0000
  -2  12  -2    4452    1265                                                        4433    0.10    0.00  1.0000
  -2  12  -2    4887    1398                                                        4867    0.10    0.00  1.0000
   2 -12  -2    4545    1269                                                        4526    0.10    0.00  1.0000
   2 -12  -2    3855    1172                                                        3838    0.10    0.00  1.0000
   2  12  -2    5695    1406                                                        5674    0.10    0.00  1.0000
  -2 -12   2    3770     974                                                        3753    0.10    0.00  1.0000
  -2 -13  -2    6381    1527                                                        6391    0.04    0.00  1.0000
  -2 -13  -2    6365    1598                                                        6375    0.04    0.00  1.0000
  -2  13  -2    4365    1463                                                        4373   -0.04    0.00  1.0000
  -2  13  -2    6184    1611                                                        6193   -0.04    0.00  1.0000
   2 -13  -2    4309    1400                                                        4317   -0.04    0.00  1.0000
   2 -13  -2    5274    1371                                                        5283   -0.04    0.00  1.0000
   2  13  -2    5787    1500                                                        5796    0.04    0.00  1.0000
  -2 -14  -2    6213    1572                                                        6163   -0.23    0.00  1.0000
  -2 -14  -2    7362    1747                                                        7308   -0.23    0.00  1.0000
  -2  14  -2    5217    1494                                                        5171   -0.23    0.00  1.0000
  -2  14  -2    7755    1885                                                        7699   -0.23    0.00  1.0000
   2 -14  -2    5719    1578                                                        5671   -0.23    0.00  1.0000
   2 -14  -2    6313    1545                                                        6263   -0.23    0.00  1.0000
   2  14  -2    6632    1615                                                        6581   -0.23    0.00  1.0000
  -2 -15  -2    2322    1147                                                        2358    0.27    0.00  1.0000
  -2 -15  -2    1007    1086                                                        1031    0.27    0.00  1.0000
  -2  15  -2     695     896                                                         715   -0.27    0.00  1.0000
   2 -15  -2    1177    1069                                                        1203   -0.27    0.00  1.0000
   2 -15  -2    1308    1118                                                        1335   -0.27    0.00  1.0000
   2  15  -2    1674     989                                                        1705    0.27    0.00  1.0000
  -2 -16  -2    4569    1551                                                        4436    0.73    0.00  1.0000
  -2 -16  -2    4127    1581                                                        4000    0.73    0.00  1.0000
  -2  16  -2    1837    1163                                                        1753    0.73    0.00  1.0000
   2 -16  -2    3678    1520                                                        3558    0.73    0.00  1.0000
   2 -16  -2    2965    1395                                                        2858    0.73    0.00  1.0000
   2  16  -2    4446    1667                                                        4314    0.73    0.00  1.0000
  -2 -17  -2     801    1080                                                         877    0.95    0.00  1.0000
  -2 -17  -2     655    1089                                                         723    0.95    0.00  1.0000
  -2  17  -2    1212    1155                                                        1304   -0.95    0.00  1.0000
   2 -17  -2     800    1163                                                         875   -0.95    0.00  1.0000
   2 -17  -2    1495    1277                                                        1597   -0.95    0.00  1.0000
   2  17  -2     907    1088                                                         987    0.95    0.00  1.0000
  -2 -18  -2    4181    1654                                                        4581    2.21    0.00  1.0000
  -2 -18  -2    4822    1757                                                        5251    2.21    0.00  1.0000
  -2  18  -2    3419    1615                                                        3781    2.21    0.00  1.0000
   2 -18  -2    3639    1684                                                        4012    2.21    0.00  1.0000
   2 -18  -2    5952    1872                                                        6427    2.21    0.00  1.0000
   2  18  -2    4644    1726                                                        5065    2.21    0.00  1.0000
  -2 -19  -2    1532    1466                                                        1568    0.34    0.00  1.0000
  -2  19  -2    2526    1371                                                        2573   -0.34    0.00  1.0000
   2 -19  -2    1696    1460                                                        1734   -0.34    0.00  1.0000
   2 -19  -2    2138    1447                                                        2181   -0.34    0.00  1.0000
   2  19  -2    1923    1327                                                        1964    0.34    0.00  1.0000
  -2 -20  -2     787    1211                                                         650    1.88    0.00  1.0000
  -2  20  -2    1548    1174                                                        1353    1.88    0.00  1.0000
   2 -20  -2    1854    1408                                                        1640    1.88    0.00  1.0000
   2 -20  -2     949    1190                                                         797    1.88    0.00  1.0000
   2  20  -2     149    1010                                                          93    1.88    0.00  1.0000
  -2 -21  -2     847    1290                                                         799   -0.61    0.00  1.0000
  -2  21  -2     991    1212                                                         939    0.61    0.00  1.0000
   2 -21  -2    2095    1562                                                        2019    0.61    0.00  1.0000
   2 -21  -2     276    1138                                                         249    0.61    0.00  1.0000
   2  21  -2     570    1245                                                         531   -0.61    0.00  1.0000
  -2 -22  -2     538    1431                                                         604    1.01    0.00  1.0000
   2 -22  -2     729    1587                                                         805    1.01    0.00  1.0000
   2 -22  -2     167    1351                                                         205    1.01    0.00  1.0000
   2  22  -2     244    1295                                                         289    1.01    0.00  1.0000
   2 -22   2     397    1619                                                         454    1.01    0.00  1.0000
  -2 -23  -2    1597    1551                                                        1527   -0.65    0.00  1.0000
   2 -23  -2     330    1611                                                         299    0.65    0.00  1.0000
   2 -23  -2    1661    1652                                                        1590    0.65    0.00  1.0000
   2  23  -2    1490    1575                                                        1423   -0.65    0.00  1.0000
   2 -23   2     916    1665                                                         863    0.65    0.00  1.0000
  -2 -24  -2      33    1445                                                          25   -0.56    0.00  1.0000
   2 -24  -2      33    1664                                                          25   -0.56    0.00  1.0000
   2 -24  -2      33    1714                                                          25   -0.56    0.00  1.0000
   2  24  -2     316    1512                                                         289   -0.56    0.00  1.0000
   2 -24   2      53    1974                                                          42   -0.56    0.00  1.0000
  -2 -25  -2     282    1637                                                         280   -0.05    0.00  1.0000
   2 -25  -2     613    1913                                                         610    0.05    0.00  1.0000
   2 -25  -2     349    1676                                                         346    0.05    0.00  1.0000
  -2 -25   2    1010    2147                                                        1006   -0.05    0.00  1.0000
   2 -25   2     749    1837                                                         745    0.05    0.00  1.0000
  -2 -26  -2     183    1904                                                         260   -1.91    0.00  1.0000
   2 -26  -2      85    1883                                                         140   -1.91    0.00  1.0000
   2 -26  -2     122    1787                                                         187   -1.91    0.00  1.0000
  -2 -26   2    2331    2473                                                        2590   -1.91    0.00  1.0000
   2 -26   2       3    1723                                                          19   -1.91    0.00  1.0000
  -3  -1  -2     477     661                                                         465    0.20    0.00  1.0000
  -3  -1  -2     569     749                                                         556    0.20    0.00  1.0000
  -3   1  -2     817     776                                                         801    0.20    0.00  1.0000
  -3   1  -2     292     726                                                         283    0.20    0.00  1.0000
   3  -1  -2     934     794                                                         917    0.20    0.00  1.0000
   3  -1  -2     566     420                                                         553    0.20    0.00  1.0000
   3   1  -2     240     588                                                         232    0.20    0.00  1.0000
  -3  -1   2     402     593                                                         391    0.20    0.00  1.0000
  -3   1   2     894     762                                                         878    0.20    0.00  1.0000
  -3  -2  -2     223     596                                                         248   -0.60    0.00  1.0000
  -3  -2  -2       0     552                                                           1   -0.60    0.00  1.0000
  -3   2  -2      17     539                                                          24    0.60    0.00  1.0000
  -3   2  -2      14     620                                                          21    0.60    0.00  1.0000
   3  -2  -2      17     618                                                          24    0.60    0.00  1.0000
   3  -2  -2       6     363                                                          10    0.60    0.00  1.0000
   3   2  -2      15     486                                                          22   -0.60    0.00  1.0000
  -3  -2   2      36     497                                                          47   -0.60    0.00  1.0000
  -3  -3  -2   11881    1372                                                       11698    0.62    0.00  1.0000
  -3  -3  -2   12351    1327                                                       12165    0.62    0.00  1.0000
  -3   3  -2   12718    1559                                                       12529    0.62    0.00  1.0000
  -3   3  -2   13008    1578                                                       12817    0.62    0.00  1.0000
   3  -3  -2   11746    1502                                                       11564    0.62    0.00  1.0000
   3  -3  -2   12976     985                                                       12785    0.62    0.00  1.0000
   3   3  -2   11347    1364                                                       11168    0.62    0.00  1.0000
  -3  -3   2   12203    1277                                                       12018    0.62    0.00  1.0000
  -3  -4  -2       1     493                                                           0   -0.83    0.00  1.0000
  -3  -4  -2     229     597                                                         196   -0.83    0.00  1.0000
  -3   4  -2       1     543                                                           0    0.83    0.00  1.0000
  -3   4  -2       1    1134                                                           0    0.83    0.00  1.0000
   3  -4  -2     211     641                                                         179    0.83    0.00  1.0000
   3  -4  -2      65     411                                                          48    0.83    0.00  1.0000
   3   4  -2       1     410                                                           0   -0.83    0.00  1.0000
  -3  -4   2       1     411                                                           0   -0.83    0.00  1.0000
  -3  -5  -2     466     637                                                         435   -0.53    0.00  1.0000
  -3  -5  -2    1469     747                                                        1414   -0.53    0.00  1.0000
  -3   5  -2     550     702                                                         517   -0.53    0.00  1.0000
  -3   5  -2     782     768                                                         742   -0.53    0.00  1.0000
   3  -5  -2     586     754                                                         552   -0.53    0.00  1.0000
   3  -5  -2     960     576                                                         916   -0.53    0.00  1.0000
   3   5  -2     661     586                                                         624   -0.53    0.00  1.0000
  -3  -5   2     749     577                                                         710   -0.53    0.00  1.0000
  -3  -6  -2    1152     732                                                        1161    0.10    0.00  1.0000
  -3  -6  -2       2     485                                                           2    0.10    0.00  1.0000
  -3   6  -2    1222     865                                                        1231   -0.10    0.00  1.0000
  -3   6  -2    1509     854                                                        1519   -0.10    0.00  1.0000
   3  -6  -2    1576     937                                                        1587   -0.10    0.00  1.0000
   3  -6  -2     923     614                                                         931   -0.10    0.00  1.0000
   3   6  -2    1341     771                                                        1351    0.10    0.00  1.0000
  -3  -6   2    1671     778                                                        1682    0.10    0.00  1.0000
  -3  -7  -2    7378    1405                                                        7543   -0.70    0.00  1.0000
  -3  -7  -2       1     494                                                           0   -0.70    0.00  1.0000
  -3   7  -2    6759    1500                                                        6917   -0.70    0.00  1.0000
  -3   7  -2    8037    1594                                                        8209   -0.70    0.00  1.0000
   3  -7  -2    7160    1495                                                        7323   -0.70    0.00  1.0000
   3  -7  -2    7232    1222                                                        7395   -0.70    0.00  1.0000
   3   7  -2    8550    1520                                                        8728   -0.70    0.00  1.0000
  -3  -7   2    6302    1190                                                        6455   -0.70    0.00  1.0000
  -3  -8  -2    2878     942                                                        2820    0.40    0.00  1.0000
  -3  -8  -2    1247     758                                                        1209    0.40    0.00  1.0000
  -3   8  -2    2054     930                                                        2005   -0.40    0.00  1.0000
  -3   8  -2    1241     876                                                        1203   -0.40    0.00  1.0000
   3  -8  -2    3044    1133                                                        2985   -0.40    0.00  1.0000
   3  -8  -2    1771     756                                                        1726   -0.40    0.00  1.0000
   3   8  -2    2497     924                                                        2443    0.40    0.00  1.0000
  -3  -8   2    1901     731                                                        1854    0.40    0.00  1.0000
  -3  -9  -2    1710     826                                                        1674    0.32    0.00  1.0000
  -3  -9  -2    1445     764                                                        1412    0.32    0.00  1.0000
  -3   9  -2     465     649                                                         446    0.32    0.00  1.0000
  -3   9  -2    1852     988                                                        1815    0.32    0.00  1.0000
   3  -9  -2    1506     866                                                        1472    0.32    0.00  1.0000
   3  -9  -2     874     721                                                         848    0.32    0.00  1.0000
   3   9  -2    1268     700                                                        1237    0.32    0.00  1.0000
  -3  -9   2     548     588                                                         528    0.32    0.00  1.0000
  -3 -10  -2   13068    1773                                                       12959   -0.35    0.00  1.0000
  -3 -10  -2   13414    1714                                                       13304   -0.35    0.00  1.0000
  -3  10  -2   12245    1728                                                       12140    0.35    0.00  1.0000
  -3  10  -2   10993    1773                                                       10893    0.35    0.00  1.0000
   3 -10  -2   11342    1720                                                       11241    0.35    0.00  1.0000
   3 -10  -2   11529    1500                                                       11427    0.35    0.00  1.0000
   3  10  -2    9418    1508                                                        9326   -0.35    0.00  1.0000
  -3 -10   2    9568    1312                                                        9475   -0.35    0.00  1.0000
  -3 -11  -2    1214     873                                                        1198    0.17    0.00  1.0000
  -3 -11  -2    1724     962                                                        1705    0.17    0.00  1.0000
  -3  11  -2    1602    1016                                                        1584    0.17    0.00  1.0000
  -3  11  -2    1484     990                                                        1467    0.17    0.00  1.0000
   3 -11  -2    1587     937                                                        1569    0.17    0.00  1.0000
   3 -11  -2    1338     932                                                        1321    0.17    0.00  1.0000
   3  11  -2    1261     836                                                        1245    0.17    0.00  1.0000
  -3 -11   2    1084     798                                                        1069    0.17    0.00  1.0000
  -3 -12  -2    1727    1023                                                        1735   -0.07    0.00  1.0000
  -3 -12  -2    2185    1117                                                        2193   -0.07    0.00  1.0000
  -3  12  -2    4483    1469                                                        4495    0.07    0.00  1.0000
  -3  12  -2    3002    1352                                                        3012    0.07    0.00  1.0000
   3 -12  -2    3373    1220                                                        3384    0.07    0.00  1.0000
   3 -12  -2    2748    1105                                                        2758    0.07    0.00  1.0000
   3  12  -2    2160    1047                                                        2168   -0.07    0.00  1.0000
  -3 -12   2    1828     930                                                        1836   -0.07    0.00  1.0000
  -3 -13  -2    1222    1065                                                        1219    0.04    0.00  1.0000
  -3 -13  -2    1077    1001                                                        1074    0.04    0.00  1.0000
  -3  13  -2     733     924                                                         730    0.04    0.00  1.0000
  -3  13  -2     771    1036                                                         768    0.04    0.00  1.0000
   3 -13  -2    1100    1084                                                        1097    0.04    0.00  1.0000
   3 -13  -2    1123    1061                                                        1120    0.04    0.00  1.0000
   3  13  -2    1474    1009                                                        1470    0.04    0.00  1.0000
  -3 -13   2    1226     865                                                        1223    0.04    0.00  1.0000
  -3 -14  -2   10623    1935                                                       10732    0.39    0.00  1.0000
  -3 -14  -2    9403    1819                                                        9506    0.39    0.00  1.0000
  -3  14  -2    8816    1845                                                        8915   -0.39    0.00  1.0000
  -3  14  -2     928    1102                                                         960   -0.39    0.00  1.0000
   3 -14  -2    9053    1859                                                        9154   -0.39    0.00  1.0000
   3 -14  -2    8794    1663                                                        8893   -0.39    0.00  1.0000
   3  14  -2    9258    1757                                                        9360    0.39    0.00  1.0000
  -3 -15  -2    2371    1215                                                        2404   -0.25    0.00  1.0000
  -3 -15  -2    1868    1095                                                        1897   -0.25    0.00  1.0000
  -3  15  -2    2079    1201                                                        2110   -0.25    0.00  1.0000
  -3  15  -2     502    1285                                                         517   -0.25    0.00  1.0000
   3 -15  -2    2026    1077                                                        2057   -0.25    0.00  1.0000
   3 -15  -2    2979    1235                                                        3016   -0.25    0.00  1.0000
   3  15  -2    2806    1272                                                        2842   -0.25    0.00  1.0000
  -3 -16  -2     895    1085                                                         901   -0.08    0.00  1.0000
  -3  16  -2       4     948                                                           4    0.08    0.00  1.0000
   3 -16  -2     781    1093                                                         787    0.08    0.00  1.0000
   3  16  -2    1509    1118                                                        1517   -0.08    0.00  1.0000
  -3 -17  -2    1157    1250                                                        1036   -1.34    0.00  1.0000
  -3  17  -2     966    1174                                                         856   -1.34    0.00  1.0000
   3 -17  -2     656    1140                                                         566   -1.34    0.00  1.0000
   3  17  -2    1793    1181                                                        1642   -1.34    0.00  1.0000
  -3 -18  -2    5977    1790                                                        5945   -0.15    0.00  1.0000
  -3  18  -2    4615    1671                                                        4587    0.15    0.00  1.0000
   3 -18  -2    4478    1634                                                        4451    0.15    0.00  1.0000
   3  18  -2    7339    1944                                                        7304   -0.15    0.00  1.0000
  -3 -19  -2     627    1340                                                         707   -1.13    0.00  1.0000
  -3  19  -2     367    1153                                                         428   -1.13    0.00  1.0000
   3 -19  -2     622    1359                                                         701   -1.13    0.00  1.0000
   3  19  -2     549    1242                                                         624   -1.13    0.00  1.0000
  -3 -20  -2     741    1246                                                         736    0.06    0.00  1.0000
  -3  20  -2     641    1124                                                         637   -0.06    0.00  1.0000
   3 -20  -2     252    1437                                                         249   -0.06    0.00  1.0000
   3  20  -2     387    1055                                                         384    0.06    0.00  1.0000
  -3 -21  -2     897    1315                                                         857   -0.49    0.00  1.0000
   3 -21  -2      17    1344                                                          12   -0.49    0.00  1.0000
   3  21  -2     577    1177                                                         545   -0.49    0.00  1.0000
   3 -21   2     163    1392                                                         146   -0.49    0.00  1.0000
  -3 -22  -2    6714    2193                                                        6729    0.07    0.00  1.0000
   3 -22  -2    6182    2141                                                        6196   -0.07    0.00  1.0000
   3  22  -2    5967    2114                                                        5981    0.07    0.00  1.0000
   3 -22   2    3410    1915                                                        3421   -0.07    0.00  1.0000
  -3 -23  -2     304    1477                                                         315   -0.23    0.00  1.0000
   3 -23  -2     495    1658                                                         509   -0.23    0.00  1.0000
   3 -23  -2     207    1275                                                         216   -0.23    0.00  1.0000
   3  23  -2    1190    1505                                                        1212   -0.23    0.00  1.0000
   3 -23   2       0    1466                                                           1   -0.23    0.00  1.0000
  -3 -24  -2       2    1506                                                           2    0.09    0.00  1.0000
   3 -24  -2       2    1689                                                           2   -0.09    0.00  1.0000
   3 -24  -2       2    1502                                                           2   -0.09    0.00  1.0000
   3  24  -2     443    1457                                                         438    0.09    0.00  1.0000
   3 -24   2       2    1571                                                           2   -0.09    0.00  1.0000
  -3 -25  -2     918    1825                                                        1017    1.16    0.00  1.0000
   3 -25  -2       0    1870                                                           4    1.16    0.00  1.0000
   3 -25  -2       0    1726                                                           4    1.16    0.00  1.0000
  -3 -25   2     134    2132                                                         173    1.16    0.00  1.0000
   3 -25   2    1124    1890                                                        1233    1.16    0.00  1.0000
  -3 -26  -2    1189    1936                                                        1165   -0.26    0.00  1.0000
   3 -26  -2    1216    2050                                                        1191    0.26    0.00  1.0000
   3 -26  -2    2301    1917                                                        2267    0.26    0.00  1.0000
  -3 -26   2    1805    2414                                                        1775   -0.26    0.00  1.0000
   3 -26   2     959    1841                                                         937    0.26    0.00  1.0000
  -4   0  -2     519     778                                                         510   -0.15    0.00  1.0000
  -4   0  -2      14     482                                                          13   -0.15    0.00  1.0000
   4   0  -2    1224     899                                                        1210   -0.15    0.00  1.0000
  -4   0   2    1276     938                                                        1262   -0.15    0.00  1.0000
  -4  -1  -2    3962    1179                                                        3930    0.18    0.00  1.0000
  -4  -1  -2      61     584                                                          57    0.18    0.00  1.0000
  -4   1  -2    4284    1163                                                        4251   -0.18    0.00  1.0000
  -4   1  -2     223     563                                                         216   -0.18    0.00  1.0000
   4  -1  -2    3870    1165                                                        3839   -0.18    0.00  1.0000
   4   1  -2    3223    1077                                                        3194    0.18    0.00  1.0000
  -4  -1   2    4261    1132                                                        4228    0.18    0.00  1.0000
  -4   1   2    3358    1084                                                        3329   -0.18    0.00  1.0000
  -4  -2  -2   34643    2073                                                       34954   -0.61    0.00  1.0000
  -4   2  -2   35037    2192                                                       35350   -0.61    0.00  1.0000
  -4   2  -2     520     565                                                         559   -0.61    0.00  1.0000
   4  -2  -2   31886    2188                                                       32185   -0.61    0.00  1.0000
   4   2  -2   30963    2183                                                       31257   -0.61    0.00  1.0000
  -4  -2   2   29108    1962                                                       29393   -0.61    0.00  1.0000
  -4   2   2   33137    2157                                                       33441   -0.61    0.00  1.0000
  -4  -3  -2    5328    1070                                                        5516    0.93    0.00  1.0000
  -4  -3  -2    3338     948                                                        3487    0.93    0.00  1.0000
  -4   3  -2    6843    1400                                                        7056   -0.93    0.00  1.0000
  -4   3  -2      12     552                                                          22   -0.93    0.00  1.0000
   4  -3  -2    5155    1166                                                        5340   -0.93    0.00  1.0000
   4   3  -2    3846    1019                                                        4006    0.93    0.00  1.0000
  -4  -3   2    5159    1197                                                        5344    0.93    0.00  1.0000
  -4   3   2    5918    1184                                                        6116   -0.93    0.00  1.0000
  -4  -4  -2    6018    1161                                                        5975   -0.20    0.00  1.0000
  -4  -4  -2    8382    1296                                                        8331   -0.20    0.00  1.0000
  -4   4  -2    8333    1472                                                        8282   -0.20    0.00  1.0000
  -4   4  -2     535     561                                                         522   -0.20    0.00  1.0000
   4  -4  -2    8908    1308                                                        8856   -0.20    0.00  1.0000
   4   4  -2    7554    1317                                                        7506   -0.20    0.00  1.0000
  -4  -4   2    7552    1177                                                        7504   -0.20    0.00  1.0000
  -4  -5  -2    3277     929                                                        3129    0.96    0.00  1.0000
  -4  -5  -2    4732    1204                                                        4554    0.96    0.00  1.0000
  -4   5  -2    3463    1047                                                        3311   -0.96    0.00  1.0000
  -4   5  -2      14     580                                                           6   -0.96    0.00  1.0000
   4  -5  -2    4808    1205                                                        4629   -0.96    0.00  1.0000
   4  -5  -2    2978     686                                                        2837   -0.96    0.00  1.0000
   4   5  -2    3398    1003                                                        3247    0.96    0.00  1.0000
  -4  -5   2    3608     982                                                        3453    0.96    0.00  1.0000
  -4  -6  -2   35625    2030                                                       35203    0.82    0.00  1.0000
  -4  -6  -2   39029    2383                                                       38588    0.82    0.00  1.0000
  -4   6  -2   37159    2435                                                       36728    0.82    0.00  1.0000
  -4   6  -2      27     595                                                          17    0.82    0.00  1.0000
   4  -6  -2   36310    2476                                                       35884    0.82    0.00  1.0000
   4  -6  -2   36097    1715                                                       35673    0.82    0.00  1.0000
   4   6  -2   34080    2317                                                       33668    0.82    0.00  1.0000
  -4  -6   2   34270    2049                                                       33856    0.82    0.00  1.0000
  -4  -7  -2    4208    1055                                                        4188   -0.11    0.00  1.0000
  -4  -7  -2    2363    1026                                                        2348   -0.11    0.00  1.0000
  -4   7  -2    3923    1182                                                        3904    0.11    0.00  1.0000
  -4   7  -2     467     602                                                         460    0.11    0.00  1.0000
   4  -7  -2    3111    1079                                                        3094    0.11    0.00  1.0000
   4  -7  -2    3527     847                                                        3509    0.11    0.00  1.0000
   4   7  -2    2212     857                                                        2198   -0.11    0.00  1.0000
  -4  -7   2    3564    1011                                                        3546   -0.11    0.00  1.0000
  -4  -8  -2    4489    1129                                                        4543    0.29    0.00  1.0000
  -4  -8  -2    4213    1256                                                        4265    0.29    0.00  1.0000
  -4   8  -2    3145    1243                                                        3190    0.29    0.00  1.0000
  -4   8  -2       9     627                                                          12    0.29    0.00  1.0000
   4  -8  -2    4727    1357                                                        4782    0.29    0.00  1.0000
   4  -8  -2    4359    1033                                                        4412    0.29    0.00  1.0000
   4   8  -2    2787    1063                                                        2830    0.29    0.00  1.0000
  -4  -8   2    3741    1113                                                        3790    0.29    0.00  1.0000
  -4  -9  -2    3392    1091                                                        3443   -0.32    0.00  1.0000
  -4  -9  -2    5495    1450                                                        5559   -0.32    0.00  1.0000
  -4   9  -2    4838    1475                                                        4898    0.32    0.00  1.0000
  -4   9  -2     391     740                                                         408    0.32    0.00  1.0000
   4  -9  -2    3980    1354                                                        4035    0.32    0.00  1.0000
   4  -9  -2    3190    1004                                                        3239    0.32    0.00  1.0000
   4   9  -2    3403    1213                                                        3454   -0.32    0.00  1.0000
  -4  -9   2    2748    1047                                                        2794   -0.32    0.00  1.0000
  -4 -10  -2   13178    1664                                                       13224   -0.15    0.00  1.0000
  -4 -10  -2   14984    1842                                                       15033   -0.15    0.00  1.0000
  -4  10  -2   15155    1922                                                       15205   -0.15    0.00  1.0000
  -4  10  -2    7523    1603                                                        7558   -0.15    0.00  1.0000
   4 -10  -2   14730    1938                                                       14779   -0.15    0.00  1.0000
   4 -10  -2   14997    1698                                                       15046   -0.15    0.00  1.0000
   4  10  -2   14386    1807                                                       14434   -0.15    0.00  1.0000
  -4 -10   2   14002    1585                                                       14050   -0.15    0.00  1.0000
  -4 -11  -2    7895    1599                                                        7855   -0.16    0.00  1.0000
  -4 -11  -2    6891    1570                                                        6854   -0.16    0.00  1.0000
  -4  11  -2    8559    1775                                                        8518    0.16    0.00  1.0000
  -4  11  -2    8109    1631                                                        8069    0.16    0.00  1.0000
   4 -11  -2    8239    1673                                                        8198    0.16    0.00  1.0000
   4  11  -2    6803    1443                                                        6766   -0.16    0.00  1.0000
  -4 -11   2    6369    1390                                                        6333   -0.16    0.00  1.0000
  -4 -12  -2    1955     993                                                        1962   -0.06    0.00  1.0000
  -4 -12  -2    2024    1047                                                        2031   -0.06    0.00  1.0000
  -4  12  -2    2012    1098                                                        2019   -0.06    0.00  1.0000
  -4  12  -2    1577    1090                                                        1583   -0.06    0.00  1.0000
   4 -12  -2    1291     920                                                        1297   -0.06    0.00  1.0000
   4  12  -2    1549     873                                                        1555   -0.06    0.00  1.0000
  -4 -12   2    2141     978                                                        2148   -0.06    0.00  1.0000
  -4 -13  -2    3163    1325                                                        3216   -0.34    0.00  1.0000
  -4  13  -2    1617    1142                                                        1655    0.34    0.00  1.0000
  -4  13  -2    1788    1162                                                        1828    0.34    0.00  1.0000
   4 -13  -2    2274    1144                                                        2319    0.34    0.00  1.0000
   4  13  -2    2363    1075                                                        2409   -0.34    0.00  1.0000
  -4 -13   2    2044    1003                                                        2087   -0.34    0.00  1.0000
  -4 -14  -2    6111    1728                                                        6172   -0.28    0.00  1.0000
  -4  14  -2    4501    1584                                                        4553   -0.28    0.00  1.0000
  -4  14  -2    6812    1877                                                        6876   -0.28    0.00  1.0000
   4 -14  -2    4169    1549                                                        4219   -0.28    0.00  1.0000
   4  14  -2    4903    1540                                                        4957   -0.28    0.00  1.0000
  -4 -14   2    4237    1303                                                        4288   -0.28    0.00  1.0000
  -4 -15  -2     757    1076                                                         743   -0.19    0.00  1.0000
  -4  15  -2     268    1039                                                         260    0.19    0.00  1.0000
  -4  15  -2    1384    1356                                                        1365    0.19    0.00  1.0000
   4 -15  -2     479    1017                                                         468    0.19    0.00  1.0000
   4  15  -2     418     839                                                         407   -0.19    0.00  1.0000
  -4 -16  -2     215    1147                                                         232    0.42    0.00  1.0000
  -4  16  -2      32     877                                                          39    0.42    0.00  1.0000
  -4  16  -2     131    1290                                                         144    0.42    0.00  1.0000
   4 -16  -2      32     983                                                          39    0.42    0.00  1.0000
   4  16  -2      32     681                                                          39    0.42    0.00  1.0000
  -4 -17  -2     242    1201                                                         224   -0.43    0.00  1.0000
  -4  17  -2     749    1261                                                         717    0.43    0.00  1.0000
   4 -17  -2     433    1096                                                         409    0.43    0.00  1.0000
   4  17  -2      35     756                                                          28   -0.43    0.00  1.0000
  -4 -18  -2    1850    1305                                                        1745    0.91    0.00  1.0000
  -4  18  -2     941    1265                                                         866    0.91    0.00  1.0000
   4 -18  -2    3098    1500                                                        2961    0.91    0.00  1.0000
   4  18  -2      31     774                                                          19    0.91    0.00  1.0000
  -4 -19  -2       0    1056                                                           0   -0.41    0.00  1.0000
   4 -19  -2     132    1218                                                         145    0.41    0.00  1.0000
   4  19  -2     316     968                                                         336   -0.41    0.00  1.0000
  -4 -20  -2      15    1126                                                          18    0.24    0.00  1.0000
   4 -20  -2      83    1314                                                          89    0.24    0.00  1.0000
   4  20  -2     369    1163                                                         382    0.24    0.00  1.0000
   4 -20   2      15     983                                                          18    0.24    0.00  1.0000
  -4 -21  -2    2060    1476                                                        2142    0.66    0.00  1.0000
   4 -21  -2     729    1418                                                         778   -0.66    0.00  1.0000
   4  21  -2     770    1292                                                         821    0.66    0.00  1.0000
   4 -21   2     725    1266                                                         774   -0.66    0.00  1.0000
  -4 -22  -2     943    1398                                                         921    0.26    0.00  1.0000
   4 -22  -2    1133    1583                                                        1109    0.26    0.00  1.0000
   4  22  -2     395    1334                                                         381    0.26    0.00  1.0000
   4 -22   2     328    1262                                                         315    0.26    0.00  1.0000
  -4 -23  -2       1    1352                                                           4    0.71    0.00  1.0000
   4 -23  -2       1    1494                                                           4   -0.71    0.00  1.0000
   4  23  -2      36    1397                                                          49    0.71    0.00  1.0000
   4 -23   2       1    1531                                                           4   -0.71    0.00  1.0000
  -4 -24  -2     102    1483                                                         106   -0.14    0.00  1.0000
   4 -24  -2      24    1683                                                          26   -0.14    0.00  1.0000
   4  24  -2      32    1365                                                          34   -0.14    0.00  1.0000
   4 -24   2       3    1376                                                           4   -0.14    0.00  1.0000
  -4 -25  -2     690    1754                                                         696    0.08    0.00  1.0000
   4 -25  -2       2    1799                                                           2   -0.08    0.00  1.0000
   4 -25   2       2    1556                                                           2   -0.08    0.00  1.0000
  -5  -1  -2    9619    1469                                                        9509    0.41    0.00  1.0000
  -5  -1  -2    9836    1585                                                        9724    0.41    0.00  1.0000
  -5   1  -2   10705    1558                                                       10589    0.41    0.00  1.0000
  -5   1  -2    8282    1484                                                        8180    0.41    0.00  1.0000
   5  -1  -2    9974    1509                                                        9862    0.41    0.00  1.0000
   5   1  -2   10313    1531                                                       10199    0.41    0.00  1.0000
  -5  -1   2   10658    1467                                                       10542    0.41    0.00  1.0000
  -5   1   2    8891    1382                                                        8785    0.41    0.00  1.0000
  -5  -2  -2     903     763                                                         923    0.24    0.00  1.0000
  -5  -2  -2     808     860                                                         827    0.24    0.00  1.0000
  -5   2  -2     499     753                                                         514   -0.24    0.00  1.0000
  -5   2  -2     887     903                                                         907   -0.24    0.00  1.0000
   5  -2  -2     473     733                                                         487   -0.24    0.00  1.0000
   5   2  -2     697     809                                                         715    0.24    0.00  1.0000
  -5  -2   2    1417     913                                                        1442    0.24    0.00  1.0000
  -5   2   2    1134     888                                                        1156   -0.24    0.00  1.0000
  -5  -3  -2     103     589                                                         120    0.59    0.00  1.0000
  -5  -3  -2      31     599                                                          41    0.59    0.00  1.0000
  -5   3  -2     273     671                                                         300    0.59    0.00  1.0000
  -5   3  -2     219     785                                                         243    0.59    0.00  1.0000
   5  -3  -2      42     579                                                          53    0.59    0.00  1.0000
   5   3  -2      36     526                                                          46    0.59    0.00  1.0000
  -5  -3   2      31     506                                                          41    0.59    0.00  1.0000
  -5   3   2      31     507                                                          41    0.59    0.00  1.0000
  -5  -4  -2     111     582                                                         134   -0.76    0.00  1.0000
  -5  -4  -2     390     731                                                         432   -0.76    0.00  1.0000
  -5   4  -2     597     728                                                         649    0.76    0.00  1.0000
  -5   4  -2     126     754                                                         150    0.76    0.00  1.0000
   5  -4  -2      60     601                                                          77    0.76    0.00  1.0000
   5   4  -2      48     601                                                          64   -0.76    0.00  1.0000
  -5  -4   2     172     593                                                         200   -0.76    0.00  1.0000
  -5   4   2     328     601                                                         367    0.76    0.00  1.0000
  -5  -5  -2   18758    1603                                                       18902   -0.39    0.00  1.0000
  -5  -5  -2   19373    1907                                                       19520   -0.39    0.00  1.0000
  -5   5  -2   19558    1860                                                       19705   -0.39    0.00  1.0000
  -5   5  -2   19128    2018                                                       19274   -0.39    0.00  1.0000
   5  -5  -2   17993    1823                                                       18134   -0.39    0.00  1.0000
   5   5  -2   16406    1743                                                       16541   -0.39    0.00  1.0000
  -5  -5   2   17122    1711                                                       17260   -0.39    0.00  1.0000
  -5  -6  -2      29     613                                                          43   -0.86    0.00  1.0000
  -5  -6  -2     267     777                                                         307   -0.86    0.00  1.0000
  -5   6  -2     319     806                                                         362    0.86    0.00  1.0000
  -5   6  -2     246     795                                                         284    0.86    0.00  1.0000
   5  -6  -2      17     527                                                          28    0.86    0.00  1.0000
   5   6  -2     360     592                                                         406   -0.86    0.00  1.0000
  -5  -6   2      41     609                                                          57   -0.86    0.00  1.0000
  -5  -7  -2    1326     687                                                        1265   -0.62    0.00  1.0000
  -5  -7  -2     976     816                                                         924   -0.62    0.00  1.0000
  -5   7  -2    1802     935                                                        1730   -0.62    0.00  1.0000
  -5   7  -2    1120     873                                                        1064   -0.62    0.00  1.0000
   5  -7  -2     774     673                                                         727   -0.62    0.00  1.0000
   5   7  -2     881     652                                                         831   -0.62    0.00  1.0000
  -5  -7   2    1825     821                                                        1753   -0.62    0.00  1.0000
  -5  -8  -2    2131     879                                                        2116   -0.12    0.00  1.0000
  -5  -8  -2    2877    1131                                                        2860   -0.12    0.00  1.0000
  -5   8  -2    1437     999                                                        1425    0.12    0.00  1.0000
  -5   8  -2    2180    1191                                                        2165    0.12    0.00  1.0000
   5  -8  -2    2759    1117                                                        2742    0.12    0.00  1.0000
   5   8  -2    2510    1003                                                        2494   -0.12    0.00  1.0000
  -5  -8   2    1826     949                                                        1812   -0.12    0.00  1.0000
  -5  -9  -2    7955    1554                                                        7966   -0.04    0.00  1.0000
  -5   9  -2    8130    1724                                                        8141   -0.04    0.00  1.0000
  -5   9  -2    8489    1733                                                        8500   -0.04    0.00  1.0000
   5  -9  -2    7117    1567                                                        7127   -0.04    0.00  1.0000
   5   9  -2    5096    1259                                                        5105   -0.04    0.00  1.0000
  -5  -9   2    6682    1442                                                        6692   -0.04    0.00  1.0000
  -5 -10  -2    6982    1511                                                        6936    0.20    0.00  1.0000
  -5  10  -2    6370    1563                                                        6327   -0.20    0.00  1.0000
  -5  10  -2    4999    1472                                                        4961   -0.20    0.00  1.0000
   5 -10  -2    5536    1499                                                        5495   -0.20    0.00  1.0000
   5  10  -2     142     495                                                         136    0.20    0.00  1.0000
  -5 -10   2    5680    1418                                                        5639    0.20    0.00  1.0000
  -5 -11  -2    2463    1258                                                        2487   -0.18    0.00  1.0000
  -5  11  -2    2983    1297                                                        3010   -0.18    0.00  1.0000
  -5  11  -2    1880    1292                                                        1901   -0.18    0.00  1.0000
   5 -11  -2    3113    1350                                                        3141   -0.18    0.00  1.0000
   5  11  -2      32     497                                                          35   -0.18    0.00  1.0000
  -5 -11   2    1803    1077                                                        1824   -0.18    0.00  1.0000
  -5 -12  -2    4684    1435                                                        4720    0.19    0.00  1.0000
  -5  12  -2    3807    1401                                                        3840   -0.19    0.00  1.0000
  -5  12  -2    4795    1526                                                        4832   -0.19    0.00  1.0000
   5 -12  -2    3422    1255                                                        3453   -0.19    0.00  1.0000
   5  12  -2    1192     765                                                        1210    0.19    0.00  1.0000
  -5 -12   2    4139    1240                                                        4173    0.19    0.00  1.0000
  -5 -13  -2    6746    1608                                                        6704    0.19    0.00  1.0000
  -5  13  -2    8010    1860                                                        7964    0.19    0.00  1.0000
  -5  13  -2    6465    1775                                                        6424    0.19    0.00  1.0000
   5 -13  -2    5079    1506                                                        5043    0.19    0.00  1.0000
   5  13  -2    6552    1654                                                        6511    0.19    0.00  1.0000
  -5 -13   2    6200    1449                                                        6160    0.19    0.00  1.0000
  -5 -14  -2     845    1054                                                         877   -0.40    0.00  1.0000
  -5  14  -2     714    1041                                                         744    0.40    0.00  1.0000
  -5  14  -2    2132    1396                                                        2183    0.40    0.00  1.0000
   5 -14  -2    1817    1261                                                        1864    0.40    0.00  1.0000
   5  14  -2    1109    1050                                                        1146   -0.40    0.00  1.0000
  -5 -14   2    1418    1160                                                        1459   -0.40    0.00  1.0000
  -5 -15  -2      75     979                                                          89    0.56    0.00  1.0000
  -5  15  -2     262    1150                                                         287    0.56    0.00  1.0000
  -5  15  -2     735    1298                                                         777    0.56    0.00  1.0000
   5 -15  -2       2    1002                                                           5    0.56    0.00  1.0000
   5  15  -2       3     871                                                           6    0.56    0.00  1.0000
  -5 -15   2      75     956                                                          89    0.56    0.00  1.0000
  -5 -16  -2      26    1028                                                          22   -0.31    0.00  1.0000
  -5  16  -2     537    1097                                                         518    0.31    0.00  1.0000
  -5  16  -2      26    1250                                                          22    0.31    0.00  1.0000
   5 -16  -2      26    1043                                                          22    0.31    0.00  1.0000
   5  16  -2      26     763                                                          22   -0.31    0.00  1.0000
  -5 -17  -2    3790    1520                                                        3838   -0.28    0.00  1.0000
  -5  17  -2    1473    1328                                                        1503   -0.28    0.00  1.0000
  -5  17  -2    2755    1679                                                        2796   -0.28    0.00  1.0000
   5 -17  -2    3469    1383                                                        3514   -0.28    0.00  1.0000
   5  17  -2    3710    1397                                                        3757   -0.28    0.00  1.0000
  -5 -18  -2     822    1220                                                         770    0.68    0.00  1.0000
   5 -18  -2     911    1238                                                         856   -0.68    0.00  1.0000
   5  18  -2    1697    1407                                                        1622    0.68    0.00  1.0000
   5 -18   2    1204    1221                                                        1141   -0.68    0.00  1.0000
  -5 -19  -2     870    1316                                                         823   -0.59    0.00  1.0000
   5 -19  -2     937    1332                                                         888   -0.59    0.00  1.0000
   5  19  -2    1311    1538                                                        1253   -0.59    0.00  1.0000
   5 -19   2      13    1079                                                           8   -0.59    0.00  1.0000
  -5 -20  -2     472    1359                                                         463   -0.15    0.00  1.0000
   5 -20  -2    1233    1422                                                        1219    0.15    0.00  1.0000
   5  20  -2     721    1375                                                         710   -0.15    0.00  1.0000
   5 -20   2     105    1158                                                         101    0.15    0.00  1.0000
  -5 -21  -2    4779    1871                                                        4842   -0.33    0.00  1.0000
   5 -21  -2    4480    1901                                                        4541   -0.33    0.00  1.0000
   5  21  -2    4692    1767                                                        4755   -0.33    0.00  1.0000
   5 -21   2    4304    1759                                                        4364   -0.33    0.00  1.0000
  -5 -22  -2    2721    1846                                                        2910   -1.31    0.00  1.0000
   5 -22  -2    2594    1745                                                        2779    1.31    0.00  1.0000
   5  22  -2     632    1484                                                         725   -1.31    0.00  1.0000
   5 -22   2    1795    1545                                                        1949    1.31    0.00  1.0000
  -5 -23  -2     626    1733                                                         609   -0.25    0.00  1.0000
   5 -23  -2      51    1587                                                          46   -0.25    0.00  1.0000
   5  23  -2     867    1523                                                         847   -0.25    0.00  1.0000
   5 -23   2    1314    1479                                                        1290   -0.25    0.00  1.0000
  -5 -24  -2       8    1745                                                           5   -0.37    0.00  1.0000
   5 -24  -2     894    1861                                                         864    0.37    0.00  1.0000
   5  24  -2    1341    1638                                                        1304   -0.37    0.00  1.0000
   5 -24   2     191    1424                                                         177    0.37    0.00  1.0000
  -5 -25  -2     827    1849                                                         776    0.66    0.00  1.0000
   5 -25  -2     763    1936                                                         714    0.66    0.00  1.0000
   5 -25   2    1171    1552                                                        1111    0.66    0.00  1.0000
  -6   0  -2    8134    1407                                                        8255   -0.49    0.00  1.0000
  -6   0  -2    7745    1454                                                        7863   -0.49    0.00  1.0000
   6   0  -2    6573    1353                                                        6682   -0.49    0.00  1.0000
  -6   0   2    7285    1382                                                        7400   -0.49    0.00  1.0000
  -6  -1  -2    1008     663                                                         951   -0.66    0.00  1.0000
  -6  -1  -2    1448     853                                                        1380   -0.66    0.00  1.0000
  -6   1  -2    1412     798                                                        1345    0.66    0.00  1.0000
  -6   1  -2    1566     857                                                        1495    0.66    0.00  1.0000
   6  -1  -2     960     620                                                         905    0.66    0.00  1.0000
   6   1  -2     820     632                                                         769   -0.66    0.00  1.0000
  -6  -1   2     909     691                                                         855   -0.66    0.00  1.0000
  -6   1   2    2275     904                                                        2189    0.66    0.00  1.0000
  -6  -2  -2       1     630                                                           0   -0.65    0.00  1.0000
  -6  -2  -2     248     727                                                         277   -0.65    0.00  1.0000
  -6   2  -2     447     756                                                         485   -0.65    0.00  1.0000
  -6   2  -2     439     761                                                         477   -0.65    0.00  1.0000
   6  -2  -2      18     536                                                          26   -0.65    0.00  1.0000
   6   2  -2      59     621                                                          74   -0.65    0.00  1.0000
  -6  -2   2     429     733                                                         467   -0.65    0.00  1.0000
  -6   2   2     317     765                                                         350   -0.65    0.00  1.0000
  -6  -3  -2    4010    1048                                                        4085   -0.43    0.00  1.0000
  -6  -3  -2    4639    1295                                                        4719   -0.43    0.00  1.0000
  -6   3  -2    4781    1256                                                        4863    0.43    0.00  1.0000
  -6   3  -2    5003    1392                                                        5086    0.43    0.00  1.0000
   6  -3  -2    4173    1232                                                        4249    0.43    0.00  1.0000
   6   3  -2    4003    1206                                                        4078   -0.43    0.00  1.0000
  -6  -3   2    4157    1277                                                        4233   -0.43    0.00  1.0000
  -6   3   2    5811    1463                                                        5901    0.43    0.00  1.0000
  -6  -4  -2   16502    1588                                                       16519   -0.05    0.00  1.0000
  -6  -4  -2   15648    1880                                                       15664   -0.05    0.00  1.0000
  -6   4  -2   18347    1965                                                       18365   -0.05    0.00  1.0000
  -6   4  -2   15781    1912                                                       15797   -0.05    0.00  1.0000
   6  -4  -2   16268    1816                                                       16285   -0.05    0.00  1.0000
   6   4  -2   14251    1697                                                       14266   -0.05    0.00  1.0000
  -6  -4   2   16533    1799                                                       16550   -0.05    0.00  1.0000
  -6   4   2   15396    1930                                                       15412   -0.05    0.00  1.0000
  -6  -5  -2    7378    1403                                                        7565    0.79    0.00  1.0000
  -6  -5  -2    7433    1578                                                        7621    0.79    0.00  1.0000
  -6   5  -2    7425    1677                                                        7613   -0.79    0.00  1.0000
  -6   5  -2    9201    1779                                                        9410   -0.79    0.00  1.0000
   6  -5  -2    9244    1600                                                        9454   -0.79    0.00  1.0000
   6   5  -2    3959    1238                                                        4097    0.79    0.00  1.0000
  -6  -5   2    8458    1556                                                        8658    0.79    0.00  1.0000
  -6   5   2    9036    1725                                                        9243   -0.79    0.00  1.0000
  -6  -6  -2    5203    1394                                                        5348    0.73    0.00  1.0000
  -6   6  -2    7375    1670                                                        7547    0.73    0.00  1.0000
  -6   6  -2    6826    1647                                                        6991    0.73    0.00  1.0000
   6  -6  -2    5126    1451                                                        5269    0.73    0.00  1.0000
   6   6  -2      64     469                                                          81    0.73    0.00  1.0000
  -6  -6   2    5107    1369                                                        5250    0.73    0.00  1.0000
  -6  -7  -2   17448    1914                                                       17142    0.85    0.00  1.0000
  -6   7  -2   17553    2050                                                       17246   -0.85    0.00  1.0000
  -6   7  -2   17754    2027                                                       17445   -0.85    0.00  1.0000
   6  -7  -2   17936    1864                                                       17626   -0.85    0.00  1.0000
   6   7  -2    1564     706                                                        1473    0.85    0.00  1.0000
  -6  -7   2   14766    1712                                                       14484    0.85    0.00  1.0000
  -6  -8  -2   15247    1856                                                       15178    0.20    0.00  1.0000
  -6   8  -2   13761    1914                                                       13696    0.20    0.00  1.0000
  -6   8  -2   15493    1974                                                       15423    0.20    0.00  1.0000
   6  -8  -2   16510    1924                                                       16438    0.20    0.00  1.0000
   6   8  -2   13649    1745                                                       13584    0.20    0.00  1.0000
  -6  -8   2   13488    1768                                                       13423    0.20    0.00  1.0000
  -6  -9  -2    4286    1358                                                        4377    0.51    0.00  1.0000
  -6   9  -2    2662    1199                                                        2734   -0.51    0.00  1.0000
  -6   9  -2    4857    1536                                                        4954   -0.51    0.00  1.0000
   6  -9  -2    3051    1198                                                        3128   -0.51    0.00  1.0000
   6   9  -2    5143    1415                                                        5243    0.51    0.00  1.0000
  -6  -9   2    4497    1410                                                        4591    0.51    0.00  1.0000
  -6 -10  -2    1252    1429                                                        1266    0.14    0.00  1.0000
  -6  10  -2    1206    1018                                                        1220    0.14    0.00  1.0000
  -6  10  -2     853    1083                                                         864    0.14    0.00  1.0000
   6 -10  -2    1167     889                                                        1180    0.14    0.00  1.0000
   6  10  -2    1485    1047                                                        1500    0.14    0.00  1.0000
  -6 -10   2    1605    1106                                                        1621    0.14    0.00  1.0000
  -6 -11  -2    7124    1544                                                        7079    0.20    0.00  1.0000
  -6  11  -2    8742    1868                                                        8692   -0.20    0.00  1.0000
  -6  11  -2    7780    1847                                                        7733   -0.20    0.00  1.0000
   6 -11  -2    6327    1413                                                        6284   -0.20    0.00  1.0000
   6  11  -2    7432    1532                                                        7386    0.20    0.00  1.0000
  -6 -11   2    6912    1664                                                        6867    0.20    0.00  1.0000
  -6 -12  -2    5878    1576                                                        5780    0.47    0.00  1.0000
  -6  12  -2    6422    1609                                                        6319    0.47    0.00  1.0000
  -6  12  -2    8382    1892                                                        8265    0.47    0.00  1.0000
   6 -12  -2    4410    1362                                                        4325    0.47    0.00  1.0000
   6  12  -2    6078    1519                                                        5978    0.47    0.00  1.0000
  -6 -12   2    5124    1424                                                        5032    0.47    0.00  1.0000
  -6 -13  -2       1     869                                                           0    0.52    0.00  1.0000
  -6  13  -2     127     963                                                         144   -0.52    0.00  1.0000
  -6  13  -2    1006    1220                                                        1052   -0.52    0.00  1.0000
   6 -13  -2     972    1039                                                        1017   -0.52    0.00  1.0000
   6  13  -2     124     817                                                         140    0.52    0.00  1.0000
  -6 -13   2     899    1018                                                         942    0.52    0.00  1.0000
  -6 -14  -2      10     944                                                           7   -0.35    0.00  1.0000
  -6  14  -2      10    1008                                                           7   -0.35    0.00  1.0000
  -6  14  -2      10    1148                                                           7   -0.35    0.00  1.0000
   6 -14  -2     259     999                                                         244   -0.35    0.00  1.0000
   6  14  -2    1312     943                                                        1278   -0.35    0.00  1.0000
  -6 -14   2     585    1068                                                         562   -0.35    0.00  1.0000
  -6 -15  -2    2603    1329                                                        2427    1.29    0.00  1.0000
  -6  15  -2    1918    1316                                                        1767   -1.29    0.00  1.0000
  -6  15  -2    1312    1432                                                        1188   -1.29    0.00  1.0000
   6 -15  -2    1454    1173                                                        1323   -1.29    0.00  1.0000
   6  15  -2     806    1014                                                         709    1.29    0.00  1.0000
  -6 -15   2     720    1100                                                         629    1.29    0.00  1.0000
  -6 -16  -2     855    1254                                                         894   -0.49    0.00  1.0000
  -6  16  -2     745    1469                                                         782   -0.49    0.00  1.0000
   6 -16  -2     355    1209                                                         380   -0.49    0.00  1.0000
   6  16  -2     435    1076                                                         463   -0.49    0.00  1.0000
  -6 -16   2     718    1239                                                         754   -0.49    0.00  1.0000
  -6 -17  -2    1969    1318                                                        1917    0.43    0.00  1.0000
  -6  17  -2     982    1557                                                         945   -0.43    0.00  1.0000
   6 -17  -2     789    1197                                                         756   -0.43    0.00  1.0000
   6  17  -2     985    1058                                                         948    0.43    0.00  1.0000
  -6 -17   2     126    1191                                                         113    0.43    0.00  1.0000
   6 -17   2      10     962                                                           7   -0.43    0.00  1.0000
  -6 -18  -2    1658    1472                                                        1711    0.47    0.00  1.0000
  -6  18  -2     650    1543                                                         683    0.47    0.00  1.0000
   6 -18  -2     439    1209                                                         466    0.47    0.00  1.0000
   6  18  -2     912    1220                                                         951    0.47    0.00  1.0000
   6 -18   2     283    1049                                                         305    0.47    0.00  1.0000
  -6 -19  -2     840    1374                                                         867   -0.34    0.00  1.0000
   6 -19  -2    1041    1438                                                        1071    0.34    0.00  1.0000
   6  19  -2     620    1250                                                         643   -0.34    0.00  1.0000
   6 -19   2     232    1069                                                         246    0.34    0.00  1.0000
  -6 -20  -2    3381    1706                                                        3285    0.61    0.00  1.0000
   6 -20  -2    1890    1491                                                        1819    0.61    0.00  1.0000
   6  20  -2    3732    1753                                                        3631    0.61    0.00  1.0000
   6 -20   2    1257    1250                                                        1199    0.61    0.00  1.0000
  -6 -21  -2    1036    1638                                                         979    0.66    0.00  1.0000
   6 -21  -2     923    1627                                                         869   -0.66    0.00  1.0000
   6  21  -2    1324    1568                                                        1259    0.66    0.00  1.0000
   6 -21   2     693    1399                                                         646   -0.66    0.00  1.0000
  -6 -22  -2     843    1646                                                         861    0.23    0.00  1.0000
   6 -22  -2     280    1498                                                         291    0.23    0.00  1.0000
   6 -22   2     602    1237                                                         617    0.23    0.00  1.0000
  -6 -23  -2     929    1604                                                         890    0.48    0.00  1.0000
   6 -23  -2       0    1517                                                           0   -0.48    0.00  1.0000
   6 -23   2       0    1109                                                           0   -0.48    0.00  1.0000
  -6 -24  -2     314    1667                                                         329   -0.30    0.00  1.0000
   6 -24  -2    1286    1854                                                        1315   -0.30    0.00  1.0000
   6 -24   2     653    1423                                                         674   -0.30    0.00  1.0000
  -7  -1  -2      10     579                                                          12    0.24    0.00  1.0000
  -7  -1  -2      10     685                                                          12    0.24    0.00  1.0000
  -7   1  -2      10     658                                                          12    0.24    0.00  1.0000
  -7   1  -2      10     679                                                          12    0.24    0.00  1.0000
   7  -1  -2     100     577                                                         107    0.24    0.00  1.0000
   7   1  -2     202     560                                                         212    0.24    0.00  1.0000
  -7  -1   2      10     751                                                          12    0.24    0.00  1.0000
  -7   1   2      10     711                                                          12    0.24    0.00  1.0000
  -7  -2  -2     179     618                                                         151    0.81    0.00  1.0000
  -7  -2  -2      17     653                                                           9    0.81    0.00  1.0000
  -7   2  -2     227     718                                                         195   -0.81    0.00  1.0000
  -7   2  -2      17     734                                                           9   -0.81    0.00  1.0000
   7  -2  -2      17     533                                                           9   -0.81    0.00  1.0000
   7   2  -2     824     693                                                         762    0.81    0.00  1.0000
  -7  -2   2     242     723                                                         209    0.81    0.00  1.0000
  -7   2   2     345     813                                                         305   -0.81    0.00  1.0000
  -7  -3  -2      24     706                                                          19    0.36    0.00  1.0000
  -7   3  -2     524     755                                                         501    0.36    0.00  1.0000
  -7   3  -2    1011     917                                                         980    0.36    0.00  1.0000
   7  -3  -2    1377     751                                                        1340    0.36    0.00  1.0000
   7   3  -2      24     353                                                          19    0.36    0.00  1.0000
  -7  -3   2     524     812                                                         501    0.36    0.00  1.0000
  -7   3   2      24     736                                                          19    0.36    0.00  1.0000
  -7  -4  -2     204     821                                                         213   -0.23    0.00  1.0000
  -7   4  -2     289     841                                                         300    0.23    0.00  1.0000
  -7   4  -2     162     800                                                         170    0.23    0.00  1.0000
   7  -4  -2     422     750                                                         435    0.23    0.00  1.0000
   7   4  -2     261     627                                                         271   -0.23    0.00  1.0000
  -7  -4   2     533     887                                                         548   -0.23    0.00  1.0000
  -7   4   2     363     849                                                         375    0.23    0.00  1.0000
  -7  -5  -2    3463    1307                                                        3392   -0.44    0.00  1.0000
  -7   5  -2    2333    1057                                                        2275   -0.44    0.00  1.0000
  -7   5  -2    2145    1055                                                        2089   -0.44    0.00  1.0000
   7  -5  -2    3401    1112                                                        3331   -0.44    0.00  1.0000
   7   5  -2    2885    1008                                                        2820   -0.44    0.00  1.0000
  -7  -5   2    2391    1139                                                        2332   -0.44    0.00  1.0000
  -7   5   2    3478    1259                                                        3407   -0.44    0.00  1.0000
  -7  -6  -2       8     880                                                          17   -0.94    0.00  1.0000
  -7   6  -2     212     897                                                         251    0.94    0.00  1.0000
  -7   6  -2      91     822                                                         117    0.94    0.00  1.0000
   7  -6  -2      36     631                                                          53    0.94    0.00  1.0000
   7   6  -2      23     582                                                          37   -0.94    0.00  1.0000
  -7  -6   2      23     848                                                          37   -0.94    0.00  1.0000
  -7   6   2     134     890                                                         165    0.94    0.00  1.0000
  -7  -7  -2    3964    1407                                                        4061   -0.56    0.00  1.0000
  -7   7  -2    3357    1297                                                        3446   -0.56    0.00  1.0000
  -7   7  -2    2719    1335                                                        2799   -0.56    0.00  1.0000
   7  -7  -2    2683    1123                                                        2763   -0.56    0.00  1.0000
   7   7  -2    4012    1279                                                        4109   -0.56    0.00  1.0000
  -7  -7   2    2959    1317                                                        3043   -0.56    0.00  1.0000
  -7  -8  -2    4830    1491                                                        5025   -1.02    0.00  1.0000
  -7   8  -2    4682    1426                                                        4874    1.02    0.00  1.0000
  -7   8  -2    5296    1626                                                        5501    1.02    0.00  1.0000
   7  -8  -2    4978    1459                                                        5176    1.02    0.00  1.0000
   7   8  -2    3813    1245                                                        3987   -1.02    0.00  1.0000
  -7  -8   2    5509    1625                                                        5718   -1.02    0.00  1.0000
  -7  -9  -2    5772    1691                                                        5764   -0.04    0.00  1.0000
  -7   9  -2    6505    1650                                                        6496   -0.04    0.00  1.0000
  -7   9  -2    6623    1736                                                        6614   -0.04    0.00  1.0000
   7  -9  -2    4235    1285                                                        4228   -0.04    0.00  1.0000
   7   9  -2    5522    1473                                                        5514   -0.04    0.00  1.0000
  -7  -9   2    6169    1622                                                        6161   -0.04    0.00  1.0000
  -7 -10  -2       9     768                                                          18   -0.96    0.00  1.0000
  -7  10  -2     695    1016                                                         766    0.96    0.00  1.0000
  -7  10  -2       0     939                                                           3    0.96    0.00  1.0000
   7 -10  -2     300     830                                                         347    0.96    0.00  1.0000
   7  10  -2     613     891                                                         679   -0.96    0.00  1.0000
  -7 -10   2       9     834                                                          18   -0.96    0.00  1.0000
  -7 -11  -2    3715    1427                                                        3797   -0.49    0.00  1.0000
  -7  11  -2    3749    1378                                                        3832   -0.49    0.00  1.0000
  -7  11  -2    5106    1690                                                        5202   -0.49    0.00  1.0000
   7 -11  -2    3043    1269                                                        3118   -0.49    0.00  1.0000
   7  11  -2    6086    1599                                                        6191   -0.49    0.00  1.0000
  -7 -11   2    4021    1496                                                        4107   -0.49    0.00  1.0000
  -7 -12  -2    3959    1568                                                        4034   -0.44    0.00  1.0000
  -7  12  -2    3637    1520                                                        3709    0.44    0.00  1.0000
  -7  12  -2    4204    1631                                                        4282    0.44    0.00  1.0000
   7 -12  -2    2239    1183                                                        2296    0.44    0.00  1.0000
   7  12  -2    4477    1529                                                        4557   -0.44    0.00  1.0000
  -7 -12   2    3702    1543                                                        3775   -0.44    0.00  1.0000
  -7 -13  -2    3080    1433                                                        3008   -0.48    0.00  1.0000
  -7  13  -2    4190    1547                                                        4106   -0.48    0.00  1.0000
  -7  13  -2    3212    1577                                                        3139   -0.48    0.00  1.0000
   7 -13  -2    1289    1019                                                        1243   -0.48    0.00  1.0000
   7  13  -2    3313    1293                                                        3239   -0.48    0.00  1.0000
  -7 -13   2    3310    1337                                                        3236   -0.48    0.00  1.0000
  -7 -14  -2     413    1116                                                         457   -0.77    0.00  1.0000
  -7  14  -2    1554    1404                                                        1638    0.77    0.00  1.0000
   7 -14  -2       3     763                                                           7    0.77    0.00  1.0000
   7  14  -2     466     908                                                         512   -0.77    0.00  1.0000
  -7 -14   2     512    1115                                                         560   -0.77    0.00  1.0000
  -7 -15  -2     800    1114                                                         784    0.21    0.00  1.0000
  -7  15  -2     376    1372                                                         365    0.21    0.00  1.0000
   7 -15  -2       0     946                                                           0    0.21    0.00  1.0000
   7  15  -2     380     876                                                         369    0.21    0.00  1.0000
  -7 -15   2       0    1077                                                           0    0.21    0.00  1.0000
   7 -15   2       0     897                                                           0    0.21    0.00  1.0000
  -7 -16  -2    1265    1301                                                        1369   -1.05    0.00  1.0000
  -7  16  -2    2569    1771                                                        2716    1.05    0.00  1.0000
   7 -16  -2    2971    1641                                                        3129    1.05    0.00  1.0000
   7  16  -2    2060    1316                                                        2192   -1.05    0.00  1.0000
  -7 -16   2    1868    1426                                                        1994   -1.05    0.00  1.0000
   7 -16   2    1499    1239                                                        1612    1.05    0.00  1.0000
  -7 -17  -2    2247    1571                                                        2212   -0.27    0.00  1.0000
  -7  17  -2    3450    1818                                                        3407   -0.27    0.00  1.0000
   7 -17  -2    1706    1380                                                        1676   -0.27    0.00  1.0000
   7  17  -2    2571    1369                                                        2534   -0.27    0.00  1.0000
  -7 -17   2    1748    1494                                                        1717   -0.27    0.00  1.0000
   7 -17   2     970    1129                                                         947   -0.27    0.00  1.0000
  -7 -18  -2     174    1313                                                         175   -0.01    0.00  1.0000
  -7  18  -2    1369    1680                                                        1370    0.01    0.00  1.0000
   7 -18  -2      84    1273                                                          84    0.01    0.00  1.0000
   7  18  -2    1298    1298                                                        1299   -0.01    0.00  1.0000
   7 -18   2     422    1042                                                         423    0.01    0.00  1.0000
  -7 -19  -2    1134    1583                                                        1198   -0.69    0.00  1.0000
  -7  19  -2     182    1607                                                         208   -0.69    0.00  1.0000
   7 -19  -2     377    1408                                                         414   -0.69    0.00  1.0000
   7 -19   2    2220    1480                                                        2310   -0.69    0.00  1.0000
  -7 -20  -2    2675    1674                                                        2660    0.11    0.00  1.0000
   7 -20  -2    1506    1496                                                        1495   -0.11    0.00  1.0000
   7 -20   2    2677    1458                                                        2662   -0.11    0.00  1.0000
  -7 -21  -2    2013    1715                                                        2015    0.02    0.00  1.0000
   7 -21  -2    2368    1753                                                        2370    0.02    0.00  1.0000
   7 -21   2    1091    1313                                                        1092    0.02    0.00  1.0000
  -7 -22  -2     176    1597                                                         171   -0.13    0.00  1.0000
   7 -22  -2      13    1499                                                          12    0.13    0.00  1.0000
   7 -22   2      13    1169                                                          12    0.13    0.00  1.0000
  -7 -23  -2    2565    1926                                                        2505    0.44    0.00  1.0000
   7 -23  -2    1960    1732                                                        1908    0.44    0.00  1.0000
   7 -23   2    1360    1417                                                        1316    0.44    0.00  1.0000
  -7 -24  -2     610    1797                                                         567    0.65    0.00  1.0000
   7 -24  -2    1356    1892                                                        1291   -0.65    0.00  1.0000
   7 -24   2    1801    1694                                                        1726   -0.65    0.00  1.0000
  -8   0  -2    9201    1814                                                        9392    0.73    0.00  1.0000
   8   0  -2    1755     867                                                        1839    0.73    0.00  1.0000
  -8   0   2   10989    1851                                                       11198    0.73    0.00  1.0000
  -8  -1  -2    7109    1636                                                        7216   -0.46    0.00  1.0000
  -8   1  -2    7049    1531                                                        7156    0.46    0.00  1.0000
  -8   1  -2    6752    1747                                                        6856    0.46    0.00  1.0000
   8  -1  -2    6055    1435                                                        6154    0.46    0.00  1.0000
   8   1  -2      77     519                                                          88   -0.46    0.00  1.0000
  -8  -1   2    6090    1632                                                        6189   -0.46    0.00  1.0000
  -8   1   2    5665    1573                                                        5761    0.46    0.00  1.0000
  -8  -2  -2     605     922                                                         615    0.15    0.00  1.0000
  -8   2  -2    1143     941                                                        1156    0.15    0.00  1.0000
  -8   2  -2     640    1026                                                         650    0.15    0.00  1.0000
   8  -2  -2    1421     900                                                        1436    0.15    0.00  1.0000
   8   2  -2    1737     951                                                        1754    0.15    0.00  1.0000
  -8  -2   2    1291    1071                                                        1305    0.15    0.00  1.0000
  -8   2   2    1140    1010                                                        1153    0.15    0.00  1.0000
  -8  -3  -2    5392    1586                                                        5388   -0.02    0.00  1.0000
  -8   3  -2    5495    1413                                                        5491    0.02    0.00  1.0000
  -8   3  -2    3896    1443                                                        3893    0.02    0.00  1.0000
   8  -3  -2    5013    1419                                                        5010    0.02    0.00  1.0000
   8   3  -2    5396    1339                                                        5392   -0.02    0.00  1.0000
  -8  -3   2    5993    1695                                                        5989   -0.02    0.00  1.0000
  -8   3   2    4415    1459                                                        4412    0.02    0.00  1.0000
  -8  -4  -2   12114    1900                                                       12102   -0.04    0.00  1.0000
  -8   4  -2   12057    1945                                                       12046   -0.04    0.00  1.0000
  -8   4  -2   11096    1946                                                       11085   -0.04    0.00  1.0000
   8  -4  -2   12281    1774                                                       12269   -0.04    0.00  1.0000
   8   4  -2   10622    1594                                                       10611   -0.04    0.00  1.0000
  -8  -4   2   10435    1949                                                       10424   -0.04    0.00  1.0000
  -8   4   2   11405    1910                                                       11394   -0.04    0.00  1.0000
  -8  -5  -2   12308    1899                                                       11990    1.06    0.00  1.0000
  -8   5  -2   12877    1869                                                       12551   -1.06    0.00  1.0000
  -8   5  -2   13232    1873                                                       12902   -1.06    0.00  1.0000
   8  -5  -2   14114    1741                                                       13773   -1.06    0.00  1.0000
   8   5  -2   10684    1601                                                       10388    1.06    0.00  1.0000
  -8  -5   2   12903    1847                                                       12577    1.06    0.00  1.0000
  -8   5   2   11377    1790                                                       11071   -1.06    0.00  1.0000
  -8  -6  -2     596    1104                                                         635    0.58    0.00  1.0000
  -8   6  -2    1009    1094                                                        1060    0.58    0.00  1.0000
  -8   6  -2    1285    1239                                                        1342    0.58    0.00  1.0000
   8  -6  -2     808     953                                                         854    0.58    0.00  1.0000
   8   6  -2     109     799                                                         126    0.58    0.00  1.0000
  -8  -6   2     657    1084                                                         698    0.58    0.00  1.0000
  -8   6   2     824    1197                                                         870    0.58    0.00  1.0000
  -8  -7  -2    5601    1622                                                        5831    1.11    0.00  1.0000
  -8   7  -2    4964    1477                                                        5181   -1.11    0.00  1.0000
  -8   7  -2    5342    1648                                                        5567   -1.11    0.00  1.0000
   8  -7  -2    6553    1561                                                        6802   -1.11    0.00  1.0000
   8   7  -2    6235    1560                                                        6478    1.11    0.00  1.0000
  -8  -7   2    6044    1750                                                        6283    1.11    0.00  1.0000
  -8   7   2    4295    1563                                                        4497   -1.11    0.00  1.0000
  -8  -8  -2   12015    1956                                                       12131    0.39    0.00  1.0000
  -8   8  -2   10964    1920                                                       11075    0.39    0.00  1.0000
  -8   8  -2    9383    2013                                                        9486    0.39    0.00  1.0000
   8  -8  -2   10355    1741                                                       10463    0.39    0.00  1.0000
   8   8  -2   10328    1767                                                       10436    0.39    0.00  1.0000
  -8  -8   2    9101    1945                                                        9202    0.39    0.00  1.0000
  -8  -9  -2   12850    1922                                                       12490    1.17    0.00  1.0000
  -8   9  -2   15367    2125                                                       14974   -1.17    0.00  1.0000
  -8   9  -2   14081    2189                                                       13705   -1.17    0.00  1.0000
   8  -9  -2   11440    1751                                                       11101   -1.17    0.00  1.0000
   8   9  -2   15334    1884                                                       14941    1.17    0.00  1.0000
  -8  -9   2   14630    2097                                                       14246    1.17    0.00  1.0000
  -8 -10  -2    1977    1279                                                        1951    0.21    0.00  1.0000
  -8  10  -2    1269    1171                                                        1249    0.21    0.00  1.0000
  -8  10  -2    1118    1311                                                        1099    0.21    0.00  1.0000
   8 -10  -2     780     894                                                         764    0.21    0.00  1.0000
   8  10  -2     636     879                                                         622    0.21    0.00  1.0000
  -8 -10   2    1092    1250                                                        1073    0.21    0.00  1.0000
  -8 -11  -2     199    1135                                                         223    0.60    0.00  1.0000
  -8  11  -2     499    1121                                                         537   -0.60    0.00  1.0000
  -8  11  -2     429    1185                                                         464   -0.60    0.00  1.0000
   8 -11  -2     146     839                                                         167   -0.60    0.00  1.0000
   8  11  -2      27    1156                                                          36    0.60    0.00  1.0000
  -8 -11   2       0    1130                                                           1    0.60    0.00  1.0000
  -8 -12  -2    5976    1819                                                        6083    0.50    0.00  1.0000
  -8  12  -2    5041    1789                                                        5139    0.50    0.00  1.0000
   8 -12  -2    6463    1551                                                        6574    0.50    0.00  1.0000
   8  12  -2    5309    1579                                                        5410    0.50    0.00  1.0000
  -8 -12   2    4416    1660                                                        4508    0.50    0.00  1.0000
   8 -12   2    4254    1554                                                        4344    0.50    0.00  1.0000
  -8 -13  -2    1108    1227                                                        1129   -0.23    0.00  1.0000
  -8  13  -2    2486    1663                                                        2518    0.23    0.00  1.0000
   8 -13  -2    2326    1211                                                        2357    0.23    0.00  1.0000
   8  13  -2    2241    1205                                                        2271   -0.23    0.00  1.0000
  -8 -13   2    2458    1483                                                        2490   -0.23    0.00  1.0000
   8 -13   2     102     715                                                         109    0.23    0.00  1.0000
  -8 -14  -2     129    1163                                                         136    0.23    0.00  1.0000
  -8  14  -2     304    1252                                                         315    0.23    0.00  1.0000
   8 -14  -2      20     876                                                          23    0.23    0.00  1.0000
   8  14  -2     276    1001                                                         287    0.23    0.00  1.0000
  -8 -14   2     425    1220                                                         438    0.23    0.00  1.0000
   8 -14   2     326     899                                                         338    0.23    0.00  1.0000
  -8 -15  -2     166    1100                                                         165    0.03    0.00  1.0000
  -8  15  -2     446    1395                                                         444   -0.03    0.00  1.0000
   8 -15  -2      43     875                                                          42   -0.03    0.00  1.0000
   8  15  -2     441    1051                                                         439    0.03    0.00  1.0000
  -8 -15   2      16    1213                                                          16    0.03    0.00  1.0000
   8 -15   2     255     988                                                         254   -0.03    0.00  1.0000
  -8 -16  -2     374    1238                                                         397    0.44    0.00  1.0000
  -8  16  -2    1572    1702                                                        1620    0.44    0.00  1.0000
   8 -16  -2    1807    1371                                                        1858    0.44    0.00  1.0000
  -8 -16   2     554    1468                                                         582    0.44    0.00  1.0000
   8 -16   2      42    1011                                                          50    0.44    0.00  1.0000
  -8 -17  -2    1172    1468                                                        1198   -0.28    0.00  1.0000
  -8  17  -2    1171    1619                                                        1197    0.28    0.00  1.0000
   8 -17  -2    1152    1188                                                        1178    0.28    0.00  1.0000
  -8 -17   2     822    1344                                                         844   -0.28    0.00  1.0000
   8 -17   2     842    1144                                                         864    0.28    0.00  1.0000
  -8 -18  -2      51    1447                                                          74    1.08    0.00  1.0000
  -8  18  -2      80    1603                                                         109    1.08    0.00  1.0000
   8 -18  -2     222    1352                                                         268    1.08    0.00  1.0000
  -8 -18   2      22    1460                                                          38    1.08    0.00  1.0000
   8 -18   2     163    1151                                                         203    1.08    0.00  1.0000
  -8 -19  -2     655    1453                                                         715   -0.84    0.00  1.0000
  -8  19  -2       1    1665                                                           0    0.84    0.00  1.0000
   8 -19  -2    1535    1564                                                        1626    0.84    0.00  1.0000
   8 -19   2     120    1192                                                         146    0.84    0.00  1.0000
  -8 -20  -2     651    1526                                                         664    0.19    0.00  1.0000
  -8  20  -2    1088    1900                                                        1105    0.19    0.00  1.0000
   8 -20  -2     432    1451                                                         443    0.19    0.00  1.0000
   8 -20   2      23    1169                                                          26    0.19    0.00  1.0000
  -8 -21  -2     406    1468                                                         417   -0.20    0.00  1.0000
   8 -21  -2      50    1457                                                          54    0.20    0.00  1.0000
   8 -21   2     139    1222                                                         146    0.20    0.00  1.0000
  -8 -22  -2     540    1655                                                         602   -0.95    0.00  1.0000
   8 -22  -2     922    1828                                                        1002   -0.95    0.00  1.0000
   8 -22   2       0    1197                                                           4   -0.95    0.00  1.0000
  -8 -23  -2     359    1709                                                         376   -0.33    0.00  1.0000
   8 -23  -2     821    1753                                                         847    0.33    0.00  1.0000
   8 -23   2       0    1334                                                           0    0.33    0.00  1.0000
  -9  -1  -2    9090    1768                                                        8860   -0.89    0.00  1.0000
  -9   1  -2    6341    1483                                                        6149   -0.89    0.00  1.0000
   9  -1  -2    1436     650                                                        1345   -0.89    0.00  1.0000
   9   1  -2    6053    1370                                                        5866   -0.89    0.00  1.0000
  -9  -1   2    7727    1736                                                        7515   -0.89    0.00  1.0000
  -9   1   2    6315    1576                                                        6124   -0.89    0.00  1.0000
  -9  -2  -2    1651    1088                                                        1618    0.30    0.00  1.0000
  -9   2  -2    1359    1049                                                        1329   -0.30    0.00  1.0000
   9  -2  -2      12     595                                                           9   -0.30    0.00  1.0000
   9   2  -2    1319     879                                                        1289    0.30    0.00  1.0000
  -9  -2   2     685    1035                                                         664    0.30    0.00  1.0000
  -9   2   2    1499    1059                                                        1467   -0.30    0.00  1.0000
  -9  -3  -2    8902    1672                                                        8856   -0.18    0.00  1.0000
  -9   3  -2    9186    1748                                                        9139   -0.18    0.00  1.0000
   9  -3  -2   10235    1622                                                       10186   -0.18    0.00  1.0000
   9   3  -2   11349    1668                                                       11297   -0.18    0.00  1.0000
  -9  -3   2    9431    1914                                                        9384   -0.18    0.00  1.0000
  -9   3   2    7762    1746                                                        7719   -0.18    0.00  1.0000
  -9  -4  -2    1379    1045                                                        1274   -1.06    0.00  1.0000
  -9   4  -2    2937    1170                                                        2782    1.06    0.00  1.0000
  -9   4  -2    1232    1065                                                        1133    1.06    0.00  1.0000
   9  -4  -2    1790    1031                                                        1670    1.06    0.00  1.0000
   9   4  -2    2095     946                                                        1965   -1.06    0.00  1.0000
  -9  -4   2    2738    1285                                                        2589   -1.06    0.00  1.0000
  -9   4   2    2559    1184                                                        2415    1.06    0.00  1.0000
  -9  -5  -2    3130    1223                                                        3073   -0.37    0.00  1.0000
  -9   5  -2    4762    1327                                                        4692   -0.37    0.00  1.0000
  -9   5  -2    5412    1463                                                        5337   -0.37    0.00  1.0000
   9  -5  -2    4156    1209                                                        4091   -0.37    0.00  1.0000
   9   5  -2    4652    1224                                                        4583   -0.37    0.00  1.0000
  -9  -5   2    4895    1420                                                        4824   -0.37    0.00  1.0000
  -9   5   2    5166    1452                                                        5093   -0.37    0.00  1.0000
  -9  -6  -2     564    1118                                                         662   -1.46    0.00  1.0000
  -9   6  -2     981    1106                                                        1110    1.46    0.00  1.0000
  -9   6  -2     392    1111                                                         475    1.46    0.00  1.0000
   9  -6  -2       8     740                                                          23    1.46    0.00  1.0000
   9   6  -2     329     753                                                         405   -1.46    0.00  1.0000
  -9  -6   2     496    1107                                                         589   -1.46    0.00  1.0000
  -9   6   2     305    1075                                                         378    1.46    0.00  1.0000
  -9  -7  -2   11793    1800                                                       11609   -0.62    0.00  1.0000
  -9   7  -2   12017    1852                                                       11831   -0.62    0.00  1.0000
  -9   7  -2   12484    1926                                                       12294   -0.62    0.00  1.0000
   9  -7  -2   11533    1706                                                       11351   -0.62    0.00  1.0000
   9   7  -2   12218    1726                                                       12030   -0.62    0.00  1.0000
  -9  -7   2   12643    2064                                                       12452   -0.62    0.00  1.0000
  -9   7   2   11290    1965                                                       11110   -0.62    0.00  1.0000
  -9  -8  -2     354     964                                                         402   -0.90    0.00  1.0000
  -9   8  -2     459    1038                                                         513    0.90    0.00  1.0000
   9  -8  -2     399     872                                                         449    0.90    0.00  1.0000
   9   8  -2     386     793                                                         436   -0.90    0.00  1.0000
  -9  -8   2      16    1222                                                          27   -0.90    0.00  1.0000
  -9   8   2      84    1029                                                         108    0.90    0.00  1.0000
  -9  -9  -2     281    1032                                                         294   -0.28    0.00  1.0000
  -9   9  -2     755    1196                                                         776   -0.28    0.00  1.0000
   9  -9  -2     807     935                                                         829   -0.28    0.00  1.0000
   9   9  -2       0     798                                                           1   -0.28    0.00  1.0000
  -9  -9   2      10    1072                                                          12   -0.28    0.00  1.0000
   9  -9   2     225     886                                                         236   -0.28    0.00  1.0000
  -9 -10  -2    1361    1131                                                        1321   -0.40    0.00  1.0000
  -9  10  -2     105    1169                                                          94    0.40    0.00  1.0000
   9 -10  -2     733     931                                                         703    0.40    0.00  1.0000
   9  10  -2     784     947                                                         753   -0.40    0.00  1.0000
  -9 -10   2     627    1227                                                         600   -0.40    0.00  1.0000
   9 -10   2    1172     905                                                        1134    0.40    0.00  1.0000
  -9 -11  -2    7132    1967                                                        7063   -0.30    0.00  1.0000
  -9  11  -2    7742    2093                                                        7670   -0.30    0.00  1.0000
   9 -11  -2    7070    1823                                                        7001   -0.30    0.00  1.0000
   9  11  -2    8656    1882                                                        8580   -0.30    0.00  1.0000
  -9 -11   2    7732    2090                                                        7660   -0.30    0.00  1.0000
   9 -11   2    7763    1710                                                        7691   -0.30    0.00  1.0000
  -9 -12  -2     134    1099                                                         114    0.65    0.00  1.0000
  -9  12  -2    1888    1516                                                        1812   -0.65    0.00  1.0000
   9 -12  -2     603     916                                                         560   -0.65    0.00  1.0000
   9  12  -2    1097    1128                                                        1039    0.65    0.00  1.0000
  -9 -12   2     967    1360                                                         913    0.65    0.00  1.0000
   9 -12   2     369    1023                                                         336   -0.65    0.00  1.0000
  -9 -13  -2       3    1066                                                           4   -0.19    0.00  1.0000
  -9  13  -2     763    1440                                                         777   -0.19    0.00  1.0000
   9 -13  -2     250     910                                                         258   -0.19    0.00  1.0000
  -9 -13   2     133    1252                                                         139   -0.19    0.00  1.0000
   9 -13   2       3     865                                                           4   -0.19    0.00  1.0000
  -9 -14  -2      36    1095                                                          54    0.99    0.00  1.0000
  -9  14  -2     775    1530                                                         852   -0.99    0.00  1.0000
   9 -14  -2     653    1130                                                         724   -0.99    0.00  1.0000
  -9 -14   2     461    1324                                                         521    0.99    0.00  1.0000
   9 -14   2      26     902                                                          41   -0.99    0.00  1.0000
  -9 -15  -2    4184    1709                                                        4178   -0.04    0.00  1.0000
  -9  15  -2    4484    1966                                                        4477   -0.04    0.00  1.0000
   9 -15  -2    4633    1593                                                        4626   -0.04    0.00  1.0000
  -9 -15   2    3749    1700                                                        3743   -0.04    0.00  1.0000
   9 -15   2    1145     983                                                        1142   -0.04    0.00  1.0000
  -9 -16  -2     474    1397                                                         536    1.01    0.00  1.0000
  -9  16  -2     353    1590                                                         407   -1.01    0.00  1.0000
   9 -16  -2     367     998                                                         422   -1.01    0.00  1.0000
  -9 -16   2      92    1400                                                         121    1.01    0.00  1.0000
   9 -16   2       4    1044                                                          11   -1.01    0.00  1.0000
  -9 -17  -2     981    1649                                                        1068   -0.99    0.00  1.0000
  -9  17  -2     503    1681                                                         566   -0.99    0.00  1.0000
   9 -17  -2       9    1051                                                          19   -0.99    0.00  1.0000
  -9 -17   2    1045    1635                                                        1135   -0.99    0.00  1.0000
   9 -17   2     415    1122                                                         472   -0.99    0.00  1.0000
  -9 -18  -2      17    1661                                                           2    1.95    0.00  1.0000
  -9  18  -2    1506    1847                                                        1306   -1.95    0.00  1.0000
   9 -18  -2     483    1210                                                         373   -1.95    0.00  1.0000
  -9 -18   2     249    1587                                                         172    1.95    0.00  1.0000
   9 -18   2      17    1000                                                           2   -1.95    0.00  1.0000
  -9 -19  -2    2529    1996                                                        2365   -1.21    0.00  1.0000
  -9  19  -2    2010    2039                                                        1864   -1.21    0.00  1.0000
   9 -19  -2    1693    1314                                                        1559   -1.21    0.00  1.0000
  -9 -19   2    2511    1792                                                        2348   -1.21    0.00  1.0000
   9 -19   2    1508    1226                                                        1382   -1.21    0.00  1.0000
  -9 -20  -2       5    1791                                                          16    1.36    0.00  1.0000
  -9  20  -2     631    2024                                                         728   -1.36    0.00  1.0000
   9 -20  -2       3    1138                                                           0   -1.36    0.00  1.0000
   9 -20   2     222    1264                                                         281   -1.36    0.00  1.0000
  -9 -21  -2     909    2030                                                         874    0.43    0.00  1.0000
   9 -21  -2     852    1432                                                         818    0.43    0.00  1.0000
   9 -21   2    1169    1381                                                        1129    0.43    0.00  1.0000
  -9 -22  -2     353    2019                                                         363   -0.20    0.00  1.0000
   9 -22  -2     556    1618                                                         569    0.20    0.00  1.0000
   9 -22   2       2    1228                                                           3    0.20    0.00  1.0000
 -10   0  -2    1599    1265                                                        1623    0.22    0.00  1.0000
  10   0  -2    1253    1100                                                        1274    0.22    0.00  1.0000
 -10   0   2    2422    1429                                                        2451    0.22    0.00  1.0000
 -10  -1  -2    6839    1738                                                        6775   -0.28    0.00  1.0000
 -10   1  -2    7057    1762                                                        6992    0.28    0.00  1.0000
  10  -1  -2    6052    1469                                                        5992    0.28    0.00  1.0000
  10   1  -2    6512    1531                                                        6450   -0.28    0.00  1.0000
 -10  -1   2    6365    1796                                                        6304   -0.28    0.00  1.0000
 -10   1   2    5604    1664                                                        5546    0.28    0.00  1.0000
 -10  -2  -2    5171    1787                                                        5210    0.20    0.00  1.0000
 -10   2  -2    4462    1639                                                        4498    0.20    0.00  1.0000
  10  -2  -2    3513    1452                                                        3545    0.20    0.00  1.0000
  10   2  -2    4731    1504                                                        4768    0.20    0.00  1.0000
 -10  -2   2    4532    1729                                                        4568    0.20    0.00  1.0000
 -10   2   2    5268    1830                                                        5307    0.20    0.00  1.0000
 -10  -3  -2    3943    1519                                                        3853    0.53    0.00  1.0000
 -10   3  -2    3294    1476                                                        3212   -0.53    0.00  1.0000
  10  -3  -2     510     705                                                         478   -0.53    0.00  1.0000
  10   3  -2    4573    1355                                                        4476    0.53    0.00  1.0000
 -10  -3   2    4052    1611                                                        3961    0.53    0.00  1.0000
 -10   3   2    4767    1705                                                        4668   -0.53    0.00  1.0000
 -10  -4  -2    2960    1513                                                        3032    0.48    0.00  1.0000
 -10   4  -2    3486    1600                                                        3564    0.48    0.00  1.0000
  10  -4  -2    1349    1001                                                        1397    0.48    0.00  1.0000
  10   4  -2    1384     991                                                        1433    0.48    0.00  1.0000
 -10  -4   2    2792    1589                                                        2862    0.48    0.00  1.0000
 -10   4   2    3365    1654                                                        3441    0.48    0.00  1.0000
 -10  -5  -2    4434    1763                                                        4713    1.51    0.00  1.0000
 -10   5  -2    5100    1842                                                        5399   -1.51    0.00  1.0000
  10  -5  -2    4811    1448                                                        5102   -1.51    0.00  1.0000
  10   5  -2    6539    1824                                                        6877    1.51    0.00  1.0000
 -10  -5   2    4731    1825                                                        5019    1.51    0.00  1.0000
 -10   5   2    4618    1849                                                        4903   -1.51    0.00  1.0000
 -10  -6  -2    1996    1424                                                        2080    0.68    0.00  1.0000
 -10   6  -2    1859    1484                                                        1940    0.68    0.00  1.0000
  10  -6  -2    2254    1277                                                        2343    0.68    0.00  1.0000
  10   6  -2    2560    1375                                                        2655    0.68    0.00  1.0000
 -10  -6   2    1488    1407                                                        1560    0.68    0.00  1.0000
 -10   6   2    1812    1475                                                        1892    0.68    0.00  1.0000
 -10  -7  -2    1642    1264                                                        1567    0.68    0.00  1.0000
 -10   7  -2    2563    1383                                                        2470   -0.68    0.00  1.0000
  10  -7  -2    1740    1070                                                        1663   -0.68    0.00  1.0000
  10   7  -2    2112    1114                                                        2027    0.68    0.00  1.0000
 -10  -7   2    1234    1295                                                        1169    0.68    0.00  1.0000
 -10   7   2    2456    1437                                                        2365   -0.68    0.00  1.0000
 -10  -8  -2     902    1394                                                         921    0.23    0.00  1.0000
 -10   8  -2    1399    1424                                                        1423    0.23    0.00  1.0000
  10  -8  -2    1039    1107                                                        1060    0.23    0.00  1.0000
  10   8  -2    1004    1030                                                        1024    0.23    0.00  1.0000
 -10  -8   2     417    1291                                                         430    0.23    0.00  1.0000
 -10   8   2     418    1301                                                         431    0.23    0.00  1.0000
  10  -8   2     915    1041                                                         934    0.23    0.00  1.0000
 -10  -9  -2    5490    1852                                                        5466   -0.12    0.00  1.0000
 -10   9  -2    5655    1932                                                        5631    0.12    0.00  1.0000
  10  -9  -2    7451    1760                                                        7423    0.12    0.00  1.0000
  10   9  -2    7229    1748                                                        7202   -0.12    0.00  1.0000
 -10  -9   2    4574    1836                                                        4552   -0.12    0.00  1.0000
 -10   9   2    7082    2121                                                        7055    0.12    0.00  1.0000
  10  -9   2    7151    1777                                                        7124    0.12    0.00  1.0000
 -10 -10  -2    5892    2040                                                        5945    0.25    0.00  1.0000
 -10  10  -2    4164    1828                                                        4209    0.25    0.00  1.0000
  10 -10  -2    4307    1598                                                        4353    0.25    0.00  1.0000
 -10 -10   2    4913    1925                                                        4962    0.25    0.00  1.0000
  10 -10   2    3493    1425                                                        3534    0.25    0.00  1.0000
 -10 -11  -2     525    1351                                                         571   -0.72    0.00  1.0000
 -10  11  -2    1438    1732                                                        1513    0.72    0.00  1.0000
  10 -11  -2     855    1066                                                         913    0.72    0.00  1.0000
 -10 -11   2     927    1388                                                         987   -0.72    0.00  1.0000
  10 -11   2     936     978                                                         997    0.72    0.00  1.0000
 -10 -12  -2     877    1456                                                         830    0.59    0.00  1.0000
 -10  12  -2     381    1462                                                         350    0.59    0.00  1.0000
  10 -12  -2    1587    1128                                                        1524    0.59    0.00  1.0000
 -10 -12   2    1322    1472                                                        1264    0.59    0.00  1.0000
  10 -12   2     825     984                                                         779    0.59    0.00  1.0000
 -10 -13  -2    3260    1686                                                        3078   -1.19    0.00  1.0000
 -10  13  -2    3075    1746                                                        2898    1.19    0.00  1.0000
  10 -13  -2    3931    1443                                                        3731    1.19    0.00  1.0000
 -10 -13   2    3013    1615                                                        2838   -1.19    0.00  1.0000
  10 -13   2    2682    1231                                                        2517    1.19    0.00  1.0000
 -10 -14  -2    4862    2003                                                        4826   -0.19    0.00  1.0000
 -10  14  -2    4788    2084                                                        4753   -0.19    0.00  1.0000
  10 -14  -2    4785    1786                                                        4750   -0.19    0.00  1.0000
 -10 -14   2    4672    1844                                                        4637   -0.19    0.00  1.0000
  10 -14   2    4412    1650                                                        4378   -0.19    0.00  1.0000
 -10 -15  -2      42    1526                                                          60   -0.95    0.00  1.0000
 -10  15  -2     357    1641                                                         408    0.95    0.00  1.0000
  10 -15  -2      65     934                                                          88    0.95    0.00  1.0000
 -10 -15   2      65    1356                                                          88   -0.95    0.00  1.0000
  10 -15   2      55    1102                                                          76    0.95    0.00  1.0000
 -10 -16  -2     183    1589                                                         199   -0.43    0.00  1.0000
 -10  16  -2     840    1747                                                         875   -0.43    0.00  1.0000
  10 -16  -2     229    1047                                                         247   -0.43    0.00  1.0000
 -10 -16   2     120    1484                                                         133   -0.43    0.00  1.0000
  10 -16   2     174     916                                                         190   -0.43    0.00  1.0000
 -10 -17  -2     843    1652                                                         696   -1.95    0.00  1.0000
 -10  17  -2    2124    2253                                                        1886    1.95    0.00  1.0000
  10 -17  -2    1487    1312                                                        1289    1.95    0.00  1.0000
 -10 -17   2    2547    1814                                                        2286   -1.95    0.00  1.0000
  10 -17   2    1025    1200                                                         862    1.95    0.00  1.0000
 -10 -18  -2     151    1726                                                         186    0.99    0.00  1.0000
 -10  18  -2     769    1865                                                         846    0.99    0.00  1.0000
  10 -18  -2    1028    1320                                                        1117    0.99    0.00  1.0000
 -10 -18   2     476    1739                                                         537    0.99    0.00  1.0000
  10 -18   2     404    1180                                                         460    0.99    0.00  1.0000
 -10 -19  -2     521    1955                                                         712   -2.83    0.00  1.0000
 -10  19  -2     378    1872                                                         543    2.83    0.00  1.0000
  10 -19  -2     562    1141                                                         760    2.83    0.00  1.0000
 -10 -19   2      15    1773                                                           0   -2.83    0.00  1.0000
  10 -19   2      15    1037                                                           0    2.83    0.00  1.0000
 -10 -20  -2     427    2000                                                         492    1.11    0.00  1.0000
 -10  20  -2      11    1970                                                          24    1.11    0.00  1.0000
  10 -20  -2      93    1288                                                         125    1.11    0.00  1.0000
 -10 -20   2     919    2007                                                        1013    1.11    0.00  1.0000
  10 -20   2      11    1225                                                          24    1.11    0.00  1.0000
 -10 -21  -2     514    2080                                                         466   -0.79    0.00  1.0000
 -10  21  -2     218    2116                                                         187    0.79    0.00  1.0000
  10 -21  -2    1007    1557                                                         939    0.79    0.00  1.0000
  10 -21   2       4    1212                                                           1    0.79    0.00  1.0000
 -11  -1  -2       5    1110                                                          12    0.91    0.00  1.0000
 -11   1  -2     110    1223                                                         137    0.91    0.00  1.0000
  11  -1  -2     640     963                                                         704    0.91    0.00  1.0000
  11   1  -2     746     908                                                         815    0.91    0.00  1.0000
 -11  -1   2      80    1151                                                         104    0.91    0.00  1.0000
 -11   1   2     432    1201                                                         485    0.91    0.00  1.0000
 -11  -2  -2     886    1362                                                         868   -0.22    0.00  1.0000
 -11   2  -2    1146    1339                                                        1125    0.22    0.00  1.0000
  11  -2  -2    1672    1120                                                        1647    0.22    0.00  1.0000
  11   2  -2     791     945                                                         774   -0.22    0.00  1.0000
 -11  -2   2     799    1268                                                         782   -0.22    0.00  1.0000
 -11   2   2    1539    1507                                                        1515    0.22    0.00  1.0000
 -11  -3  -2    1432    1477                                                        1433   -0.01    0.00  1.0000
 -11   3  -2     916    1317                                                         917   -0.01    0.00  1.0000
  11  -3  -2    1367    1052                                                        1368   -0.01    0.00  1.0000
  11   3  -2    1018     882                                                        1019   -0.01    0.00  1.0000
 -11  -3   2     827    1237                                                         828   -0.01    0.00  1.0000
 -11   3   2    2309    1492                                                        2311   -0.01    0.00  1.0000
 -11  -4  -2     561    1347                                                         632   -1.07    0.00  1.0000
 -11   4  -2    1395    1479                                                        1506    1.07    0.00  1.0000
  11  -4  -2    1662    1151                                                        1783    1.07    0.00  1.0000
  11   4  -2    1459    1115                                                        1572   -1.07    0.00  1.0000
 -11  -4   2     840    1339                                                         927   -1.07    0.00  1.0000
 -11   4   2     661    1240                                                         738    1.07    0.00  1.0000
 -11  -5  -2    3015    1595                                                        2918   -0.65    0.00  1.0000
 -11   5  -2    2638    1626                                                        2547   -0.65    0.00  1.0000
  11  -5  -2       1     605                                                           0   -0.65    0.00  1.0000
  11   5  -2    2192    1135                                                        2109   -0.65    0.00  1.0000
 -11  -5   2    1580    1443                                                        1510   -0.65    0.00  1.0000
 -11   5   2    2489    1515                                                        2401   -0.65    0.00  1.0000
 -11  -6  -2     678    1380                                                         657   -0.30    0.00  1.0000
 -11   6  -2    2053    1340                                                        2016    0.30    0.00  1.0000
  11  -6  -2    1389    1001                                                        1358    0.30    0.00  1.0000
  11   6  -2    1281    1085                                                        1252   -0.30    0.00  1.0000
 -11  -6   2    1897    1524                                                        1861   -0.30    0.00  1.0000
 -11   6   2     700    1243                                                         678    0.30    0.00  1.0000
 -11  -7  -2     322    1349                                                         329   -0.15    0.00  1.0000
 -11   7  -2     856    1325                                                         868   -0.15    0.00  1.0000
  11  -7  -2    1138     962                                                        1152   -0.15    0.00  1.0000
 -11  -7   2    1096    1289                                                        1109   -0.15    0.00  1.0000
 -11   7   2    1508    1563                                                        1524   -0.15    0.00  1.0000
 -11  -8  -2    1355    1448                                                        1429    0.73    0.00  1.0000
 -11   8  -2    1278    1333                                                        1350   -0.73    0.00  1.0000
  11  -8  -2    2945    1294                                                        3053   -0.73    0.00  1.0000
 -11  -8   2     878    1421                                                         938    0.73    0.00  1.0000
 -11   8   2     802    1386                                                         859   -0.73    0.00  1.0000
 -11  -9  -2    1720    1557                                                        1735    0.13    0.00  1.0000
 -11   9  -2    2178    1550                                                        2195    0.13    0.00  1.0000
  11  -9  -2     403    1212                                                         410    0.13    0.00  1.0000
 -11  -9   2    2447    1567                                                        2465    0.13    0.00  1.0000
 -11   9   2    3481    1757                                                        3503    0.13    0.00  1.0000
 -11 -10  -2     356    1420                                                         329    0.54    0.00  1.0000
 -11  10  -2     552    1392                                                         518   -0.54    0.00  1.0000
  11 -10  -2     249     995                                                         226   -0.54    0.00  1.0000
 -11 -10   2     179    1363                                                         160    0.54    0.00  1.0000
 -11 -11  -2     952    1555                                                        1028   -0.89    0.00  1.0000
 -11  11  -2    1202    1611                                                        1288   -0.89    0.00  1.0000
  11 -11  -2     541    1074                                                         599   -0.89    0.00  1.0000
 -11 -11   2     242    1392                                                         281   -0.89    0.00  1.0000
 -11 -12  -2    3235    1972                                                        3347    0.72    0.00  1.0000
 -11  12  -2    2375    1738                                                        2471   -0.72    0.00  1.0000
  11 -12  -2    3209    1472                                                        3321   -0.72    0.00  1.0000
 -11 -12   2    2825    1897                                                        2930    0.72    0.00  1.0000
  11 -12   2     971    1123                                                        1033   -0.72    0.00  1.0000
 -11 -13  -2    2252    1802                                                        2143   -0.85    0.00  1.0000
 -11  13  -2    2275    1752                                                        2166   -0.85    0.00  1.0000
  11 -13  -2    2108    1407                                                        2003   -0.85    0.00  1.0000
 -11 -13   2    2935    1889                                                        2811   -0.85    0.00  1.0000
  11 -13   2    2763    1390                                                        2642   -0.85    0.00  1.0000
 -11 -14  -2      14    1682                                                          22    0.66    0.00  1.0000
 -11  14  -2     497    1707                                                         538   -0.66    0.00  1.0000
  11 -14  -2      95    1070                                                         113   -0.66    0.00  1.0000
 -11 -14   2     340    1651                                                         374    0.66    0.00  1.0000
  11 -14   2     106     982                                                         125   -0.66    0.00  1.0000
 -11 -15  -2     999    1771                                                         912    1.03    0.00  1.0000
 -11  15  -2    1313    1684                                                        1213    1.03    0.00  1.0000
  11 -15  -2    1462    1235                                                        1357    1.03    0.00  1.0000
 -11 -15   2    1195    1647                                                        1100    1.03    0.00  1.0000
  11 -15   2     809    1095                                                         731    1.03    0.00  1.0000
 -11 -16  -2     339    1796                                                         377    0.74    0.00  1.0000
 -11  16  -2     848    1826                                                         907   -0.74    0.00  1.0000
  11 -16  -2     477    1189                                                         522   -0.74    0.00  1.0000
 -11 -16   2     297    1644                                                         333    0.74    0.00  1.0000
  11 -16   2     577    1261                                                         626   -0.74    0.00  1.0000
 -11 -17  -2    1371    2066                                                        1478    1.04    0.00  1.0000
 -11  17  -2    1627    2083                                                        1743    1.04    0.00  1.0000
  11 -17  -2    1375    1478                                                        1482    1.04    0.00  1.0000
 -11 -17   2     934    1838                                                        1023    1.04    0.00  1.0000
  11 -17   2     533    1216                                                         601    1.04    0.00  1.0000
 -11 -18  -2       0    1899                                                          10    2.32    0.00  1.0000
 -11  18  -2    1419    2255                                                        1668   -2.32    0.00  1.0000
  11 -18  -2     450    1194                                                         594   -2.32    0.00  1.0000
 -11 -18   2     749    1970                                                         933    2.32    0.00  1.0000
  11 -18   2      55     974                                                         112   -2.32    0.00  1.0000
 -11 -19  -2     749    2075                                                         823   -0.97    0.00  1.0000
 -11  19  -2     821    2187                                                         899   -0.97    0.00  1.0000
  11 -19  -2    1030    1372                                                        1117   -0.97    0.00  1.0000
 -11 -19   2     996    2046                                                        1081   -0.97    0.00  1.0000
  11 -19   2     498    1295                                                         559   -0.97    0.00  1.0000
 -11 -20  -2    1947    2378                                                        2226    2.24    0.00  1.0000
 -11  20  -2     435    2286                                                         572   -2.24    0.00  1.0000
  11 -20  -2     386    1459                                                         515   -2.24    0.00  1.0000
 -11 -20   2     541    2133                                                         693    2.24    0.00  1.0000
  11 -20   2     208    1310                                                         306   -2.24    0.00  1.0000
 -12   0  -2    2029    1770                                                        2211   -1.45    0.01  1.0000
  12   0  -2    1218    1258                                                        1360   -1.45   -0.01  1.0000
 -12   0   2    1436    1511                                                        1590   -1.45    0.01  1.0000
 -12  -1  -2    8447    2304                                                        8405    0.17    0.00  1.0000
 -12   1  -2    6887    2139                                                        6849   -0.17    0.00  1.0000
  12  -1  -2    5129    1556                                                        5096   -0.17    0.00  1.0000
  12   1  -2    7915    1790                                                        7874    0.17    0.00  1.0000
 -12  -1   2    5148    1960                                                        5115    0.17    0.00  1.0000
 -12   1   2    5532    2052                                                        5498   -0.17    0.00  1.0000
 -12  -2  -2    1212    1515                                                        1303   -0.94    0.00  1.0000
 -12   2  -2     870    1466                                                         947   -0.94    0.00  1.0000
  12  -2  -2    1712    1252                                                        1819   -0.94    0.00  1.0000
  12   2  -2    1203    1195                                                        1293   -0.94    0.00  1.0000
 -12  -2   2    1473    1605                                                        1573   -0.94    0.00  1.0000
 -12   2   2    1317    1584                                                        1411   -0.94    0.00  1.0000
 -12  -3  -2    2644    1565                                                        2749    0.74    0.00  1.0000
 -12   3  -2    2259    1556                                                        2356   -0.74    0.00  1.0000
  12  -3  -2    3707    1417                                                        3831   -0.74    0.00  1.0000
  12   3  -2    3258    1296                                                        3374    0.74    0.00  1.0000
 -12  -3   2    2987    1634                                                        3099    0.74    0.00  1.0000
 -12   3   2    4102    1930                                                        4233   -0.74    0.00  1.0000
 -12  -4  -2     798    1445                                                         803   -0.06    0.00  1.0000
 -12   4  -2     343    1452                                                         346   -0.06    0.00  1.0000
  12  -4  -2    1377    1276                                                        1383   -0.06    0.00  1.0000
 -12  -4   2     968    1419                                                         973   -0.06    0.00  1.0000
 -12   4   2     466    1333                                                         470   -0.06    0.00  1.0000
 -12  -5  -2    2698    1661                                                        2680    0.13    0.00  1.0000
 -12   5  -2    1785    1550                                                        1770   -0.13    0.00  1.0000
  12  -5  -2    2983    1327                                                        2964   -0.13    0.00  1.0000
 -12  -5   2    1673    1563                                                        1659    0.13    0.00  1.0000
 -12   5   2    2544    1645                                                        2526   -0.13    0.00  1.0000
 -12  -6  -2     922    1586                                                         916    0.08    0.00  1.0000
 -12   6  -2     955    1577                                                         948    0.08    0.00  1.0000
  12  -6  -2     507    1014                                                         502    0.08    0.00  1.0000
 -12  -6   2    1081    1551                                                        1074    0.08    0.00  1.0000
 -12   6   2     651    1491                                                         646    0.08    0.00  1.0000
 -12  -7  -2    5086    1891                                                        4836   -1.30    0.00  1.0000
 -12   7  -2    6569    2105                                                        6285    1.30    0.00  1.0000
  12  -7  -2      24     726                                                          10    1.30    0.00  1.0000
 -12  -7   2    4456    1938                                                        4222   -1.30    0.00  1.0000
 -12   7   2    3314    1784                                                        3113    1.30    0.00  1.0000
 -12  -8  -2     383    1470                                                         400   -0.32    0.00  1.0000
 -12   8  -2      25    1431                                                          30   -0.32    0.00  1.0000
  12  -8  -2     455    1065                                                         474   -0.32    0.00  1.0000
 -12  -8   2     140    1439                                                         150   -0.32    0.00  1.0000
 -12   8   2     431    1528                                                         449   -0.32    0.00  1.0000
 -12  -9  -2     209    1494                                                         233   -0.60    0.00  1.0000
 -12   9  -2     863    1599                                                         912    0.60    0.00  1.0000
  12  -9  -2    1068    1067                                                        1122    0.60    0.00  1.0000
 -12  -9   2     825    1567                                                         873   -0.60    0.00  1.0000
 -12   9   2     829    1507                                                         877    0.60    0.00  1.0000
 -12 -10  -2     494    1619                                                         478    0.27    0.00  1.0000
 -12  10  -2     855    1639                                                         834    0.27    0.00  1.0000
  12 -10  -2     842    1169                                                         821    0.27    0.00  1.0000
 -12 -10   2     155    1466                                                         146    0.27    0.00  1.0000
 -12  10   2     670    1513                                                         651    0.27    0.00  1.0000
 -12 -11  -2    1797    1913                                                        1836    0.34    0.00  1.0000
 -12  11  -2     690    1668                                                         715   -0.34    0.00  1.0000
  12 -11  -2    2151    1414                                                        2194   -0.34    0.00  1.0000
 -12 -11   2    1419    1739                                                        1454    0.34    0.00  1.0000
 -12 -12  -2       3    1552                                                           0    1.30    0.00  1.0000
 -12  12  -2    1595    1989                                                        1740    1.30    0.00  1.0000
  12 -12  -2     789    1110                                                         892    1.30    0.00  1.0000
 -12 -12   2       3    1424                                                           0    1.30    0.00  1.0000
 -12 -13  -2    1698    2017                                                        1726   -0.25    0.00  1.0000
 -12  13  -2     168    1766                                                         177    0.25    0.00  1.0000
  12 -13  -2     269    1188                                                         280    0.25    0.00  1.0000
 -12 -13   2     185    1583                                                         194   -0.25    0.00  1.0000
 -12 -14  -2     481    1749                                                         472    0.15    0.00  1.0000
 -12  14  -2     762    1824                                                         751    0.15    0.00  1.0000
  12 -14  -2     511    1199                                                         502    0.15    0.00  1.0000
 -12 -14   2     543    1759                                                         534    0.15    0.00  1.0000
 -12 -15  -2    4158    2131                                                        4109   -0.28    0.00  1.0000
 -12  15  -2    3342    2084                                                        3298    0.28    0.00  1.0000
  12 -15  -2     589    1182                                                         571    0.28    0.00  1.0000
 -12 -15   2    1699    1941                                                        1668   -0.28    0.00  1.0000
 -12 -16  -2      44    1798                                                          83   -1.79    0.00  1.0000
 -12  16  -2     245    1969                                                         327   -1.79    0.00  1.0000
  12 -16  -2     214    1311                                                         291   -1.79    0.00  1.0000
 -12 -16   2      24    1863                                                          54   -1.79    0.00  1.0000
  12 -16   2      90    1228                                                         143   -1.79    0.00  1.0000
 -12 -17  -2     717    2084                                                         765   -0.65    0.00  1.0000
 -12  17  -2     990    2110                                                        1046    0.65    0.00  1.0000
  12 -17  -2      10    1247                                                          16    0.65    0.00  1.0000
 -12 -17   2     426    2030                                                         463   -0.65    0.00  1.0000
  12 -17   2     631    1256                                                         676    0.65    0.00  1.0000
 -12 -18  -2     598    2106                                                         655   -0.83    0.00  1.0000
 -12  18  -2       2    2043                                                           6   -0.83    0.00  1.0000
  12 -18  -2     780    1666                                                         845   -0.83    0.00  1.0000
 -12 -18   2     137    2023                                                         165   -0.83    0.00  1.0000
  12 -18   2    1017    1387                                                        1090   -0.83    0.00  1.0000
 -13  -1  -2    1213    1515                                                        1148    0.69   -0.01  1.0000
 -13   1  -2    1234    1523                                                        1169    0.69   -0.01  1.0000
  13  -1  -2    1885    1212                                                        1804    0.69    0.01  1.0000
 -13  -1   2    1112    1458                                                        1050    0.69   -0.01  1.0000
 -13   1   2    1492    1610                                                        1420    0.69   -0.01  1.0000
 -13  -2  -2       1    1380                                                           2   -0.30    0.00  1.0000
 -13   2  -2       1    1328                                                           2    0.30    0.00  1.0000
  13  -2  -2       1     883                                                           2    0.30    0.00  1.0000
 -13  -2   2       1    1348                                                           2   -0.30    0.00  1.0000
 -13   2   2     311    1592                                                         326    0.30    0.00  1.0000
 -13  -3  -2      91    1429                                                          73    0.72    0.00  1.0000
 -13   3  -2     679    1516                                                         629    0.72    0.00  1.0000
  13  -3  -2    1222    1091                                                        1155    0.72    0.00  1.0000
 -13  -3   2    1047    1497                                                         985    0.72    0.00  1.0000
 -13   3   2      91    1420                                                          73    0.72    0.00  1.0000
 -13  -4  -2       0    1366                                                           0   -0.41    0.00  1.0000
 -13   4  -2     511    1546                                                         536    0.41    0.00  1.0000
  13  -4  -2     460    1069                                                         484    0.41    0.00  1.0000
 -13  -4   2       0    1304                                                           0   -0.41    0.00  1.0000
 -13   4   2     817    1467                                                         849    0.41    0.00  1.0000
 -13  -5  -2    2069    1664                                                        2014    0.44    0.00  1.0000
 -13   5  -2    2143    1744                                                        2087    0.44    0.00  1.0000
  13  -5  -2    2863    1207                                                        2799    0.44    0.00  1.0000
 -13  -5   2    4406    1826                                                        4326    0.44    0.00  1.0000
 -13   5   2    3960    1762                                                        3884    0.44    0.00  1.0000
 -13  -6  -2     511    1601                                                         571    0.94    0.00  1.0000
 -13   6  -2     309    1631                                                         356   -0.94    0.00  1.0000
  13  -6  -2      12    1052                                                          22   -0.94    0.00  1.0000
 -13  -6   2      12    1418                                                          22    0.94    0.00  1.0000
 -13   6   2     224    1559                                                         264   -0.94    0.00  1.0000
 -13  -7  -2     152    1523                                                         149    0.08    0.00  1.0000
 -13   7  -2    1644    1632                                                        1635    0.08    0.00  1.0000
  13  -7  -2     525    1016                                                         520    0.08    0.00  1.0000
 -13  -7   2     831    1592                                                         825    0.08    0.00  1.0000
 -13   7   2      94    1404                                                          92    0.08    0.00  1.0000
 -13  -8  -2       4    1565                                                          11    1.05    0.00  1.0000
 -13   8  -2       4    1941                                                          11   -1.05    0.00  1.0000
  13  -8  -2       4    1020                                                          11   -1.05    0.00  1.0000
 -13  -8   2       4    1485                                                          11    1.05    0.00  1.0000
 -13   8   2       4    1455                                                          11   -1.05    0.00  1.0000
 -13  -9  -2    1229    1816                                                        1226    0.03    0.00  1.0000
 -13   9  -2     676    1685                                                         674    0.03    0.00  1.0000
  13  -9  -2       5     835                                                           5    0.03    0.00  1.0000
 -13  -9   2    1468    1712                                                        1465    0.03    0.00  1.0000
 -13   9   2     711    1689                                                         709    0.03    0.00  1.0000
 -13 -10  -2    1345    1753                                                        1265   -0.81    0.00  1.0000
 -13  10  -2      56    1651                                                          41    0.81    0.00  1.0000
  13 -10  -2      56    1035                                                          41    0.81    0.00  1.0000
 -13 -10   2      56    1526                                                          41   -0.81    0.00  1.0000
 -13  10   2     636    1683                                                         582    0.81    0.00  1.0000
 -13 -11  -2       1    1713                                                           2   -0.26    0.00  1.0000
 -13  11  -2       1    1652                                                           2   -0.26    0.00  1.0000
  13 -11  -2       1    1100                                                           2   -0.26    0.00  1.0000
 -13 -11   2       1    1537                                                           2   -0.26    0.00  1.0000
 -13 -12  -2     312    1802                                                         350   -0.77    0.00  1.0000
 -13  12  -2     268    1725                                                         303    0.77    0.00  1.0000
  13 -12  -2    1062    1343                                                        1132    0.77    0.00  1.0000
 -13 -12   2     800    1850                                                         861   -0.77    0.00  1.0000
 -13 -13  -2    3028    2802                                                        3091   -0.42    0.00  1.0000
 -13  13  -2    2969    2150                                                        3031   -0.42    0.00  1.0000
  13 -13  -2    1179    1277                                                        1218   -0.42    0.00  1.0000
 -13 -13   2    1166    1859                                                        1205   -0.42    0.00  1.0000
 -13 -14  -2    1719    2177                                                        1759    0.35    0.00  1.0000
 -13  14  -2    1736    2203                                                        1776   -0.35    0.00  1.0000
  13 -14  -2    1069    1489                                                        1101   -0.35    0.00  1.0000
 -13 -14   2     788    1940                                                         815    0.35    0.00  1.0000
 -13 -15  -2       3    1955                                                           7    0.73    0.00  1.0000
 -13  15  -2      81    2035                                                         100    0.73    0.00  1.0000
  13 -15  -2     936    1401                                                         998    0.73    0.00  1.0000
 -13 -15   2     255    2021                                                         288    0.73    0.00  1.0000
 -13 -16  -2     235    1997                                                         229    0.14    0.00  1.0000
 -13  16  -2     975    2131                                                         963   -0.14    0.00  1.0000
  13 -16  -2     795    1380                                                         784   -0.14    0.00  1.0000
 -13 -16   2     849    2162                                                         838    0.14    0.00  1.0000
 -14   0  -2    2121    1970                                                        2168    0.37    0.01  1.0000
 -14   0   2    1346    1850                                                        1384    0.37    0.01  1.0000
 -14  -1  -2    3484    2052                                                        3456   -0.18    0.00  1.0000
 -14   1  -2    3767    2105                                                        3737    0.18    0.00  1.0000
 -14  -1   2    4259    2087                                                        4228   -0.18    0.00  1.0000
 -14   1   2    2233    1925                                                        2210    0.18    0.00  1.0000
 -14  -2  -2    5786    2302                                                        5814   -0.13    0.01  1.0000
 -14   2  -2    7323    2366                                                        7354   -0.13    0.01  1.0000
 -14  -2   2    6101    2274                                                        6129   -0.13    0.01  1.0000
 -14   2   2    4352    2159                                                        4376   -0.13    0.01  1.0000
 -14  -3  -2    1582    1887                                                        1554    0.26    0.00  1.0000
 -14   3  -2    3996    2024                                                        3952   -0.26    0.00  1.0000
 -14  -3   2    2403    1905                                                        2369    0.26    0.00  1.0000
 -14   3   2    2852    1955                                                        2815   -0.26    0.00  1.0000
 -14  -4  -2     364    1767                                                         403   -0.73    0.00  1.0000
 -14   4  -2     436    1702                                                         479   -0.73    0.00  1.0000
  14  -4  -2     993    1269                                                        1057   -0.73    0.00  1.0000
 -14  -4   2    1274    1781                                                        1346   -0.73    0.00  1.0000
 -14   4   2     316    1634                                                         352   -0.73    0.00  1.0000
 -14  -5  -2    1601    1873                                                        1628    0.25    0.00  1.0000
 -14   5  -2    2250    1893                                                        2282   -0.25    0.00  1.0000
  14  -5  -2    1327    1247                                                        1352   -0.25    0.00  1.0000
 -14  -5   2    2306    1900                                                        2338    0.25    0.00  1.0000
 -14   5   2     563    1784                                                         579   -0.25    0.00  1.0000
 -14  -6  -2     414    1849                                                         424   -0.18    0.00  1.0000
 -14   6  -2    2013    2026                                                        2035   -0.18    0.00  1.0000
  14  -6  -2     172    1226                                                         179   -0.18    0.00  1.0000
 -14  -6   2    1326    1965                                                        1344   -0.18    0.00  1.0000
 -14   6   2    1335    1879                                                        1353   -0.18    0.00  1.0000
 -14  -7  -2     250    1889                                                         282   -0.72    0.00  1.0000
 -14   7  -2     321    1880                                                         357    0.72    0.00  1.0000
  14  -7  -2     971    1262                                                        1033    0.72    0.00  1.0000
 -14  -7   2      54    1689                                                          69   -0.72    0.00  1.0000
 -14   7   2     436    1717                                                         478    0.72    0.00  1.0000
 -14  -8  -2    1801    1954                                                        1750    0.44    0.00  1.0000
 -14   8  -2    1193    1915                                                        1152    0.44    0.00  1.0000
  14  -8  -2    1469    1353                                                        1423    0.44    0.00  1.0000
 -14  -8   2    1076    1770                                                        1037    0.44    0.00  1.0000
 -14   8   2     255    1718                                                         236    0.44    0.00  1.0000
 -14  -9  -2       0    1751                                                           0    0.13    0.00  1.0000
 -14   9  -2     833    1872                                                         843   -0.13    0.00  1.0000
  14  -9  -2     322    1155                                                         328   -0.13    0.00  1.0000
 -14  -9   2     981    1859                                                         992    0.13    0.00  1.0000
 -14   9   2     481    1941                                                         489   -0.13    0.00  1.0000
 -14 -10  -2       1    1703                                                           1   -0.20    0.00  1.0000
 -14  10  -2    1614    2010                                                        1636   -0.20    0.00  1.0000
  14 -10  -2      50    1058                                                          54   -0.20    0.00  1.0000
 -14 -10   2       1    1721                                                           1   -0.20    0.00  1.0000
 -14  10   2       1    1909                                                           1   -0.20    0.00  1.0000
 -14 -11  -2    1096    1928                                                         990    1.20    0.00  1.0000
 -14  11  -2    1150    1924                                                        1042   -1.20    0.00  1.0000
  14 -11  -2    1122    1182                                                        1015   -1.20    0.00  1.0000
 -14 -11   2      56    1825                                                          34    1.20    0.00  1.0000
 -14 -12  -2     340    1981                                                         377   -0.72    0.00  1.0000
 -14  12  -2    1157    2180                                                        1225   -0.72    0.00  1.0000
  14 -12  -2     762    1285                                                         817   -0.72    0.00  1.0000
 -14 -12   2     237    2028                                                         268   -0.72    0.00  1.0000
 -14 -13  -2     997    2084                                                        1012    0.18    0.00  1.0000
 -14  13  -2     636    2102                                                         648   -0.18    0.00  1.0000
  14 -13  -2    1155    1590                                                        1171   -0.18    0.00  1.0000
 -14 -13   2     540    2035                                                         551    0.18    0.00  1.0000
 -14 -14  -2     911    2114                                                         954   -0.52    0.00  1.0000
 -14  14  -2      37    2139                                                          46   -0.52    0.00  1.0000
  14 -14  -2     924    1544                                                         968   -0.52    0.00  1.0000
 -14 -14   2     397    2097                                                         426   -0.52    0.00  1.0000
 -15  -1  -2    1207    2008                                                        1266   -0.61   -0.01  1.0000
 -15   1  -2     489    1889                                                         527   -0.61   -0.01  1.0000
 -15  -1   2       4    1873                                                           8   -0.61   -0.01  1.0000
 -15   1   2    1123    2044                                                        1180   -0.61   -0.01  1.0000
 -15  -2  -2      25    1816                                                          21    0.32    0.00  1.0000
 -15   2  -2       0    1780                                                           0   -0.32    0.00  1.0000
 -15  -2   2     131    1834                                                         121    0.32    0.00  1.0000
 -15   2   2     976    1973                                                         949   -0.32    0.00  1.0000
 -15  -3  -2       2    1784                                                           1    0.17    0.00  1.0000
 -15   3  -2       2    1787                                                           1    0.17    0.00  1.0000
 -15  -3   2     908    1901                                                         894    0.17    0.00  1.0000
 -15   3   2    1325    1912                                                        1308    0.17    0.00  1.0000
 -15  -4  -2    1471    1917                                                        1400   -0.68    0.00  1.0000
 -15   4  -2      10    1770                                                           5    0.68    0.00  1.0000
 -15  -4   2      10    1626                                                           5   -0.68    0.00  1.0000
 -15   4   2      10    1733                                                           5    0.68    0.00  1.0000
 -15  -5  -2      55    1775                                                          47    0.42    0.00  1.0000
 -15   5  -2     716    1983                                                         686    0.42    0.00  1.0000
 -15  -5   2     430    1757                                                         407    0.42    0.00  1.0000
 -15   5   2      55    1674                                                          47    0.42    0.00  1.0000
 -15  -6  -2       0    1838                                                           0   -0.43    0.00  1.0000
 -15   6  -2       0    2047                                                           0    0.43    0.00  1.0000
 -15  -6   2       0    1803                                                           0   -0.43    0.00  1.0000
 -15   6   2       0    1779                                                           0    0.43    0.00  1.0000
 -15  -7  -2      13    1889                                                          18   -0.47    0.00  1.0000
 -15   7  -2     821    2018                                                         858   -0.47    0.00  1.0000
 -15  -7   2      13    1872                                                          18   -0.47    0.00  1.0000
 -15   7   2     732    1917                                                         767   -0.47    0.00  1.0000
 -15  -8  -2       9    1942                                                           7    0.32    0.00  1.0000
 -15   8  -2       9    2007                                                           7   -0.32    0.00  1.0000
  15  -8  -2      84    1312                                                          76   -0.32    0.00  1.0000
 -15  -8   2       9    1849                                                           7    0.32    0.00  1.0000
 -15   8   2       9    1860                                                           7   -0.32    0.00  1.0000
 -15  -9  -2       6    1967                                                          10   -0.45    0.00  1.0000
 -15   9  -2      42    1976                                                          50   -0.45    0.00  1.0000
  15  -9  -2      71    1217                                                          82   -0.45    0.00  1.0000
 -15  -9   2       6    1825                                                          10   -0.45    0.00  1.0000
 -15   9   2     549    2038                                                         578   -0.45    0.00  1.0000
 -15 -10  -2       0    1880                                                           1   -0.40    0.00  1.0000
 -15  10  -2    1252    2192                                                        1291    0.40    0.00  1.0000
  15 -10  -2     611    1566                                                         638    0.40    0.00  1.0000
 -15 -10   2      15    2060                                                          20   -0.40    0.00  1.0000
 -15  10   2     696    2158                                                         725    0.40    0.00  1.0000
 -15 -11  -2    1691    2277                                                        1596    0.86    0.00  1.0000
 -15  11  -2    1131    2240                                                        1054    0.86    0.00  1.0000
  15 -11  -2       5    1278                                                           1    0.86    0.00  1.0000
 -15 -11   2    2304    2287                                                        2193    0.86    0.00  1.0000
 -15  11   2     147    2195                                                         120    0.86    0.00  1.0000
 -16   0  -2    4750    2420                                                        4699    0.27    0.00  1.0000
 -16   0   2    2880    2257                                                        2841    0.27    0.00  1.0000
 -16  -1  -2    1225    2252                                                        1263   -0.40    0.00  1.0000
 -16   1  -2    3400    2418                                                        3463    0.40    0.00  1.0000
 -16  -1   2    2157    2215                                                        2208   -0.40    0.00  1.0000
 -16   1   2    1641    2179                                                        1685    0.40    0.00  1.0000
 -16  -2  -2    1560    2260                                                        1577    0.16    0.00  1.0000
 -16   2  -2    2259    2302                                                        2279    0.16    0.00  1.0000
 -16  -2   2    2670    2443                                                        2692    0.16    0.00  1.0000
 -16   2   2    3843    2520                                                        3870    0.16    0.00  1.0000
 -16  -3  -2     407    2120                                                         411    0.07    0.00  1.0000
 -16   3  -2    1225    2144                                                        1232   -0.07    0.00  1.0000
 -16  -3   2    1790    2275                                                        1798    0.07    0.00  1.0000
 -16   3   2    1911    2443                                                        1920   -0.07    0.00  1.0000
 -16  -4  -2     822    2140                                                         839   -0.22    0.00  1.0000
 -16   4  -2    1191    2120                                                        1212   -0.22    0.00  1.0000
 -16  -4   2     268    2060                                                         278   -0.22    0.00  1.0000
 -16   4   2    1365    2241                                                        1387   -0.22    0.00  1.0000
 -16  -5  -2     462    2268                                                         414    0.84    0.00  1.0000
 -16   5  -2    1066    2089                                                         993   -0.84    0.00  1.0000
 -16  -5   2     987    2019                                                         917    0.84    0.00  1.0000
 -16   5   2    2451    2201                                                        2339   -0.84    0.00  1.0000
 -16  -6  -2    1871    2451                                                        1868   -0.03    0.00  1.0000
 -16   6  -2    1441    2133                                                        1438   -0.03    0.00  1.0000
 -16  -6   2     426    1963                                                         424   -0.03    0.00  1.0000
 -16   6   2     161    2073                                                         160   -0.03    0.00  1.0000
 -16  -7  -2       0    2088                                                           0    0.01    0.00  1.0000
 -16   7  -2       0    2040                                                           0   -0.01    0.00  1.0000
 -16  -7   2    1011    2133                                                        1012    0.01    0.00  1.0000
 -16   7   2     745    2165                                                         746   -0.01    0.00  1.0000
 -16  -8  -2       3    2137                                                           1    0.63    0.00  1.0000
 -16   8  -2       3    2178                                                           1    0.63    0.00  1.0000
 -16  -8   2      95    2117                                                          79    0.63    0.00  1.0000
 -16   8   2    1428    2339                                                        1364    0.63    0.00  1.0000
   0   0  -3   22257    2305                                                       21995    0.64    0.00  1.0000
   0  -2  -3    4288    1413                                                        4370    0.45    0.00  1.0000
   0   2  -3    2942    1298                                                        3010    0.45    0.00  1.0000
   0  -4  -3   11258    1950                                                       10992    0.92    0.00  1.0000
   0   4  -3   14319    2129                                                       14019    0.92    0.00  1.0000
   0  -6  -3   10042    1991                                                       10452    1.49    0.00  1.0000
   0   6  -3   10966    2017                                                       11395    1.49    0.00  1.0000
   0  -8  -3   27968    2549                                                       27490    1.05    0.00  1.0000
   0   8  -3   24995    2495                                                       24543    1.05    0.00  1.0000
   0 -10  -3    2237    1385                                                        2396    1.21    0.00  1.0000
   0 -10  -3    3611    1398                                                        3812    1.21    0.00  1.0000
   0  10  -3    1701    1303                                                        1840    1.21    0.00  1.0000
   0 -12  -3    3355    1527                                                        3189    1.07    0.00  1.0000
   0 -12  -3    4033    1494                                                        3850    1.07    0.00  1.0000
   0  12  -3    4054    1620                                                        3871    1.07    0.00  1.0000
   0 -14  -3     847    1388                                                         831   -0.20    0.00  1.0000
   0 -14  -3     243    1123                                                         235   -0.20    0.00  1.0000
   0  14  -3       2     923                                                           1   -0.20    0.00  1.0000
   0 -16  -3       1    1272                                                           1   -0.05    0.00  1.0000
   0 -16  -3    2302    1655                                                        2308   -0.05    0.00  1.0000
   0  16  -3    1365    1436                                                        1370   -0.05    0.00  1.0000
   0 -18  -3     173    1726                                                         170    0.09    0.00  1.0000
   0 -18  -3     684    1455                                                         677    0.09    0.00  1.0000
   0  18  -3      12    1185                                                          11    0.09    0.00  1.0000
   0 -20  -3     739    1710                                                         868   -1.67    0.00  1.0000
   0  20  -3     157    1489                                                         220   -1.67    0.00  1.0000
   0 -22  -3       2    1715                                                           1   -1.69    0.00  1.0000
   0  22  -3     177    1645                                                         244   -1.69    0.00  1.0000
  -1  -1  -3    6742    1785                                                        6882   -0.62    0.00  1.0000
  -1  -1  -3    6350    1613                                                        6486   -0.62    0.00  1.0000
  -1   1  -3    5788    1743                                                        5918   -0.62    0.00  1.0000
   1  -1  -3    7167    1867                                                        7311   -0.62    0.00  1.0000
   1   1  -3    5956    1782                                                        6088   -0.62    0.00  1.0000
  -1  -2  -3     444     930                                                         453    0.15    0.00  1.0000
  -1  -2  -3     697    1016                                                         708    0.15    0.00  1.0000
  -1   2  -3       1     760                                                           1   -0.15    0.00  1.0000
   1  -2  -3     354     846                                                         362   -0.15    0.00  1.0000
   1   2  -3    1027     969                                                        1040    0.15    0.00  1.0000
  -1  -3  -3    1084    1115                                                        1062   -0.24    0.00  1.0000
  -1  -3  -3    1779    1143                                                        1751   -0.24    0.00  1.0000
  -1   3  -3     784    1058                                                         766   -0.24    0.00  1.0000
   1  -3  -3    1185    1073                                                        1162   -0.24    0.00  1.0000
   1   3  -3     393     942                                                         380   -0.24    0.00  1.0000
  -1  -4  -3    1643    1104                                                        1622    0.19    0.00  1.0000
  -1  -4  -3    1268    1029                                                        1249    0.19    0.00  1.0000
  -1   4  -3     470     955                                                         459   -0.19    0.00  1.0000
   1  -4  -3    2853    1330                                                        2825   -0.19    0.00  1.0000
   1   4  -3    1797    1161                                                        1775    0.19    0.00  1.0000
  -1  -5  -3    3186    1353                                                        3324   -0.88    0.00  1.0000
  -1  -5  -3    2038    1257                                                        2148   -0.88    0.00  1.0000
  -1   5  -3    1900    1191                                                        2007   -0.88    0.00  1.0000
   1  -5  -3    2899    1351                                                        3030   -0.88    0.00  1.0000
   1   5  -3    2262    1230                                                        2378   -0.88    0.00  1.0000
  -1  -6  -3    4573    1544                                                        4622    0.27    0.00  1.0000
  -1  -6  -3    2770    1259                                                        2808    0.27    0.00  1.0000
  -1   6  -3    3220    1385                                                        3261   -0.27    0.00  1.0000
   1  -6  -3    3833    1445                                                        3878   -0.27    0.00  1.0000
   1   6  -3    1578    1093                                                        1607    0.27    0.00  1.0000
  -1  -7  -3     825    1153                                                         912   -1.09    0.00  1.0000
  -1  -7  -3     555     986                                                         627   -1.09    0.00  1.0000
  -1   7  -3     401    1062                                                         463   -1.09    0.00  1.0000
   1  -7  -3     690    1079                                                         770   -1.09    0.00  1.0000
   1   7  -3     447    1030                                                         512   -1.09    0.00  1.0000
  -1  -8  -3    5045    1580                                                        5033    0.06    0.00  1.0000
  -1  -8  -3    6997    1619                                                        6983    0.06    0.00  1.0000
  -1   8  -3    6979    1848                                                        6965   -0.06    0.00  1.0000
   1  -8  -3    7041    1792                                                        7027   -0.06    0.00  1.0000
   1   8  -3    5240    1636                                                        5228    0.06    0.00  1.0000
  -1  -9  -3     681    1144                                                         750   -0.95    0.00  1.0000
  -1  -9  -3     494    1065                                                         553   -0.95    0.00  1.0000
  -1   9  -3       0     996                                                           1   -0.95    0.00  1.0000
   1  -9  -3     890    1136                                                         969   -0.95    0.00  1.0000
   1   9  -3     595     981                                                         660   -0.95    0.00  1.0000
  -1 -10  -3    3976    1582                                                        3911   -0.38    0.00  1.0000
  -1 -10  -3    4312    1458                                                        4244   -0.38    0.00  1.0000
  -1  10  -3    4064    1617                                                        3998    0.38    0.00  1.0000
   1 -10  -3    3539    1569                                                        3478    0.38    0.00  1.0000
   1  10  -3    3256    1329                                                        3197   -0.38    0.00  1.0000
  -1 -11  -3    3048    1595                                                        3232   -1.20    0.00  1.0000
  -1 -11  -3    4335    1642                                                        4554   -1.20    0.00  1.0000
  -1  11  -3    3825    1678                                                        4031   -1.20    0.00  1.0000
   1 -11  -3    3063    1583                                                        3247   -1.20    0.00  1.0000
   1  11  -3    1905    1237                                                        2051   -1.20    0.00  1.0000
  -1 -12  -3    2546    1497                                                        2597   -0.37    0.00  1.0000
  -1 -12  -3    2256    1387                                                        2304   -0.37    0.00  1.0000
  -1  12  -3    2794    1527                                                        2848    0.37    0.00  1.0000
   1 -12  -3    3121    1615                                                        3178    0.37    0.00  1.0000
   1  12  -3    3018    1539                                                        3074   -0.37    0.00  1.0000
  -1 -13  -3      10    1096                                                           8   -0.19    0.00  1.0000
  -1 -13  -3     415    1180                                                         405   -0.19    0.00  1.0000
  -1  13  -3     494    1174                                                         483   -0.19    0.00  1.0000
   1 -13  -3     729    1295                                                         715   -0.19    0.00  1.0000
   1  13  -3     745    1358                                                         731   -0.19    0.00  1.0000
  -1 -14  -3       4    1221                                                           4    0.01    0.00  1.0000
  -1 -14  -3     626    1259                                                         626    0.01    0.00  1.0000
  -1  14  -3     144    1230                                                         144   -0.01    0.00  1.0000
   1 -14  -3       4    1230                                                           4   -0.01    0.00  1.0000
   1  14  -3     893    1173                                                         893    0.01    0.00  1.0000
  -1 -15  -3       6    1322                                                           3    0.53    0.00  1.0000
  -1 -15  -3       6    1196                                                           3    0.53    0.00  1.0000
  -1  15  -3       6    1240                                                           3    0.53    0.00  1.0000
   1 -15  -3       6    1362                                                           3    0.53    0.00  1.0000
   1  15  -3     951    1226                                                         907    0.53    0.00  1.0000
  -1 -16  -3    1573    1682                                                        1563    0.10    0.00  1.0000
  -1 -16  -3    1474    1408                                                        1464    0.10    0.00  1.0000
  -1  16  -3    1464    1315                                                        1454   -0.10    0.00  1.0000
   1 -16  -3     993    1490                                                         985   -0.10    0.00  1.0000
   1  16  -3     887    1284                                                         879    0.10    0.00  1.0000
  -1 -17  -3     902    1567                                                         932   -0.37    0.00  1.0000
  -1 -17  -3     310    1392                                                         328   -0.37    0.00  1.0000
  -1  17  -3     644    1218                                                         670   -0.37    0.00  1.0000
   1 -17  -3    1737    1673                                                        1779   -0.37    0.00  1.0000
   1  17  -3       0    1118                                                           0   -0.37    0.00  1.0000
  -1 -18  -3     612    1523                                                         593   -0.28    0.00  1.0000
  -1  18  -3    1748    1498                                                        1716    0.28    0.00  1.0000
   1 -18  -3     778    1680                                                         757    0.28    0.00  1.0000
   1  18  -3     452    2127                                                         436   -0.28    0.00  1.0000
  -1 -19  -3     220    1570                                                         204    0.39    0.00  1.0000
  -1  19  -3     676    1317                                                         648    0.39    0.00  1.0000
   1 -19  -3    1461    1866                                                        1420    0.39    0.00  1.0000
   1  19  -3      13    1197                                                           9    0.39    0.00  1.0000
  -1 -20  -3    2211    2026                                                        2318   -0.82    0.00  1.0000
  -1  20  -3     928    1510                                                         997    0.82    0.00  1.0000
   1 -20  -3    2303    2092                                                        2412    0.82    0.00  1.0000
   1  20  -3    2220    1681                                                        2327   -0.82    0.00  1.0000
  -1 -21  -3      49    1717                                                          90    1.84    0.00  1.0000
  -1  21  -3     133    1443                                                         198    1.84    0.00  1.0000
   1 -21  -3     104    1922                                                         162    1.84    0.00  1.0000
   1  21  -3      67    1466                                                         115    1.84    0.00  1.0000
  -1 -22  -3    1381    1770                                                        1298   -0.83    0.00  1.0000
  -1  22  -3     759    1638                                                         698    0.83    0.00  1.0000
   1 -22  -3     596    2010                                                         542    0.83    0.00  1.0000
   1  22  -3     555    1715                                                         503   -0.83    0.00  1.0000
  -2   0  -3     297     938                                                         335    0.79    0.00  1.0000
  -2   0  -3     403    1108                                                         447    0.79    0.00  1.0000
   2   0  -3     297     913                                                         335    0.79    0.00  1.0000
  -2  -1  -3     182     873                                                         192   -0.28    0.00  1.0000
  -2  -1  -3     299    1002                                                         312   -0.28    0.00  1.0000
  -2   1  -3     721    1011                                                         741    0.28    0.00  1.0000
  -2   1  -3     765    1103                                                         786    0.28    0.00  1.0000
   2  -1  -3      88     807                                                          95    0.28    0.00  1.0000
   2   1  -3     315     745                                                         328   -0.28    0.00  1.0000
  -2  -2  -3   10163    2005                                                       10173   -0.04    0.00  1.0000
  -2   2  -3    9645    2017                                                        9655   -0.04    0.00  1.0000
  -2   2  -3    7515    1725                                                        7524   -0.04    0.00  1.0000
   2  -2  -3    7033    1617                                                        7042   -0.04    0.00  1.0000
   2   2  -3    7900    1656                                                        7909   -0.04    0.00  1.0000
  -2  -3  -3    1260    1109                                                        1232   -0.29    0.00  1.0000
  -2   3  -3    1175    1020                                                        1148    0.29    0.00  1.0000
  -2   3  -3       3     993                                                           2    0.29    0.00  1.0000
   2  -3  -3    1418    1011                                                        1389    0.29    0.00  1.0000
   2   3  -3    1374    1005                                                        1345   -0.29    0.00  1.0000
  -2  -4  -3    6706    1632                                                        6618   -0.40    0.00  1.0000
  -2  -4  -3    8041    1647                                                        7944   -0.40    0.00  1.0000
  -2   4  -3    7206    1773                                                        7115   -0.40    0.00  1.0000
  -2   4  -3    8123    1782                                                        8026   -0.40    0.00  1.0000
   2  -4  -3    6958    1762                                                        6868   -0.40    0.00  1.0000
   2   4  -3    7581    1772                                                        7487   -0.40    0.00  1.0000
  -2  -5  -3    3377    1352                                                        3380   -0.02    0.00  1.0000
  -2  -5  -3    3960    1526                                                        3963   -0.02    0.00  1.0000
  -2   5  -3    2045    1271                                                        2047    0.02    0.00  1.0000
  -2   5  -3    3452    1474                                                        3455    0.02    0.00  1.0000
   2  -5  -3    2645    1268                                                        2647    0.02    0.00  1.0000
   2   5  -3    1843    1082                                                        1845   -0.02    0.00  1.0000
  -2  -6  -3   10988    1917                                                       10879    0.38    0.00  1.0000
  -2  -6  -3   12592    1909                                                       12475    0.38    0.00  1.0000
  -2   6  -3   12401    2088                                                       12285    0.38    0.00  1.0000
  -2   6  -3   12960    2056                                                       12841    0.38    0.00  1.0000
   2  -6  -3   12694    1968                                                       12576    0.38    0.00  1.0000
   2   6  -3   10337    1911                                                       10231    0.38    0.00  1.0000
  -2  -7  -3    1240    1118                                                        1237   -0.03    0.00  1.0000
  -2  -7  -3    1081    1075                                                        1079   -0.03    0.00  1.0000
  -2   7  -3     459    1063                                                         457    0.03    0.00  1.0000
  -2   7  -3    1215    1184                                                        1212    0.03    0.00  1.0000
   2  -7  -3     738    1040                                                         736    0.03    0.00  1.0000
   2   7  -3     554     883                                                         552   -0.03    0.00  1.0000
  -2  -8  -3    9053    2037                                                        9202    0.57    0.00  1.0000
  -2  -8  -3    8255    1842                                                        8397    0.57    0.00  1.0000
  -2   8  -3    6890    1874                                                        7020    0.57    0.00  1.0000
  -2   8  -3    8651    1967                                                        8796    0.57    0.00  1.0000
   2  -8  -3    7959    1909                                                        8098    0.57    0.00  1.0000
   2   8  -3    7188    1693                                                        7320    0.57    0.00  1.0000
  -2  -9  -3    2250    1253                                                        2209    0.32    0.00  1.0000
  -2  -9  -3    1078    1128                                                        1050    0.32    0.00  1.0000
  -2   9  -3    1086    1213                                                        1057   -0.32    0.00  1.0000
  -2   9  -3    1680    1323                                                        1644   -0.32    0.00  1.0000
   2  -9  -3    1319    1186                                                        1287   -0.32    0.00  1.0000
   2   9  -3    1008    1101                                                         980    0.32    0.00  1.0000
  -2 -10  -3   10981    2044                                                       10746    0.83    0.00  1.0000
  -2 -10  -3   13282    2102                                                       13024    0.83    0.00  1.0000
  -2  10  -3    9100    2043                                                        8886    0.83    0.00  1.0000
  -2  10  -3   10552    2207                                                       10322    0.83    0.00  1.0000
   2 -10  -3   10853    2081                                                       10620    0.83    0.00  1.0000
   2  10  -3   10390    1939                                                       10162    0.83    0.00  1.0000
  -2 -11  -3    1253    1245                                                        1189    0.67    0.00  1.0000
  -2 -11  -3     981    1107                                                         925    0.67    0.00  1.0000
  -2  11  -3      15    1030                                                           9   -0.67    0.00  1.0000
  -2  11  -3    1663    1416                                                        1589   -0.67    0.00  1.0000
   2 -11  -3      15    1056                                                           9   -0.67    0.00  1.0000
   2  11  -3     924    1009                                                         869    0.67    0.00  1.0000
  -2 -12  -3    5436    1842                                                        5536    0.50    0.00  1.0000
  -2 -12  -3    3072    1448                                                        3148    0.50    0.00  1.0000
  -2  12  -3    4566    1833                                                        4658    0.50    0.00  1.0000
   2 -12  -3    4448    1796                                                        4539    0.50    0.00  1.0000
   2  12  -3    2569    1522                                                        2638    0.50    0.00  1.0000
  -2 -13  -3       4    1058                                                           7    0.38    0.00  1.0000
  -2 -13  -3       4    1057                                                           7    0.38    0.00  1.0000
  -2  13  -3      75    1106                                                          84   -0.38    0.00  1.0000
   2 -13  -3     249    1274                                                         266   -0.38    0.00  1.0000
   2  13  -3     224    1032                                                         240    0.38    0.00  1.0000
  -2 -14  -3    1326    1464                                                        1407   -0.80    0.00  1.0000
  -2 -14  -3    1086    1408                                                        1159   -0.80    0.00  1.0000
  -2  14  -3     984    1403                                                        1054   -0.80    0.00  1.0000
   2 -14  -3    1117    1460                                                        1191   -0.80    0.00  1.0000
   2  14  -3    1456    1284                                                        1540   -0.80    0.00  1.0000
  -2 -15  -3    1011    1402                                                        1000    0.13    0.00  1.0000
  -2  15  -3     606    1293                                                         597   -0.13    0.00  1.0000
   2 -15  -3     962    1468                                                         951   -0.13    0.00  1.0000
   2  15  -3    1329    1227                                                        1316    0.13    0.00  1.0000
  -2 -16  -3    1516    1495                                                        1486   -0.28    0.00  1.0000
  -2  16  -3     834    1573                                                         812   -0.28    0.00  1.0000
   2 -16  -3    2010    1635                                                        1976   -0.28    0.00  1.0000
   2  16  -3     618    1268                                                         599   -0.28    0.00  1.0000
  -2 -17  -3    1395    1498                                                        1368    0.27    0.00  1.0000
  -2  17  -3    1869    1638                                                        1837   -0.27    0.00  1.0000
   2 -17  -3    1386    1672                                                        1359   -0.27    0.00  1.0000
   2  17  -3     537    1231                                                         520    0.27    0.00  1.0000
  -2 -18  -3    1001    1647                                                         942    0.69    0.00  1.0000
  -2  18  -3    1779    1620                                                        1700    0.69    0.00  1.0000
   2 -18  -3     822    1629                                                         769    0.69    0.00  1.0000
   2  18  -3    1501    1438                                                        1428    0.69    0.00  1.0000
  -2 -19  -3     434    1460                                                         471    0.64    0.00  1.0000
  -2  19  -3    1119    1491                                                        1178   -0.64    0.00  1.0000
   2 -19  -3     810    1792                                                         860   -0.64    0.00  1.0000
   2  19  -3       0    1149                                                           1    0.64    0.00  1.0000
  -2 -20  -3      22    1398                                                          15   -0.58    0.00  1.0000
  -2  20  -3      68    1377                                                          56   -0.58    0.00  1.0000
   2 -20  -3      22    1808                                                          15   -0.58    0.00  1.0000
   2  20  -3    1444    1443                                                        1385   -0.58    0.00  1.0000
  -2 -21  -3     402    1637                                                         351    0.96    0.00  1.0000
  -2  21  -3     782    1631                                                         710   -0.96    0.00  1.0000
   2 -21  -3     620    1980                                                         556   -0.96    0.00  1.0000
   2  21  -3    1890    1691                                                        1778    0.96    0.00  1.0000
  -2 -22  -3     617    1822                                                         693   -1.09    0.00  1.0000
  -2  22  -3     258    1700                                                         308   -1.09    0.00  1.0000
   2 -22  -3      62    2014                                                          87   -1.09    0.00  1.0000
   2  22  -3       0    1613                                                           4   -1.09    0.00  1.0000
  -3  -1  -3    2001    1127                                                        2001    0.00    0.00  1.0000
  -3  -1  -3    2244    1223                                                        2244    0.00    0.00  1.0000
  -3   1  -3     675     924                                                         675    0.00    0.00  1.0000
  -3   1  -3    1651    1053                                                        1651    0.00    0.00  1.0000
   3  -1  -3    1530     989                                                        1530    0.00    0.00  1.0000
   3   1  -3    1877    1044                                                        1877    0.00    0.00  1.0000
  -3  -2  -3    1052     961                                                        1008    0.50    0.00  1.0000
  -3  -2  -3     736    1015                                                         700    0.50    0.00  1.0000
  -3   2  -3    3894    1366                                                        3810   -0.50    0.00  1.0000
  -3   2  -3    1479    1041                                                        1427   -0.50    0.00  1.0000
   3  -2  -3    1579     983                                                        1526   -0.50    0.00  1.0000
   3   2  -3     829     997                                                         790    0.50    0.00  1.0000
  -3  -3  -3     787     964                                                         716    0.95    0.00  1.0000
  -3  -3  -3     852    1001                                                         778    0.95    0.00  1.0000
  -3   3  -3    1204    1045                                                        1116    0.95    0.00  1.0000
  -3   3  -3    1076    1060                                                         993    0.95    0.00  1.0000
   3  -3  -3     353     915                                                         306    0.95    0.00  1.0000
   3   3  -3    1052     871                                                         970    0.95    0.00  1.0000
  -3  -4  -3    1410    1095                                                        1385   -0.24    0.00  1.0000
  -3  -4  -3    1851    1139                                                        1823   -0.24    0.00  1.0000
  -3   4  -3     652     975                                                         635    0.24    0.00  1.0000
  -3   4  -3    2211    1286                                                        2180    0.24    0.00  1.0000
   3  -4  -3    1760    1120                                                        1733    0.24    0.00  1.0000
   3   4  -3    1856    1031                                                        1828   -0.24    0.00  1.0000
  -3  -4   3    1381     964                                                        1357   -0.24    0.00  1.0000
  -3  -5  -3    2655    1320                                                        2722    0.47    0.00  1.0000
  -3  -5  -3    2698    1305                                                        2766    0.47    0.00  1.0000
  -3   5  -3    2178    1300                                                        2239    0.47    0.00  1.0000
  -3   5  -3    1892    1265                                                        1949    0.47    0.00  1.0000
   3  -5  -3    3409    1479                                                        3485    0.47    0.00  1.0000
   3   5  -3    1427    1030                                                        1476    0.47    0.00  1.0000
  -3  -5   3    2442    1221                                                        2506    0.47    0.00  1.0000
  -3  -6  -3    3548    1387                                                        3624   -0.47    0.00  1.0000
  -3  -6  -3    5568    1671                                                        5664   -0.47    0.00  1.0000
  -3   6  -3    5769    1729                                                        5866    0.47    0.00  1.0000
  -3   6  -3    2981    1356                                                        3051    0.47    0.00  1.0000
   3  -6  -3    3989    1541                                                        4070    0.47    0.00  1.0000
   3   6  -3    4356    1549                                                        4441   -0.47    0.00  1.0000
  -3  -7  -3    2368    1258                                                        2365   -0.02    0.00  1.0000
  -3  -7  -3     838    1033                                                         836   -0.02    0.00  1.0000
  -3   7  -3     587    1048                                                         585   -0.02    0.00  1.0000
  -3   7  -3    1417    1322                                                        1415   -0.02    0.00  1.0000
   3  -7  -3    1286    1119                                                        1284   -0.02    0.00  1.0000
   3   7  -3    1422    1105                                                        1420   -0.02    0.00  1.0000
  -3  -8  -3     994    1128                                                         975   -0.22    0.00  1.0000
  -3  -8  -3    1750    1182                                                        1725   -0.22    0.00  1.0000
  -3   8  -3     959    1096                                                         940    0.22    0.00  1.0000
  -3   8  -3    1962    1339                                                        1935    0.22    0.00  1.0000
   3  -8  -3     259    1092                                                         249    0.22    0.00  1.0000
   3   8  -3     656     985                                                         640   -0.22    0.00  1.0000
  -3  -9  -3     734    1004                                                         735   -0.02    0.00  1.0000
  -3  -9  -3     448    1129                                                         449   -0.02    0.00  1.0000
  -3   9  -3    1686    1208                                                        1688   -0.02    0.00  1.0000
  -3   9  -3    1462    1364                                                        1464   -0.02    0.00  1.0000
   3  -9  -3     737    1071                                                         738   -0.02    0.00  1.0000
   3   9  -3     786     962                                                         787   -0.02    0.00  1.0000
  -3 -10  -3    3708    1542                                                        3813   -0.63    0.00  1.0000
  -3 -10  -3    3607    1631                                                        3710   -0.63    0.00  1.0000
  -3  10  -3    4541    1691                                                        4657    0.63    0.00  1.0000
  -3  10  -3    5162    1943                                                        5285    0.63    0.00  1.0000
   3 -10  -3    2827    1498                                                        2919    0.63    0.00  1.0000
   3  10  -3    4397    1622                                                        4511   -0.63    0.00  1.0000
  -3 -11  -3    4409    1493                                                        4335   -0.41    0.00  1.0000
  -3 -11  -3    3550    1568                                                        3484   -0.41    0.00  1.0000
  -3  11  -3    5634    1759                                                        5550   -0.41    0.00  1.0000
  -3  11  -3    6641    2009                                                        6550   -0.41    0.00  1.0000
   3 -11  -3    3884    1522                                                        3814   -0.41    0.00  1.0000
   3  11  -3    4156    1609                                                        4084   -0.41    0.00  1.0000
  -3 -12  -3      64    1171                                                          50   -0.70    0.00  1.0000
  -3  12  -3      10    1128                                                           5    0.70    0.00  1.0000
  -3  12  -3     460    1440                                                         420    0.70    0.00  1.0000
   3 -12  -3     908    1232                                                         851    0.70    0.00  1.0000
   3  12  -3     100     928                                                          82   -0.70    0.00  1.0000
  -3 -13  -3    1174    1459                                                        1145    0.31    0.00  1.0000
  -3  13  -3     604    1306                                                         583    0.31    0.00  1.0000
  -3  13  -3     687    1577                                                         665    0.31    0.00  1.0000
   3 -13  -3     320    1265                                                         305    0.31    0.00  1.0000
   3  13  -3     891    1156                                                         866    0.31    0.00  1.0000
  -3 -14  -3    4096    1765                                                        4159   -0.36    0.00  1.0000
  -3  14  -3    2553    1641                                                        2603    0.36    0.00  1.0000
  -3  14  -3    2962    1827                                                        3015    0.36    0.00  1.0000
   3 -14  -3    2369    1444                                                        2417    0.36    0.00  1.0000
   3  14  -3    2229    1342                                                        2275   -0.36    0.00  1.0000
  -3 -15  -3    1146    1575                                                        1237    0.97    0.00  1.0000
  -3  15  -3    1141    1519                                                        1232    0.97    0.00  1.0000
  -3  15  -3    1456    1815                                                        1559    0.97    0.00  1.0000
   3 -15  -3    1516    1563                                                        1621    0.97    0.00  1.0000
   3  15  -3    1820    1405                                                        1935    0.97    0.00  1.0000
  -3 -16  -3     320    1381                                                         301   -0.39    0.00  1.0000
  -3  16  -3       4    1325                                                           2    0.39    0.00  1.0000
  -3  16  -3     781    1789                                                         751    0.39    0.00  1.0000
   3 -16  -3       4    1299                                                           2    0.39    0.00  1.0000
   3  16  -3       4    1048                                                           2   -0.39    0.00  1.0000
  -3 -17  -3     366    1253                                                         381   -0.29    0.00  1.0000
  -3  17  -3       0    1386                                                           0   -0.29    0.00  1.0000
   3 -17  -3     369    1582                                                         384   -0.29    0.00  1.0000
   3  17  -3       0    1161                                                           0   -0.29    0.00  1.0000
  -3 -18  -3     947    1438                                                         975   -0.33    0.00  1.0000
  -3  18  -3    2464    1865                                                        2509    0.33    0.00  1.0000
   3 -18  -3    1363    1790                                                        1396    0.33    0.00  1.0000
   3  18  -3    2961    1855                                                        3010   -0.33    0.00  1.0000
  -3 -19  -3    1024    1623                                                         970   -0.62    0.00  1.0000
  -3  19  -3     429    1525                                                         395   -0.62    0.00  1.0000
   3 -19  -3     853    1716                                                         804   -0.62    0.00  1.0000
   3  19  -3     646    1379                                                         604   -0.62    0.00  1.0000
  -3 -20  -3     406    1664                                                         399   -0.13    0.00  1.0000
  -3  20  -3    1214    1755                                                        1201    0.13    0.00  1.0000
   3 -20  -3     435    1805                                                         427    0.13    0.00  1.0000
   3  20  -3     271    1505                                                         265   -0.13    0.00  1.0000
  -3 -21  -3      10    1767                                                           7    0.38    0.00  1.0000
  -3  21  -3      76    1741                                                          67    0.38    0.00  1.0000
   3 -21  -3     843    2064                                                         813    0.38    0.00  1.0000
   3  21  -3      10    1631                                                           7    0.38    0.00  1.0000
  -3 -22  -3    3793    2308                                                        3814   -0.13    0.00  1.0000
  -3  22  -3    3104    2204                                                        3123    0.13    0.00  1.0000
   3 -22  -3    3497    2317                                                        3518    0.13    0.00  1.0000
   3  22  -3    1108    1949                                                        1120   -0.13    0.00  1.0000
  -4   0  -3     409    1015                                                         434   -0.45    0.00  1.0000
  -4   0  -3    2216    1242                                                        2275   -0.45    0.00  1.0000
   4   0  -3     541    1007                                                         570   -0.45    0.00  1.0000
  -4  -1  -3    3093    1258                                                        3045   -0.32    0.00  1.0000
  -4  -1  -3    3800    1369                                                        3747   -0.32    0.00  1.0000
  -4   1  -3    3402    1354                                                        3352    0.32    0.00  1.0000
  -4   1  -3    4280    1492                                                        4224    0.32    0.00  1.0000
   4  -1  -3    4260    1464                                                        4204    0.32    0.00  1.0000
   4   1  -3    3486    1325                                                        3435   -0.32    0.00  1.0000
  -4  -2  -3   22087    2337                                                       21747   -0.84    0.00  1.0000
  -4  -2  -3   20596    2226                                                       20267   -0.84    0.00  1.0000
  -4   2  -3   18523    2236                                                       18211   -0.84    0.00  1.0000
  -4   2  -3   23083    2314                                                       22735   -0.84    0.00  1.0000
   4  -2  -3   17877    2155                                                       17571   -0.84    0.00  1.0000
   4   2  -3   17059    2081                                                       16760   -0.84    0.00  1.0000
  -4  -2   3   17854    2133                                                       17548   -0.84    0.00  1.0000
  -4  -3  -3    4334    1451                                                        4304    0.17    0.00  1.0000
  -4  -3  -3    6087    1634                                                        6052    0.17    0.00  1.0000
  -4   3  -3    5557    1655                                                        5523   -0.17    0.00  1.0000
  -4   3  -3    5485    1681                                                        5451   -0.17    0.00  1.0000
   4  -3  -3    4719    1633                                                        4688   -0.17    0.00  1.0000
   4   3  -3    4969    1599                                                        4937    0.17    0.00  1.0000
  -4  -3   3    4446    1521                                                        4416    0.17    0.00  1.0000
  -4  -4  -3    1038    1028                                                        1092   -0.61    0.00  1.0000
  -4  -4  -3     994    1098                                                        1047   -0.61    0.00  1.0000
  -4   4  -3    1564    1259                                                        1630   -0.61    0.00  1.0000
  -4   4  -3     853    1264                                                         902   -0.61    0.00  1.0000
   4  -4  -3    2084    1275                                                        2161   -0.61    0.00  1.0000
   4   4  -3    1430    1138                                                        1494   -0.61    0.00  1.0000
  -4  -4   3     825    1104                                                         874   -0.61    0.00  1.0000
  -4  -5  -3    3614    1406                                                        3739    0.76    0.00  1.0000
  -4  -5  -3    3881    1491                                                        4011    0.76    0.00  1.0000
  -4   5  -3    2967    1514                                                        3080   -0.76    0.00  1.0000
  -4   5  -3    3726    1606                                                        3853   -0.76    0.00  1.0000
   4  -5  -3    2309    1340                                                        2409   -0.76    0.00  1.0000
   4   5  -3    2930    1418                                                        3043    0.76    0.00  1.0000
  -4  -5   3    2729    1367                                                        2838    0.76    0.00  1.0000
  -4  -6  -3   11938    1910                                                       11931   -0.02    0.00  1.0000
  -4  -6  -3   12974    2031                                                       12967   -0.02    0.00  1.0000
  -4   6  -3   13802    2156                                                       13794   -0.02    0.00  1.0000
  -4   6  -3   12511    2301                                                       12504   -0.02    0.00  1.0000
   4  -6  -3   13183    2045                                                       13176   -0.02    0.00  1.0000
   4   6  -3   12137    1912                                                       12130   -0.02    0.00  1.0000
  -4  -6   3   13468    2028                                                       13461   -0.02    0.00  1.0000
  -4  -7  -3    2079    1202                                                        2076    0.03    0.00  1.0000
  -4  -7  -3    2813    1346                                                        2809    0.03    0.00  1.0000
  -4   7  -3    2550    1334                                                        2546   -0.03    0.00  1.0000
  -4   7  -3    4408    1633                                                        4403   -0.03    0.00  1.0000
   4  -7  -3    2307    1277                                                        2303   -0.03    0.00  1.0000
   4   7  -3    2278    1139                                                        2274    0.03    0.00  1.0000
  -4  -7   3    2621    1477                                                        2617    0.03    0.00  1.0000
  -4  -8  -3     966    1148                                                        1013   -0.55    0.00  1.0000
  -4  -8  -3    1074    1225                                                        1123   -0.55    0.00  1.0000
  -4   8  -3     573    1171                                                         609   -0.55    0.00  1.0000
  -4   8  -3     545    1326                                                         580   -0.55    0.00  1.0000
   4  -8  -3    1502    1308                                                        1560   -0.55    0.00  1.0000
   4   8  -3     967    1170                                                        1014   -0.55    0.00  1.0000
  -4  -9  -3     736    1127                                                         752    0.21    0.00  1.0000
  -4   9  -3     672    1211                                                         687   -0.21    0.00  1.0000
  -4   9  -3     475    1342                                                         488   -0.21    0.00  1.0000
   4  -9  -3     181    1094                                                         189   -0.21    0.00  1.0000
   4   9  -3     346    1007                                                         357    0.21    0.00  1.0000
  -4 -10  -3    9390    2027                                                        9277   -0.43    0.00  1.0000
  -4  10  -3    6210    1892                                                        6118   -0.43    0.00  1.0000
  -4  10  -3    9588    2209                                                        9473   -0.43    0.00  1.0000
   4 -10  -3    8861    1941                                                        8751   -0.43    0.00  1.0000
   4  10  -3    9349    1815                                                        9236   -0.43    0.00  1.0000
  -4 -11  -3     293    1129                                                         248    1.00    0.00  1.0000
  -4  11  -3     773    1255                                                         699   -1.00    0.00  1.0000
  -4  11  -3    1307    1415                                                        1210   -1.00    0.00  1.0000
   4 -11  -3      30    1159                                                          17   -1.00    0.00  1.0000
   4  11  -3     694    1093                                                         624    1.00    0.00  1.0000
  -4 -12  -3     197    1141                                                         195    0.06    0.00  1.0000
  -4  12  -3    1062    1365                                                        1056    0.06    0.00  1.0000
  -4  12  -3    1585    1620                                                        1578    0.06    0.00  1.0000
   4 -12  -3    1097    1303                                                        1091    0.06    0.00  1.0000
   4  12  -3     835    1121                                                         830    0.06    0.00  1.0000
  -4 -13  -3     251    1146                                                         232    0.44    0.00  1.0000
  -4  13  -3     328    1239                                                         307   -0.44    0.00  1.0000
  -4  13  -3     315    1504                                                         294   -0.44    0.00  1.0000
   4 -13  -3     408    1248                                                         384   -0.44    0.00  1.0000
   4  13  -3     684    1057                                                         653    0.44    0.00  1.0000
  -4 -14  -3     761    1246                                                         713   -0.65    0.00  1.0000
  -4  14  -3    4396    1835                                                        4280   -0.65    0.00  1.0000
  -4  14  -3    5759    2235                                                        5626   -0.65    0.00  1.0000
   4 -14  -3    5584    2032                                                        5453   -0.65    0.00  1.0000
   4  14  -3    4311    1784                                                        4196   -0.65    0.00  1.0000
  -4 -15  -3     342    1312                                                         349   -0.14    0.00  1.0000
  -4  15  -3     320    1336                                                         327    0.14    0.00  1.0000
  -4  15  -3    1259    1746                                                        1273    0.14    0.00  1.0000
   4 -15  -3       1    1243                                                           1    0.14    0.00  1.0000
   4  15  -3     350    1149                                                         357   -0.14    0.00  1.0000
  -4 -16  -3     707    1468                                                         743   -0.49    0.00  1.0000
  -4  16  -3       4    1392                                                           7   -0.49    0.00  1.0000
  -4  16  -3     343    1759                                                         368   -0.49    0.00  1.0000
   4 -16  -3      10    1399                                                          15   -0.49    0.00  1.0000
   4  16  -3     677    1344                                                         712   -0.49    0.00  1.0000
  -4 -17  -3    1091    1580                                                        1089   -0.03    0.00  1.0000
  -4  17  -3     695    1595                                                         693    0.03    0.00  1.0000
  -4  17  -3     535    1944                                                         533    0.03    0.00  1.0000
   4 -17  -3     318    1576                                                         317    0.03    0.00  1.0000
   4  17  -3     229    1397                                                         228   -0.03    0.00  1.0000
  -4 -18  -3      26    1438                                                          34    0.56    0.00  1.0000
  -4  18  -3     334    1686                                                         362    0.56    0.00  1.0000
   4 -18  -3     281    1637                                                         307    0.56    0.00  1.0000
   4  18  -3     580    1545                                                         617    0.56    0.00  1.0000
  -4 -19  -3     899    1659                                                         928   -0.35    0.00  1.0000
  -4  19  -3    1222    1787                                                        1256    0.35    0.00  1.0000
   4 -19  -3       2    1669                                                           3    0.35    0.00  1.0000
   4  19  -3    1521    1548                                                        1559   -0.35    0.00  1.0000
  -4 -20  -3     535    1690                                                         554    0.30    0.00  1.0000
  -4  20  -3     297    1747                                                         311    0.30    0.00  1.0000
   4 -20  -3     195    1836                                                         206    0.30    0.00  1.0000
   4  20  -3      17    1584                                                          21    0.30    0.00  1.0000
  -4 -21  -3       3    1776                                                           7   -0.74    0.00  1.0000
  -4  21  -3      11    1821                                                          19    0.74    0.00  1.0000
   4 -21  -3       3    1862                                                           7    0.74    0.00  1.0000
   4  21  -3     294    1715                                                         330   -0.74    0.00  1.0000
  -5  -1  -3    1881    1150                                                        1945    0.54    0.00  1.0000
  -5  -1  -3    3048    1441                                                        3130    0.54    0.00  1.0000
  -5   1  -3    2849    1400                                                        2928    0.54    0.00  1.0000
  -5   1  -3    2549    1426                                                        2624    0.54    0.00  1.0000
   5  -1  -3    1959    1153                                                        2025    0.54    0.00  1.0000
   5   1  -3    1850    1133                                                        1914    0.54    0.00  1.0000
  -5  -1   3    2718    1468                                                        2795    0.54    0.00  1.0000
  -5  -2  -3    1158    1055                                                        1137   -0.23    0.00  1.0000
  -5  -2  -3     797    1233                                                         779   -0.23    0.00  1.0000
  -5   2  -3    1057    1148                                                        1037    0.23    0.00  1.0000
  -5   2  -3     863    1135                                                         845    0.23    0.00  1.0000
   5  -2  -3    1130    1001                                                        1109    0.23    0.00  1.0000
   5   2  -3     633     976                                                         617   -0.23    0.00  1.0000
  -5  -2   3    1448    1231                                                        1424   -0.23    0.00  1.0000
  -5  -3  -3    3716    1516                                                        3777    0.36    0.00  1.0000
  -5  -3  -3    4428    1660                                                        4494    0.36    0.00  1.0000
  -5   3  -3    3958    1545                                                        4020    0.36    0.00  1.0000
  -5   3  -3    3234    1553                                                        3291    0.36    0.00  1.0000
   5  -3  -3    3637    1525                                                        3697    0.36    0.00  1.0000
   5   3  -3    3195    1395                                                        3251    0.36    0.00  1.0000
  -5  -3   3    2645    1474                                                        2696    0.36    0.00  1.0000
  -5  -4  -3    1401    1142                                                        1485   -0.81    0.00  1.0000
  -5  -4  -3     926    1133                                                         995   -0.81    0.00  1.0000
  -5   4  -3    1235    1245                                                        1314    0.81    0.00  1.0000
  -5   4  -3    3072    1447                                                        3196    0.81    0.00  1.0000
   5  -4  -3     550    1041                                                         603    0.81    0.00  1.0000
   5   4  -3    1236    1087                                                        1315   -0.81    0.00  1.0000
  -5  -4   3    1553    1276                                                        1642   -0.81    0.00  1.0000
  -5  -5  -3    2041    1272                                                        2003   -0.31    0.00  1.0000
  -5  -5  -3    1178    1210                                                        1149   -0.31    0.00  1.0000
  -5   5  -3     692    1164                                                         670   -0.31    0.00  1.0000
  -5   5  -3    2230    1483                                                        2190   -0.31    0.00  1.0000
   5  -5  -3    1695    1234                                                        1660   -0.31    0.00  1.0000
   5   5  -3    1324    1036                                                        1293   -0.31    0.00  1.0000
  -5  -5   3    1061    1202                                                        1033   -0.31    0.00  1.0000
  -5  -6  -3    1779    1302                                                        1817    0.33    0.00  1.0000
  -5   6  -3    1215    1278                                                        1247   -0.33    0.00  1.0000
  -5   6  -3    1240    1318                                                        1272   -0.33    0.00  1.0000
   5  -6  -3    1288    1248                                                        1321   -0.33    0.00  1.0000
   5   6  -3     561     958                                                         583    0.33    0.00  1.0000
  -5  -6   3     893    1232                                                         920    0.33    0.00  1.0000
  -5  -7  -3     763    1158                                                         772    0.12    0.00  1.0000
  -5   7  -3    1116    1144                                                        1127    0.12    0.00  1.0000
  -5   7  -3     147    1252                                                         151    0.12    0.00  1.0000
   5  -7  -3     698    1180                                                         706    0.12    0.00  1.0000
   5   7  -3      59     878                                                          61    0.12    0.00  1.0000
  -5  -7   3     599    1289                                                         607    0.12    0.00  1.0000
  -5  -8  -3      91    1015                                                         119    0.99    0.00  1.0000
  -5   8  -3       2    1036                                                           0   -0.99    0.00  1.0000
  -5   8  -3       2    1343                                                           0   -0.99    0.00  1.0000
   5  -8  -3     251    1085                                                         296   -0.99    0.00  1.0000
   5   8  -3     381    1010                                                         436    0.99    0.00  1.0000
  -5  -8   3       2    1180                                                           0    0.99    0.00  1.0000
  -5  -9  -3       2     987                                                           6    0.86    0.00  1.0000
  -5   9  -3    3155    1639                                                        3289    0.86    0.00  1.0000
  -5   9  -3    3829    1971                                                        3976    0.86    0.00  1.0000
   5  -9  -3    3968    1638                                                        4118    0.86    0.00  1.0000
   5   9  -3    4711    1668                                                        4874    0.86    0.00  1.0000
  -5 -10  -3     227     994                                                         198   -0.73    0.00  1.0000
  -5  10  -3     237    1078                                                         207    0.73    0.00  1.0000
  -5  10  -3     976    1416                                                         915    0.73    0.00  1.0000
   5 -10  -3     344    1135                                                         308    0.73    0.00  1.0000
   5  10  -3     107     900                                                          87   -0.73    0.00  1.0000
  -5 -11  -3     613    1238                                                         588    0.37    0.00  1.0000
  -5  11  -3      13    1171                                                          10    0.37    0.00  1.0000
  -5  11  -3     256    1474                                                         240    0.37    0.00  1.0000
   5 -11  -3     542    1267                                                         519    0.37    0.00  1.0000
   5  11  -3       4     977                                                           2    0.37    0.00  1.0000
  -5 -12  -3     820    1332                                                         903   -1.03    0.00  1.0000
  -5  12  -3     437    1303                                                         498    1.03    0.00  1.0000
  -5  12  -3    1289    1638                                                        1392    1.03    0.00  1.0000
   5 -12  -3     571    1545                                                         640    1.03    0.00  1.0000
   5  12  -3      11     996                                                          22   -1.03    0.00  1.0000
  -5 -13  -3    6714    2002                                                        6794    0.36    0.00  1.0000
  -5  13  -3    6016    1967                                                        6092    0.36    0.00  1.0000
  -5  13  -3    7749    2613                                                        7835    0.36    0.00  1.0000
   5 -13  -3    3990    1742                                                        4052    0.36    0.00  1.0000
   5  13  -3    6994    2021                                                        7076    0.36    0.00  1.0000
  -5 -14  -3    1762    1569                                                        1845    0.72    0.00  1.0000
  -5  14  -3    1672    1611                                                        1753   -0.72    0.00  1.0000
  -5  14  -3    1737    1919                                                        1820   -0.72    0.00  1.0000
   5 -14  -3     719    1391                                                         773   -0.72    0.00  1.0000
   5  14  -3     480    1176                                                         524    0.72    0.00  1.0000
  -5 -15  -3    1254    1418                                                        1190    0.67    0.00  1.0000
  -5  15  -3     570    1466                                                         527    0.67    0.00  1.0000
  -5  15  -3    1858    1902                                                        1780    0.67    0.00  1.0000
   5 -15  -3    1020    1441                                                         962    0.67    0.00  1.0000
   5  15  -3    1746    1428                                                        1670    0.67    0.00  1.0000
  -5 -16  -3     737    1518                                                         650    1.21    0.00  1.0000
  -5  16  -3     768    1695                                                         679   -1.21    0.00  1.0000
  -5  16  -3    2041    1960                                                        1894   -1.21    0.00  1.0000
   5 -16  -3      39    1441                                                          21   -1.21    0.00  1.0000
   5  16  -3      31    1305                                                          15    1.21    0.00  1.0000
  -5 -17  -3    1194    1565                                                        1173   -0.23    0.00  1.0000
  -5  17  -3    1556    1803                                                        1532   -0.23    0.00  1.0000
  -5  17  -3    2446    2102                                                        2416   -0.23    0.00  1.0000
   5 -17  -3    2399    1806                                                        2369   -0.23    0.00  1.0000
   5  17  -3    1242    1477                                                        1220   -0.23    0.00  1.0000
  -5 -18  -3     939    1674                                                        1004    0.77    0.00  1.0000
  -5  18  -3    2047    1812                                                        2143   -0.77    0.00  1.0000
  -5  18  -3    2617    2249                                                        2725   -0.77    0.00  1.0000
   5 -18  -3    2060    1742                                                        2156   -0.77    0.00  1.0000
   5  18  -3      37    1423                                                          51    0.77    0.00  1.0000
  -5 -19  -3    1276    1839                                                        1328   -0.52    0.00  1.0000
  -5  19  -3    1302    1998                                                        1354   -0.52    0.00  1.0000
   5 -19  -3     318    1742                                                         344   -0.52    0.00  1.0000
   5  19  -3    1250    1726                                                        1301   -0.52    0.00  1.0000
  -5 -20  -3     410    1723                                                         363    0.87    0.00  1.0000
  -5  20  -3     300    1748                                                         260   -0.87    0.00  1.0000
   5 -20  -3     331    1857                                                         289   -0.87    0.00  1.0000
   5  20  -3    1483    1649                                                        1393    0.87    0.00  1.0000
  -5 -21  -3    1926    2037                                                        1924   -0.02    0.00  1.0000
  -5  21  -3    2256    2112                                                        2254   -0.02    0.00  1.0000
   5 -21  -3    1372    2017                                                        1370   -0.02    0.00  1.0000
   5  21  -3     665    1863                                                         664   -0.02    0.00  1.0000
  -6   0  -3   11939    2066                                                       12023    0.28    0.00  1.0000
  -6   0  -3    7445    1933                                                        7511    0.28    0.00  1.0000
   6   0  -3   11403    2006                                                       11485    0.28    0.00  1.0000
  -6   0   3    9983    2050                                                       10060    0.28    0.00  1.0000
  -6  -1  -3    9511    1938                                                        9438    0.27    0.00  1.0000
  -6  -1  -3      11     945                                                           9    0.27    0.00  1.0000
  -6   1  -3    7440    1852                                                        7376   -0.27    0.00  1.0000
  -6   1  -3    7677    1925                                                        7612   -0.27    0.00  1.0000
   6  -1  -3    9513    1811                                                        9440   -0.27    0.00  1.0000
   6   1  -3    6746    1642                                                        6685    0.27    0.00  1.0000
  -6  -1   3    8328    1913                                                        8260    0.27    0.00  1.0000
  -6   1   3    8228    1998                                                        8160   -0.27    0.00  1.0000
  -6  -2  -3       4     939                                                           3    0.13    0.00  1.0000
  -6   2  -3    4487    1569                                                        4464    0.13    0.00  1.0000
  -6   2  -3    3460    1474                                                        3440    0.13    0.00  1.0000
   6  -2  -3    2625    1161                                                        2608    0.13    0.00  1.0000
   6   2  -3    3564    1467                                                        3544    0.13    0.00  1.0000
  -6  -2   3    3650    1627                                                        3629    0.13    0.00  1.0000
  -6  -3  -3       1     785                                                           5    0.91    0.00  1.0000
  -6   3  -3    6178    1771                                                        6376   -0.91    0.00  1.0000
  -6   3  -3    7593    2010                                                        7812   -0.91    0.00  1.0000
   6  -3  -3    5881    1598                                                        6074   -0.91    0.00  1.0000
   6   3  -3    7223    1838                                                        7437    0.91    0.00  1.0000
  -6  -3   3    8166    1975                                                        8393    0.91    0.00  1.0000
  -6  -4  -3    1675    1165                                                        1702    0.24    0.00  1.0000
  -6   4  -3    6030    1692                                                        6082    0.24    0.00  1.0000
  -6   4  -3    6276    1889                                                        6329    0.24    0.00  1.0000
   6  -4  -3    4411    1437                                                        4455    0.24    0.00  1.0000
   6   4  -3    6319    1777                                                        6372    0.24    0.00  1.0000
  -6  -4   3    4384    1546                                                        4428    0.24    0.00  1.0000
  -6  -5  -3    1306    1070                                                        1318   -0.12    0.00  1.0000
  -6   5  -3    1312    1223                                                        1324    0.12    0.00  1.0000
  -6   5  -3    1827    1397                                                        1841    0.12    0.00  1.0000
   6  -5  -3    1401    1171                                                        1413    0.12    0.00  1.0000
   6   5  -3     172     915                                                         176   -0.12    0.00  1.0000
  -6  -5   3    1511    1294                                                        1524   -0.12    0.00  1.0000
  -6  -6  -3     678    1091                                                         656    0.32    0.00  1.0000
  -6   6  -3     365    1104                                                         349    0.32    0.00  1.0000
  -6   6  -3     517    1332                                                         498    0.32    0.00  1.0000
   6  -6  -3    1066     988                                                        1038    0.32    0.00  1.0000
   6   6  -3       5     837                                                           3    0.32    0.00  1.0000
  -6  -6   3     619    1137                                                         598    0.32    0.00  1.0000
  -6  -7  -3    2080    1380                                                        1826   -2.11    0.00  1.0000
  -6   7  -3    1620    1337                                                        1397    2.11    0.00  1.0000
  -6   7  -3    1376    1397                                                        1171    2.11    0.00  1.0000
   6  -7  -3     907    1026                                                         742    2.11    0.00  1.0000
   6   7  -3    1549    1083                                                        1331   -2.11    0.00  1.0000
  -6  -7   3    1533    1317                                                        1316   -2.11    0.00  1.0000
  -6  -8  -3     856    1140                                                         842   -0.17    0.00  1.0000
  -6   8  -3     880    1208                                                         866   -0.17    0.00  1.0000
  -6   8  -3    2071    1624                                                        2049   -0.17    0.00  1.0000
   6  -8  -3     783    1185                                                         770   -0.17    0.00  1.0000
   6   8  -3     918    1200                                                         904   -0.17    0.00  1.0000
  -6  -8   3    1098    1385                                                        1082   -0.17    0.00  1.0000
  -6  -9  -3     460    1224                                                         411   -0.85    0.00  1.0000
  -6   9  -3     314    1245                                                         274    0.85    0.00  1.0000
  -6   9  -3     351    1394                                                         309    0.85    0.00  1.0000
   6  -9  -3       1    1076                                                           0    0.85    0.00  1.0000
   6   9  -3       1     957                                                           0   -0.85    0.00  1.0000
  -6  -9   3    1515    1387                                                        1426   -0.85    0.00  1.0000
  -6 -10  -3    1095    1355                                                        1116   -0.23    0.00  1.0000
  -6  10  -3       0    1169                                                           0   -0.23    0.00  1.0000
  -6  10  -3     795    1443                                                         813   -0.23    0.00  1.0000
   6 -10  -3      39    1215                                                          43   -0.23    0.00  1.0000
   6  10  -3     584    1036                                                         599   -0.23    0.00  1.0000
  -6 -11  -3    1753    1587                                                        1893    1.21    0.00  1.0000
  -6  11  -3    2697    1757                                                        2871   -1.21    0.00  1.0000
  -6  11  -3    1188    1549                                                        1304   -1.21    0.00  1.0000
   6 -11  -3     559    1315                                                         640   -1.21    0.00  1.0000
   6  11  -3     636    1094                                                         722    1.21    0.00  1.0000
  -6 -12  -3    4441    1827                                                        4364   -0.43    0.00  1.0000
  -6  12  -3    5054    1971                                                        4972   -0.43    0.00  1.0000
  -6  12  -3    1167    1601                                                        1128   -0.43    0.00  1.0000
   6 -12  -3    6354    2077                                                        6262   -0.43    0.00  1.0000
   6  12  -3    7147    2093                                                        7049   -0.43    0.00  1.0000
  -6 -13  -3    1550    1503                                                        1570   -0.19    0.00  1.0000
  -6  13  -3     181    1465                                                         188    0.19    0.00  1.0000
  -6  13  -3     248    1435                                                         256    0.19    0.00  1.0000
   6 -13  -3       7    1282                                                           8    0.19    0.00  1.0000
   6  13  -3       7    1160                                                           8   -0.19    0.00  1.0000
  -6 -14  -3    1656    1556                                                        1778   -1.08    0.00  1.0000
  -6  14  -3    1455    1717                                                        1569   -1.08    0.00  1.0000
  -6  14  -3     220    1614                                                         266   -1.08    0.00  1.0000
   6 -14  -3     501    1370                                                         569   -1.08    0.00  1.0000
   6  14  -3    1104    1280                                                        1204   -1.08    0.00  1.0000
  -6 -15  -3    1823    1618                                                        1600   -1.97    0.00  1.0000
  -6  15  -3    2279    1705                                                        2029    1.97    0.00  1.0000
  -6  15  -3     644    1562                                                         514    1.97    0.00  1.0000
   6 -15  -3     405    1395                                                         304    1.97    0.00  1.0000
   6  15  -3    2056    1563                                                        1819   -1.97    0.00  1.0000
  -6 -16  -3    2773    1892                                                        2739   -0.24    0.00  1.0000
  -6  16  -3    1600    1775                                                        1574   -0.24    0.00  1.0000
  -6  16  -3     822    1625                                                         804   -0.24    0.00  1.0000
   6 -16  -3     894    1571                                                         875   -0.24    0.00  1.0000
   6  16  -3    1443    1515                                                        1419   -0.24    0.00  1.0000
  -6 -17  -3     428    1702                                                         521   -1.57    0.00  1.0000
  -6  17  -3       5    1633                                                          20    1.57    0.00  1.0000
  -6  17  -3     390    1885                                                         479    1.57    0.00  1.0000
   6 -17  -3       0    1523                                                           5    1.57    0.00  1.0000
   6  17  -3     214    1434                                                         281   -1.57    0.00  1.0000
  -6 -18  -3    1195    1810                                                        1108    0.93    0.00  1.0000
  -6  18  -3    1135    1879                                                        1051    0.93    0.00  1.0000
  -6  18  -3    1057    2003                                                         976    0.93    0.00  1.0000
   6 -18  -3     430    1665                                                         379    0.93    0.00  1.0000
   6  18  -3      24    1202                                                          13    0.93    0.00  1.0000
  -6 -19  -3      30    1890                                                          18   -0.89    0.00  1.0000
  -6  19  -3      30    1877                                                          18    0.89    0.00  1.0000
  -6  19  -3     813    2288                                                         746    0.89    0.00  1.0000
   6 -19  -3      30    1638                                                          18    0.89    0.00  1.0000
   6  19  -3     559    1708                                                         503   -0.89    0.00  1.0000
  -6 -20  -3    1116    1906                                                        1140    0.26    0.00  1.0000
  -6  20  -3     231    2006                                                         242    0.26    0.00  1.0000
   6 -20  -3     902    1900                                                         924    0.26    0.00  1.0000
   6  20  -3     466    1594                                                         482    0.26    0.00  1.0000
  -7  -1  -3     469    1232                                                         521   -0.86    0.00  1.0000
  -7   1  -3      62    1171                                                          82   -0.86    0.00  1.0000
   7  -1  -3     144     917                                                         173   -0.86    0.00  1.0000
   7   1  -3      57     894                                                          76   -0.86    0.00  1.0000
  -7  -1   3      97    1211                                                         121   -0.86    0.00  1.0000
  -7   1   3     168    1204                                                         200   -0.86    0.00  1.0000
  -7  -2  -3     144    1140                                                         121   -0.72    0.00  1.0000
  -7   2  -3      43     962                                                          31    0.72    0.00  1.0000
  -7   2  -3     105    1161                                                          86    0.72    0.00  1.0000
   7  -2  -3     345     903                                                         309    0.72    0.00  1.0000
   7   2  -3      43     729                                                          31   -0.72    0.00  1.0000
  -7  -2   3      21    1135                                                          13   -0.72    0.00  1.0000
  -7   2   3      43    1211                                                          31    0.72    0.00  1.0000
  -7  -3  -3     650    1173                                                         650    0.01    0.00  1.0000
  -7   3  -3    1851    1233                                                        1852    0.01    0.00  1.0000
  -7   3  -3      97    1207                                                          97    0.01    0.00  1.0000
   7  -3  -3     765     942                                                         765    0.01    0.00  1.0000
   7   3  -3     529     989                                                         529    0.01    0.00  1.0000
  -7  -3   3     231    1219                                                         231    0.01    0.00  1.0000
  -7   3   3     561    1259                                                         561    0.01    0.00  1.0000
  -7  -4  -3     238    1172                                                         259   -0.49    0.00  1.0000
  -7   4  -3       0    1133                                                           0    0.49    0.00  1.0000
  -7   4  -3     137    1206                                                         153    0.49    0.00  1.0000
   7  -4  -3     273     899                                                         296    0.49    0.00  1.0000
   7   4  -3     407    1002                                                         435   -0.49    0.00  1.0000
  -7  -4   3       0    1139                                                           0   -0.49    0.00  1.0000
  -7  -5  -3    1238    1264                                                        1212    0.27    0.00  1.0000
  -7   5  -3     863    1134                                                         842    0.27    0.00  1.0000
  -7   5  -3      14    1141                                                          11    0.27    0.00  1.0000
   7  -5  -3     988     902                                                         965    0.27    0.00  1.0000
   7   5  -3     738     972                                                         718    0.27    0.00  1.0000
  -7  -5   3    1075    1406                                                        1051    0.27    0.00  1.0000
  -7  -6  -3     301    1175                                                         389    1.73    0.00  1.0000
  -7   6  -3      10    1073                                                          30   -1.73    0.00  1.0000
  -7   6  -3    1122    1288                                                        1286   -1.73    0.00  1.0000
   7  -6  -3       2     821                                                           1   -1.73    0.00  1.0000
   7   6  -3       2     898                                                           1    1.73    0.00  1.0000
  -7  -6   3       2    1299                                                           1    1.73    0.00  1.0000
  -7  -7  -3     137    1210                                                         131   -0.19    0.00  1.0000
  -7   7  -3       3    1123                                                           2   -0.19    0.00  1.0000
  -7   7  -3     869    1416                                                         854   -0.19    0.00  1.0000
   7  -7  -3     215     988                                                         207   -0.19    0.00  1.0000
   7   7  -3     285    1017                                                         276   -0.19    0.00  1.0000
  -7  -7   3       3    1350                                                           2   -0.19    0.00  1.0000
  -7  -8  -3     304    1333                                                         420    2.25    0.00  1.0000
  -7   8  -3     546    1261                                                         699   -2.25    0.00  1.0000
  -7   8  -3     531    1413                                                         682   -2.25    0.00  1.0000
   7  -8  -3      95     907                                                         164   -2.25    0.00  1.0000
   7   8  -3     619    1138                                                         781    2.25    0.00  1.0000
  -7  -8   3     778    1446                                                         959    2.25    0.00  1.0000
  -7  -9  -3       1    1291                                                           0   -0.77    0.00  1.0000
  -7   9  -3     192    1330                                                         222   -0.77    0.00  1.0000
  -7   9  -3       1    1375                                                           0   -0.77    0.00  1.0000
   7  -9  -3     273     967                                                         309   -0.77    0.00  1.0000
   7   9  -3       1    1009                                                           0   -0.77    0.00  1.0000
  -7  -9   3     680    1366                                                         736   -0.77    0.00  1.0000
  -7 -10  -3     423    1274                                                         419   -0.08    0.00  1.0000
  -7  10  -3     241    1307                                                         238    0.08    0.00  1.0000
  -7  10  -3     270    1404                                                         267    0.08    0.00  1.0000
   7 -10  -3     949    1114                                                         943    0.08    0.00  1.0000
   7  10  -3       0     948                                                           0   -0.08    0.00  1.0000
  -7 -10   3     261    1517                                                         258   -0.08    0.00  1.0000
  -7 -11  -3    2243    1584                                                        2186   -0.45    0.00  1.0000
  -7  11  -3    2001    1609                                                        1947   -0.45    0.00  1.0000
  -7  11  -3    1919    1732                                                        1866   -0.45    0.00  1.0000
   7 -11  -3    1559    1387                                                        1511   -0.45    0.00  1.0000
   7  11  -3    1830    1356                                                        1778   -0.45    0.00  1.0000
  -7 -12  -3     644    1440                                                         624   -0.29    0.00  1.0000
  -7  12  -3     195    1477                                                         184    0.29    0.00  1.0000
  -7  12  -3    1851    1714                                                        1817    0.29    0.00  1.0000
   7 -12  -3    1070    1453                                                        1044    0.29    0.00  1.0000
   7  12  -3     979    1328                                                         954   -0.29    0.00  1.0000
  -7 -13  -3    3708    1755                                                        3521    1.14    0.00  1.0000
  -7  13  -3    2106    1725                                                        1966    1.14    0.00  1.0000
  -7  13  -3    2679    2023                                                        2521    1.14    0.00  1.0000
   7 -13  -3    1304    1475                                                        1194    1.14    0.00  1.0000
   7  13  -3    2927    1579                                                        2761    1.14    0.00  1.0000
  -7 -14  -3    1184    1610                                                        1050    1.47    0.00  1.0000
  -7  14  -3     433    1516                                                         353   -1.47    0.00  1.0000
  -7  14  -3      20    1679                                                           6   -1.47    0.00  1.0000
   7 -14  -3      20    1306                                                           6   -1.47    0.00  1.0000
   7  14  -3     538    1319                                                         449    1.47    0.00  1.0000
  -7 -15  -3    3590    2014                                                        3816    1.36    0.00  1.0000
  -7  15  -3    3043    1975                                                        3251    1.36    0.00  1.0000
  -7  15  -3    3227    2232                                                        3441    1.36    0.00  1.0000
   7 -15  -3     787    1492                                                         895    1.36    0.00  1.0000
   7  15  -3    1066    1439                                                        1191    1.36    0.00  1.0000
  -7 -16  -3    1820    1714                                                        1996    1.48    0.00  1.0000
  -7  16  -3    1078    1827                                                        1214   -1.48    0.00  1.0000
  -7  16  -3    2988    2123                                                        3212   -1.48    0.00  1.0000
   7 -16  -3    1112    1632                                                        1250   -1.48    0.00  1.0000
   7  16  -3     191    1152                                                         251    1.48    0.00  1.0000
  -7 -17  -3    4461    2163                                                        4566   -0.57    0.00  1.0000
  -7  17  -3    2295    2007                                                        2370   -0.57    0.00  1.0000
  -7  17  -3    2511    2258                                                        2590   -0.57    0.00  1.0000
   7 -17  -3    2892    1902                                                        2976   -0.57    0.00  1.0000
   7  17  -3     656    1355                                                         696   -0.57    0.00  1.0000
  -7 -18  -3     475    1722                                                         431    0.75    0.00  1.0000
  -7  18  -3      68    1754                                                          52   -0.75    0.00  1.0000
  -7  18  -3     727    2148                                                         673   -0.75    0.00  1.0000
   7 -18  -3     177    1652                                                         151   -0.75    0.00  1.0000
   7  18  -3      20    1509                                                          12    0.75    0.00  1.0000
  -7 -19  -3     839    1811                                                         752   -1.13    0.00  1.0000
  -7  19  -3    2645    2447                                                        2489   -1.13    0.00  1.0000
   7 -19  -3    2458    1889                                                        2308   -1.13    0.00  1.0000
   7  19  -3    2346    1868                                                        2199   -1.13    0.00  1.0000
  -8   0  -3    7578    2010                                                        7380    0.84    0.00  1.0000
   8   0  -3    6222    1677                                                        6043    0.84    0.00  1.0000
  -8   0   3    6802    1993                                                        6615    0.84    0.00  1.0000
  -8  -1  -3   12251    2232                                                       12330    0.26    0.00  1.0000
  -8   1  -3    9375    2109                                                        9444   -0.26    0.00  1.0000
   8  -1  -3   12013    2032                                                       12091   -0.26    0.00  1.0000
   8   1  -3   11836    1996                                                       11913    0.26    0.00  1.0000
  -8  -1   3   10050    2043                                                       10121    0.26    0.00  1.0000
  -8   1   3    8881    1966                                                        8948   -0.26    0.00  1.0000
  -8  -2  -3    3346    1684                                                        3323   -0.15    0.00  1.0000
  -8   2  -3    3718    1711                                                        3694   -0.15    0.00  1.0000
   8  -2  -3    2116    1294                                                        2098   -0.15    0.00  1.0000
   8   2  -3    2084    1377                                                        2066   -0.15    0.00  1.0000
  -8  -2   3    3268    1621                                                        3245   -0.15    0.00  1.0000
  -8   2   3    3000    1629                                                        2978   -0.15    0.00  1.0000
  -8  -3  -3    4615    1818                                                        4509    0.57    0.00  1.0000
  -8   3  -3    4390    1832                                                        4287   -0.57    0.00  1.0000
   8  -3  -3    6025    1840                                                        5904   -0.57    0.00  1.0000
   8   3  -3    6893    1738                                                        6764    0.57    0.00  1.0000
  -8  -3   3    6049    2002                                                        5928    0.57    0.00  1.0000
  -8   3   3    5571    1941                                                        5455   -0.57    0.00  1.0000
  -8  -4  -3    3139    1617                                                        3338   -1.28    0.00  1.0000
  -8   4  -3    3443    1779                                                        3651   -1.28    0.00  1.0000
   8  -4  -3    3303    1392                                                        3507   -1.28    0.00  1.0000
   8   4  -3    3565    1635                                                        3777   -1.28    0.00  1.0000
  -8  -4   3    3906    1908                                                        4128   -1.28    0.00  1.0000
  -8   4   3    3894    1848                                                        4115   -1.28    0.00  1.0000
  -8  -5  -3     633    1240                                                         592   -0.60    0.00  1.0000
  -8   5  -3     630    1287                                                         589    0.60    0.00  1.0000
  -8   5  -3    2500    1970                                                        2419    0.60    0.00  1.0000
   8  -5  -3    2124    1332                                                        2049    0.60    0.00  1.0000
   8   5  -3    1730    1473                                                        1662   -0.60    0.00  1.0000
  -8  -5   3    1686    1560                                                        1619   -0.60    0.00  1.0000
  -8  -6  -3     478    1268                                                         444   -0.57    0.00  1.0000
  -8   6  -3     824    1208                                                         780   -0.57    0.00  1.0000
  -8   6  -3     803    1485                                                         759   -0.57    0.00  1.0000
   8  -6  -3     638     984                                                         599   -0.57    0.00  1.0000
   8   6  -3      14    1087                                                           9   -0.57    0.00  1.0000
  -8  -6   3      14    1302                                                           9   -0.57    0.00  1.0000
  -8  -7  -3     743    1385                                                         898   -1.98    0.00  1.0000
  -8   7  -3     305    1229                                                         407    1.98    0.00  1.0000
  -8   7  -3     703    1513                                                         854    1.98    0.00  1.0000
   8  -7  -3     433    1117                                                         553    1.98    0.00  1.0000
   8   7  -3     652    1119                                                         798   -1.98    0.00  1.0000
  -8  -7   3     953    1548                                                        1128   -1.98    0.00  1.0000
  -8  -8  -3     722    1331                                                         646    1.06    0.00  1.0000
  -8   8  -3    1385    1459                                                        1280    1.06    0.00  1.0000
  -8   8  -3    1465    1623                                                        1357    1.06    0.00  1.0000
   8  -8  -3     605    1078                                                         536    1.06    0.00  1.0000
   8   8  -3      15     906                                                           6    1.06    0.00  1.0000
  -8  -8   3     523    1430                                                         459    1.06    0.00  1.0000
  -8  -9  -3     937    1403                                                         870   -0.81    0.00  1.0000
  -8   9  -3    2096    1635                                                        1995    0.81    0.00  1.0000
  -8   9  -3    1341    1652                                                        1261    0.81    0.00  1.0000
   8  -9  -3    1594    1275                                                        1506    0.81    0.00  1.0000
   8   9  -3    1181    1201                                                        1106   -0.81    0.00  1.0000
  -8  -9   3    1431    1613                                                        1348   -0.81    0.00  1.0000
  -8 -10  -3      71    1367                                                         112    1.56    0.00  1.0000
  -8  10  -3     127    1409                                                         180    1.56    0.00  1.0000
  -8  10  -3     137    1536                                                         191    1.56    0.00  1.0000
   8 -10  -3     449    1138                                                         544    1.56    0.00  1.0000
   8  10  -3     100    1119                                                         147    1.56    0.00  1.0000
  -8 -10   3     229    1520                                                         298    1.56    0.00  1.0000
  -8 -11  -3     686    1367                                                         681    0.07    0.00  1.0000
  -8  11  -3     932    1572                                                         926   -0.07    0.00  1.0000
  -8  11  -3       1    1532                                                           1   -0.07    0.00  1.0000
   8 -11  -3     170    1143                                                         167   -0.07    0.00  1.0000
   8  11  -3     390    1445                                                         386    0.07    0.00  1.0000
  -8 -11   3     314    1674                                                         310    0.07    0.00  1.0000
  -8 -12  -3     723    1566                                                         723    0.00    0.00  1.0000
  -8  12  -3     603    1585                                                         603    0.00    0.00  1.0000
  -8  12  -3     725    1913                                                         725    0.00    0.00  1.0000
   8 -12  -3     764    1281                                                         764    0.00    0.00  1.0000
   8  12  -3       6    1038                                                           6    0.00    0.00  1.0000
  -8 -13  -3    2654    1751                                                        2502   -1.10    0.00  1.0000
  -8  13  -3    2050    1830                                                        1917    1.10    0.00  1.0000
  -8  13  -3    1508    1844                                                        1394    1.10    0.00  1.0000
   8 -13  -3     478    1190                                                         415    1.10    0.00  1.0000
   8  13  -3     826    1290                                                         742   -1.10    0.00  1.0000
  -8 -14  -3       2    1466                                                          14   -1.65    0.00  1.0000
  -8  14  -3     459    1660                                                         561   -1.65    0.00  1.0000
  -8  14  -3    1149    1899                                                        1307   -1.65    0.00  1.0000
   8 -14  -3       2    1386                                                          14   -1.65    0.00  1.0000
   8  14  -3     372    1394                                                         464   -1.65    0.00  1.0000
  -8 -15  -3       0    1557                                                           1   -0.83    0.00  1.0000
  -8  15  -3    1272    1908                                                        1354    0.83    0.00  1.0000
  -8  15  -3    1436    2064                                                        1523    0.83    0.00  1.0000
   8 -15  -3       0    1472                                                           1    0.83    0.00  1.0000
   8  15  -3    2052    1768                                                        2155   -0.83    0.00  1.0000
  -8 -16  -3     494    1698                                                         541   -0.76    0.00  1.0000
  -8  16  -3     640    1985                                                         693   -0.76    0.00  1.0000
  -8  16  -3    3848    2383                                                        3977   -0.76    0.00  1.0000
   8 -16  -3     409    1595                                                         452   -0.76    0.00  1.0000
   8  16  -3     576    1502                                                         627   -0.76    0.00  1.0000
  -8 -17  -3      44    1767                                                          51    0.39    0.00  1.0000
  -8  17  -3      44    1901                                                          51   -0.39    0.00  1.0000
  -8  17  -3    2199    2400                                                        2250   -0.39    0.00  1.0000
   8 -17  -3     374    1707                                                         395   -0.39    0.00  1.0000
   8  17  -3      44    1416                                                          51    0.39    0.00  1.0000
  -8 -18  -3     762    2058                                                         837    0.98    0.00  1.0000
  -8  18  -3    1702    2390                                                        1814    0.98    0.00  1.0000
   8 -18  -3       2    1584                                                           7    0.98    0.00  1.0000
   8  18  -3     293    1672                                                         340    0.98    0.00  1.0000
   8 -18   3     892    1645                                                         974    0.98    0.00  1.0000
  -9  -1  -3      78    1217                                                          66    0.52    0.00  1.0000
  -9   1  -3     313    1210                                                         288    0.52    0.00  1.0000
   9  -1  -3     927     974                                                         884    0.52    0.00  1.0000
   9   1  -3      78     904                                                          66    0.52    0.00  1.0000
  -9  -1   3     359    1352                                                         333    0.52    0.00  1.0000
  -9   1   3      78    1288                                                          66    0.52    0.00  1.0000
  -9  -2  -3    1960    1477                                                        1977   -0.14    0.00  1.0000
  -9   2  -3      14    1287                                                          15    0.14    0.00  1.0000
   9  -2  -3      14     868                                                          15    0.14    0.00  1.0000
   9   2  -3     922    1101                                                         934   -0.14    0.00  1.0000
  -9  -2   3     311    1308                                                         318   -0.14    0.00  1.0000
  -9   2   3      14    1261                                                          15    0.14    0.00  1.0000
  -9  -3  -3    2363    1470                                                        2104    2.00    0.00  1.0000
  -9   3  -3    2812    1603                                                        2529    2.00    0.00  1.0000
   9  -3  -3    1744    1169                                                        1523    2.00    0.00  1.0000
   9   3  -3    3180    1510                                                        2879    2.00    0.00  1.0000
  -9  -3   3    2263    1504                                                        2010    2.00    0.00  1.0000
  -9   3   3    1229    1442                                                        1045    2.00    0.00  1.0000
  -9  -4  -3     216    1222                                                         220    0.09    0.00  1.0000
  -9   4  -3     822    1422                                                         829   -0.09    0.00  1.0000
   9  -4  -3     877     995                                                         884   -0.09    0.00  1.0000
   9   4  -3     391     986                                                         396    0.09    0.00  1.0000
  -9  -4   3     898    1499                                                         905    0.09    0.00  1.0000
  -9   4   3     622    1449                                                         628   -0.09    0.00  1.0000
  -9  -5  -3       5    1244                                                           0    1.65    0.00  1.0000
  -9   5  -3     812    1421                                                         689    1.65    0.00  1.0000
   9  -5  -3     109    1107                                                          67    1.65    0.00  1.0000
   9   5  -3       5     971                                                           0    1.65    0.00  1.0000
  -9  -5   3       5    1410                                                           0    1.65    0.00  1.0000
  -9  -6  -3     774    1495                                                         693    1.09    0.00  1.0000
  -9   6  -3     773    1432                                                         692   -1.09    0.00  1.0000
   9  -6  -3     751    1101                                                         671   -1.09    0.00  1.0000
   9   6  -3      83    1032                                                          58    1.09    0.00  1.0000
  -9  -6   3      98    1460                                                          71    1.09    0.00  1.0000
  -9  -7  -3    1546    1400                                                        1599   -0.49    0.00  1.0000
  -9   7  -3    1091    1504                                                        1136   -0.49    0.00  1.0000
   9  -7  -3    1485    1207                                                        1537   -0.49    0.00  1.0000
   9   7  -3     180    1080                                                         199   -0.49    0.00  1.0000
  -9  -7   3    1762    1657                                                        1819   -0.49    0.00  1.0000
  -9  -8  -3       5    1263                                                          11    0.74    0.00  1.0000
  -9   8  -3     954    1680                                                        1018   -0.74    0.00  1.0000
   9  -8  -3       5     985                                                          11   -0.74    0.00  1.0000
   9   8  -3       1     973                                                           5    0.74    0.00  1.0000
  -9  -8   3       5    1614                                                          11    0.74    0.00  1.0000
  -9  -9  -3     229    1436                                                         295   -1.49    0.00  1.0000
  -9   9  -3       4    1511                                                          16   -1.49    0.00  1.0000
  -9   9  -3       4    1463                                                          16   -1.49    0.00  1.0000
   9  -9  -3     535    1187                                                         633   -1.49    0.00  1.0000
   9   9  -3       4    1090                                                          16   -1.49    0.00  1.0000
  -9  -9   3     345    1600                                                         425   -1.49    0.00  1.0000
  -9 -10  -3     726    1474                                                         704   -0.30    0.00  1.0000
  -9  10  -3      12    1556                                                           9    0.30    0.00  1.0000
  -9  10  -3     603    1596                                                         583    0.30    0.00  1.0000
   9 -10  -3     340    1126                                                         325    0.30    0.00  1.0000
   9  10  -3     903    1263                                                         878   -0.30    0.00  1.0000
  -9 -10   3     473    1742                                                         455   -0.30    0.00  1.0000
  -9 -11  -3    2701    1649                                                        2774   -0.51    0.00  1.0000
  -9  11  -3    1501    1686                                                        1555   -0.51    0.00  1.0000
  -9  11  -3    3136    1974                                                        3214   -0.51    0.00  1.0000
   9 -11  -3    2646    1411                                                        2718   -0.51    0.00  1.0000
   9  11  -3    3750    1825                                                        3836   -0.51    0.00  1.0000
  -9 -11   3    2090    1966                                                        2154   -0.51    0.00  1.0000
  -9 -12  -3     512    1587                                                         468    0.73    0.00  1.0000
  -9  12  -3     475    1674                                                         433   -0.73    0.00  1.0000
  -9  12  -3     723    1787                                                         671   -0.73    0.00  1.0000
   9 -12  -3     528    1328                                                         483   -0.73    0.00  1.0000
   9  12  -3    1190    1516                                                        1122    0.73    0.00  1.0000
  -9 -12   3       9    1846                                                           4    0.73    0.00  1.0000
  -9 -13  -3     345    1427                                                         391    0.88    0.00  1.0000
  -9  13  -3      11    1625                                                          21    0.88    0.00  1.0000
  -9  13  -3    1265    1994                                                        1352    0.88    0.00  1.0000
   9 -13  -3      18    1115                                                          30    0.88    0.00  1.0000
   9  13  -3     207    1449                                                         243    0.88    0.00  1.0000
  -9 -14  -3    1064    1710                                                        1156    1.01    0.00  1.0000
  -9  14  -3       0    1752                                                           3   -1.01    0.00  1.0000
  -9  14  -3     545    1957                                                         611   -1.01    0.00  1.0000
   9 -14  -3     685    1386                                                         759   -1.01    0.00  1.0000
   9  14  -3     649    1555                                                         721    1.01    0.00  1.0000
  -9 -15  -3    4855    2172                                                        4663    1.02    0.00  1.0000
  -9  15  -3    5235    2418                                                        5036    1.02    0.00  1.0000
   9 -15  -3    2839    1594                                                        2693    1.02    0.00  1.0000
   9  15  -3    6329    2194                                                        6110    1.02    0.00  1.0000
  -9 -16  -3     591    1875                                                         662   -1.04    0.00  1.0000
  -9  16  -3     710    2117                                                         788    1.04    0.00  1.0000
   9 -16  -3     672    1477                                                         748    1.04    0.00  1.0000
   9 -16   3     355    1372                                                         410    1.04    0.00  1.0000
  -9 -17  -3    1023    1989                                                        1019   -0.05    0.00  1.0000
  -9  17  -3    2543    2465                                                        2536   -0.05    0.00  1.0000
   9 -17  -3    1655    1867                                                        1649   -0.05    0.00  1.0000
   9 -17   3     785    1481                                                         781   -0.05    0.00  1.0000
 -10   0  -3     753    1550                                                         836   -1.07    0.00  1.0000
  10   0  -3     589    1352                                                         662   -1.07    0.00  1.0000
 -10   0   3    1029    1692                                                        1125   -1.07    0.00  1.0000
 -10  -1  -3    4015    1849                                                        4048   -0.19    0.00  1.0000
 -10   1  -3    5052    1966                                                        5089    0.19    0.00  1.0000
  10  -1  -3    5777    1872                                                        5817    0.19    0.00  1.0000
  10   1  -3    5530    1958                                                        5569   -0.19    0.00  1.0000
 -10  -1   3    4350    1995                                                        4385   -0.19    0.00  1.0000
 -10   1   3    3149    1810                                                        3179    0.19    0.00  1.0000
 -10  -2  -3    2531    1761                                                        2822   -2.06    0.00  1.0000
 -10   2  -3     550    1441                                                         690   -2.06    0.00  1.0000
  10  -2  -3    1533    1382                                                        1762   -2.06    0.00  1.0000
  10   2  -3    3500    1868                                                        3841   -2.06    0.00  1.0000
 -10  -2   3    1606    1768                                                        1840   -2.06    0.00  1.0000
 -10   2   3    1299    1652                                                        1510   -2.06    0.00  1.0000
 -10  -3  -3    3160    1732                                                        3124   -0.23    0.00  1.0000
 -10   3  -3    3616    1803                                                        3578    0.23    0.00  1.0000
  10  -3  -3    2149    1331                                                        2120    0.23    0.00  1.0000
  10   3  -3    3530    1560                                                        3492   -0.23    0.00  1.0000
 -10  -3   3    2550    1955                                                        2518   -0.23    0.00  1.0000
 -10   3   3    4742    1970                                                        4698    0.23    0.00  1.0000
 -10  -4  -3     194    1393                                                         293   -2.33    0.00  1.0000
 -10   4  -3     834    1500                                                        1028   -2.33    0.00  1.0000
  10  -4  -3     915    1123                                                        1117   -2.33    0.00  1.0000
  10   4  -3     307     999                                                         429   -2.33    0.00  1.0000
 -10  -4   3     743    1587                                                         927   -2.33    0.00  1.0000
 -10   4   3     966    1535                                                        1174   -2.33    0.00  1.0000
 -10  -5  -3    2160    1570                                                        2232   -0.56    0.00  1.0000
 -10   5  -3    1622    1651                                                        1684    0.56    0.00  1.0000
  10  -5  -3     538    1064                                                         574    0.56    0.00  1.0000
  10   5  -3       4     993                                                           8   -0.56    0.00  1.0000
 -10  -5   3    2317    1808                                                        2392   -0.56    0.00  1.0000
 -10   5   3    1300    1633                                                        1356    0.56    0.00  1.0000
 -10  -6  -3    1373    1654                                                        1383   -0.09    0.00  1.0000
 -10   6  -3    2207    1720                                                        2219   -0.09    0.00  1.0000
  10  -6  -3    1162    1311                                                        1171   -0.09    0.00  1.0000
  10   6  -3    1055    1279                                                        1063   -0.09    0.00  1.0000
 -10  -6   3    1950    1798                                                        1961   -0.09    0.00  1.0000
 -10  -7  -3    1414    1660                                                        1338   -0.75    0.00  1.0000
 -10   7  -3      60    1566                                                          45    0.75    0.00  1.0000
  10  -7  -3    2532    1538                                                        2430    0.75    0.00  1.0000
  10   7  -3    1160    1238                                                        1091   -0.75    0.00  1.0000
 -10  -7   3     370    1655                                                         332   -0.75    0.00  1.0000
 -10  -8  -3       6    1342                                                           1    1.04    0.00  1.0000
 -10   8  -3     581    1698                                                         514    1.04    0.00  1.0000
  10  -8  -3       6    1107                                                           1    1.04    0.00  1.0000
  10   8  -3     587    1267                                                         520    1.04    0.00  1.0000
 -10  -8   3     444    1800                                                         386    1.04    0.00  1.0000
 -10  -9  -3    1266    1592                                                        1226    0.41    0.00  1.0000
 -10   9  -3     722    1655                                                         692   -0.41    0.00  1.0000
  10  -9  -3    1723    1349                                                        1677   -0.41    0.00  1.0000
  10   9  -3    2015    1644                                                        1965    0.41    0.00  1.0000
 -10  -9   3    1719    1910                                                        1673    0.41    0.00  1.0000
 -10 -10  -3      42    1480                                                          51   -0.48    0.00  1.0000
 -10  10  -3     750    1783                                                         786   -0.48    0.00  1.0000
  10 -10  -3    1409    1520                                                        1458   -0.48    0.00  1.0000
  10  10  -3    1229    1490                                                        1275   -0.48    0.00  1.0000
 -10 -10   3     601    1854                                                         633   -0.48    0.00  1.0000
 -10 -11  -3     764    1703                                                         797    0.44    0.00  1.0000
 -10  11  -3     424    1770                                                         449   -0.44    0.00  1.0000
  10 -11  -3     846    1280                                                         881   -0.44    0.00  1.0000
  10  11  -3     141    1340                                                         155    0.44    0.00  1.0000
 -10 -11   3     521    1904                                                         549    0.44    0.00  1.0000
 -10 -12  -3     278    1697                                                         349   -1.46    0.00  1.0000
 -10  12  -3     513    1946                                                         607   -1.46    0.00  1.0000
  10 -12  -3     402    1309                                                         486   -1.46    0.00  1.0000
  10  12  -3     289    1424                                                         361   -1.46    0.00  1.0000
 -10 -12   3      80    1832                                                         120   -1.46    0.00  1.0000
 -10 -13  -3    1979    1870                                                        2075   -0.78    0.00  1.0000
 -10  13  -3    3040    2256                                                        3159    0.78    0.00  1.0000
  10 -13  -3    1467    1434                                                        1550    0.78    0.00  1.0000
 -10 -13   3    1805    2245                                                        1897   -0.78    0.00  1.0000
 -10 -14  -3     310    1857                                                         339   -0.59    0.00  1.0000
 -10  14  -3     777    2110                                                         823   -0.59    0.00  1.0000
  10 -14  -3    1163    1466                                                        1219   -0.59    0.00  1.0000
  10 -14   3     858    1519                                                         906   -0.59    0.00  1.0000
 -10 -15  -3     175    1828                                                         183    0.22    0.00  1.0000
 -10  15  -3     467    2044                                                         480   -0.22    0.00  1.0000
  10 -15  -3     581    1344                                                         596   -0.22    0.00  1.0000
  10 -15   3     363    1469                                                         375   -0.22    0.00  1.0000
 -10 -16  -3       0    1668                                                           0    0.25    0.00  1.0000
 -10  16  -3     806    2355                                                         825    0.25    0.00  1.0000
  10 -16   3     400    1535                                                         414    0.25    0.00  1.0000
 -11  -1  -3    1219    1540                                                        1097    1.31    0.00  1.0000
 -11   1  -3    1382    1502                                                        1252    1.31    0.00  1.0000
  11  -1  -3     107    1151                                                          73    1.31    0.00  1.0000
  11   1  -3     107    1119                                                          73    1.31    0.00  1.0000
 -11  -1   3     305    1521                                                         246    1.31    0.00  1.0000
 -11   1   3     107    1502                                                          73    1.31    0.00  1.0000
 -11  -2  -3    1126    1553                                                        1175    0.53    0.00  1.0000
 -11   2  -3       6    1435                                                          10   -0.53    0.00  1.0000
  11  -2  -3     238    1124                                                         261   -0.53    0.00  1.0000
  11   2  -3       0     955                                                           1    0.53    0.00  1.0000
 -11  -2   3     119    1483                                                         135    0.53    0.00  1.0000
 -11   2   3     471    1721                                                         503   -0.53    0.00  1.0000
 -11  -3  -3       1    1370                                                           3    2.03    0.00  1.0000
 -11   3  -3    1876    1783                                                        2124    2.03    0.00  1.0000
  11  -3  -3     203    1443                                                         290    2.03    0.00  1.0000
  11   3  -3     311    1136                                                         416    2.03    0.00  1.0000
 -11  -3   3       1    1426                                                           3    2.03    0.00  1.0000
 -11   3   3     356    1600                                                         468    2.03    0.00  1.0000
 -11  -4  -3     743    1489                                                         725    0.24    0.00  1.0000
 -11   4  -3     788    1598                                                         769   -0.24    0.00  1.0000
  11  -4  -3       7    1075                                                           5   -0.24    0.00  1.0000
  11   4  -3     401    1183                                                         388    0.24    0.00  1.0000
 -11  -4   3    1020    1682                                                         999    0.24    0.00  1.0000
 -11   4   3     632    1633                                                         615   -0.24    0.00  1.0000
 -11  -5  -3     206    2495                                                         186    0.53    0.00  1.0000
 -11   5  -3     157    1604                                                         139    0.53    0.00  1.0000
  11  -5  -3     573    1365                                                         539    0.53    0.00  1.0000
  11   5  -3     478    1160                                                         447    0.53    0.00  1.0000
 -11  -5   3     558    1728                                                         524    0.53    0.00  1.0000
 -11   5   3     811    1820                                                         770    0.53    0.00  1.0000
 -11  -6  -3       1    2520                                                           0    0.65    0.00  1.0000
 -11   6  -3     714    1683                                                         762   -0.65    0.00  1.0000
  11  -6  -3     724    1296                                                         772   -0.65    0.00  1.0000
  11   6  -3     819    1455                                                         870    0.65    0.00  1.0000
 -11  -6   3     413    1666                                                         450    0.65    0.00  1.0000
 -11   6   3       1    1577                                                           0   -0.65    0.00  1.0000
 -11  -7  -3     752    1614                                                         681   -0.97    0.00  1.0000
 -11   7  -3    1251    1700                                                        1159   -0.97    0.00  1.0000
  11  -7  -3     515    1160                                                         457   -0.97    0.00  1.0000
  11   7  -3    1372    1387                                                        1276   -0.97    0.00  1.0000
 -11  -7   3      61    1687                                                          42   -0.97    0.00  1.0000
 -11  -8  -3     108    1444                                                          93    0.53    0.00  1.0000
 -11   8  -3    1613    1694                                                        1555   -0.53    0.00  1.0000
  11  -8  -3    1818    1399                                                        1757   -0.53    0.00  1.0000
  11   8  -3     915    1472                                                         872    0.53    0.00  1.0000
 -11  -8   3       9    1769                                                           5    0.53    0.00  1.0000
 -11  -9  -3     854    1669                                                         774    1.03    0.00  1.0000
 -11   9  -3     293    1764                                                         247    1.03    0.00  1.0000
  11  -9  -3    3047    1582                                                        2894    1.03    0.00  1.0000
  11   9  -3    1286    1467                                                        1187    1.03    0.00  1.0000
 -11  -9   3    2739    2071                                                        2594    1.03    0.00  1.0000
 -11 -10  -3       2    1622                                                           6   -0.70    0.00  1.0000
 -11  10  -3     244    1809                                                         275    0.70    0.00  1.0000
  11 -10  -3     793    1251                                                         848    0.70    0.00  1.0000
 -11 -10   3     672    1940                                                         722   -0.70    0.00  1.0000
 -11 -11  -3     496    1842                                                         709    3.20    0.00  1.0000
 -11  11  -3     955    2009                                                        1244    3.20    0.00  1.0000
  11 -11  -3     945    1464                                                        1232    3.20    0.00  1.0000
 -11 -11   3     747    2109                                                        1005    3.20    0.00  1.0000
 -11 -12  -3       9    1921                                                          14   -0.59    0.00  1.0000
 -11  12  -3     869    2046                                                         917    0.59    0.00  1.0000
  11 -12  -3     495    1460                                                         531    0.59    0.00  1.0000
 -11 -12   3     118    2001                                                         136   -0.59    0.00  1.0000
 -11 -13  -3     227    1922                                                         163    1.67    0.00  1.0000
 -11  13  -3      94    1983                                                          55    1.67    0.00  1.0000
  11 -13  -3    1007    1415                                                         867    1.67    0.00  1.0000
 -11 -13   3    3356    2298                                                        3096    1.67    0.00  1.0000
 -11 -14  -3     698    1911                                                         700   -0.03    0.00  1.0000
 -11  14  -3     422    2192                                                         424    0.03    0.00  1.0000
  11 -14  -3    1088    1380                                                        1091    0.03    0.00  1.0000
 -11 -14   3       0    2227                                                           0   -0.03    0.00  1.0000
 -12   0  -3       0    1577                                                           0   -0.38    0.00  1.0000
  12   0  -3     734    1125                                                         706   -0.38    0.00  1.0000
 -12   0   3       0    1572                                                           0   -0.38    0.00  1.0000
 -12  -1  -3     226    1638                                                         206   -0.51    0.00  1.0000
 -12   1  -3    1250    1721                                                        1201    0.51    0.00  1.0000
  12  -1  -3     916    1151                                                         875    0.51    0.00  1.0000
  12   1  -3    1215    1433                                                        1167   -0.51    0.00  1.0000
 -12  -1   3     259    1641                                                         237   -0.51    0.00  1.0000
 -12   1   3      16    1615                                                          11    0.51    0.00  1.0000
 -12  -2  -3     363    1659                                                         324   -0.77    0.00  1.0000
 -12   2  -3     741    1667                                                         685   -0.77    0.00  1.0000
  12  -2  -3     205    1228                                                         176   -0.77    0.00  1.0000
  12   2  -3     304    1300                                                         268   -0.77    0.00  1.0000
 -12  -2   3     230    1657                                                         199   -0.77    0.00  1.0000
 -12   2   3      31    1577                                                          20   -0.77    0.00  1.0000
 -12  -3  -3    1519    1760                                                        1546   -0.26    0.00  1.0000
 -12   3  -3    2398    1854                                                        2433    0.26    0.00  1.0000
  12  -3  -3    3113    1595                                                        3152    0.26    0.00  1.0000
  12   3  -3     673    1383                                                         691   -0.26    0.00  1.0000
 -12  -3   3    1794    1889                                                        1824   -0.26    0.00  1.0000
 -12   3   3      82    1663                                                          88    0.26    0.00  1.0000
 -12  -4  -3      13    1750                                                           9   -0.42    0.00  1.0000
 -12   4  -3     562    1649                                                         535   -0.42    0.00  1.0000
  12  -4  -3     254    1360                                                         236   -0.42    0.00  1.0000
  12   4  -3     292    1416                                                         273   -0.42    0.00  1.0000
 -12  -4   3     302    1791                                                         283   -0.42    0.00  1.0000
 -12   4   3     861    1782                                                         828   -0.42    0.00  1.0000
 -12  -5  -3    1086    2037                                                        1094    0.09    0.00  1.0000
 -12   5  -3    2442    1929                                                        2454   -0.09    0.00  1.0000
  12  -5  -3    1950    1510                                                        1961   -0.09    0.00  1.0000
  12   5  -3    2396    1615                                                        2408    0.09    0.00  1.0000
 -12  -5   3    3356    2260                                                        3370    0.09    0.00  1.0000
 -12   5   3    1947    2269                                                        1958   -0.09    0.00  1.0000
 -12  -6  -3    1187    1889                                                        1258    0.75    0.00  1.0000
 -12   6  -3    1229    1983                                                        1302    0.75    0.00  1.0000
  12  -6  -3     800    1425                                                         859    0.75    0.00  1.0000
  12   6  -3    1372    1559                                                        1449    0.75    0.00  1.0000
 -12  -6   3     669    1865                                                         723    0.75    0.00  1.0000
 -12   6   3    3213    2260                                                        3330    0.75    0.00  1.0000
 -12  -7  -3    4832    2257                                                        5023   -1.00    0.00  1.0000
 -12   7  -3    5942    2387                                                        6154    1.00    0.00  1.0000
  12  -7  -3    3378    1781                                                        3538    1.00    0.00  1.0000
 -12  -7   3    3823    2422                                                        3993   -1.00    0.00  1.0000
 -12  -8  -3     671    1791                                                         631   -0.57    0.00  1.0000
 -12   8  -3    1287    1882                                                        1232   -0.57    0.00  1.0000
  12  -8  -3     836    1396                                                         792   -0.57    0.00  1.0000
 -12  -8   3     675    1985                                                         635   -0.57    0.00  1.0000
 -12  -9  -3     866    1753                                                         814   -0.66    0.00  1.0000
 -12   9  -3    1045    1963                                                         988    0.66    0.00  1.0000
  12  -9  -3     886    1413                                                         833    0.66    0.00  1.0000
 -12  -9   3    1771    2207                                                        1696   -0.66    0.00  1.0000
 -12 -10  -3     958    1897                                                        1279   -3.52    0.00  1.0000
 -12  10  -3     212    2018                                                         375   -3.52    0.00  1.0000
  12 -10  -3     167    1385                                                         315   -3.52    0.00  1.0000
 -12 -10   3     480    2179                                                         714   -3.52    0.00  1.0000
 -12 -11  -3    1150    1958                                                        1067    0.92    0.00  1.0000
 -12  11  -3    2267    2347                                                        2149   -0.92    0.00  1.0000
  12 -11  -3    1067    1510                                                         987   -0.92    0.00  1.0000
 -12 -11   3    1329    2177                                                        1239    0.92    0.00  1.0000
 -12 -12  -3     187    1734                                                          87   -3.19    0.00  1.0000
 -12  12  -3    1847    2117                                                        1492   -3.19    0.00  1.0000
  12 -12  -3      89    1448                                                          26   -3.19    0.00  1.0000
 -12 -12   3      89    2129                                                          26   -3.19    0.00  1.0000
 -13  -1  -3     503    1611                                                         494   -0.15    0.00  1.0000
 -13   1  -3    1420    1769                                                        1405   -0.15    0.00  1.0000
  13  -1  -3     881    1298                                                         869   -0.15    0.00  1.0000
  13   1  -3    1652    1469                                                        1635   -0.15    0.00  1.0000
 -13  -1   3      64    1616                                                          61   -0.15    0.00  1.0000
 -13   1   3     308    1775                                                         301   -0.15    0.00  1.0000
 -13  -2  -3     787    1674                                                         747    0.53    0.00  1.0000
 -13   2  -3       3    1694                                                           1   -0.53    0.00  1.0000
  13  -2  -3       3    1274                                                           1   -0.53    0.00  1.0000
  13   2  -3       3    1401                                                           1    0.53    0.00  1.0000
 -13  -2   3     600    1883                                                         565    0.53    0.00  1.0000
 -13   2   3     334    1878                                                         308   -0.53    0.00  1.0000
 -13  -3  -3    1106    1657                                                        1082   -0.27    0.00  1.0000
 -13   3  -3      99    1787                                                          92   -0.27    0.00  1.0000
  13  -3  -3      99    1162                                                          92   -0.27    0.00  1.0000
  13   3  -3      99    1450                                                          92   -0.27    0.00  1.0000
 -13  -3   3    1601    2083                                                        1572   -0.27    0.00  1.0000
 -13   3   3     689    1867                                                         670   -0.27    0.00  1.0000
 -13  -4  -3     247    1651                                                         227   -0.47    0.00  1.0000
 -13   4  -3      90    1838                                                          78    0.47    0.00  1.0000
  13  -4  -3     334    1353                                                         311    0.47    0.00  1.0000
 -13  -4   3     201    1782                                                         183   -0.47    0.00  1.0000
 -13   4   3    1057    1977                                                        1016    0.47    0.00  1.0000
 -13  -5  -3     281    1650                                                         255   -0.59    0.00  1.0000
 -13   5  -3    1740    1984                                                        1674   -0.59    0.00  1.0000
  13  -5  -3     709    1409                                                         667   -0.59    0.00  1.0000
 -13  -5   3     916    2143                                                         868   -0.59    0.00  1.0000
 -13   5   3    1535    2004                                                        1473   -0.59    0.00  1.0000
 -13  -6  -3     271    1624                                                         267    0.09    0.00  1.0000
 -13   6  -3     630    1994                                                         624   -0.09    0.00  1.0000
  13  -6  -3    1300    1573                                                        1291   -0.09    0.00  1.0000
 -13  -6   3    1195    2142                                                        1186    0.09    0.00  1.0000
 -13   6   3    1856    2117                                                        1845   -0.09    0.00  1.0000
 -13  -7  -3     157    1830                                                         163    0.17    0.00  1.0000
 -13   7  -3     645    2022                                                         657    0.17    0.00  1.0000
  13  -7  -3     277    1327                                                         285    0.17    0.00  1.0000
 -13  -7   3    1332    2113                                                        1349    0.17    0.00  1.0000
 -13   7   3      82    2032                                                          86    0.17    0.00  1.0000
 -13  -8  -3     433    1812                                                         514    1.36    0.00  1.0000
 -13   8  -3     835    2143                                                         946   -1.36    0.00  1.0000
  13  -8  -3       3    1468                                                           0   -1.36    0.00  1.0000
 -13  -8   3     493    2082                                                         579    1.36    0.00  1.0000
 -13  -9  -3    2084    2061                                                        2384    2.33    0.00  1.0000
 -13   9  -3    2307    2216                                                        2623    2.33    0.00  1.0000
  13  -9  -3    3442    1789                                                        3825    2.33    0.00  1.0000
 -13  -9   3    1730    2298                                                        2005    2.33    0.00  1.0000
 -14   0  -3      47    1941                                                          48    0.06    0.00  1.0000
 -14   0   3     762    2133                                                         766    0.06    0.00  1.0000
 -14  -1  -3     286    1947                                                         309   -0.49    0.00  1.0000
 -14   1  -3     539    1891                                                         570    0.49    0.00  1.0000
  14  -1  -3    1841    1795                                                        1898    0.49    0.00  1.0000
 -14  -1   3     743    2033                                                         780   -0.49    0.00  1.0000
 -14   1   3     738    1976                                                         774    0.49    0.00  1.0000
 -14  -2  -3     592    2067                                                         619    0.41    0.00  1.0000
 -14   2  -3    2236    2175                                                        2289    0.41    0.00  1.0000
  14  -2  -3     184    1503                                                         199    0.41    0.00  1.0000
 -14  -2   3    1693    2414                                                        1739    0.41    0.00  1.0000
 -14   2   3     950    2195                                                         984    0.41    0.00  1.0000
 -14  -3  -3     870    2017                                                         865   -0.06    0.00  1.0000
 -14   3  -3     866    1955                                                         861    0.06    0.00  1.0000
  14  -3  -3    1045    1602                                                        1039    0.06    0.00  1.0000
 -14  -3   3    2001    2140                                                        1993   -0.06    0.00  1.0000
 -14   3   3    1537    2192                                                        1530    0.06    0.00  1.0000
   0   0  -4   25921    3379                                                       26206    0.65    0.00  1.0000
   0  -2  -4   10497    2504                                                       10422    0.27    0.00  1.0000
   0   2  -4   10705    2530                                                       10630    0.27    0.00  1.0000
   0  -4  -4    7573    2364                                                        7587    0.06    0.00  1.0000
   0   4  -4    4796    2140                                                        4807    0.06    0.00  1.0000
   0  -6  -4    1140    1706                                                        1128    0.13    0.00  1.0000
   0   6  -4      30    1482                                                          28    0.13    0.00  1.0000
   0  -8  -4    1838    1879                                                        1808   -0.26    0.00  1.0000
   0   8  -4    2346    1815                                                        2312   -0.26    0.00  1.0000
   0 -10  -4    1388    1915                                                        1431   -0.42    0.00  1.0000
   0  10  -4       4    1494                                                           7   -0.42    0.00  1.0000
   0 -12  -4    2500    2055                                                        2392   -0.80    0.00  1.0000
   0  12  -4    2650    1908                                                        2539   -0.80    0.00  1.0000
   0 -14  -4    1136    2182                                                        1293   -1.65    0.00  1.0000
   0  14  -4     551    1829                                                         662   -1.65    0.00  1.0000
  -1  -1  -4      74    1420                                                          70   -0.15    0.00  1.0000
  -1   1  -4      74    1400                                                          70   -0.15    0.00  1.0000
   1  -1  -4    1125    1588                                                        1111   -0.15    0.00  1.0000
   1   1  -4     175    1509                                                         170   -0.15    0.00  1.0000
  -1  -2  -4       2    1418                                                           0    1.06    0.00  1.0000
  -1   2  -4       2    1503                                                           0   -1.06    0.00  1.0000
   1  -2  -4       2    1378                                                           0   -1.06    0.00  1.0000
   1   2  -4       2    1316                                                           0    1.06    0.00  1.0000
  -1  -3  -4    1245    1640                                                        1244   -0.01    0.00  1.0000
  -1   3  -4    1518    1653                                                        1517   -0.01    0.00  1.0000
   1  -3  -4       5    1394                                                           5   -0.01    0.00  1.0000
   1   3  -4       5    1319                                                           5   -0.01    0.00  1.0000
  -1  -4  -4       6    1464                                                          11    0.56    0.00  1.0000
  -1   4  -4       6    1473                                                          11   -0.56    0.00  1.0000
   1  -4  -4     487    1589                                                         521   -0.56    0.00  1.0000
   1   4  -4     402    1457                                                         433    0.56    0.00  1.0000
  -1  -5  -4     582    1634                                                         599   -0.26    0.00  1.0000
  -1   5  -4       2    1440                                                           3   -0.26    0.00  1.0000
   1  -5  -4     232    1563                                                         243   -0.26    0.00  1.0000
   1   5  -4       2    1391                                                           3   -0.26    0.00  1.0000
  -1  -6  -4      31    1580                                                          38   -0.41    0.00  1.0000
  -1   6  -4      13    1402                                                          17    0.41    0.00  1.0000
   1  -6  -4      13    1477                                                          17    0.41    0.00  1.0000
   1   6  -4     583    1512                                                         610   -0.41    0.00  1.0000
  -1  -7  -4     808    1674                                                         806   -0.02    0.00  1.0000
  -1   7  -4    1041    1654                                                        1039   -0.02    0.00  1.0000
   1  -7  -4     415    1566                                                         414   -0.02    0.00  1.0000
   1   7  -4     826    1569                                                         824   -0.02    0.00  1.0000
  -1  -8  -4     397    1700                                                         372   -0.46    0.00  1.0000
  -1   8  -4     766    1678                                                         732    0.46    0.00  1.0000
   1  -8  -4       3    1543                                                           1    0.46    0.00  1.0000
   1   8  -4     544    1563                                                         515   -0.46    0.00  1.0000
  -1  -9  -4     734    1757                                                         762    0.37    0.00  1.0000
  -1   9  -4       0    1542                                                           1    0.37    0.00  1.0000
   1  -9  -4    1508    1942                                                        1547    0.37    0.00  1.0000
   1   9  -4       0    1438                                                           1    0.37    0.00  1.0000
  -1 -10  -4       0    1698                                                           0    0.13    0.00  1.0000
  -1  10  -4     850    1638                                                         840   -0.13    0.00  1.0000
   1 -10  -4     278    1721                                                         272   -0.13    0.00  1.0000
   1  10  -4     178    1556                                                         173    0.13    0.00  1.0000
  -1 -11  -4     265    1780                                                         280    0.33    0.00  1.0000
  -1  11  -4       8    1673                                                          11    0.33    0.00  1.0000
   1 -11  -4     338    1832                                                         355    0.33    0.00  1.0000
   1  11  -4       8    1577                                                          11    0.33    0.00  1.0000
  -1 -12  -4    2385    2222                                                        2452    0.50    0.00  1.0000
  -1  12  -4    2022    2013                                                        2084   -0.50    0.00  1.0000
   1 -12  -4    1662    2048                                                        1718   -0.50    0.00  1.0000
   1  12  -4    1188    1749                                                        1236    0.50    0.00  1.0000
  -1  13  -4     230    1783                                                         274    1.03    0.00  1.0000
   1 -13  -4     213    1976                                                         256    1.03    0.00  1.0000
   1  13  -4      14    1580                                                          26    1.03    0.00  1.0000
  -1  14  -4    2101    2014                                                        2074   -0.22    0.00  1.0000
   1 -14  -4    2756    2172                                                        2725   -0.22    0.00  1.0000
   1  14  -4    1560    1749                                                        1537    0.22    0.00  1.0000
  -1  15  -4     352    1979                                                         433    1.51    0.00  1.0000
   1 -15  -4     171    2278                                                         229    1.51    0.00  1.0000
   1  15  -4     566    1606                                                         668    1.51    0.00  1.0000
  -2   0  -4    7043    2376                                                        7167   -0.54    0.00  1.0000
   2   0  -4    4585    2037                                                        4685   -0.54    0.00  1.0000
  -2  -1  -4    2198    1711                                                        2069   -1.02    0.00  1.0000
  -2   1  -4     721    1624                                                         648    1.02    0.00  1.0000
   2  -1  -4    1256    1558                                                        1159    1.02    0.00  1.0000
   2   1  -4     164    1372                                                         130   -1.02    0.00  1.0000
  -2  -2  -4    6419    2244                                                        6335   -0.38    0.00  1.0000
  -2   2  -4    9365    2542                                                        9264   -0.38    0.00  1.0000
   2  -2  -4    6537    2213                                                        6453   -0.38    0.00  1.0000
   2   2  -4    6070    2143                                                        5989   -0.38    0.00  1.0000
  -2  -3  -4    1675    1718                                                        1857   -1.59    0.00  1.0000
  -2   3  -4       4    1457                                                          18    1.59    0.00  1.0000
   2  -3  -4     867    1504                                                         999    1.59    0.00  1.0000
   2   3  -4    1069    1548                                                        1215   -1.59    0.00  1.0000
  -2  -4  -4    3574    2007                                                        3535    0.24    0.00  1.0000
  -2   4  -4    3240    1941                                                        3203    0.24    0.00  1.0000
   2  -4  -4    5768    2259                                                        5719    0.24    0.00  1.0000
   2   4  -4    4719    2140                                                        4674    0.24    0.00  1.0000
  -2  -5  -4    1645    1767                                                        1604   -0.37    0.00  1.0000
  -2   5  -4      47    1472                                                          40    0.37    0.00  1.0000
   2  -5  -4      47    1451                                                          40    0.37    0.00  1.0000
   2   5  -4     252    1454                                                         236   -0.37    0.00  1.0000
  -2  -6  -4    2344    1880                                                        2406    0.47    0.00  1.0000
  -2   6  -4    3593    2107                                                        3670    0.47    0.00  1.0000
   2  -6  -4    1538    1766                                                        1589    0.47    0.00  1.0000
   2   6  -4    2330    1873                                                        2392    0.47    0.00  1.0000
  -2  -7  -4     149    1676                                                         163    0.42    0.00  1.0000
  -2   7  -4     292    1654                                                         312   -0.42    0.00  1.0000
   2  -7  -4     154    1528                                                         169   -0.42    0.00  1.0000
   2   7  -4     662    1501                                                         692    0.42    0.00  1.0000
  -2  -8  -4    1497    1850                                                        1511   -0.13    0.00  1.0000
  -2   8  -4    1887    1874                                                        1903   -0.13    0.00  1.0000
   2  -8  -4       1    1487                                                           1   -0.13    0.00  1.0000
   2   8  -4     543    1537                                                         552   -0.13    0.00  1.0000
  -2  -9  -4     386    1793                                                         398    0.23    0.00  1.0000
  -2   9  -4     416    1572                                                         429   -0.23    0.00  1.0000
   2  -9  -4       4    1540                                                           5   -0.23    0.00  1.0000
   2   9  -4     355    1576                                                         367    0.23    0.00  1.0000
  -2  10  -4    3304    2036                                                        3284   -0.13    0.00  1.0000
   2 -10  -4    1907    1962                                                        1892   -0.13    0.00  1.0000
   2  10  -4     650    1608                                                         641   -0.13    0.00  1.0000
  -2  11  -4       2    1770                                                           3    0.29    0.00  1.0000
   2 -11  -4     348    1788                                                         363    0.29    0.00  1.0000
   2  11  -4     208    1310                                                         220   -0.29    0.00  1.0000
  -2  12  -4     735    1855                                                         741   -0.09    0.00  1.0000
   2 -12  -4     483    1948                                                         488   -0.09    0.00  1.0000
   2  12  -4     910    1573                                                         917   -0.09   -0.01  1.0000
  -2  13  -4     885    1842                                                         845    0.50    0.00  1.0000
   2 -13  -4     785    2013                                                         748    0.50    0.00  1.0000
   2  13  -4    1316    1625                                                        1267   -0.50    0.00  1.0000
  -2  14  -4    2288    2029                                                        2158   -1.01    0.00  1.0000
   2 -14  -4     928    2068                                                         846   -1.01    0.00  1.0000
   2  14  -4    2108    1830                                                        1983   -1.01   -0.01  1.0000
  -3  -1  -4     696    1714                                                         745    0.67    0.00  1.0000
  -3   1  -4     167    1562                                                         191    0.67    0.00  1.0000
   3  -1  -4      27    1365                                                          37    0.67    0.00  1.0000
   3   1  -4     196    1489                                                         222    0.67    0.00  1.0000
  -3  -2  -4     593    1511                                                         494    1.56    0.00  1.0000
  -3   2  -4      79    1558                                                          46   -1.56    0.00  1.0000
   3  -2  -4     549    1429                                                         454   -1.56    0.00  1.0000
   3   2  -4      33    1344                                                          13    1.56    0.00  1.0000
  -3  -3  -4    2439    1772                                                        2410    0.21    0.00  1.0000
  -3   3  -4    2921    1908                                                        2890    0.21    0.00  1.0000
   3  -3  -4    1856    1683                                                        1831    0.21    0.00  1.0000
   3   3  -4    1577    1566                                                        1554    0.21    0.00  1.0000
  -3  -4  -4     484    1707                                                         564    1.27    0.00  1.0000
  -3   4  -4      27    1598                                                          48   -1.27    0.00  1.0000
   3  -4  -4     478    1570                                                         557   -1.27    0.00  1.0000
   3   4  -4     152    1406                                                         198    1.27    0.00  1.0000
  -3  -5  -4     857    1736                                                         814   -0.55    0.00  1.0000
  -3   5  -4    1494    1794                                                        1437   -0.55    0.00  1.0000
   3  -5  -4    1536    1610                                                        1478   -0.55    0.00  1.0000
   3   5  -4    1012    1553                                                         965   -0.55    0.00  1.0000
  -3  -6  -4     356    1627                                                         382    0.50    0.00  1.0000
  -3   6  -4     603    1682                                                         637   -0.50    0.00  1.0000
   3  -6  -4     303    1471                                                         327   -0.50    0.00  1.0000
   3   6  -4    1171    1581                                                        1218    0.50    0.00  1.0000
  -3   7  -4    1347    1813                                                        1388   -0.40    0.00  1.0000
   3  -7  -4     775    1573                                                         806   -0.40    0.00  1.0000
   3   7  -4     784    1498                                                         815   -0.40    0.00  1.0000
  -3   8  -4      28    1545                                                          26   -0.12    0.00  1.0000
   3  -8  -4     838    1662                                                         828   -0.12    0.00  1.0000
   3   8  -4      28    1174                                                          26    0.12    0.00  1.0000
  -3   9  -4       0    1650                                                           0    0.01    0.00  1.0000
   3  -9  -4     152    1577                                                         152    0.01    0.00  1.0000
   3   9  -4       0    1234                                                           0    0.01    0.00  1.0000
  -3  10  -4    1464    1824                                                        1444    0.19    0.00  1.0000
   3 -10  -4    3370    2124                                                        3340    0.19    0.00  1.0000
   3  10  -4      92    1302                                                          87   -0.19    0.00  1.0000
  -3  11  -4     163    1725                                                         173   -0.27    0.00  1.0000
   3 -11  -4       0    1735                                                           0   -0.27    0.00  1.0000
   3  11  -4      93    1371                                                         100   -0.27    0.01  1.0000
  -3  12  -4    1118    1928                                                        1124    0.06    0.00  1.0000
   3 -12  -4    1653    1991                                                        1660    0.06    0.00  1.0000
   3  12  -4     249    1297                                                         252   -0.06    0.00  1.0000
  -3  13  -4       2    1815                                                           2    0.11    0.00  1.0000
   3 -13  -4     266    1918                                                         271    0.11    0.00  1.0000
   3  13  -4     965    1636                                                         974    0.11    0.01  1.0000
  -3  14  -4    2741    2291                                                        2762   -0.15    0.00  1.0000
   3 -14  -4    1575    2063                                                        1591   -0.15    0.00  1.0000
   3  14  -4    1563    1723                                                        1579    0.15    0.00  1.0000
  -4   0  -4    2214    1786                                                        2191   -0.18    0.00  1.0000
   4   0  -4    1569    1570                                                        1550   -0.18    0.00  1.0000
  -4  -1  -4     996    1686                                                        1062   -0.76    0.00  1.0000
  -4   1  -4     474    1476                                                         520    0.76    0.00  1.0000
   4  -1  -4     737    1484                                                         794    0.76    0.00  1.0000
   4   1  -4    1342    1572                                                        1419   -0.76    0.00  1.0000
  -4  -2  -4    2717    1998                                                        2763   -0.32    0.00  1.0000
  -4   2  -4    4574    2232                                                        4634   -0.32    0.00  1.0000
   4  -2  -4    4517    2048                                                        4577   -0.32    0.00  1.0000
   4   2  -4    3111    1879                                                        3161   -0.32    0.00  1.0000
  -4  -3  -4     988    1642                                                         888   -1.19    0.00  1.0000
  -4   3  -4     618    1724                                                         540    1.19    0.00  1.0000
   4  -3  -4     509    1491                                                         438    1.19    0.00  1.0000
   4   3  -4     252    1484                                                         203   -1.19    0.00  1.0000
  -4   4  -4    2056    1832                                                        2057    0.01    0.00  1.0000
   4  -4  -4    2820    1829                                                        2821    0.01    0.00  1.0000
   4   4  -4    2861    1640                                                        2862    0.01    0.00  1.0000
  -4   5  -4     471    1706                                                         519    0.79    0.00  1.0000
   4  -5  -4     638    1553                                                         694    0.79    0.00  1.0000
   4   5  -4       7    1146                                                          14   -0.79    0.00  1.0000
  -4   6  -4    4849    2149                                                        4738    0.59    0.00  1.0000
   4  -6  -4    4794    1935                                                        4684    0.59    0.00  1.0000
   4   6  -4    3016    1553                                                        2929    0.59    0.00  1.0000
  -4   7  -4    1059    1780                                                         990    0.79    0.00  1.0000
   4  -7  -4    1315    1644                                                        1238    0.79    0.00  1.0000
   4   7  -4      37    1265                                                          25   -0.79    0.00  1.0000
  -4   8  -4     866    1800                                                         895    0.36    0.00  1.0000
   4  -8  -4    2095    1938                                                        2141    0.36    0.00  1.0000
   4   8  -4    1370    1458                                                        1407    0.36    0.00  1.0000
  -4   9  -4    1134    1876                                                        1158    0.26    0.00  1.0000
   4  -9  -4     824    1841                                                         845    0.26    0.00  1.0000
   4   9  -4     775    1341                                                         795   -0.26    0.00  1.0000
  -4  10  -4    1233    1932                                                        1209    0.25    0.00  1.0000
   4 -10  -4    1785    2218                                                        1756    0.25    0.00  1.0000
   4  10  -4    1973    1562                                                        1943    0.25    0.00  1.0000
  -4  11  -4    1119    1939                                                        1171   -0.56    0.00  1.0000
   4 -11  -4    1654    1903                                                        1716   -0.56    0.00  1.0000
   4  11  -4     807    1613                                                         851    0.56    0.00  1.0000
  -4  12  -4     343    1994                                                         360    0.34    0.00  1.0000
   4 -12  -4       0    1878                                                           1    0.34    0.00  1.0000
   4  12  -4       0    1429                                                           1    0.34   -0.01  1.0000
  -4  13  -4     879    2142                                                         845   -0.42    0.00  1.0000
   4 -13  -4    1024    2053                                                         987   -0.42    0.00  1.0000
   4  13  -4     162    1589                                                         148    0.42    0.00  1.0000
  -5   1  -4     628    1733                                                         632   -0.06    0.00  1.0000
   5  -1  -4    1128    1537                                                        1133   -0.06    0.00  1.0000
   5   1  -4       0    1225                                                           0   -0.06    0.00  1.0000
  -5   2  -4     155    1639                                                         185   -0.83    0.00  1.0000
   5  -2  -4       1    1433                                                           0   -0.83    0.00  1.0000
   5   2  -4      81    1195                                                         103    0.83    0.00  1.0000
  -5   3  -4     637    1765                                                         662    0.35    0.00  1.0000
   5  -3  -4     812    1540                                                         840    0.35    0.00  1.0000
   5   3  -4     512    1260                                                         534    0.35    0.00  1.0000
  -5   4  -4      18    1689                                                          15   -0.23    0.00  1.0000
   5  -4  -4      18    1373                                                          15   -0.23    0.00  1.0000
   5   4  -4     184    1230                                                         175    0.23    0.00  1.0000
  -5   5  -4     575    1764                                                         586   -0.16    0.00  1.0000
   5  -5  -4    3169    1914                                                        3194   -0.16    0.00  1.0000
   5   5  -4    1783    1473                                                        1802   -0.16    0.00  1.0000
  -5   6  -4       0    1665                                                           0   -0.25    0.00  1.0000
   5  -6  -4       0    1382                                                           0   -0.25    0.00  1.0000
   5   6  -4       0    1299                                                           0    0.25    0.00  1.0000
  -5   7  -4     394    1796                                                         364   -0.56    0.00  1.0000
   5  -7  -4     664    1594                                                         625   -0.56    0.00  1.0000
   5   7  -4       8    1331                                                           4   -0.56    0.00  1.0000
  -5   8  -4     623    1947                                                         678   -0.78    0.00  1.0000
   5  -8  -4     207    1832                                                         239   -0.78    0.00  1.0000
   5   8  -4     499    1485                                                         548    0.78    0.00  1.0000
  -5   9  -4       0    1798                                                           1   -0.26    0.00  1.0000
   5  -9  -4     186    1651                                                         196   -0.26    0.00  1.0000
   5   9  -4     984    1594                                                        1007   -0.26    0.00  1.0000
  -5  10  -4    1447    2012                                                        1440   -0.06    0.00  1.0000
   5 -10  -4    1455    1797                                                        1448   -0.06    0.00  1.0000
   5  10  -4    1624    1628                                                        1617    0.06    0.00  1.0000
  -5  11  -4     308    1993                                                         325   -0.35    0.00  1.0000
   5 -11  -4     400    1729                                                         419   -0.35    0.00  1.0000
   5  11  -4       0    1542                                                           1   -0.35    0.00  1.0000
  -5  12  -4    1450    2108                                                        1381    0.67    0.00  1.0000
   5 -12  -4     925    1949                                                         870    0.67    0.00  1.0000
   5  12  -4     951    1808                                                         895   -0.67    0.00  1.0000
   6   0  -4     812    1366                                                         833   -0.27    0.00  1.0000
   6  -1  -4       6    1216                                                           3    0.57    0.00  1.0000
   6   1  -4     347    1174                                                         318   -0.57    0.00  1.0000
   6  -2  -4     259    1205                                                         237   -0.52    0.00  1.0000
   6   2  -4    1208    1249                                                        1159   -0.52    0.00  1.0000
   6  -3  -4    1682    1567                                                        1702    0.18    0.00  1.0000
   6   3  -4     692    1394                                                         705   -0.18    0.00  1.0000
  -6   4  -4    1998    1911                                                        2031   -0.27    0.00  1.0000
   6  -4  -4    3211    1904                                                        3252   -0.27    0.00  1.0000
   6   4  -4    1831    1578                                                        1862   -0.27    0.00  1.0000
  -6   5  -4    2320    2100                                                        2429   -0.82    0.00  1.0000
   6  -5  -4    2234    1843                                                        2341   -0.82    0.00  1.0000
   6   5  -4    1500    1615                                                        1588    0.82    0.00  1.0000
  -6   6  -4    3124    2120                                                        3192    0.44    0.00  1.0000
   6  -6  -4    1038    1612                                                        1077    0.44    0.00  1.0000
   6   6  -4    2004    1647                                                        2059    0.44    0.00  1.0000
  -6   7  -4    2188    2163                                                        2202    0.11    0.00  1.0000
   6  -7  -4    3125    2030                                                        3142    0.11    0.00  1.0000
   6   7  -4    1915    1594                                                        1928   -0.11    0.00  1.0000
  -6  -8  -4    2905    2147                                                        2871    0.23    0.00  1.0000
  -6   8  -4    3274    2311                                                        3238    0.23    0.00  1.0000
   6  -8  -4    2771    1997                                                        2738    0.23    0.00  1.0000
   6   8  -4    2652    1792                                                        2619    0.23    0.00  1.0000
  -6  -9  -4    1291    1947                                                        1214   -0.80    0.00  1.0000
  -6   9  -4     956    2008                                                         890    0.80    0.00  1.0000
   6  -9  -4    1299    1758                                                        1222    0.80    0.00  1.0000
   6   9  -4    2214    1756                                                        2113   -0.80    0.00  1.0000
  -6 -10  -4     890    1950                                                         893    0.04    0.00  1.0000
  -6  10  -4     887    2012                                                         890    0.04    0.00  1.0000
   6 -10  -4     384    1743                                                         386    0.04    0.00  1.0000
   6  10  -4     693    1579                                                         696    0.04    0.00  1.0000
  -6 -11  -4     800    2119                                                         800    0.00    0.00  1.0000
  -6  11  -4    1753    2287                                                        1753    0.00    0.00  1.0000
   6 -11  -4     990    1840                                                         990    0.00    0.00  1.0000
   6  11  -4     863    1774                                                         863    0.00    0.00  1.0000
  -7  -1  -4      28    1768                                                          47    1.18    0.00  1.0000
  -7   1  -4      28    1704                                                          47    1.18    0.00  1.0000
   7  -1  -4     370    1436                                                         434    1.18    0.00  1.0000
   7   1  -4     763    1400                                                         855    1.18    0.00  1.0000
  -7  -2  -4     125    1892                                                         107    0.60    0.00  1.0000
  -7   2  -4     955    1868                                                         905   -0.60    0.00  1.0000
   7  -2  -4      32    1209                                                          23   -0.60    0.00  1.0000
   7   2  -4       1    1166                                                           0    0.60    0.00  1.0000
  -7  -3  -4     701    1901                                                         653    0.68    0.00  1.0000
  -7   3  -4     203    1823                                                         177    0.68    0.00  1.0000
   7  -3  -4      10    1226                                                           5    0.68    0.00  1.0000
   7   3  -4      10    1260                                                           5    0.68    0.00  1.0000
  -7  -4  -4      11    1765                                                          19   -0.78    0.00  1.0000
   7  -4  -4     206    1305                                                         238    0.78    0.00  1.0000
   7   4  -4      61    1173                                                          79   -0.78    0.00  1.0000
  -7  -5  -4       0    1785                                                           0   -0.27    0.00  1.0000
   7  -5  -4     575    1305                                                         558   -0.27    0.00  1.0000
   7   5  -4    1341    1465                                                        1314   -0.27    0.00  1.0000
  -7  -6  -4      11    1662                                                           5   -0.80    0.00  1.0000
   7  -6  -4      11    1391                                                           5    0.80    0.00  1.0000
   7   6  -4      11    1383                                                           5   -0.80    0.00  1.0000
  -7  -7  -4     712    1918                                                         733   -0.28    0.00  1.0000
   7  -7  -4    1194    1685                                                        1221   -0.28    0.00  1.0000
   7   7  -4    1748    1584                                                        1780   -0.28    0.00  1.0000
  -7  -8  -4     858    1995                                                         799    0.76    0.00  1.0000
  -7   8  -4    1371    2101                                                        1296   -0.76    0.00  1.0000
   7  -8  -4      36    1538                                                          25   -0.76    0.00  1.0000
   7   8  -4    2086    1579                                                        1993    0.76    0.00  1.0000
  -7  -9  -4    2042    2154                                                        2084    0.34    0.00  1.0000
  -7   9  -4    2411    2348                                                        2457    0.34    0.00  1.0000
   7  -9  -4    1700    1892                                                        1738    0.34    0.00  1.0000
   7   9  -4    2123    1974                                                        2166    0.34    0.00  1.0000
  -7 -10  -4     402    2062                                                         444    0.76    0.00  1.0000
  -7  10  -4     565    2114                                                         615   -0.76    0.00  1.0000
   7 -10  -4       8    1587                                                          15   -0.76    0.00  1.0000
   7  10  -4     113    1593                                                         136    0.76    0.00  1.0000
  -8   0  -4     916    1834                                                         784   -1.66    0.00  1.0000
   8   0  -4    2575    1536                                                        2350   -1.66    0.00  1.0000
  -8  -1  -4     930    1935                                                         974   -0.52    0.00  1.0000
  -8   1  -4    2836    2113                                                        2912    0.52    0.00  1.0000
   8  -1  -4    1157    1752                                                        1205    0.52    0.00  1.0000
   8   1  -4    1007    1457                                                        1052   -0.52    0.00  1.0000
  -8  -2  -4      95    1937                                                         129   -1.17    0.00  1.0000
  -8   2  -4     578    1951                                                         658   -1.17    0.00  1.0000
   8  -2  -4      19    1377                                                          36   -1.17    0.00  1.0000
   8   2  -4     522    1548                                                         598   -1.17    0.00  1.0000
  -8  -3  -4     323    1900                                                         321   -0.03    0.00  1.0000
  -8   3  -4    1413    2090                                                        1410    0.03    0.00  1.0000
   8  -3  -4    1763    1607                                                        1759    0.03    0.00  1.0000
   8   3  -4     765    1557                                                         763   -0.03    0.00  1.0000
  -8  -3   4    1824    2222                                                        1820   -0.03    0.00  1.0000
  -8  -4  -4    2058    2127                                                        2048   -0.08    0.00  1.0000
  -8   4  -4    1095    2043                                                        1088   -0.08    0.00  1.0000
   8  -4  -4     899    1315                                                         893   -0.08    0.00  1.0000
   8   4  -4     952    1513                                                         946   -0.08    0.00  1.0000
  -8  -5  -4    2462    1979                                                        2357    0.78    0.00  1.0000
  -8   5  -4    2857    2342                                                        2744   -0.78    0.00  1.0000
   8  -5  -4    1883    1720                                                        1791   -0.78    0.00  1.0000
   8   5  -4    2022    1629                                                        1927    0.78    0.00  1.0000
  -8  -6  -4      12    1668                                                           9    0.34    0.00  1.0000
  -8   6  -4     178    2145                                                         166    0.34    0.00  1.0000
   8  -6  -4     637    1620                                                         614    0.34    0.00  1.0000
   8   6  -4     848    1642                                                         821    0.34    0.00  1.0000
  -8  -7  -4      11    1673                                                           7   -0.50    0.00  1.0000
  -8   7  -4    2287    2425                                                        2223    0.50    0.00  1.0000
   8  -7  -4    2393    1703                                                        2327    0.50    0.00  1.0000
   8   7  -4    1935    1763                                                        1876   -0.50    0.00  1.0000
  -8  -8  -4     403    1846                                                         384   -0.35    0.00  1.0000
  -8   8  -4    1749    2575                                                        1709   -0.35    0.00  1.0000
   8  -8  -4    1822    1585                                                        1781   -0.35    0.00  1.0000
   8   8  -4    2532    1874                                                        2484   -0.35    0.00  1.0000
  -9  -1  -4     801    1949                                                         882    1.03    0.00  1.0000
  -9   1  -4     305    1820                                                         356    1.03    0.00  1.0000
   9  -1  -4      11    1616                                                          22    1.03    0.00  1.0000
   9   1  -4      81    1427                                                         108    1.03    0.00  1.0000
  -9  -2  -4    1127    2050                                                        1089    0.42    0.00  1.0000
  -9   2  -4    1049    1795                                                        1012   -0.42    0.00  1.0000
   9  -2  -4     129    1481                                                         116   -0.42    0.00  1.0000
   9   2  -4     727    1651                                                         696    0.42    0.00  1.0000
  -9  -2   4      36    2140                                                          29    0.42    0.00  1.0000
  -9  -3  -4    1003    2042                                                        1035    0.36    0.00  1.0000
  -9   3  -4     193    1775                                                         207    0.36    0.00  1.0000
   9  -3  -4     119    1389                                                         130    0.36    0.00  1.0000
   9   3  -4     846    1624                                                         875    0.36    0.00  1.0000
  -9  -3   4       0    2190                                                           0    0.36    0.00  1.0000
  -9  -4  -4    1204    1989                                                        1180   -0.25    0.00  1.0000
  -9   4  -4    1140    1906                                                        1117    0.25    0.00  1.0000
   9  -4  -4     853    1424                                                         833    0.25    0.00  1.0000
   9   4  -4     730    1609                                                         712   -0.25    0.00  1.0000
  -9  -4   4     500    2165                                                         485   -0.25    0.00  1.0000
  -9  -5  -4       5    2056                                                           4   -0.12    0.00  1.0000
  -9   5  -4     693    1982                                                         684   -0.12    0.00  1.0000
   9   5  -4       5    1611                                                           4   -0.12    0.00  1.0000
   0   0   0       5       0                                                           4   -0.12    0.00  1.0000
   0   0   0       0       0                                                           0   -0.12    0.00  1.0000

;
_shelx_hkl_checksum              91492
#END Tags that were not found in dictionaries
loop_
_space_group_symop_operation_xyz
'x, y, z'
'-x, -y, z'
'-x+1/2, y+1/2, -z'
'x+1/2, -y+1/2, -z'
'-x, -y, -z'
'x, y, -z'
'x-1/2, -y-1/2, z'
'-x-1/2, y-1/2, z'
loop_
_atom_site_label
_atom_site_type_symbol
_atom_site_fract_x
_atom_site_fract_y
_atom_site_fract_z
_atom_site_U_iso_or_equiv
_atom_site_adp_type
_atom_site_occupancy
_atom_site_site_symmetry_order
_atom_site_calc_flag
_atom_site_refinement_flags_posn
_atom_site_refinement_flags_adp
_atom_site_refinement_flags_occupancy
Cd1 Cd 0.77229(13) 0.26032(8) 0.5000 0.0376(6) Uani 1 2 d S T P
Cl3 Cl 0.7011(5) 0.1963(3) 0.0000 0.0471(18) Uani 1 2 d S T P
Cl4 Cl 0.8461(4) 0.3249(3) 0.0000 0.0441(17) Uani 1 2 d S T P
Cd2 Cd 0.61063(14) 0.50827(10) 0.5000 0.0593(8) Uani 1 2 d S T P
Cl99 Cl 0.7310(6) 0.5177(6) 1.0000 0.106(4) Uani 1 2 d S T P
N21 N 0.9388(15) 0.1015(10) 0.5000 0.049(6) Uani 1 2 d S T P
N23 N 0.9004(15) 0.1996(14) 0.5000 0.064(8) Uani 1 2 d S T P
C2 C 0.523(2) 0.3784(10) 0.5000 0.041(7) Uani 1 2 d S T P
C1 C 1.066(2) 0.1733(10) 0.5000 0.047(7) Uani 1 2 d S TU P
N24 N 0.6496(13) 0.3243(11) 0.5000 0.042(6) Uani 1 2 d S T P
C3 C 0.877(2) 0.1452(14) 0.5000 0.062(10) Uani 1 2 d S T P
H3 H 0.8162 0.1361 0.5000 0.075 Uiso 1 2 calc R U P
N20 N 1.0191(15) 0.2752(10) 0.5000 0.061(7) Uani 1 2 d S T P
H20A H 1.0738 0.2871 0.5000 0.073 Uiso 1 2 calc R U P
H20B H 0.9754 0.2992 0.5000 0.073 Uiso 1 2 calc R U P
C4 C 1.0011(14) 0.2173(10) 0.5000 0.023(5) Uani 1 2 d S T P
N50 N 0.5964(15) 0.4132(9) 0.5000 0.045(6) Uani 1 2 d S T P
C20 C 0.674(2) 0.3777(13) 0.5000 0.051(8) Uani 1 2 d S T P
H20 H 0.7329 0.3905 0.5000 0.061 Uiso 1 2 calc R U P
Cl98 Cl 0.5000 0.5000 0.0000 0.201(14) Uani 1 4 d S T P
loop_
_atom_site_aniso_label
_atom_site_aniso_U_11
_atom_site_aniso_U_22
_atom_site_aniso_U_33
_atom_site_aniso_U_23
_atom_site_aniso_U_13
_atom_site_aniso_U_12
Cd1 0.0447(12) 0.0466(13) 0.0214(9) 0.000 0.000 0.0198(9)
Cl3 0.061(4) 0.060(5) 0.021(3) 0.000 0.000 0.010(3)
Cl4 0.055(4) 0.055(4) 0.023(3) 0.000 0.000 0.007(3)
Cd2 0.0379(13) 0.0530(16) 0.0870(19) 0.000 0.000 -0.0045(10)
Cl99 0.063(6) 0.164(12) 0.090(8) 0.000 0.000 -0.017(6)
N21 0.055(15) 0.059(16) 0.033(12) 0.000 0.000 0.023(13)
N23 0.052(16) 0.12(3) 0.017(11) 0.000 0.000 0.034(16)
C2 0.09(2) 0.008(15) 0.028(14) 0.000 0.000 0.005(13)
C1 0.10(2) 0.005(13) 0.036(14) 0.000 0.000 -0.006(14)
N24 0.017(11) 0.076(19) 0.034(12) 0.000 0.000 -0.007(11)
C3 0.08(2) 0.06(2) 0.040(17) 0.000 0.000 0.05(2)
N20 0.067(16) 0.031(15) 0.084(19) 0.000 0.000 -0.037(12)
C4 0.041(14) 0.017(13) 0.012(10) 0.000 0.000 0.011(10)
N50 0.059(15) 0.031(13) 0.044(13) 0.000 0.000 0.019(11)
C20 0.06(2) 0.06(2) 0.024(14) 0.000 0.000 -0.008(17)
Cl98 0.105(15) 0.36(4) 0.13(2) 0.000 0.000 -0.006(17)
loop_
_atom_type_symbol
_atom_type_description
_atom_type_scat_dispersion_real
_atom_type_scat_dispersion_imag
_atom_type_scat_source
C C 0.0033 0.0016 'International Tables Vol C Tables 4.2.6.8 and 6.1.1.4'
H H 0.0000 0.0000 'International Tables Vol C Tables 4.2.6.8 and 6.1.1.4'
N N 0.0061 0.0033 'International Tables Vol C Tables 4.2.6.8 and 6.1.1.4'
Cl Cl 0.1484 0.1585 'International Tables Vol C Tables 4.2.6.8 and 6.1.1.4'
Cd Cd -0.8075 1.2024 'International Tables Vol C Tables 4.2.6.8 and 6.1.1.4'
loop_
_geom_angle_atom_site_label_1
_geom_angle_atom_site_label_2
_geom_angle_atom_site_label_3
_geom_angle
_geom_angle_site_symmetry_1
_geom_angle_site_symmetry_3
N24 Cd1 N23 177.3(10) . .
N24 Cd1 Cl3 93.3(4) . 1_556
N23 Cd1 Cl3 88.6(6) . 1_556
N24 Cd1 Cl3 93.3(4) . .
N23 Cd1 Cl3 88.6(6) . .
Cl3 Cd1 Cl3 90.7(2) 1_556 .
N24 Cd1 Cl4 87.2(4) . .
N23 Cd1 Cl4 90.9(6) . .
Cl3 Cd1 Cl4 179.25(19) 1_556 .
Cl3 Cd1 Cl4 89.88(16) . .
N24 Cd1 Cl4 87.2(4) . 1_556
N23 Cd1 Cl4 90.9(6) . 1_556
Cl3 Cd1 Cl4 89.88(16) 1_556 1_556
Cl3 Cd1 Cl4 179.25(19) . 1_556
Cl4 Cd1 Cl4 89.6(2) . 1_556
Cd1 Cl3 Cd1 90.7(2) . 1_554
Cd1 Cl4 Cd1 89.6(2) 1_554 .
N50 Cd2 N21 156.2(7) . 3_656
N50 Cd2 Cl98 82.0(4) . .
N21 Cd2 Cl98 82.3(3) 3_656 .
N50 Cd2 Cl98 82.0(4) . 1_556
N21 Cd2 Cl98 82.3(3) 3_656 1_556
Cl98 Cd2 Cl98 96.85(8) . 1_556
N50 Cd2 Cl99 98.6(5) . .
N21 Cd2 Cl99 97.9(5) 3_656 .
Cl98 Cd2 Cl99 177.56(16) . .
Cl98 Cd2 Cl99 85.58(15) 1_556 .
N50 Cd2 Cl99 98.6(5) . 1_554
N21 Cd2 Cl99 97.9(5) 3_656 1_554
Cl98 Cd2 Cl99 85.58(15) . 1_554
Cl98 Cd2 Cl99 177.56(16) 1_556 1_554
Cl99 Cd2 Cl99 92.0(3) . 1_554
N50 Cd2 Cd2 77.8(5) . 5_666
N21 Cd2 Cd2 78.3(5) 3_656 5_666
Cl98 Cd2 Cd2 48.42(4) . 5_666
Cl98 Cd2 Cd2 48.42(4) 1_556 5_666
Cl99 Cd2 Cd2 134.00(15) . 5_666
Cl99 Cd2 Cd2 134.00(15) 1_554 5_666
Cd2 Cl99 Cd2 92.0(3) 1_556 .
C2 N21 C3 111(3) 7_665 .
C2 N21 Cd2 129.3(17) 7_665 3_646
C3 N21 Cd2 120(2) . 3_646
C3 N23 C4 121(2) . .
C3 N23 Cd1 112(2) . .
C4 N23 Cd1 127(2) . .
N21 C2 N50 122(2) 7_565 .
N21 C2 C1 139(3) 7_565 7_565
N50 C2 C1 99(2) . 7_565
N24 C1 C2 120(3) 7_665 7_665
N24 C1 C4 130(2) 7_665 .
C2 C1 C4 109(3) 7_665 .
N24 C1 C20 39.4(17) 7_665 7_665
C2 C1 C20 80.8(19) 7_665 7_665
C4 C1 C20 170(2) . 7_665
C1 N24 C20 103(3) 7_565 .
C1 N24 Cd1 143(2) 7_565 .
C20 N24 Cd1 113.8(17) . .
N23 C3 N21 123(3) . .
N20 C4 C1 126(2) . .
N20 C4 N23 117(2) . .
C1 C4 N23 117(2) . .
C2 N50 C20 107(2) . .
C2 N50 Cd2 132.2(16) . .
C20 N50 Cd2 120.8(19) . .
N24 C20 N50 110(2) . .
N24 C20 C1 37.2(14) . 7_565
N50 C20 C1 73.1(16) . 7_565
Cd2 Cl98 Cd2 180.0 . 5_665
Cd2 Cl98 Cd2 83.15(8) . 5_666
Cd2 Cl98 Cd2 96.85(8) 5_665 5_666
Cd2 Cl98 Cd2 96.85(8) . 1_554
Cd2 Cl98 Cd2 83.15(8) 5_665 1_554
Cd2 Cl98 Cd2 180.00(11) 5_666 1_554
loop_
_geom_bond_atom_site_label_1
_geom_bond_atom_site_label_2
_geom_bond_distance
_geom_bond_site_symmetry_2
Cd1 N24 2.37(2) .
Cd1 N23 2.38(2) .
Cd1 Cl3 2.624(5) 1_556
Cd1 Cl3 2.624(5) .
Cd1 Cl4 2.648(5) .
Cd1 Cl4 2.649(5) 1_556
Cl3 Cd1 2.624(5) 1_554
Cl4 Cd1 2.648(5) 1_554
Cd2 N50 2.25(2) .
Cd2 N21 2.32(3) 3_656
Cd2 Cl98 2.4942(15) .
Cd2 Cl98 2.4942(15) 1_556
Cd2 Cl99 2.594(7) .
Cd2 Cl99 2.594(7) 1_554
Cd2 Cd2 3.310(4) 5_666
Cl99 Cd2 2.594(7) 1_556
N21 C2 1.33(3) 7_665
N21 C3 1.38(3) .
N21 Cd2 2.32(3) 3_646
N23 C3 1.33(4) .
N23 C4 1.55(3) .
C2 N21 1.33(3) 7_565
C2 N50 1.37(3) .
C2 C1 1.38(3) 7_565
C1 N24 1.25(3) 7_665
C1 C2 1.38(3) 7_665
C1 C4 1.41(3) .
C1 C20 2.01(4) 7_665
N24 C1 1.25(3) 7_565
N24 C20 1.31(4) .
N20 C4 1.39(3) .
N50 C20 1.42(3) .
C20 C1 2.01(4) 7_565
Cl98 Cd2 2.4942(15) 5_665
Cl98 Cd2 2.4942(15) 5_666
Cl98 Cd2 2.4942(15) 1_554
loop_
_platon_squeeze_void_nr
_platon_squeeze_void_average_x
_platon_squeeze_void_average_y
_platon_squeeze_void_average_z
_platon_squeeze_void_volume
_platon_squeeze_void_count_electrons
_platon_squeeze_void_content
1 0.000 0.500 -0.124 142 18 ' '
2 0.500 0.000 -0.127 142 18 ' '
