#------------------------------------------------------------------------------
#$Date: 2016-03-26 21:17:49 +0200 (Sat, 26 Mar 2016) $
#$Revision: 180472 $
#$URL: svn://www.crystallography.net/cod/cif/7/21/41/7214125.cif $
#------------------------------------------------------------------------------
#
# This file is available in the Crystallography Open Database (COD),
# http://www.crystallography.net/
#
# All data on this site have been placed in the public domain by the
# contributors.
#
data_7214125
loop_
_publ_author_name
'Hern\'andez, Jos\'e G.'
'Macdonald, Neil A. J.'
'Mottillo, Cristina'
'Butler, Ian S.'
'Fri\<s\<ci\'c, Tomislav'
_publ_section_title
;
 A mechanochemical strategy for oxidative addition: remarkable yields and
 stereoselectivity in the halogenation of organometallic Re(i) complexes
;
_journal_issue                   3
_journal_name_full               'Green Chemistry'
_journal_page_first              1087
_journal_paper_doi               10.1039/c3gc42104j
_journal_volume                  16
_journal_year                    2014
_chemical_formula_moiety         'C7 H5 I2 O2 Re'
_chemical_formula_sum            'C7 H5 I2 O2 Re'
_chemical_formula_weight         561.11
_chemical_name_common            dia-CpRe(CO)2I2
_chemical_name_systematic
;
 dia-cyclopentadienyldiiododicarbonyl Re(III)
;
_space_group_crystal_system      monoclinic
_space_group_IT_number           12
_space_group_name_Hall           '-C 2y'
_space_group_name_H-M_alt        'C 1 2/m 1'
_symmetry_space_group_name_Hall  '-C 2y'
_symmetry_space_group_name_H-M   'C 1 2/m 1'
_atom_sites_solution_hydrogens   geom
_audit_creation_method           SHELXL-2013
_cell_angle_alpha                90
_cell_angle_beta                 107.669(4)
_cell_angle_gamma                90
_cell_formula_units_Z            4
_cell_length_a                   13.389(5)
_cell_length_b                   9.290(4)
_cell_length_c                   9.128(4)
_cell_measurement_reflns_used    1680
_cell_measurement_temperature    293(2)
_cell_measurement_theta_max      25.24
_cell_measurement_theta_min      2.71
_cell_volume                     1081.8(8)
_computing_cell_refinement       'Bruker SAINT'
_computing_data_collection       'Bruker APEX2'
_computing_data_reduction        'Bruker SAINT'
_computing_molecular_graphics    'Bruker SHELXTL'
_computing_publication_material  'Bruker SHELXTL'
_computing_structure_refinement  'SHELXL-2013 (Sheldrick, 2013)'
_computing_structure_solution    'SHELXL-2013 (Sheldrickm 2013)'
_diffrn_ambient_temperature      293(2)
_diffrn_measured_fraction_theta_full 0.996
_diffrn_measured_fraction_theta_max 0.995
_diffrn_measurement_device_type  'Bruker APEX-II CCD'
_diffrn_measurement_method       '\f and \w scans'
_diffrn_radiation_type           MoK\a
_diffrn_radiation_wavelength     0.71073
_diffrn_reflns_av_R_equivalents  0.0620
_diffrn_reflns_av_unetI/netI     0.0632
_diffrn_reflns_Laue_measured_fraction_full 0.996
_diffrn_reflns_Laue_measured_fraction_max 0.995
_diffrn_reflns_limit_h_max       16
_diffrn_reflns_limit_h_min       -13
_diffrn_reflns_limit_k_max       10
_diffrn_reflns_limit_k_min       -11
_diffrn_reflns_limit_l_max       10
_diffrn_reflns_limit_l_min       -10
_diffrn_reflns_number            3268
_diffrn_reflns_point_group_measured_fraction_full 0.996
_diffrn_reflns_point_group_measured_fraction_max 0.995
_diffrn_reflns_theta_full        25.242
_diffrn_reflns_theta_max         25.343
_diffrn_reflns_theta_min         2.342
_exptl_absorpt_coefficient_mu    16.901
_exptl_absorpt_correction_T_max  0.03
_exptl_absorpt_correction_T_min  0.002
_exptl_absorpt_correction_type   multi-scan
_exptl_absorpt_process_details   '(Blessing, 1995)'
_exptl_crystal_colour            Red
_exptl_crystal_density_diffrn    3.445
_exptl_crystal_description       Plates
_exptl_crystal_F_000             976
_exptl_crystal_size_max          0.4
_exptl_crystal_size_mid          0.4
_exptl_crystal_size_min          0.2
_refine_diff_density_max         2.075
_refine_diff_density_min         -1.740
_refine_diff_density_rms         0.261
_refine_ls_extinction_method     none
_refine_ls_goodness_of_fit_ref   1.052
_refine_ls_hydrogen_treatment    constr
_refine_ls_matrix_type           full
_refine_ls_number_parameters     61
_refine_ls_number_reflns         1047
_refine_ls_number_restraints     0
_refine_ls_restrained_S_all      1.052
_refine_ls_R_factor_all          0.0479
_refine_ls_R_factor_gt           0.0414
_refine_ls_shift/su_max          0.000
_refine_ls_shift/su_mean         0.000
_refine_ls_structure_factor_coef Fsqd
_refine_ls_weighting_details
'w=1/[\s^2^(Fo^2^)+(0.0574P)^2^] where P=(Fo^2^+2Fc^2^)/3'
_refine_ls_weighting_scheme      calc
_refine_ls_wR_factor_gt          0.1020
_refine_ls_wR_factor_ref         0.1076
_reflns_Friedel_coverage         0.000
_reflns_number_gt                915
_reflns_number_total             1047
_reflns_threshold_expression     'I > 2\s(I)'
_iucr_refine_instructions_details
;
TITL CM30_0m in C2               New: C2/m
CELL  0.71073  13.3890   9.2900   9.1280   90.000  107.669   90.000
ZERR     4.00   0.0050   0.0040   0.0040    0.000    0.004    0.000
LATT   7
SYMM  - X,   Y, - Z
SFAC  C    H    I    O    RE
UNIT  28   20    8    8    4
MERG   2
FMAP   2
PLAN   10
ACTA
BOND   $H
CONF
L.S.   10
WGHT    0.057400
FVAR       0.05402
RE1   5    0.232172    0.500000    0.237671    10.50000    0.03797    0.03916 =
         0.04034    0.00000    0.01902    0.00000
I1    3    0.175401    0.500000   -0.080236    10.50000    0.10342    0.06768 =
         0.04221    0.00000    0.02766    0.00000
I2    3    0.136639    0.500000    0.466923    10.50000    0.11366    0.08141 =
         0.06991    0.00000    0.06631    0.00000
O1    4    0.091225    0.232145    0.159845    11.00000    0.07360    0.06109 =
         0.10398   -0.01238    0.04291   -0.02073
C1    1    0.137820    0.332005    0.183895    11.00000    0.04910    0.04988 =
         0.05677    0.00512    0.02023    0.00180
C3A   1    0.393656    0.500000    0.201084    10.50000    0.05326    0.23105 =
         0.08036    0.00000    0.04289    0.00000
AFIX  43
H3A   2    0.402612    0.500001    0.103959    10.50000   -1.20000
AFIX   0
C4A   1    0.385443    0.380487    0.290169    11.00000    0.03218    0.07340 =
         0.19301   -0.04877    0.01148   -0.00592
AFIX  43
H4A   2    0.386644    0.284391    0.262200    11.00000   -1.20000
AFIX   0
C5A   1    0.375527    0.429769    0.423188    11.00000    0.07809    0.11111 =
         0.08757    0.04014    0.00001    0.01713
AFIX  43
H5A   2    0.369538    0.372319    0.503538    11.00000   -1.20000
AFIX   0
HKLF    4

REM  CM30_0m in C2               New: C2/m
REM R1 =  0.0414 for     915 Fo > 4sig(Fo)  and  0.0479 for all    1047 data
REM     61 parameters refined using      0 restraints

END

WGHT      0.0572      0.0000

REM Highest difference peak  2.075,  deepest hole -1.740,  1-sigma level  0.261
Q1    1   0.3099  0.5000  0.2750  10.50000  0.05    2.07
Q2    1   0.1427  0.5000  0.1967  10.50000  0.05    2.03
Q3    1   0.2153  0.5000  0.5172  10.50000  0.05    1.32
Q4    1   0.2693  0.5000  0.3513  10.50000  0.05    1.09
Q5    1   0.1137  0.5000 -0.0640  10.50000  0.05    1.07
Q6    1   0.0580  0.5000 -0.1778  10.50000  0.05    1.05
Q7    1   0.2013  0.5000  0.1321  10.50000  0.05    1.04
Q8    1   0.3183  0.4319  0.2171  11.00000  0.05    0.91
Q9    1   0.2348  0.3827  0.2316  11.00000  0.05    0.82
Q10   1   0.0209  0.5000  0.3966  10.50000  0.05    0.71
;
_cod_data_source_file            c3gc42104j.txt
_cod_data_source_block           dia-CpRe(CO)2I2
_cod_database_code               7214125
#BEGIN Tags that were not found in dictionaries:
_shelx_space_group_comment
;
The symmetry employed for this shelxl refinement is uniquely defined
by the following loop, which should always be used as a source of
symmetry information in preference to the above space-group names.
They are only intended as comments.
;
_shelxl_version_number           2013-4
_shelx_res_checksum              42132
_shelx_hkl_file
;
   2   0   0  303.85   28.25
   2   0   0  342.74   23.78
   4   0   0   36.21    3.36
   4   0   0   34.88    2.87
  -4   0   0   38.07    3.93
   6   0   0   10.63    1.10
   6   0   0   10.65    1.26
  -6   0   0   12.75    1.72
   8   0   0   61.50    5.56
  -8   0   0   84.59    7.62
  10   0   0   11.58    1.36
 -10   0   0   17.06    2.22
  12   0   0    0.07    0.48
  14   0   0   -0.40    0.47
   1  -1   0  100.49    8.66
   1  -1   0  100.12    7.25
   1   1   0   98.84    7.25
  -1   1   0  100.34    9.72
   1   1   0   90.70    8.65
   3  -1   0  331.95   28.28
  -3  -1   0  304.90   31.74
   3  -1   0  366.89   23.80
  -3   1   0  297.48   31.82
   3   1   0  316.18   28.29
   5  -1   0  118.65    9.26
  -5  -1   0   94.33   10.35
   5  -1   0  103.68    7.82
  -5   1   0  108.11   10.70
   5   1   0  104.71    7.85
   5   1   0   95.62    9.29
   7  -1   0    7.11    0.85
  -7  -1   0    6.66    1.09
   7  -1   0    7.12    1.07
   7   1   0    7.50    0.91
  -7   1   0    7.40    1.61
   7   1   0    6.87    1.05
   9  -1   0   12.94    1.39
  -9  -1   0   13.40    1.84
  -9   1   0   21.77    2.95
   9   1   0   15.17    1.49
 -11  -1   0   38.39    3.95
  11  -1   0   32.76    2.96
  11   1   0   35.64    3.05
  13  -1   0   21.20    2.11
  13   1   0   26.12    2.25
  15  -1   0    8.67    1.20
  15   1   0    8.82    1.26
   0  -2   0 1000.00   73.06
   0   2   0  992.39   87.01
   2  -2   0  442.59   38.17
   2  -2   0  448.10   32.03
  -2   2   0  453.33   42.86
   2   2   0  382.57   38.15
   2   2   0  456.75   32.03
  -4  -2   0    9.30    1.10
   4  -2   0   11.23    0.89
   4  -2   0    9.35    1.04
   4   2   0   12.10    0.91
   4   2   0    9.88    1.15
  -4   2   0    9.07    1.27
  -6  -2   0    0.92    0.34
   6  -2   0    0.69    0.34
   6  -2   0    0.78    0.33
   6   2   0    1.88    0.44
   6   2   0   -0.07    0.53
  -6   2   0    0.79    0.71
   8  -2   0   27.72    2.57
   8  -2   0   25.84    2.20
  -8  -2   0   24.22    2.80
   8   2   0   24.44    2.27
  -8   2   0   26.50    3.94
  10  -2   0   15.26    1.46
 -10  -2   0   11.58    1.81
 -10   2   0   22.55    3.34
  10   2   0   16.42    1.61
  12  -2   0    0.86    0.52
  12   2   0    0.55    0.67
 -12   2   0   -0.68    1.16
  14  -2   0   -0.01    0.52
  14   2   0   -0.21    0.65
   1  -3   0  101.21    7.69
   1  -3   0  111.57    9.24
   1   3   0  100.53    9.23
   3  -3   0  254.24   18.14
   3  -3   0  255.90   21.66
  -3   3   0  244.86   24.31
   3   3   0  252.52   18.14
   3   3   0  225.88   21.66
   5  -3   0   50.71    3.65
  -5  -3   0   46.81    4.79
   5  -3   0   46.61    4.34
  -5   3   0   44.54    4.96
   5   3   0   46.96    4.47
   5   3   0   50.62    3.66
  -7  -3   0    8.13    1.10
   7  -3   0    8.77    0.92
   7  -3   0    9.08    1.06
   7   3   0   11.54    1.03
   7   3   0    4.86    1.22
  -7   3   0    7.46    1.55
  -9  -3   0   19.29    2.12
   9  -3   0   16.31    1.64
  -9   3   0   14.00    2.89
   9   3   0   20.60    1.84
  11  -3   0   19.32    1.93
 -11   3   0   26.97    3.97
  11   3   0   22.63    2.16
  13  -3   0   12.33    1.42
  13   3   0   15.95    1.70
   0  -4   0  616.47   46.05
   0   4   0  639.91   54.94
   2  -4   0  210.55   16.17
   2  -4   0  231.39   19.37
   2   4   0  225.40   16.18
   2   4   0  213.49   19.37
   4  -4   0   11.53    1.22
   4  -4   0   11.65    0.93
   4   4   0    9.53    1.30
   4   4   0   11.07    0.92
   6  -4   0    7.69    0.95
  -6  -4   0    7.18    0.90
   6  -4   0    7.27    0.73
   6   4   0    4.48    1.03
  -6   4   0    5.88    1.12
   6   4   0    6.71    0.74
   8  -4   0   10.46    1.13
  -8  -4   0    9.60    1.38
   8  -4   0   11.96    1.36
   8   4   0   13.14    1.22
  -8   4   0    8.81    1.83
  10  -4   0    3.68    0.73
 -10   4   0    3.14    1.70
  10   4   0    7.81    1.10
  12  -4   0    1.50    0.57
 -12   4   0   -1.54    1.49
  12   4   0    0.70    0.81
  14  -4   0    0.17    0.55
  14   4   0   -0.89    0.78
   1  -5   0   53.40    4.90
  -1  -5   0   55.52    4.00
   1  -5   0   52.69    3.99
   1   5   0   52.81    4.92
   3  -5   0  149.47   13.00
   3  -5   0  147.05   10.81
   3   5   0  145.96   13.06
   3   5   0  144.03   10.81
   5  -5   0   31.22    2.92
   5  -5   0   31.53    2.38
   5   5   0   28.30    3.11
   5   5   0   30.01    2.36
   7  -5   0    2.79    0.51
  -7  -5   0    3.53    0.61
   7  -5   0    3.31    0.68
  -7   5   0    3.03    0.87
   7   5   0    3.07    0.53
   7   5   0    1.38    0.85
  -9  -5   0   14.54    1.73
   9  -5   0   12.68    1.37
   9  -5   0   15.43    1.66
   9   5   0   14.44    1.47
  -9   5   0   10.47    2.26
  11  -5   0   13.11    1.47
  11   5   0   17.74    1.77
 -11   5   0   11.02    2.88
  13  -5   0    8.85    1.16
 -13   5   0    6.01    2.45
  13   5   0    5.87    1.36
   0  -6   0  281.30   20.10
   0  -6   0  265.29   24.09
   2  -6   0  132.35   12.05
  -2  -6   0  147.96   10.00
   2  -6   0  128.77    9.99
   2   6   0  131.58   12.12
   4  -6   0   10.43    1.28
   4  -6   0   10.90    0.91
   4   6   0   10.81    0.90
   4   6   0    8.37    1.40
   6  -6   0    1.43    0.56
   6  -6   0    2.02    0.42
   6   6   0    1.86    0.37
   6   6   0    0.97    0.80
   8  -6   0   12.18    1.44
   8  -6   0   11.14    1.14
  -8  -6   0    9.87    1.35
   8   6   0   11.49    1.16
  10  -6   0    5.59    0.93
  10   6   0    9.07    1.22
  12  -6   0   -0.07    0.55
  12   6   0   -0.88    0.78
  -1  -7   0   24.50    1.77
  -1  -7   0   23.44    2.35
   1  -7   0   21.43    2.30
   1  -7   0   20.97    1.75
   3  -7   0   55.92    5.41
  -3  -7   0   62.67    4.40
   3  -7   0   57.26    4.39
   3   7   0   56.84    5.56
   5  -7   0   14.11    1.58
   5  -7   0   12.90    1.15
   5   7   0   12.75    1.12
   5   7   0   12.90    1.95
   7  -7   0    3.50    0.58
   7  -7   0    4.09    0.88
   7   7   0    3.77    0.57
   9  -7   0    6.45    0.97
   9  -7   0    8.64    1.34
   9   7   0    8.28    1.04
  11   7   0    9.72    1.39
   0  -8   0  110.52   10.01
  -2  -8   0   46.79    4.59
   2  -8   0   48.33    4.53
  -4  -8   0    7.34    1.27
   4  -8   0    6.09    1.06
   6  -8   0    5.27    1.00
   6   8   0    3.43    1.35
   8  -8   0    5.10    1.09
   1  -9   0    2.42    0.74
  -1  -9   0    3.17    0.86
   3  -9   0   12.05    1.60
  -3  -9   0   13.29    1.77
  -5  -9   0    8.42    1.58
   5  -9   0    9.39    1.37
   7  -9   0    1.76    0.77
   9  -9   0    2.38    0.88
   0 -10   0   33.01    3.43
   2 -10   0   20.30    2.34
  -2 -10   0   21.29    2.45
  -4 -10   0    4.28    1.22
   4 -10   0    3.86    0.94
   6 -10   0    1.25    0.72
  -6 -10   0    0.98    1.06
   1 -11   0    1.67    0.80
  -1 -11   0    0.84    0.79
  14   0  -1   14.16    1.56
  12   0  -1   23.56    2.19
  10   0  -1   88.59    6.88
   8   0  -1  201.27   16.59
   8   0  -1  214.18   19.67
  -8   0   1  255.25   22.44
  -6   0   1   31.78    4.13
   6   0  -1   40.01    2.95
   4   0  -1   20.67    1.47
  -4   0   1   14.79    1.98
   4   0  -1   17.41    1.92
   2   0  -1    8.70    0.68
   0   0   1    0.28    0.04
   0   0  -1    0.43    0.12
   0   0  -1    0.15    0.13
  -2   0  -1   24.64    2.95
   2   0   1   28.92    2.11
  -4   0  -1   52.12    5.50
   4   0   1   53.33    4.05
  -6   0  -1   20.14    2.31
   6   0   1   16.67    1.61
   8   0   1    4.38    0.74
 -10   0  -1   43.22    4.09
  10   0   1   29.85    2.93
 -12   0  -1   69.16    6.42
  12   0   1   51.08    4.70
  14   0   1   15.04    1.59
  15  -1  -1   -0.24    0.58
  15   1  -1   -0.79    0.61
  13  -1  -1    1.11    0.61
  13   1  -1   -0.23    0.59
  11  -1  -1    0.77    0.53
  11   1  -1    0.86    0.62
 -11   1   1    0.96    1.47
   9  -1  -1   21.84    1.95
  -9  -1   1   22.95    2.56
   9  -1  -1   23.42    2.32
   9   1  -1   17.06    1.93
  -7  -1   1  217.05   21.66
   7  -1  -1  238.81   19.41
   7  -1  -1  247.46   16.34
  -7   1   1  196.13   21.90
   7   1  -1  216.19   16.31
   7   1  -1  197.54   19.38
  -5  -1   1  214.62   24.42
   5  -1  -1  266.45   21.91
   5  -1  -1  268.60   18.40
  -5   1   1  245.29   24.48
   3  -1  -1  102.83    9.91
   3  -1  -1   94.82    8.28
  -3   1   1  122.13   11.01
   3   1  -1  123.46    8.23
   3   1  -1  111.56    9.90
  -1  -1   1  237.78   17.49
   1  -1  -1  207.94   20.90
   1   1  -1  250.02   20.87
   1   1  -1  257.48   23.39
  -1  -1  -1  236.95   22.75
   1  -1   1  243.15   17.00
  -1  -1  -1  233.83   20.26
  -1   1  -1  223.09   20.24
  -1   1  -1  218.64   22.81
   3  -1   1   33.97    3.12
  -3  -1  -1   33.28    3.58
   3  -1   1   39.46    2.67
   3   1   1   36.38    2.77
  -3   1  -1   30.86    3.89
   5  -1   1   12.25    1.07
   5  -1   1   11.65    1.14
  -5  -1  -1   10.36    1.45
   5   1   1   12.60    1.17
  -5   1  -1   12.60    2.09
   7  -1   1   41.18    3.64
  -7  -1  -1   43.89    4.85
   7   1   1   55.74    3.76
   9  -1   1   36.48    3.26
  -9  -1  -1   39.49    4.32
   9   1   1   45.97    3.36
  11  -1   1    4.72    0.79
 -11  -1  -1    4.24    0.93
 -11   1  -1    5.98    1.35
  11   1   1    5.83    0.91
  13  -1   1    0.53    0.49
 -13   1  -1    0.13    0.78
  13   1   1   -0.07    0.53
  14  -2  -1    8.64    1.20
  14   2  -1    9.96    1.41
  12  -2  -1   18.36    1.84
  12   2  -1   21.32    2.05
  10  -2  -1   79.42    5.68
  10   2  -1   65.18    5.73
   8  -2  -1  134.85   11.98
  -8   2   1  134.68   13.69
   8   2  -1  139.52   10.13
   8   2  -1  124.61   12.15
   6  -2  -1   65.39    4.47
  -6  -2   1   49.54    5.72
   6  -2  -1   64.03    5.29
  -6   2   1   55.95    5.89
   6   2  -1   53.68    5.47
   4  -2  -1   10.18    1.00
   4  -2  -1   12.01    1.23
   4   2  -1   11.36    0.91
   4   2  -1   10.22    1.35
   2  -2  -1   57.59    5.14
   2  -2  -1   57.89    4.24
   2   2  -1   59.76    4.23
   2   2  -1   52.48    5.11
   0  -2  -1    5.91    0.68
   0  -2   1    4.93    0.44
   0   2  -1    6.01    0.60
   0   2  -1    6.15    0.66
  -2  -2  -1    4.96    0.64
   2  -2   1    5.18    0.46
  -2   2  -1    4.77    0.79
  -2   2  -1    5.15    0.59
   2   2   1    5.45    0.51
  -4  -2  -1   78.44    8.12
   4  -2   1   82.90    7.20
   4  -2   1   87.32    6.09
   4   2   1   76.96    6.16
  -4   2  -1   81.62    8.42
  -6  -2  -1   11.65    1.43
   6  -2   1   11.16    1.20
   6  -2   1   12.93    1.11
  -6   2  -1    9.65    2.03
   6   2   1   12.90    1.24
  -8  -2  -1    4.65    0.89
   8  -2   1    3.74    0.68
   8   2   1    6.53    0.90
  -8   2  -1    6.98    1.88
  10  -2   1   25.63    2.34
 -10  -2  -1   28.58    3.05
  12  -2   1   31.87    2.91
  12   2   1   38.66    3.06
  14  -2   1   12.16    1.40
  14   2   1   14.43    1.55
  15  -3  -1    0.95    0.64
  15   3  -1   -0.14    0.78
  13  -3  -1    0.29    0.54
  13   3  -1   -0.56    0.68
  11  -3  -1    0.15    0.45
 -11   3   1   -0.99    1.28
  11   3  -1    1.10    0.69
  -9  -3   1    4.83    0.87
   9  -3  -1    6.55    0.88
   9  -3  -1    6.18    1.06
   9   3  -1    7.14    0.98
  -9   3   1    5.51    1.42
  -7  -3   1  134.59   14.27
   7  -3  -1  132.04   10.82
   7  -3  -1  150.44   12.88
  -7   3   1  143.24   14.50
   7   3  -1  163.50   10.83
   5  -3  -1  276.51   21.21
   5  -3  -1  275.77   25.26
   5   3  -1  292.17   21.16
   5   3  -1  305.96   25.43
   3  -3  -1  111.18    8.42
   3  -3  -1  116.70   10.13
   3   3  -1  113.63   10.15
   3   3  -1  114.46    8.41
   1  -3  -1   61.58    5.50
  -1  -3   1   59.90    4.52
   1   3  -1   62.24    5.47
  -1  -3  -1  126.96   11.17
   1  -3   1  121.21    9.30
   1   3   1  125.25    9.29
  -1   3  -1  130.64   12.50
  -1   3  -1  127.69   11.13
   3  -3   1   86.32    6.12
   3  -3   1   85.45    7.32
  -3   3  -1   75.74    8.28
   3   3   1   81.71    6.13
   5  -3   1   21.90    2.14
   5  -3   1   23.66    1.82
  -5  -3  -1   22.19    2.40
   5   3   1   24.06    1.91
  -5   3  -1   21.52    2.77
  -7  -3  -1   19.93    2.15
   7  -3   1   19.48    1.65
   7  -3   1   19.13    1.88
   7   3   1   18.01    1.77
  -7   3  -1   16.77    2.97
  -9  -3  -1   21.33    2.48
   9  -3   1   20.25    1.89
  -9   3  -1   22.63    3.78
   9   3   1   22.25    2.05
 -11  -3  -1    5.95    1.09
  11  -3   1    5.21    0.90
  11   3   1    8.63    1.20
 -11   3  -1    9.81    2.23
  13  -3   1   -0.10    0.49
 -13   3  -1   -0.09    1.16
  13   3   1   -0.51    0.65
  14  -4  -1    5.50    0.94
  14   4  -1    4.48    1.18
  12  -4  -1    9.02    1.09
  12   4  -1    7.47    1.29
 -12   4   1    4.67    1.95
  10  -4  -1   57.00    5.24
  10  -4  -1   52.52    4.37
  10   4  -1   56.97    4.50
 -10   4   1   53.98    6.35
   8  -4  -1  109.02    9.58
  -8  -4   1  106.47   10.56
   8  -4  -1   92.01    8.02
   8   4  -1  117.17    8.06
   6  -4  -1   17.05    1.54
   6  -4  -1   18.45    1.91
   6   4  -1   17.37    2.37
   6   4  -1   18.45    1.49
   4  -4  -1    5.75    0.81
   4  -4  -1    4.62    0.53
   4   4  -1    5.18    0.50
   4   4  -1    6.25    0.95
   2  -4  -1    0.08    0.08
  -2  -4   1    0.11    0.09
   2  -4  -1    0.22    0.29
   2   4  -1    0.21    0.27
   0  -4  -1    3.42    0.31
   0  -4   1    3.44    0.33
   0  -4  -1    3.96    0.62
   0   4  -1    4.40    0.56
  -2  -4  -1   29.20    2.61
   2  -4   1   26.45    2.05
  -2   4  -1   27.31    2.54
   2   4   1   25.81    2.04
  -2   4  -1   27.74    2.86
   4  -4   1   14.69    1.15
   4  -4   1   14.41    1.44
   4   4   1   13.21    1.50
   4   4   1   14.31    1.16
  -4   4  -1   13.26    1.71
   6  -4   1    7.65    0.79
   6  -4   1    7.21    0.98
  -6  -4  -1    8.29    1.05
  -6   4  -1    8.58    1.52
   6   4   1    7.04    0.85
  -8  -4  -1   12.31    1.52
   8  -4   1   11.98    1.18
  -8   4  -1    7.80    2.10
   8   4   1   12.37    1.33
  10  -4   1   17.63    1.84
 -10  -4  -1   22.84    2.42
  10   4   1   21.62    2.08
 -10   4  -1   18.10    3.50
  12  -4   1   16.96    1.69
  13  -5  -1   -0.09    0.54
  13   5  -1   -1.19    0.80
  11  -5  -1    0.24    0.50
  11   5  -1    0.13    0.66
   9  -5  -1    6.75    1.14
   9   5  -1    7.34    0.99
  -7  -5   1   72.20    6.95
   7  -5  -1   64.59    5.31
   7  -5  -1   70.67    6.38
   7   5  -1   69.25    5.28
   7   5  -1   69.98    6.96
   5  -5  -1  152.97   11.91
   5  -5  -1  165.34   14.31
   5   5  -1  176.12   14.54
   5   5  -1  152.07   11.88
   3  -5  -1   87.08    7.84
   3  -5  -1   80.69    6.43
  -3  -5   1   88.96    6.45
   3   5  -1   92.24    7.91
   1  -5  -1   36.25    2.86
   1  -5  -1   38.94    3.63
  -1  -5   1   40.11    2.90
   1   5  -1   39.31    3.59
  -1  -5  -1   88.19    6.26
  -1  -5  -1   85.45    7.65
   1  -5   1   80.11    6.27
  -1   5  -1   85.09    7.58
   3  -5   1   60.03    5.43
  -3  -5  -1   60.28    5.52
   3  -5   1   61.53    4.49
   3   5   1   58.34    4.47
   5  -5   1   10.20    1.22
   5  -5   1   11.39    0.95
  -5   5  -1    9.98    1.47
   5   5   1   10.16    0.95
   7  -5   1   12.35    1.15
  -7  -5  -1   12.22    1.44
   7  -5   1   12.82    1.40
  -7   5  -1   10.07    1.94
   7   5   1   11.36    1.19
  -9  -5  -1   20.87    2.19
   9  -5   1   17.16    1.70
   9   5   1   18.69    1.85
  -9   5  -1   14.57    3.03
  11  -5   1    2.30    0.64
 -11   5  -1    1.73    1.91
  11   5   1    2.01    0.89
  13  -5   1   -0.02    0.53
  13   5   1   -1.25    0.81
 -13   5  -1   -1.34    1.51
  12   6  -1    9.93    1.53
  10  -6  -1   30.47    3.07
  10  -6  -1   23.75    2.47
  10   6  -1   34.74    2.63
   8  -6  -1   42.34    3.70
   8  -6  -1   34.88    3.02
   8   6  -1   39.47    3.00
   8   6  -1   28.24    4.22
   6  -6  -1   17.30    1.78
   6  -6  -1   14.57    1.32
   6   6  -1   12.92    2.16
   6   6  -1   14.25    1.26
   4  -6  -1    0.18    0.20
   4  -6  -1   -0.02    0.39
  -4  -6   1    0.31    0.17
   4   6  -1    0.11    0.55
  -2  -6   1    1.64    0.25
   2  -6  -1    1.12    0.19
   2  -6  -1    0.55    0.52
   2   6  -1    1.29    0.50
   0  -6   1    0.85    0.19
   0  -6  -1    0.70    0.15
   0  -6  -1    0.63    0.50
   0   6  -1    1.02    0.41
   2  -6   1   13.08    1.08
  -2  -6  -1   13.83    1.07
   2  -6   1   13.25    1.45
  -2  -6  -1   12.33    1.57
   4  -6   1   17.41    1.42
   4  -6   1   17.52    1.82
  -4  -6  -1   17.90    2.00
   4   6   1   17.20    1.40
  -6  -6  -1    2.71    0.55
  -6  -6  -1    1.25    0.76
   6  -6   1    2.83    0.62
   6  -6   1    1.74    0.41
   6   6   1    2.49    0.46
   8  -6   1    4.75    0.76
   8  -6   1    5.93    0.99
  -8  -6  -1    6.60    0.95
  -8   6  -1    4.60    1.47
   8   6   1    5.40    0.84
  10  -6   1   14.90    1.57
  10   6   1   21.03    1.85
 -10   6  -1    9.70    2.89
  12  -6   1   10.88    1.30
  12   6   1   10.63    1.59
 -12   6  -1    7.83    2.79
  11   7  -1    0.01    0.62
   9  -7  -1    4.65    1.07
   9   7  -1    4.80    0.78
   7  -7  -1   43.70    4.08
   7   7  -1   40.09    3.24
   5  -7  -1   63.33    5.98
  -5  -7   1   62.03    4.83
   5   7  -1   69.47    6.33
   3  -7  -1   38.07    3.80
  -3  -7   1   40.15    3.00
   3   7  -1   39.20    3.89
   1  -7  -1   40.09    4.03
  -1  -7   1   43.82    3.20
   1   7  -1   41.69    4.04
   1  -7   1   42.68    4.12
  -1  -7  -1   44.97    4.25
   1  -7   1   44.54    3.34
   3  -7   1   19.34    2.05
  -3  -7  -1   22.13    2.24
   3  -7   1   18.97    1.58
   5  -7   1    9.27    1.21
  -5  -7  -1    9.32    1.39
   5  -7   1    8.66    0.87
  -7  -7  -1   11.16    1.43
   7  -7   1   10.62    1.12
   7  -7   1   12.22    1.46
   9  -7   1    7.16    1.01
  -9  -7  -1    9.17    1.26
  11  -7   1    1.33    0.61
  10  -8  -1   13.27    1.81
  10   8  -1   11.11    1.32
   8  -8  -1   25.05    2.62
   8   8  -1   21.68    1.94
   6  -8  -1   10.37    1.46
  -6  -8   1    9.66    0.91
   6   8  -1    8.71    1.92
  -4  -8   1    0.06    0.21
   4  -8  -1   -0.23    0.51
   4   8  -1   -0.39    0.72
  -2  -8   1    0.37    0.23
   2  -8  -1    0.45    0.57
   2   8  -1    0.43    0.56
   0  -8  -1   -0.10    0.58
   0  -8   1    0.06    0.46
   0  -8   1    0.15    0.20
   2  -8   1    3.14    0.72
   2  -8   1    3.16    0.43
  -2  -8  -1    3.09    0.88
  -4  -8  -1    4.68    1.10
   4  -8   1    6.53    0.65
   4  -8   1    4.20    0.91
   6  -8   1    5.17    0.97
   6  -8   1    3.88    0.62
  -8  -8  -1    5.17    0.94
   8  -8   1    4.79    1.03
   9  -9  -1    1.33    0.90
   7  -9  -1   14.43    1.88
   7   9  -1   11.26    2.61
   5  -9  -1   30.18    3.17
   3  -9  -1   20.97    2.44
   3   9  -1   24.10    2.75
   1  -9  -1   13.13    1.66
  -1  -9   1   12.08    1.56
  -1  -9  -1   16.95    2.06
   1  -9   1   16.32    1.89
  -3  -9  -1   13.08    1.93
   3  -9   1   12.36    1.57
   5  -9   1    5.88    1.08
  -5  -9  -1    4.55    1.21
  -7  -9  -1    4.82    0.96
   7  -9   1    4.43    1.05
   6 -10  -1    1.89    0.91
  -6 -10   1    4.36    1.27
  -4 -10   1    0.11    0.78
   4 -10  -1    0.19    0.67
  -2 -10   1    0.20    0.64
   2 -10  -1   -0.43    0.56
   0 -10  -1    0.13    0.69
   0 -10   1   -0.21    0.54
  -2 -10  -1    0.47    0.79
   2 -10   1    0.63    0.60
   4 -10   1    1.72    0.74
  -4 -10  -1    2.48    1.10
   6 -10   1    1.32    0.70
   1 -11  -1    5.81    1.33
  -1 -11   1    6.34    1.24
   1 -11   1    6.27    1.19
  -1 -11  -1    6.33    1.47
  14   0  -2    0.69    0.75
  12   0  -2   10.05    1.38
  10   0  -2   17.03    1.87
  10   0  -2   13.19    1.56
   8   0  -2  112.36    9.47
   8   0  -2  102.40    7.91
  -8   0   2   97.00   10.57
   6   0  -2  264.86   19.87
   6   0  -2  273.33   23.81
   4   0  -2  103.71    7.67
   2   0  -2   20.34    1.49
   2   0  -2   16.83    2.01
   2   0  -2   20.16    2.02
   0   0   2   14.93    1.13
   0   0  -2   15.53    1.72
   0   0  -2   14.35    1.46
  -2   0  -2  115.61   11.48
  -2   0  -2  113.22   10.01
   4   0   2  355.72   24.07
  -4   0  -2  296.32   32.28
   6   0   2  114.07    9.38
  -6   0  -2  136.78   12.66
  -8   0  -2    9.42    1.55
 -10   0  -2    0.52    0.56
  10   0   2   -0.07    0.40
 -12   0  -2    0.24    0.59
  12   0   2    0.21    0.50
  14   0   2   -0.21    0.50
  15  -1  -2   19.77    2.07
  15   1  -2   22.63    2.20
  13  -1  -2   39.66    3.17
  13   1  -2   32.75    3.17
  11  -1  -2   39.19    3.05
  11   1  -2   31.05    3.03
   9  -1  -2   56.17    4.33
   9  -1  -2   58.53    5.15
   9   1  -2   54.28    5.17
  -9   1   2   46.47    5.76
   9   1  -2   53.73    4.31
   7  -1  -2   61.24    4.61
   7  -1  -2   67.10    5.63
  -7   1   2   52.81    5.97
   7   1  -2   47.24    5.55
   7   1  -2   67.96    4.57
   5  -1  -2    2.07    0.36
   5  -1  -2    1.83    0.75
   5   1  -2    1.42    0.64
   5   1  -2    2.35    0.31
   3  -1  -2  103.97    8.02
   3   1  -2  105.71    9.72
   3   1  -2  116.67    8.03
   1  -1  -2    2.10    0.64
  -1  -1   2    2.50    0.27
   1   1  -2    3.46    0.53
   1   1  -2    2.82    0.54
  -1  -1  -2  181.07   17.42
   1  -1   2  188.62   12.99
  -1   1  -2  156.28   17.58
   1   1   2  189.73   13.01
  -1   1  -2  165.85   15.47
  -3  -1  -2    3.44    0.64
   3  -1   2    4.03    0.40
  -3   1  -2    3.86    0.42
   3   1   2    3.27    0.49
  -3   1  -2    4.02    0.98
   5  -1   2  127.99    8.41
  -5  -1  -2  113.19   11.28
   5  -1   2  105.20    9.84
   5   1   2  103.27    8.44
   7  -1   2   93.97    7.60
  -7  -1  -2   95.02   10.18
   7   1   2  113.61    7.70
   9  -1   2   29.89    2.85
  -9  -1  -2   35.83    3.82
   9   1   2   38.85    2.93
 -11  -1  -2   25.21    2.58
  11  -1   2   19.00    1.92
  11   1   2   19.03    1.93
  13  -1   2   10.19    1.25
  13   1   2   12.19    1.35
  14  -2  -2    0.15    0.63
  14   2  -2    0.95    0.80
  12   2  -2    4.41    1.06
  10  -2  -2   21.35    1.80
  10  -2  -2   18.57    2.22
 -10   2   2   15.53    2.62
  10   2  -2   16.54    1.77
   8  -2  -2   54.74    3.90
   8  -2  -2   47.49    4.68
   8   2  -2   41.30    4.79
  -8   2   2   47.01    5.04
   8   2  -2   49.53    3.81
   6  -2  -2  223.90   16.83
   6  -2  -2  233.32   20.13
   6   2  -2  197.83   20.17
   6   2  -2  249.21   16.75
   4  -2  -2  231.11   20.88
   4  -2  -2  245.92   17.40
   4   2  -2  241.14   17.36
   4   2  -2  224.69   20.86
   2  -2  -2    8.42    1.11
  -2  -2   2    7.46    0.63
   2   2  -2    7.71    0.92
   0  -2   2    1.85    0.22
   0  -2  -2    2.80    0.53
   0   2  -2    2.43    0.42
   0   2  -2    2.60    0.37
  -2  -2  -2  271.44   25.72
   2  -2   2  312.35   21.54
  -2  -2  -2  295.88   28.83
  -2   2  -2  292.34   25.64
  -2   2  -2  293.16   29.01
   4  -2   2  330.98   24.55
  -4  -2  -2  374.27   29.23
  -4  -2  -2  311.93   32.86
   4   2   2  343.57   24.68
  -4   2  -2  305.40   33.23
   6  -2   2   60.31    5.93
  -6  -2  -2   62.84    6.82
   6  -2   2   64.82    5.09
   6   2   2   79.20    5.25
  -6   2  -2   74.34    7.53
   8  -2   2    2.22    0.54
  -8  -2  -2    2.55    0.78
   8   2   2    4.50    0.74
  -8   2  -2    5.15    1.43
  10  -2   2   -0.01    0.40
 -10  -2  -2    0.11    0.45
  10   2   2    0.07    0.48
 -10   2  -2   -0.41    0.84
  12  -2   2   -0.14    0.44
 -12  -2  -2   -0.14    0.47
 -12   2  -2   -0.15    0.86
  12   2   2    0.11    0.55
  15  -3  -2   17.27    1.73
  15   3  -2   13.98    1.96
  13  -3  -2   22.16    1.90
  13   3  -2   14.97    1.99
  11  -3  -2   28.24    3.06
  11  -3  -2   30.23    2.51
  11   3  -2   26.05    2.56
   9  -3  -2   69.04    4.76
   9  -3  -2   54.61    5.65
   9   3  -2   60.63    4.70
   9   3  -2   52.85    5.97
   7  -3  -2   39.07    3.80
   7  -3  -2   47.51    3.19
  -7  -3   2   34.04    3.89
   7   3  -2   29.85    4.07
   7   3  -2   43.18    3.05
   5  -3  -2    3.94    0.59
   5  -3  -2    5.09    0.86
   5   3  -2    4.33    0.46
   5   3  -2    3.35    0.88
   3  -3  -2   56.15    5.38
   3   3  -2   58.81    4.36
   3   3  -2   60.42    5.36
   1  -3  -2    1.77    0.47
  -1  -3   2    1.45    0.21
   1   3  -2    2.04    0.38
   1   3  -2    1.83    0.34
   1  -3   2  102.92    7.18
  -1  -3  -2  102.05    8.71
  -1   3  -2   95.29    9.68
   1   3   2   87.61    7.16
  -1   3  -2   99.18    8.60
   3  -3   2    7.84    0.66
  -3  -3  -2    7.59    0.99
  -3   3  -2    7.84    0.83
   3   3   2    6.09    0.74
  -3   3  -2    7.21    1.26
   5  -3   2   81.33    7.59
   5  -3   2   85.45    6.41
  -5  -3  -2   93.53    7.65
  -5  -3  -2   81.99    8.59
  -5   3  -2   86.41    9.13
  -7  -3  -2  105.21   10.60
   7  -3   2   99.74    7.92
   7   3   2  111.77    8.09
   9  -3   2   26.83    2.57
  -9  -3  -2   31.22    3.44
   9   3   2   36.80    2.78
  11  -3   2    8.13    1.14
 -11  -3  -2   11.81    1.60
  11   3   2   12.99    1.39
  13  -3   2    7.00    1.07
  13   3   2    9.92    1.29
  14  -4  -2    1.17    0.66
  14   4  -2   -1.01    0.79
  12  -4  -2    6.09    1.00
  12   4  -2    6.65    1.23
  10  -4  -2    9.36    1.11
  10  -4  -2    8.33    1.43
  10   4  -2    7.69    1.14
   8  -4  -2   46.46    3.66
   8  -4  -2   43.55    4.42
   8   4  -2   46.25    3.58
   6  -4  -2  162.58   12.77
   6  -4  -2  180.16   15.31
   6   4  -2  164.51   12.68
   6   4  -2  180.90   15.56
   4  -4  -2   83.62    7.08
   4  -4  -2  101.03    8.60
   4   4  -2  101.86    8.64
   4   4  -2   95.05    7.03
  -2  -4   2    2.06    0.26
   2  -4  -2    2.89    0.60
   2   4  -2    1.84    0.48
   0  -4   2    3.45    0.36
   0  -4  -2    3.94    0.71
   0   4  -2    4.72    0.60
  -2  -4  -2  148.29   12.71
   2  -4   2  152.57   10.54
  -2   4  -2  144.26   12.60
   2   4   2  127.37   10.51
  -2   4  -2  142.52   14.20
   4  -4   2  239.58   20.55
  -4  -4  -2  227.38   20.63
   4  -4   2  245.94   17.26
  -4  -4  -2  238.24   23.08
  -4   4  -2  238.36   23.32
   4   4   2  214.41   17.28
  -6  -4  -2   47.44    4.76
   6  -4   2   47.45    3.55
   6  -4   2   46.58    4.20
  -6   4  -2   46.29    5.35
   6   4   2   41.21    3.65
   8  -4   2   -0.14    0.35
  -8  -4  -2    0.63    0.51
  -8   4  -2    0.33    1.36
   8   4   2   -0.27    0.54
 -10  -4  -2    0.48    0.52
  10  -4   2    0.09    0.45
 -10   4  -2   -1.30    1.28
  10   4   2    0.08    0.62
  12  -4   2   -0.18    0.48
  12   4   2   -0.88    0.68
 -12   4  -2   -1.35    1.24
  13   5  -2   16.69    1.99
  11  -5  -2   19.51    1.88
  11  -5  -2   18.03    2.38
  11   5  -2   21.79    2.01
   9  -5  -2   23.52    2.57
   9  -5  -2   23.51    2.06
   9   5  -2   16.24    3.01
   9   5  -2   24.35    2.00
   7  -5  -2   23.53    2.35
   7  -5  -2   18.28    1.83
   7   5  -2   21.54    2.96
   7   5  -2   21.27    1.73
   5  -5  -2    0.58    0.53
   5  -5  -2    0.51    0.31
   5   5  -2    0.13    0.19
   5   5  -2    0.68    0.67
  -3  -5   2   21.46    1.71
   3  -5  -2   21.40    2.32
   3   5  -2   23.67    2.34
   1  -5  -2   -0.25    0.37
  -1  -5   2    0.32    0.14
   1   5  -2    1.00    0.35
   1  -5   2   36.53    2.71
  -1  -5  -2   36.12    3.46
  -1   5  -2   34.64    3.32
  -3  -5  -2    0.26    0.46
   3  -5   2    0.53    0.19
  -3   5  -2    0.67    0.31
   3   5   2    0.78    0.20
  -3   5  -2    0.83    0.44
   5  -5   2   43.51    3.24
  -5  -5  -2   41.32    3.99
   5  -5   2   43.48    3.89
  -5  -5  -2   42.56    4.32
  -5   5  -2   42.01    4.64
   5   5   2   39.03    3.25
  -7  -5  -2   53.82    5.59
   7  -5   2   51.53    4.20
   7  -5   2   57.43    4.99
   7   5   2   52.61    4.30
  -7   5  -2   57.84    6.37
  -9  -5  -2   24.60    2.53
   9  -5   2   21.50    1.92
   9   5   2   20.23    2.11
  -9   5  -2   14.87    3.38
  11  -5   2    8.78    1.25
 -11  -5  -2   11.06    1.62
 -11   5  -2   14.05    2.99
  11   5   2   11.40    1.53
  12   6  -2    3.57    0.96
  10  -6  -2   11.17    1.63
  10   6  -2    8.80    1.13
   8  -6  -2   23.48    2.50
   8   6  -2   21.95    1.85
   8   6  -2   18.51    3.15
   6  -6  -2   69.09    6.07
   6   6  -2   61.56    4.86
   6   6  -2   63.57    6.40
  -4  -6   2   68.44    5.25
   4  -6  -2   71.14    6.53
   4   6  -2   71.64    6.60
   2  -6  -2    5.15    0.92
  -2  -6   2    4.39    0.48
   2   6  -2    4.99    0.84
   0  -6   2    7.98    0.73
   0  -6  -2    9.25    1.25
   0   6  -2    8.70    1.03
   2  -6   2   91.57    6.89
  -2  -6  -2   95.52    8.47
  -2   6  -2   91.20    8.30
  -4  -6  -2   90.28    8.23
   4  -6   2   90.89    8.08
   4  -6   2   93.92    6.74
  -4   6  -2   84.39    9.15
   6  -6   2   24.32    2.04
   6  -6   2   27.52    2.50
  -6  -6  -2   23.92    2.71
  -6   6  -2   24.61    3.11
   8  -6   2    2.82    0.62
  -8  -6  -2    2.80    0.71
   8   6   2    2.88    0.74
  -8   6  -2    2.49    1.42
 -10  -6  -2    0.63    0.57
  10  -6   2   -0.14    0.47
  10   6   2   -0.35    0.74
 -10   6  -2   -1.60    1.55
  11  -7  -2   10.07    1.71
  11   7  -2   10.41    1.30
   9  -7  -2   13.88    1.94
   9   7  -2   13.90    1.35
   7  -7  -2    9.63    1.58
   7   7  -2   10.34    1.00
   7   7  -2   13.59    2.34
  -5  -7   2   -0.07    0.22
   5  -7  -2   -0.49    0.55
   5   7  -2   -0.04    0.73
   3  -7  -2    3.41    0.86
  -3  -7   2    4.73    0.51
   3   7  -2    3.54    0.90
   1  -7  -2   -0.37    0.49
  -1  -7   2   -0.04    0.18
   1   7  -2    0.16    0.36
   1  -7   2    9.36    0.77
  -1  -7  -2    7.10    1.27
  -1   7  -2    7.64    1.07
  -3  -7  -2    0.86    0.61
   3  -7   2    0.18    0.22
   3  -7   2   -0.15    0.38
   5  -7   2   21.96    2.24
   5  -7   2   21.84    1.81
   7  -7   2   28.31    2.31
   7  -7   2   30.75    2.81
  -7  -7  -2   25.75    3.01
  -7   7  -2   26.30    3.53
  -9  -7  -2   13.44    1.59
   9  -7   2   10.19    1.21
  -9   7  -2    6.98    2.26
  10  -8  -2    1.63    0.94
  10   8  -2    2.59    0.65
   8  -8  -2   15.72    1.94
   8   8  -2    9.00    2.47
   6  -8  -2   38.20    3.63
  -6  -8   2   32.31    2.71
   6   8  -2   36.11    4.12
   4  -8  -2   22.38    2.66
  -4  -8   2   24.80    1.96
   4   8  -2   25.69    2.85
  -2  -8   2    6.78    0.66
   2  -8  -2    6.21    1.16
   2   8  -2    5.02    1.04
   0  -8   2    9.07    0.81
   0  -8  -2    7.79    1.37
   0   8  -2    7.55    1.17
  -2  -8  -2   33.73    3.47
   2  -8   2   29.96    3.20
   2  -8   2   35.86    2.61
   4  -8   2   46.54    3.43
  -4  -8  -2   40.93    4.39
   4  -8   2   43.93    4.18
   6  -8   2   13.18    1.31
  -6  -8  -2   14.10    1.75
   6  -8   2   14.96    1.70
  -8  -8  -2    0.17    0.54
   8  -8   2    0.55    0.49
  -9  -9   2    3.36    0.55
   9  -9  -2    4.71    1.25
   7  -9  -2    6.43    1.37
  -7  -9   2    6.04    0.72
   7   9  -2    7.22    2.10
   5  -9  -2    0.36    0.71
  -5  -9   2   -0.12    0.30
   5   9  -2    0.29    1.02
  -3  -9   2    2.38    0.42
   3  -9  -2    1.49    0.79
   3   9  -2    1.34    0.85
   1  -9  -2    0.19    0.67
  -1  -9   2    0.00    0.25
   1   9  -2   -0.58    0.54
   1  -9   2    4.98    0.59
   1  -9   2    4.74    0.93
  -1  -9  -2    3.63    1.05
   3  -9   2    0.94    0.54
  -3  -9  -2    0.27    0.72
   3  -9   2    0.32    0.32
   5  -9   2   13.45    1.66
  -7  -9  -2   12.29    1.65
   7  -9   2   11.46    1.59
   6 -10  -2    9.26    1.66
   6  10  -2    9.30    2.38
   4 -10  -2   11.52    1.86
   4  10  -2   12.53    2.22
   2 -10  -2    1.76    0.90
   2  10  -2    3.04    1.00
   0 -10   2    3.83    0.91
   0 -10  -2    4.09    1.12
   2 -10   2   12.68    1.63
  -2 -10  -2   15.07    2.06
   4 -10   2   13.78    1.71
  -1 -11   2   -0.28    0.55
   1 -11  -2   -0.26    0.88
  16   0  -3   14.64    1.80
  14   0  -3   37.75    3.39
  12   0  -3   28.07    2.62
  10   0  -3    1.70    0.84
  10   0  -3    2.30    0.63
   8   0  -3    0.81    0.36
   8   0  -3    0.42    0.68
   6   0  -3  124.52    9.26
   6   0  -3  125.52   11.38
   4   0  -3  348.49   25.58
   2   0  -3    4.37    0.76
   2   0  -3    4.13    0.66
  -2   0   3    4.13    0.36
   0   0   3  156.92   11.01
   0   0  -3  138.92   13.19
   0   0  -3  152.98   14.94
  -2   0  -3   51.53    5.54
   2   0   3   57.27    3.94
  -2   0  -3   48.79    4.65
   4   0   3   39.51    2.82
  -4   0  -3   31.58    3.97
  -6   0  -3   68.44    6.74
   6   0   3   59.91    4.91
   8   0   3   22.97    2.30
  -8   0  -3   33.13    3.27
  10   0   3   10.05    1.17
  12   0   3    7.44    1.05
  15  -1  -3   -1.33    0.69
  15   1  -3   -0.56    0.76
  13  -1  -3   15.72    1.73
  13   1  -3   13.40    1.71
  11  -1  -3   55.66    5.01
  11  -1  -3   48.87    4.20
  11   1  -3   55.49    5.08
  11   1  -3   45.55    4.18
   9  -1  -3    8.45    1.42
   9  -1  -3    6.96    1.01
   9   1  -3    7.27    0.90
   9   1  -3    9.28    1.47
   7  -1  -3    2.06    0.42
   7  -1  -3    3.35    0.93
   7   1  -3    2.35    0.40
   7   1  -3    0.85    0.79
   5  -1  -3   72.29    6.54
   5  -1  -3   66.71    5.10
   5   1  -3   68.51    5.11
   3  -1  -3  549.65   37.65
  -3  -1   3  491.98   37.66
   3   1  -3  498.02   45.03
   1  -1  -3  466.71   43.33
  -1  -1   3  458.75   32.36
   1   1  -3  378.83   43.42
  -1   1   3  413.20   32.34
   1   1  -3  488.48   38.64
  -1  -1  -3  132.09   12.95
   1  -1   3  138.39    9.60
  -1   1  -3  119.52   11.44
   1   1   3  130.40    9.60
   3  -1   3   59.80    4.45
  -3  -1  -3   57.05    6.09
  -3   1  -3   57.61    5.24
   3   1   3   55.76    4.49
  -3   1  -3   70.83    6.47
  -5  -1  -3   33.14    3.68
   5  -1   3   33.92    2.64
   5   1   3   33.08    2.70
  -7  -1  -3    4.72    1.00
   7  -1   3    4.00    0.64
  -7   1  -3    7.99    1.36
   7   1   3    3.20    0.67
   9  -1   3    0.19    0.42
  -9  -1  -3    0.79    0.53
  -9   1  -3    0.12    0.61
   9   1   3   -0.10    0.42
  11  -1   3   -0.08    0.46
 -11  -1  -3    0.43    0.54
 -11   1  -3    0.55    0.72
  11   1   3    0.10    0.47
 -13  -1  -3    0.10    0.59
  13  -1   3   -0.19    0.50
  13   1   3    0.01    0.55
 -13   1  -3    0.52    0.74
  14  -2  -3   32.14    2.67
  14   2  -3   23.96    2.72
  12  -2  -3   29.21    2.66
  12  -2  -3   31.49    3.15
  12   2  -3   27.14    2.70
  10  -2  -3    1.58    0.82
  10  -2  -3    1.47    0.61
  10   2  -3    0.29    0.47
  10   2  -3    1.12    0.94
   8  -2  -3    3.86    0.65
   8  -2  -3    4.23    1.04
   8   2  -3    1.11    0.89
   8   2  -3    3.61    0.54
   6  -2  -3  135.90   12.86
   6  -2  -3  149.41   10.54
   6   2  -3  139.55   10.51
   4  -2  -3  139.87   10.64
   4  -2  -3  124.60   13.03
   4   2  -3  155.24   10.67
   4   2  -3  157.31   12.98
  -2  -2   3    0.80    0.15
   2  -2  -3    1.31    0.60
   2   2  -3    0.91    0.24
   2   2  -3    1.10    0.35
   0  -2   3   43.45    3.09
   0  -2  -3   39.09    4.17
   0   2  -3   43.51    4.32
   0   2  -3   38.90    3.72
  -2  -2  -3   63.04    5.95
   2  -2   3   63.43    4.38
  -2  -2  -3   60.86    5.43
  -2   2  -3   58.99    6.30
  -2   2  -3   55.88    5.21
   2   2   3   49.75    4.44
  -4  -2  -3   51.66    5.36
   4  -2   3   52.60    3.93
  -4   2  -3   57.90    4.63
  -4   2  -3   45.74    5.87
   4   2   3   47.10    4.03
  -6  -2  -3   47.34    5.13
   6  -2   3   48.14    3.78
   6   2   3   51.07    3.90
  -8  -2  -3   29.40    3.32
   8  -2   3   26.50    2.41
   8   2   3   31.99    2.53
 -10  -2  -3    9.74    1.54
  10   2   3   12.07    1.31
 -12  -2  -3    8.30    1.44
 -12   2  -3   13.50    2.03
  12   2   3    7.76    1.18
  15  -3  -3   -0.18    0.68
  15   3  -3   -0.69    0.85
  13  -3  -3   12.12    1.48
  13   3  -3   12.69    1.71
  11  -3  -3   32.47    3.38
  11  -3  -3   31.40    2.76
  11   3  -3   30.84    2.76
   9  -3  -3    5.19    1.16
   9  -3  -3    5.59    0.88
   9   3  -3    5.41    1.43
   9   3  -3    6.25    0.81
   7  -3  -3   -0.20    0.66
   7  -3  -3    0.56    0.37
   7   3  -3    0.95    0.87
   7   3  -3    0.64    0.25
   5  -3  -3   61.45    4.66
   5  -3  -3   63.84    5.94
   5   3  -3   62.30    5.91
   5   3  -3   62.47    4.67
  -3  -3   3  343.51   25.22
   3  -3  -3  323.16   30.33
   3   3  -3  362.71   30.21
   1  -3  -3  266.81   25.07
  -1  -3   3  284.49   20.82
   1   3  -3  288.59   24.87
   1   3  -3  291.94   27.87
  -1  -3  -3  110.02   10.94
   1  -3   3  116.05    8.15
  -1  -3  -3   96.17    9.95
  -1   3  -3  112.37   11.06
  -1   3  -3  114.02    9.75
  -3  -3  -3   68.50    7.40
   3  -3   3   70.08    5.49
  -3  -3  -3   85.46    6.80
  -3   3  -3   72.90    6.55
  -3   3  -3   74.39    7.79
   5  -3   3   27.43    2.11
  -5  -3  -3   26.00    2.90
  -5   3  -3   23.21    3.57
   5   3   3   27.51    2.29
   7  -3   3    1.47    0.41
  -7  -3  -3    0.46    0.51
   7   3   3    1.28    0.56
  -7   3  -3    1.01    1.24
  -9  -3  -3   -0.31    0.47
   9  -3   3    0.21    0.39
  -9   3  -3   -0.06    1.14
   9   3   3   -0.40    0.50
  11  -3   3    0.36    0.50
 -11  -3  -3    0.37    0.58
 -11   3  -3    1.43    1.17
  11   3   3    1.05    0.66
  14   4  -3   18.16    2.17
  12  -4  -3   16.72    1.69
  12  -4  -3   15.80    2.20
  12   4  -3   14.04    1.73
  10  -4  -3    3.52    0.79
  10  -4  -3    2.99    0.98
  10   4  -3    2.46    1.19
  10   4  -3    4.28    0.74
   8  -4  -3    3.10    0.93
   8  -4  -3    2.21    0.60
   8   4  -3    2.36    1.22
   8   4  -3    4.12    0.55
   6  -4  -3   58.01    5.14
   6  -4  -3   50.88    4.03
   6   4  -3   56.33    5.25
   6   4  -3   49.03    3.97
   4  -4  -3  130.48   11.78
  -4  -4   3  131.62    9.62
   4   4  -3  127.90   11.70
   2  -4  -3    2.58    0.78
  -2  -4   3    2.22    0.29
   2   4  -3    2.39    0.51
   0  -4   3   59.35    4.50
   0  -4  -3   61.49    5.70
   0   4  -3   59.64    5.45
   0   4  -3   61.53    6.10
  -2  -4  -3   22.35    2.61
  -2  -4  -3   25.45    2.57
   2  -4   3   25.61    1.88
   2   4   3   21.16    1.87
  -2   4  -3   26.00    2.77
  -2   4  -3   25.36    2.31
   4  -4   3   27.81    2.17
  -4  -4  -3   31.53    2.90
  -4  -4  -3   27.10    2.95
  -4   4  -3   30.52    2.63
  -4   4  -3   28.69    3.40
   4   4   3   22.17    2.24
   6  -4   3   49.11    3.78
  -6  -4  -3   49.75    5.09
  -6   4  -3   46.67    5.85
  -8  -4  -3   22.27    2.55
   8  -4   3   19.87    1.87
  -8   4  -3   23.33    3.77
   8   4   3   23.31    2.12
 -10  -4  -3    5.91    1.16
  10  -4   3    4.11    0.82
 -10   4  -3    9.25    2.24
  10   4   3    6.84    1.09
  12  -4   3    3.67    0.85
 -12  -4  -3    7.03    1.32
  12   4   3    7.15    1.16
 -12   4  -3   10.84    2.17
  13   5  -3    6.28    1.24
  11  -5  -3   20.93    2.65
  11   5  -3   22.84    2.09
   9  -5  -3    6.11    1.26
   9   5  -3    1.91    1.32
   9   5  -3    5.38    0.73
   7  -5  -3   -0.05    0.63
   7   5  -3    0.44    0.25
   7   5  -3   -0.42    0.75
  -5  -5   3   41.90    3.18
   5  -5  -3   41.73    4.16
   5   5  -3   41.42    4.19
  -3  -5   3  196.56   14.52
   3  -5  -3  199.22   17.61
   3   5  -3  194.89   17.48
  -1  -5   3  181.51   13.54
   1  -5  -3  184.25   16.44
   1   5  -3  185.49   16.25
  -1  -5  -3   84.21    7.51
   1  -5   3   78.42    6.01
  -1   5  -3   82.95    7.25
  -1   5  -3   78.58    8.13
  -3  -5  -3   34.33    3.52
  -3  -5  -3   31.13    3.42
   3  -5   3   34.05    2.60
  -3   5  -3   34.86    3.16
  -3   5  -3   33.49    3.70
   5  -5   3   13.49    1.37
  -5  -5  -3   11.25    1.47
   5  -5   3   10.88    1.07
  -5   5  -3   14.60    2.12
   7  -5   3    2.21    0.47
  -7  -5  -3    2.58    0.69
   7   5   3    2.71    0.74
  -7   5  -3    1.26    1.37
  -9  -5  -3    0.30    0.53
   9  -5   3    0.34    0.43
  -9   5  -3   -1.13    1.43
   9   5   3    0.24    0.72
  11  -5   3   -0.12    0.51
 -11  -5  -3   -0.38    0.57
 -11   5  -3   -1.41    1.33
  11   5   3   -1.03    0.77
  12  -6  -3   11.03    1.88
  12   6  -3   12.13    1.48
  10  -6  -3    0.12    0.74
  10   6  -3   -0.35    1.28
  10   6  -3    0.86    0.51
   8  -6  -3    1.86    0.85
   8   6  -3    1.57    1.19
   8   6  -3    2.06    0.44
   6  -6  -3   44.55    4.37
  -6  -6   3   39.99    3.32
   6   6  -3   49.75    4.61
   4  -6  -3   45.43    4.69
  -4  -6   3   48.14    3.65
   4   6  -3   50.60    4.70
  -2  -6   3    0.33    0.19
   2  -6  -3    0.46    0.58
   2   6  -3    0.32    0.36
   0  -6   3   17.43    1.40
   0  -6  -3   18.20    2.18
   0   6  -3   16.91    1.78
   2  -6   3   21.19    1.73
  -2  -6  -3   20.31    2.50
  -2   6  -3   22.97    2.16
  -2   6  -3   22.63    2.48
   4  -6   3   18.96    1.62
  -4  -6  -3   19.34    2.20
  -4  -6  -3   21.47    2.39
  -4   6  -3   21.10    2.02
  -4   6  -3   19.38    2.44
  -6  -6  -3   18.80    2.25
   6  -6   3   21.51    2.06
   6  -6   3   19.29    1.68
  -6   6  -3   20.84    2.90
  -8  -6  -3   14.29    1.71
   8  -6   3   12.18    1.25
  -8   6  -3    9.36    2.41
 -10  -6  -3    5.97    1.13
  10  -6   3    5.71    0.93
 -10   6  -3    4.84    2.35
  11  -7  -3    7.41    1.60
  11   7  -3    8.43    1.13
   9  -7  -3    7.55    1.46
   9   7  -3    4.26    1.86
   9   7  -3    6.39    0.81
  -7  -7   3    1.58    0.37
   7  -7  -3    1.84    0.87
   7   7  -3    0.47    1.18
  -5  -7   3   14.21    1.21
   5  -7  -3   13.24    1.92
   5   7  -3   14.76    2.04
   3  -7  -3   94.35    8.94
  -3  -7   3   94.84    7.21
   3   7  -3  100.78    8.88
   1  -7  -3  104.73    9.60
  -1  -7   3  104.40    7.74
   1   7  -3  102.31    9.37
   1  -7   3   34.66    2.67
  -1  -7  -3   34.40    3.61
  -1   7  -3   34.28    3.29
  -3  -7  -3   13.71    1.96
   3  -7   3   15.63    1.29
  -3   7  -3   15.03    1.64
   5  -7   3   11.74    1.36
   5  -7   3   10.54    1.04
  -5  -7  -3   10.53    1.42
  -5   7  -3   12.04    1.81
  -7  -7  -3    1.32    0.60
   7  -7   3    2.49    0.51
  -7   7  -3    1.06    1.14
  -9  -7  -3    0.23    0.54
   9  -7   3    0.17    0.45
  -9   7  -3   -0.18    1.55
  10  -8  -3    1.58    1.03
  10   8  -3    2.79    0.64
  -8  -8   3    3.20    0.51
   8  -8  -3    2.03    1.00
   8   8  -3    3.10    1.67
   6  -8  -3   11.76    1.90
  -6  -8   3   12.70    1.13
   6   8  -3   11.90    2.18
  -4  -8   3   15.99    1.28
   4  -8  -3   12.62    1.91
   4   8  -3   13.49    1.96
  -2  -8   3    0.23    0.25
   2  -8  -3    0.41    0.68
   2   8  -3    0.30    0.48
   0  -8   3    5.42    0.60
   0  -8  -3    4.73    1.17
   0   8  -3    4.94    0.87
   2  -8   3    6.53    0.71
  -2  -8  -3    7.12    1.43
  -2   8  -3    6.84    1.01
   4  -8   3   13.04    1.17
   4  -8   3   12.18    1.50
   6  -8   3   13.26    1.61
  -6  -8  -3   12.69    1.68
   6  -8   3   13.06    1.26
  -8  -8  -3    5.24    1.03
   8  -8   3    4.96    0.80
  -9  -9   3    1.92    0.47
   9  -9  -3    2.64    1.14
   9   9  -3    0.38    1.60
   7  -9  -3    2.30    1.01
  -7  -9   3    2.30    0.45
   7   9  -3    4.18    1.77
   5  -9  -3   11.20    1.83
  -5  -9   3   11.32    1.04
   5   9  -3    8.36    1.83
   3  -9  -3   30.14    3.53
  -3  -9   3   32.71    2.59
   3   9  -3   34.52    3.49
  -1  -9   3   34.50    2.66
   1  -9  -3   32.54    3.62
   1   9  -3   32.56    3.38
  -1  -9  -3   16.84    2.41
   1  -9   3   19.18    1.62
  -1   9  -3   19.86    2.10
   3  -9   3   10.72    0.97
  -3  -9  -3    8.55    1.66
   3  -9   3    8.22    1.24
   5  -9   3    3.83    0.63
  -5  -9  -3    3.63    0.90
   5  -9   3    3.58    0.87
   6 -10  -3    1.72    1.07
  -6 -10   3    4.48    0.62
   6  10  -3    4.56    1.82
  -4 -10   3    3.77    0.59
   4 -10  -3    4.64    1.29
   4  10  -3    3.98    1.33
   2 -10  -3   -0.40    0.85
  -2 -10   3   -0.10    0.33
   2  10  -3    0.12    0.73
   0 -10  -3    1.25    0.99
   0 -10   3    1.96    0.46
   0  10  -3    1.49    0.66
  -2 -10  -3    1.97    1.15
   2 -10   3    3.80    0.85
   4 -10   3    4.14    0.93
  16   0  -4   -0.71    0.89
  14   0  -4   -0.94    0.74
  12   0  -4    4.82    0.99
  12   0  -4    6.39    1.25
  10   0  -4   48.34    4.07
  10   0  -4   55.44    5.12
   8   0  -4   88.91    7.40
   8   0  -4   69.22    5.77
   6   0  -4   40.56    2.94
   6   0  -4   34.89    4.00
   4   0  -4  177.89   17.63
  -4   0   4  214.15   14.53
  -2   0   4  546.01   40.06
   2   0  -4  522.33   53.75
   2   0  -4  570.55   47.92
   0   0   4  126.35    9.13
   0   0  -4  124.01   12.52
   0   0  -4  121.01   10.97
   2   0   4    1.67    0.27
  -2   0  -4    1.91    0.33
  -2   0  -4    3.52    0.92
  -4   0  -4    0.77    0.63
   4   0   4    0.23    0.25
  -6   0  -4   25.73    2.88
   6   0   4   21.76    1.98
   8   0   4   14.65    1.47
  10   0   4    0.87    0.53
 -10   0  -4    2.66    0.88
 -12   0  -4    0.06    0.70
  12   0   4    0.32    0.56
  15  -1  -4    9.04    1.41
  15   1  -4    7.87    1.51
  13  -1  -4   33.91    3.12
  13   1  -4   36.14    3.19
  11  -1  -4   68.98    6.29
  11  -1  -4   61.39    5.15
  11   1  -4   60.87    5.15
  11   1  -4   71.10    6.38
   9  -1  -4   20.86    1.83
   9  -1  -4   24.41    2.62
   9   1  -4   19.93    1.82
   9   1  -4   22.89    2.80
   7  -1  -4   13.60    1.15
   7  -1  -4   15.87    2.10
   7   1  -4   10.81    1.93
   7   1  -4   14.40    1.16
   5  -1  -4   75.63    5.40
   5  -1  -4   72.31    6.97
   5   1  -4   76.32    5.42
   5   1  -4   63.19    6.81
   3  -1  -4   18.82    1.85
   3  -1  -4   13.01    2.11
  -3  -1   4   17.06    1.31
   3   1  -4   17.90    1.88
  -3   1   4   15.94    1.28
   1  -1  -4  137.43   12.82
  -1  -1   4  134.35    9.48
   1  -1  -4  117.33   11.54
  -1   1   4  119.46    9.46
   1   1  -4  134.09   11.42
  -1  -1  -4  202.35   19.32
  -1  -1  -4  186.46   17.12
   1  -1   4  207.38   14.31
   1   1   4  196.16   14.31
  -1   1  -4  169.81   19.51
  -1   1  -4  200.39   17.07
  -3  -1  -4   14.81    2.02
  -3  -1  -4   13.82    1.48
   3  -1   4   17.51    1.30
  -3   1  -4   18.41    2.44
  -3   1  -4   15.67    1.48
   3   1   4   16.47    1.33
   5  -1   4    0.99    0.31
  -5  -1  -4    0.71    0.50
   5   1   4    0.30    0.35
  -7  -1  -4   10.00    1.47
   7  -1   4    8.41    0.96
   7   1   4    6.98    1.00
  -9  -1  -4   31.96    3.13
   9  -1   4   20.57    2.21
   9   1   4   25.41    2.27
  11  -1   4   11.11    1.41
  11   1   4   15.69    1.50
  14  -2  -4   -0.26    0.72
  14   2  -4   -0.50    0.83
  12  -2  -4    5.62    1.03
  12  -2  -4    5.93    1.26
  12   2  -4    5.98    1.03
  12   2  -4    5.53    1.31
  10  -2  -4   34.12    2.88
  10  -2  -4   33.94    3.69
  10   2  -4   36.33    3.86
  10   2  -4   34.79    2.86
   8  -2  -4   53.95    4.57
   8  -2  -4   44.88    3.35
   8   2  -4   32.52    4.43
   8   2  -4   42.68    3.35
   6  -2  -4   77.63    5.54
   6  -2  -4   80.21    7.20
   6   2  -4   60.48    7.00
   6   2  -4   77.69    5.57
   4  -2  -4  164.05   17.01
  -4  -2   4  196.46   13.91
   4   2  -4  202.79   16.86
  -2  -2   4  304.42   22.10
   2  -2  -4  307.88   29.60
   2   2  -4  259.29   29.60
   2   2  -4  333.01   26.49
   0  -2  -4  122.43   12.54
   0  -2  -4  150.00   13.84
   0  -2   4  150.50   10.28
   0   2  -4  143.40   12.30
   0   2   4  124.94   10.26
   0   2  -4  142.63   14.04
   2  -2   4    2.18    0.30
  -2  -2  -4    1.82    0.60
  -2  -2  -4    1.79    0.68
  -2   2  -4    2.70    0.40
   2   2   4    1.94    0.35
  -2   2  -4    2.07    0.98
  -4  -2  -4    0.11    0.39
   4  -2   4    0.50    0.23
  -4   2  -4    0.52    0.24
  -4   2  -4    0.83    0.97
   4   2   4    0.17    0.32
  -6  -2  -4   17.59    2.10
   6  -2   4   17.27    1.45
   6   2   4   13.43    1.52
   8  -2   4   15.26    1.54
  -8  -2  -4   16.96    2.18
   8   2   4   17.90    1.65
  10  -2   4    0.74    0.54
 -10  -2  -4    2.01    0.77
 -10   2  -4    5.16    1.34
  10   2   4    1.88    0.66
 -12  -2  -4    0.95    0.69
  12  -2   4    0.32    0.56
 -12   2  -4    0.60    0.89
  12   2   4    0.69    0.65
  15   3  -4    7.14    1.51
  13  -3  -4   20.57    2.16
  13  -3  -4   22.85    2.65
  13   3  -4   21.58    2.22
  11  -3  -4   51.08    4.30
  11  -3  -4   54.58    5.33
  11   3  -4   49.88    4.29
  11   3  -4   61.69    5.59
   9  -3  -4   26.39    2.18
   9  -3  -4   28.00    3.03
   9   3  -4   26.48    2.14
   9   3  -4   21.08    3.13
   7  -3  -4    8.72    0.78
   7  -3  -4    9.03    1.62
   7   3  -4    8.73    0.80
   7   3  -4    6.57    1.54
  -5  -3   4   41.20    2.96
   5  -3  -4   30.58    4.06
   5   3  -4   42.14    3.97
  -3  -3   4   11.05    0.96
   3  -3  -4    9.16    1.74
   3   3  -4   12.58    1.31
   3   3  -4   13.10    1.43
  -1  -3   4   79.86    5.89
   1   3  -4   77.94    7.96
   1   3  -4   79.87    7.11
   1  -3   4  131.89    9.51
  -1  -3  -4  121.44   12.78
  -1  -3  -4  133.39   11.74
  -1   3  -4  122.20   11.35
  -1   3  -4  136.05   13.02
  -3  -3  -4   13.24    1.67
  -3  -3  -4   14.99    1.82
   3  -3   4   13.89    1.15
  -3   3  -4   17.24    2.50
   3   3   4   10.62    1.30
  -3   3  -4   14.71    1.39
  -5  -3  -4    0.82    0.46
   5  -3   4    0.64    0.28
  -5   3  -4   -0.05    1.01
   5   3   4    0.21    0.48
   7  -3   4    8.75    1.02
  -7  -3  -4    9.30    1.47
  -7   3  -4   17.91    2.62
   7   3   4   10.24    1.22
  -9  -3  -4   18.25    2.35
   9  -3   4   15.32    1.67
   9   3   4   21.82    1.88
 -11  -3  -4   11.23    1.75
  11  -3   4    8.35    1.27
  11   3   4   15.35    1.47
  14   4  -4    0.26    0.84
  12  -4  -4    2.96    1.12
  12   4  -4    3.67    0.86
  10  -4  -4   22.38    2.84
  10   4  -4   23.26    2.01
  10   4  -4   23.78    3.14
   8  -4  -4   47.05    4.23
   8   4  -4   37.88    3.06
   8   4  -4   34.33    4.28
   6  -4  -4   41.27    4.21
   6   4  -4   39.34    4.13
   4  -4  -4  126.17   12.41
  -4  -4   4  133.64   10.03
   4   4  -4  146.19   12.22
   2  -4  -4  240.84   23.69
  -2  -4   4  266.71   19.53
   2   4  -4  278.80   26.14
   2   4  -4  271.87   23.38
   0  -4  -4   62.70    7.12
   0  -4   4   76.50    5.60
   0   4  -4   79.59    7.60
   0   4  -4   77.52    6.75
  -2  -4  -4    1.04    0.41
   2  -4   4    1.34    0.25
  -2  -4  -4    0.74    0.92
  -2   4  -4    1.35    0.70
  -2   4  -4    1.46    0.40
  -4  -4  -4    1.41    0.46
   4  -4   4    0.96    0.27
  -4   4  -4    0.12    0.85
  -4   4  -4    1.57    0.39
  -6  -4  -4   11.77    1.50
   6  -4   4   10.96    1.04
  -6   4  -4    7.46    2.21
   6   4   4   11.06    1.32
  -8  -4  -4   10.86    1.55
   8  -4   4    8.90    1.08
   8   4   4   11.31    1.40
  -8   4  -4   17.35    2.91
 -10  -4  -4    1.20    0.77
  10  -4   4    0.57    0.52
 -10   4  -4    3.81    1.65
  10   4   4    0.24    0.68
  13  -5  -4   13.32    2.16
  13   5  -4   14.44    1.72
  11  -5  -4   23.56    2.89
  11   5  -4   21.96    2.08
  11   5  -4   24.88    3.27
   9  -5  -4   15.72    2.15
   9   5  -4    9.31    2.26
   9   5  -4   14.66    1.29
   7  -5  -4   11.23    1.80
   7   5  -4   10.26    0.95
   7   5  -4   10.70    1.92
  -5  -5   4   21.03    1.71
   5  -5  -4   21.37    2.64
   5   5  -4   22.94    2.47
   3  -5  -4    2.08    0.94
  -3  -5   4    3.56    0.42
   3   5  -4    3.84    0.74
  -1  -5   4   39.84    3.06
   1  -5  -4   36.35    4.20
   1   5  -4   42.67    4.16
   1   5  -4   40.25    3.76
   1  -5   4   73.74    5.46
  -1  -5  -4   65.75    6.99
  -1   5  -4   76.08    7.45
  -1   5  -4   73.85    6.58
  -3  -5  -4   14.18    1.93
  -3  -5  -4   10.72    1.43
   3  -5   4   11.42    1.03
  -3   5  -4   13.20    1.82
  -3   5  -4   12.29    1.29
   5  -5   4   -0.07    0.26
  -5  -5  -4    0.49    0.42
  -5   5  -4    0.22    0.35
  -5   5  -4   -0.14    0.92
   7  -5   4    5.36    0.74
  -7  -5  -4    6.91    1.12
  -7   5  -4    3.94    1.82
   9  -5   4   12.18    1.39
  -9  -5  -4   14.41    1.93
  -9   5  -4   21.91    3.47
  12  -6  -4    2.81    1.22
  12   6  -4    3.24    0.83
  10  -6  -4   17.15    2.29
  10   6  -4   11.61    2.49
  10   6  -4   14.77    1.42
   8  -6  -4   17.31    2.31
   8   6  -4   14.80    2.64
   6  -6  -4   25.69    2.95
  -6  -6   4   23.61    1.94
   6   6  -4   24.83    2.95
  -4  -6   4   84.86    6.36
   4  -6  -4   83.07    8.08
   4   6  -4   86.69    7.87
   2  -6  -4  133.79   12.60
  -2  -6   4  140.08   10.17
   2   6  -4  136.40   12.27
   0  -6  -4   51.63    5.02
   0  -6   4   48.29    3.74
   0   6  -4   49.09    4.56
   2  -6   4    0.32    0.23
  -2  -6  -4   -0.06    0.37
  -2  -6  -4    0.24    0.96
  -2   6  -4    0.62    0.47
  -2   6  -4    0.82    0.34
  -4  -6  -4    0.48    0.41
   4  -6   4    0.72    0.28
  -4   6  -4    0.18    0.33
  -4   6  -4   -0.12    0.66
  -6  -6  -4   12.19    1.55
   6  -6   4   12.20    1.13
  -6   6  -4    9.04    2.23
   8  -6   4    6.16    0.85
  -8  -6  -4    6.39    1.15
  -8   6  -4    4.23    2.03
  11  -7  -4   11.98    2.08
  11   7  -4   12.78    1.36
  -9  -7   4    7.88    0.82
   9  -7  -4    7.62    1.63
   9   7  -4    4.15    1.81
  -7  -7   4    5.37    0.61
   7  -7  -4    3.64    1.20
   7   7  -4    5.00    1.56
   5  -7  -4    8.67    1.70
  -5  -7   4   10.34    0.93
   5   7  -4    9.54    1.66
   3  -7  -4    0.92    0.91
  -3  -7   4    1.09    0.29
   3   7  -4    1.45    0.64
   1  -7  -4   16.14    2.37
  -1  -7   4   19.60    1.51
   1   7  -4   17.49    1.93
   1  -7   4   27.96    2.06
  -1  -7  -4   22.48    2.98
  -1   7  -4   24.82    2.53
   3  -7   4    5.11    0.60
  -3  -7  -4    4.29    0.89
  -3   7  -4    5.63    0.81
  -3   7  -4    5.22    1.06
   5  -7   4    1.09    0.37
   5  -7   4    1.37    0.56
  -5  -7  -4    1.01    0.50
  -5   7  -4    0.65    0.91
  -7  -7  -4    3.11    0.80
   7  -7   4    4.17    0.66
  -7   7  -4    1.65    1.55
 -10  -8   4    4.97    0.72
  10  -8  -4    4.99    1.44
  10   8  -4    3.96    1.85
  -8  -8   4   11.98    1.14
   8  -8  -4   13.79    2.18
   8   8  -4   11.19    2.59
   6  -8  -4   13.13    2.20
  -6  -8   4   14.57    1.27
   6   8  -4   14.47    2.40
   4  -8  -4   36.72    3.90
  -4  -8   4   35.02    2.77
   4   8  -4   34.49    3.69
   2  -8  -4   55.98    5.87
  -2  -8   4   62.05    4.49
   2   8  -4   56.57    5.52
   0  -8  -4   19.72    2.60
   0  -8   4   19.54    1.68
   0   8  -4   20.93    2.12
   2  -8   4    1.41    0.37
  -2  -8  -4    0.79    0.92
  -2   8  -4    1.32    0.48
   4  -8   4    2.06    0.44
  -4  -8  -4    1.45    0.63
   4  -8   4    1.61    0.63
  -6  -8  -4    4.32    0.88
   6  -8   4    3.66    0.63
  -6   8  -4    2.89    1.31
  -9  -9   4    3.15    0.56
   9   9  -4    1.19    1.86
   7  -9  -4    2.16    1.15
  -7  -9   4    3.37    0.55
   7   9  -4    3.31    1.65
  -5  -9   4    2.66    0.48
   5  -9  -4    1.70    1.07
   5   9  -4    1.56    1.04
  -3  -9   4    0.18    0.29
   3  -9  -4    0.31    0.89
   3   9  -4   -0.15    0.59
   1  -9  -4    1.52    1.11
  -1  -9   4    4.72    0.59
   1   9  -4    2.88    0.77
   1  -9   4    7.92    0.85
  -1  -9  -4    6.16    1.63
  -1   9  -4    8.65    1.18
   3  -9   4    4.37    0.91
   3  -9   4    4.28    0.65
  -5  -9  -4    0.84    0.61
   5  -9   4    1.76    0.52
   5  -9   4    2.10    0.71
   4 -10  -4   12.46    2.30
  -4 -10   4   15.60    1.36
   4  10  -4   14.57    2.17
  -2 -10   4   19.11    1.62
   2 -10  -4   14.65    2.58
   2  10  -4   19.48    2.25
   0 -10   4    9.41    0.99
   0 -10  -4    6.50    1.71
   0  10  -4    9.26    1.33
   2 -10   4    1.45    0.48
   2 -10   4    1.62    0.64
  14   0  -5   16.64    1.90
  12   0  -5   57.60    5.12
  12   0  -5   74.18    6.39
  10   0  -5   90.09    7.56
  10   0  -5  114.62    9.49
   8   0  -5    1.76    1.03
   8   0  -5    1.84    0.35
   6   0  -5   50.16    3.42
   6   0  -5   35.45    4.56
  -4   0   5   14.76    1.16
   4   0  -5   14.66    1.93
   4   0  -5   14.75    2.01
  -2   0   5    4.64    0.44
   2   0  -5    4.85    1.10
   2   0  -5    5.03    0.90
   0   0  -5    7.52    1.47
   0   0  -5    6.47    0.92
   0   0   5    7.43    0.63
  -2   0  -5    2.31    0.41
   2   0   5    2.24    0.34
  -2   0  -5    3.10    1.08
   4   0   5   23.47    1.97
  -4   0  -5   25.05    3.05
  -6   0  -5   37.16    3.94
   6   0   5   31.13    2.75
   8   0   5   22.91    2.09
  10   0   5   11.71    1.37
  15  -1  -5   -0.09    0.83
  15   1  -5    0.17    0.92
  13  -1  -5    0.17    0.84
  13  -1  -5    0.22    0.62
  13   1  -5    0.06    0.67
  13   1  -5    0.88    0.95
  11  -1  -5   17.67    2.41
  11  -1  -5   16.53    1.64
  11   1  -5   21.22    2.55
  11   1  -5   17.01    1.64
   9  -1  -5  188.90   15.05
   9  -1  -5  152.47   12.18
   9   1  -5  148.29   12.19
   9   1  -5  176.08   15.12
   7  -1  -5  257.77   20.77
   7  -1  -5  221.14   16.92
   7   1  -5  216.91   16.94
  -5  -1   5   25.87    1.90
   5  -1  -5   25.48    2.67
   5  -1  -5   17.54    2.81
  -5   1   5   24.85    1.87
   5   1  -5   25.45    2.81
   3  -1  -5    3.42    0.96
  -3  -1   5    3.37    0.33
   3  -1  -5    2.97    0.70
   3   1  -5    1.71    0.72
  -3   1   5    2.75    0.30
   3   1  -5    2.83    0.72
  -1  -1   5   33.66    2.42
   1  -1  -5   29.16    3.17
   1  -1  -5   35.43    3.53
  -1   1   5   29.02    2.39
   1   1  -5   32.81    3.04
  -1  -1  -5  132.90   12.43
   1  -1   5  126.99    9.08
  -1  -1  -5  116.62   10.87
   1   1   5  117.48    9.07
  -1   1  -5  117.83   10.84
  -1   1  -5  125.84   12.68
  -3  -1  -5   70.95    7.08
   3  -1   5   68.61    5.07
  -3   1  -5   63.19    5.97
   3   1   5   62.64    5.09
  -3   1  -5   74.83    7.34
  -5  -1  -5   20.18    2.62
   5  -1   5   21.07    1.75
  -5   1  -5   25.50    2.92
   5   1   5   17.54    1.77
  -7  -1  -5    8.20    1.46
   7  -1   5    6.05    0.90
  -7   1  -5   12.17    1.84
   7   1   5    5.94    0.96
  -9  -1  -5    0.34    0.65
   9  -1   5    0.87    0.50
   9   1   5    0.32    0.52
  -9   1  -5    0.53    0.81
 -11  -1  -5    0.91    0.71
  11  -1   5    0.78    0.60
  11   1   5   -0.20    0.54
 -11   1  -5    0.72    0.88
  14  -2  -5   11.56    1.61
  14  -2  -5   12.40    1.93
  14   2  -5   13.37    1.75
  12  -2  -5   52.14    5.13
  12  -2  -5   47.06    4.10
  12   2  -5   60.97    5.37
  12   2  -5   47.28    4.13
  10  -2  -5   94.08    7.99
  10  -2  -5   80.24    6.29
  10   2  -5   74.37    6.30
  10   2  -5   88.57    8.12
   8  -2  -5    6.75    0.69
   8  -2  -5    9.02    1.69
   8   2  -5    7.20    0.71
   8   2  -5    3.90    1.36
  -6  -2   5   56.88    4.14
   6  -2  -5   55.42    4.11
   6  -2  -5   61.52    5.68
   6   2  -5   45.86    5.41
  -4  -2   5   37.06    2.61
   4  -2  -5   36.23    3.58
   4  -2  -5   25.58    3.74
   4   2  -5   35.70    3.45
   4   2  -5   33.18    3.48
  -4   2   5   33.16    2.55
  -2  -2   5   18.18    1.37
   2  -2  -5   16.15    2.36
   2  -2  -5   20.59    2.02
   2   2  -5   21.24    1.89
   2   2  -5   16.16    2.08
  -2   2   5   14.35    1.31
   0  -2  -5   14.98    1.67
   0  -2  -5   10.75    1.71
   0  -2   5   14.21    1.03
   0   2  -5   13.09    1.33
   0   2   5   10.62    1.00
   0   2  -5    9.11    1.87
  -2  -2  -5    8.52    1.35
  -2  -2  -5    8.23    1.10
   2  -2   5    9.46    0.78
  -2   2  -5    8.29    0.97
   2   2   5    7.96    0.83
  -2   2  -5    6.19    1.67
   4  -2   5   25.69    1.91
  -4  -2  -5   25.02    2.78
   4   2   5   18.74    1.97
   6  -2   5   28.09    2.23
  -6  -2  -5   29.71    3.19
   6   2   5   22.24    2.28
  -8  -2  -5   25.98    3.04
   8  -2   5   23.48    2.16
   8   2   5   25.02    2.24
  10  -2   5   11.17    1.39
 -10  -2  -5   13.73    1.93
  10   2   5   13.71    1.46
  15   3  -5   -0.68    0.89
  13  -3  -5    0.28    0.85
  13   3  -5    0.56    0.66
  11  -3  -5   14.19    2.02
  11   3  -5   10.58    1.23
  11   3  -5   13.66    2.29
   9   3  -5  105.52    7.18
   9   3  -5   79.25    9.07
   7  -3  -5  193.82   15.64
   7   3  -5  164.66   12.55
   7   3  -5  153.81   15.44
  -5  -3   5   23.57    1.82
   5  -3  -5   19.46    2.97
   5   3  -5   24.92    2.64
   3  -3  -5    1.36    1.15
  -3  -3   5    2.67    0.35
   3   3  -5    2.34    0.66
   3   3  -5    3.18    0.54
   1  -3  -5   22.17    2.45
   1  -3  -5   16.18    2.78
  -1  -3   5   22.51    1.73
   1   3  -5   23.24    2.19
   1   3  -5   22.54    2.55
  -1  -3  -5  104.75   10.64
  -1  -3  -5  105.20    9.76
   1  -3   5  110.71    7.88
  -1   3  -5   99.23    9.40
  -1   3  -5  110.62   11.00
   3  -3   5   59.70    4.52
  -3  -3  -5   60.14    6.19
  -3   3  -5   51.32    6.72
  -3   3  -5   63.57    5.39
  -5  -3  -5   11.90    1.79
   5  -3   5   13.69    1.25
   5   3   5   14.96    1.47
  -5   3  -5   15.56    2.79
   7  -3   5    3.48    0.64
  -7  -3  -5    4.00    0.98
   7   3   5    3.57    0.77
  -7   3  -5    8.67    2.11
   9  -3   5    0.57    0.48
  -9  -3  -5    0.61    0.75
   9   3   5    0.54    0.62
  -9   3  -5    1.40    1.13
  14  -4  -5    7.20    1.57
  14   4  -5    7.00    1.31
  12  -4  -5   30.98    3.49
  12   4  -5   27.14    2.63
  12   4  -5   36.73    3.85
  10  -4  -5   63.17    5.86
  10   4  -5   54.85    6.02
  10   4  -5   55.68    4.47
   8  -4  -5    3.06    1.28
   8   4  -5    3.06    0.48
   8   4  -5    1.29    1.10
  -6  -4   5   32.00    2.46
   6  -4  -5   30.27    3.66
   6   4  -5   31.87    3.45
  -4  -4   5   12.58    1.01
   4  -4  -5    7.80    1.89
   4   4  -5   12.35    1.49
   2  -4  -5    1.81    1.26
  -2  -4   5    5.05    0.51
   2   4  -5    5.19    0.84
   2   4  -5    6.41    0.89
   0  -4  -5    5.49    0.91
   0  -4  -5    4.01    1.38
   0  -4   5    5.34    0.54
   0   4  -5    5.38    0.81
   0   4  -5    5.95    1.08
   2  -4   5    3.65    0.45
  -2  -4  -5    2.81    0.69
  -2  -4  -5    3.51    1.19
  -2   4  -5    4.06    0.61
  -2   4  -5    2.18    0.98
   4  -4   5   21.84    1.83
  -4  -4  -5   21.46    2.57
  -4   4  -5   23.94    2.21
  -4   4  -5   21.25    3.40
   6  -4   5   20.06    1.79
  -6  -4  -5   21.21    2.50
  -6   4  -5   24.01    3.74
   8  -4   5   13.89    1.43
  -8  -4  -5   15.31    2.02
 -10  -4  -5   11.25    1.74
  10  -4   5    7.90    1.15
  13  -5  -5    0.92    1.05
  13   5  -5    0.21    0.64
  11  -5  -5    8.81    1.87
  11   5  -5    8.64    1.06
  11   5  -5    9.31    2.09
   9  -5  -5   60.61    5.45
   9   5  -5   50.60    4.00
   9   5  -5   44.22    5.46
  -7  -5   5   89.73    6.97
   7  -5  -5   93.63    8.96
   7   5  -5   97.85    8.90
  -5  -5   5   21.91    1.74
   5  -5  -5   19.15    2.85
   5   5  -5   22.99    2.49
   3  -5  -5    1.10    1.01
  -3  -5   5    0.89    0.23
   3   5  -5    1.07    0.46
  -1  -5   5   19.66    1.54
   1  -5  -5   13.56    2.59
   1   5  -5   20.02    1.98
   1   5  -5   19.69    2.19
   1  -5   5   53.65    4.18
  -1  -5  -5   55.79    5.69
  -1  -5  -5   57.60    5.78
  -1   5  -5   57.99    5.83
  -1   5  -5   53.14    5.05
   3  -5   5   28.85    2.44
  -3  -5  -5   29.60    3.36
  -3   5  -5   33.45    2.98
  -3   5  -5   34.93    3.90
  -5  -5  -5   12.83    1.63
   5  -5   5   12.44    1.14
  -5   5  -5    8.89    2.40
  -7  -5  -5    4.15    0.93
   7  -5   5    3.68    0.64
  -7   5  -5    2.72    1.86
   9  -5   5    0.13    0.45
  -9  -5  -5    0.43    0.64
  -9   5  -5   -0.83    1.52
  12  -6  -5   12.54    2.32
  12   6  -5   16.34    2.74
  12   6  -5   16.06    1.59
  10  -6  -5   23.58    2.89
  10   6  -5   20.63    1.80
  10   6  -5   15.96    2.99
   8  -6  -5    4.52    1.43
  -8  -6   5    3.62    0.53
   8   6  -5    2.13    1.28
  -6  -6   5    9.23    0.87
   6  -6  -5   10.29    1.89
   6   6  -5    7.96    1.59
   4  -6  -5    6.46    1.67
  -4  -6   5    7.22    0.73
   4   6  -5    8.93    1.35
  -2  -6   5    2.86    0.40
   2  -6  -5    2.31    1.31
   2   6  -5    2.52    0.63
   0  -6   5    1.94    0.34
   0  -6  -5    0.46    1.13
   0   6  -5    1.73    0.49
   0   6  -5    2.26    0.61
  -2  -6  -5    4.73    0.92
   2  -6   5    5.29    0.59
  -2   6  -5    4.48    1.04
  -2   6  -5    5.31    0.79
  -4  -6  -5   10.22    1.37
   4  -6   5    9.75    0.97
  -4   6  -5   10.72    1.22
  -4   6  -5    9.47    1.93
  -6  -6  -5   10.61    1.45
   6  -6   5    9.31    1.02
  -6   6  -5    8.30    2.28
  -8  -6  -5   12.39    1.63
   8  -6   5    9.95    1.16
  -8   6  -5    6.94    2.53
 -11  -7   5    4.37    0.70
  11  -7  -5    4.64    1.46
  11   7  -5    3.09    1.68
  -9  -7   5   29.80    2.49
   9  -7  -5   34.94    3.77
   9   7  -5   28.32    3.98
   7  -7  -5   40.85    4.44
  -7  -7   5   37.56    3.07
   7   7  -5   42.04    4.45
   5  -7  -5    9.56    2.06
  -5  -7   5   12.08    1.07
   5   7  -5   12.87    1.94
  -3  -7   5    5.24    0.58
   3  -7  -5    3.28    1.34
   3   7  -5    4.72    0.95
   1  -7  -5   11.80    2.28
  -1  -7   5   14.44    1.19
   1   7  -5   12.88    1.56
  -1  -7  -5   20.93    2.46
   1  -7   5   21.04    1.75
  -1  -7  -5   21.23    2.97
  -1   7  -5   21.54    2.19
  -1   7  -5   22.45    2.54
  -3  -7  -5   18.13    2.15
   3  -7   5   18.02    1.54
  -3   7  -5   17.53    2.40
  -3   7  -5   18.66    1.91
   5  -7   5    7.89    0.90
  -5  -7  -5    8.65    1.27
  -5   7  -5    7.65    1.87
  -7  -7  -5    2.33    0.76
   7  -7   5    1.00    0.50
  -7   7  -5   -1.35    1.46
  10  -8  -5    9.44    2.09
 -10  -8   5   10.25    1.05
  10   8  -5    8.18    2.38
  -8  -8   5    1.86    0.46
   8  -8  -5    1.48    1.24
   8   8  -5    1.16    1.43
   6  -8  -5    1.89    1.22
  -6  -8   5    2.79    0.49
   6   8  -5    2.02    1.14
   4  -8  -5    2.16    1.17
  -4  -8   5    2.16    0.41
   4   8  -5    1.73    0.84
   2  -8  -5    0.11    1.05
  -2  -8   5    0.38    0.28
   2   8  -5    0.18    0.43
   0  -8   5    0.26    0.26
   0  -8  -5    0.52    1.12
   0   8  -5    0.33    0.39
   2  -8   5    2.67    0.46
  -2  -8  -5    1.13    0.64
  -2   8  -5    2.40    0.62
   4  -8   5    8.06    0.90
  -4  -8  -5    8.01    1.26
  -4   8  -5    8.17    1.16
  -4   8  -5    6.95    1.57
  -7  -9   5   19.59    1.71
   7  -9  -5   19.67    2.96
   7   9  -5   19.96    3.19
   5  -9  -5    6.63    1.74
  -5  -9   5    8.14    0.85
   5   9  -5    6.52    1.55
   3  -9  -5   -0.39    1.11
  -3  -9   5    2.27    0.47
   3   9  -5    2.43    0.82
  -1  -9   5    6.99    0.75
   1  -9  -5    3.32    1.51
   1   9  -5    6.15    1.06
   1  -9   5   13.36    1.23
  -1   9  -5   12.36    1.55
  -3  -9  -5    9.21    1.40
   3  -9   5    8.28    0.93
  -3   9  -5    7.04    1.17
  14   0  -6   15.84    1.79
  12   0  -6   16.91    2.28
  12   0  -6   11.86    1.34
  10   0  -6    6.40    0.74
  10   0  -6    7.54    1.65
   8   0  -6   25.87    2.11
   8   0  -6   30.05    3.38
  -6   0   6   65.86    4.73
   6   0  -6   58.36    6.18
  -4   0   6   56.57    4.25
   4   0  -6   51.64    6.15
   4   0  -6   63.12    5.58
  -2   0   6   42.30    3.24
   2   0  -6   46.82    4.17
   2   0  -6   39.56    4.93
   0   0  -6   96.02    8.60
   0   0  -6   94.97   10.08
   0   0   6   96.13    7.12
   2   0   6   99.97    7.51
  -2   0  -6  105.66   10.56
  -2   0  -6   97.69    8.94
   4   0   6   14.99    1.37
  -4   0  -6   15.69    2.34
   6   0   6    0.13    0.42
  -6   0  -6   -0.04    0.74
   8   0   6    0.20    0.52
  -8   0  -6   -0.10    0.69
 -10   0  -6    0.11    0.78
  10   0   6    0.15    0.58
  15  -1  -6   19.04    2.18
  15   1  -6   20.31    2.22
  13  -1  -6    4.87    0.94
  13  -1  -6    6.64    1.51
  13   1  -6    8.26    1.66
  13   1  -6    5.35    0.99
  11  -1  -6    3.11    0.58
  11  -1  -6    3.42    1.23
  11   1  -6    1.89    0.54
  11   1  -6    3.78    1.36
   9  -1  -6   21.09    1.73
   9  -1  -6   25.65    2.96
   9   1  -6   22.03    2.97
   9   1  -6   19.91    1.74
  -7  -1   6   19.08    1.53
   7  -1  -6   20.01    2.73
   7   1  -6   16.54    2.58
  -5  -1   6   -0.13    0.12
   5   1  -6    0.27    0.57
  -5   1   6    0.14    0.13
   3  -1  -6    2.42    0.79
   3  -1  -6    2.49    0.89
  -3   1   6    0.30    0.13
   3   1  -6   -0.55    0.66
   3   1  -6   -0.26    0.45
  -1  -1   6    3.25    0.39
   1   1  -6    3.61    0.70
   1   1  -6    2.68    1.21
  -1   1   6    3.45    0.38
  -1  -1  -6    6.06    1.34
  -1  -1  -6    4.91    0.80
   1  -1   6    4.90    0.58
  -1   1  -6    6.04    1.59
  -1   1  -6    6.17    0.81
   1   1   6    5.84    0.60
   3  -1   6   60.23    4.74
  -3  -1  -6   67.47    6.78
   3   1   6   54.46    4.75
  -3   1  -6   74.98    7.05
   5  -1   6   53.94    4.12
  -5  -1  -6   56.33    5.84
   5   1   6   48.61    4.14
  -7  -1  -6   13.42    1.98
   7  -1   6   13.43    1.35
   7   1   6   12.06    1.38
  -9  -1  -6    5.16    1.23
   9  -1   6    4.54    0.88
  -9   1  -6    5.58    1.43
   9   1   6    3.48    0.85
  14  -2  -6   17.15    2.35
  14   2  -6   14.75    1.76
  14   2  -6   14.54    2.38
  12  -2  -6   16.23    2.15
  12   2  -6   11.60    1.34
  12   2  -6   14.58    2.42
  10  -2  -6    3.16    1.22
  10   2  -6    3.46    1.38
  10   2  -6    3.16    0.54
   8   2  -6   23.00    3.01
   6  -2  -6   81.52    7.85
  -6  -2   6   81.23    6.00
   6   2  -6   77.47    7.64
   4  -2  -6   24.99    3.53
  -4  -2   6   32.84    2.43
   4  -2  -6   32.80    3.47
   4   2  -6   32.22    3.24
  -2  -2   6   32.19    2.33
   2  -2  -6   26.14    3.31
   2  -2  -6   29.94    3.37
   2   2  -6   26.06    3.47
   2   2  -6   33.34    3.01
   0  -2  -6  119.71   11.71
   0  -2  -6  108.31   10.42
   0  -2   6  125.10    8.59
   0   2  -6   99.90   12.00
   0   2  -6  119.91   10.31
   2  -2   6   93.43    6.75
  -2  -2  -6   92.74    9.28
  -2   2  -6   88.76    9.75
   2   2   6   78.80    6.76
  -2   2  -6   96.06    8.04
   4  -2   6    9.99    0.98
  -4  -2  -6    9.64    1.70
   4   2   6    8.55    1.07
  -4   2  -6   13.05    2.34
  -6  -2  -6   -0.03    0.67
   6  -2   6    0.57    0.41
   6   2   6   -0.01    0.48
  -6   2  -6    0.38    1.12
   8  -2   6   -0.13    0.45
  -8  -2  -6    0.88    0.70
  -8   2  -6   -0.46    0.90
   8   2   6    0.21    0.55
  13  -3  -6    3.92    1.25
  13   3  -6    2.50    0.77
  13   3  -6    5.64    1.65
  11  -3  -6    4.78    1.45
  11   3  -6    4.16    0.71
  11   3  -6    6.71    1.72
   9  -3  -6   19.92    2.67
   9   3  -6   17.47    1.52
   7  -3  -6    9.82    1.95
  -7  -3   6   10.15    0.92
   7   3  -6    9.06    1.81
   5  -3  -6   -0.27    0.55
  -5  -3   6   -0.06    0.16
   5  -3  -6    0.05    1.03
   5   3  -6    0.57    0.57
   3  -3  -6    0.25    0.50
  -3  -3   6    0.32    0.17
   3  -3  -6   -0.31    1.01
   3   3  -6    0.27    0.39
   3   3  -6    0.14    0.37
   1  -3  -6    2.68    0.74
   1  -3  -6    2.98    1.25
  -1  -3   6    4.41    0.46
   1   3  -6    3.55    0.68
   1   3  -6    3.48    1.01
  -1  -3  -6    3.99    1.06
   1  -3   6    5.83    0.60
  -1  -3  -6    5.18    1.06
  -1   3  -6    5.95    0.84
  -1   3  -6    4.74    1.43
  -3  -3  -6   53.52    5.54
   3  -3   6   54.00    3.99
  -3   3  -6   44.53    6.13
   5  -3   6   45.30    3.57
  -5  -3  -6   45.57    4.97
  -7  -3  -6   10.75    1.72
   7  -3   6    9.54    1.09
  -9  -3  -6    3.07    0.98
   9  -3   6    2.48    0.68
  -9   3  -6    4.80    1.57
  14  -4  -6    6.07    1.52
  14   4  -6    7.25    1.23
  12  -4  -6    7.47    1.69
  12   4  -6    7.70    1.05
  12   4  -6    8.92    2.05
  10  -4  -6    5.96    1.58
  10   4  -6    5.63    0.72
  10   4  -6    2.88    1.43
  -8  -4   6   20.25    1.77
   8  -4  -6   26.57    3.13
   8   4  -6   21.76    2.91
   6  -4  -6   46.23    5.35
  -6  -4   6   49.58    3.79
   6   4  -6   52.37    5.04
   4  -4  -6   27.18    4.07
  -4  -4   6   35.49    2.70
   4   4  -6   38.28    3.52
  -2  -4   6   26.05    2.06
   2  -4  -6   24.62    2.88
   2   4  -6   27.41    2.62
   2   4  -6   27.01    2.91
   0  -4  -6   63.15    6.67
   0  -4   6   68.78    4.98
   0  -4  -6   61.84    6.78
   0   4  -6   70.80    6.98
   0   4  -6   65.00    6.00
   2  -4   6   67.30    5.28
  -2  -4  -6   67.43    7.21
  -2   4  -6   74.03    7.74
  -2   4  -6   72.36    6.32
  -4  -4  -6    7.62    1.35
   4  -4   6    8.22    0.86
  -4   4  -6    6.71    2.09
   6  -4   6   -0.18    0.33
  -6  -4  -6    0.21    0.61
  -6   4  -6   -1.46    1.48
  -8  -4  -6    1.29    0.77
   8  -4   6    0.19    0.43
  -8   4  -6   -0.32    1.46
  13  -5  -6    1.78    1.21
  13   5  -6    1.37    1.31
  13   5  -6    2.33    0.74
  11  -5  -6    1.05    1.16
  11   5  -6    1.36    0.47
  11   5  -6    0.90    1.26
  -9  -5   6   10.32    1.03
   9  -5  -6   10.91    2.15
   9   5  -6    9.79    2.11
   7  -5  -6    9.10    1.97
  -7  -5   6    7.83    0.81
   7   5  -6    7.45    1.62
   5  -5  -6    0.49    1.18
  -5  -5   6    0.02    0.20
   5   5  -6   -0.12    0.52
   3  -5  -6   -0.96    1.06
  -3  -5   6   -0.06    0.18
   3   5  -6    0.20    0.38
   1  -5  -6    0.82    0.54
   1  -5  -6    0.91    1.31
  -1  -5   6    0.97    0.27
   1   5  -6    0.68    0.39
   1   5  -6    1.71    0.56
   1  -5   6    6.03    0.66
  -1  -5  -6    5.66    1.04
  -1   5  -6    6.87    1.32
  -1   5  -6    5.65    0.87
   3  -5   6   30.49    2.54
  -3  -5  -6   30.28    3.55
  -3   5  -6   33.62    4.17
  -3   5  -6   34.60    3.07
  -5  -5  -6   20.47    2.49
   5  -5   6   21.50    1.78
  -5   5  -6   17.25    3.39
  -7  -5  -6    6.97    1.27
   7  -5   6    5.65    0.83
  -7   5  -6    6.13    2.50
  12  -6  -6    6.80    1.81
  12   6  -6    4.94    1.84
 -10  -6   6    2.37    0.53
  10  -6  -6    1.67    1.32
  10   6  -6    0.54    1.26
   8  -6  -6    9.07    2.05
  -8  -6   6    9.57    0.94
   8   6  -6    9.32    1.97
  -6  -6   6   28.91    2.41
   6  -6  -6   33.20    3.90
   6   6  -6   31.83    3.40
  -4  -6   6   25.79    2.01
   4  -6  -6   21.94    3.37
   4   6  -6   24.89    2.68
  -2  -6   6   21.14    1.68
   2  -6  -6   12.17    2.82
   2   6  -6   19.79    2.15
   2   6  -6   22.81    2.34
   0  -6  -6   34.37    4.30
   0  -6  -6   34.00    3.86
   0  -6   6   34.36    2.79
   0   6  -6   41.23    3.97
   0   6  -6   35.63    3.43
   2  -6   6   29.14    2.33
  -2  -6  -6   25.73    3.20
  -2   6  -6   33.18    3.57
  -2   6  -6   30.12    2.85
  -4  -6  -6    6.73    1.13
   4  -6   6    4.55    0.68
  -4   6  -6    6.39    1.71
   6  -6   6   -0.03    0.37
  -6  -6  -6    0.17    0.59
  -6   6  -6   -0.59    1.60
 -11  -7   6    1.67    0.49
  11  -7  -6    1.70    1.34
  11   7  -6   -0.25    1.38
   9  -7  -6    4.99    1.76
  -9  -7   6    3.44    0.58
   9   7  -6    3.20    1.57
   7  -7  -6    1.06    1.24
  -7  -7   6    3.19    0.52
   7   7  -6    2.67    1.19
  -5  -7   6    0.50    0.27
   5  -7  -6   -0.14    1.17
   5   7  -6    0.23    0.66
   3  -7  -6   -1.15    1.20
  -3  -7   6    0.10    0.24
   3   7  -6   -0.21    0.46
  -1  -7   6    0.17    0.26
   1  -7  -6    0.84    1.34
   1   7  -6   -0.04    0.38
   1  -7   6    3.19    0.50
  -1  -7  -6    2.97    0.81
  -1   7  -6    3.04    0.68
  -1   7  -6    3.22    0.91
  -3  -7  -6   15.16    2.09
   3  -7   6   15.61    1.47
  -3   7  -6   19.39    1.86
  -3   7  -6   17.68    2.51
   5  -7   6   12.34    1.21
  -5  -7  -6   11.85    1.70
  -5   7  -6   11.12    2.49
  -8  -8   6    6.87    0.81
   8  -8  -6    4.77    1.78
   8   8  -6    6.78    1.86
   6  -8  -6   12.21    2.43
  -6  -8   6   11.76    1.16
   6   8  -6   14.60    2.23
  -4  -8   6   12.35    1.11
   4  -8  -6   12.30    2.51
   4   8  -6   10.35    1.63
   2  -8  -6    8.37    2.26
  -2  -8   6   11.37    1.02
   2   8  -6    8.91    1.38
   0  -8  -6   17.85    2.17
   0  -8   6   18.29    1.52
   0  -8  -6   16.24    2.90
   0   8  -6   16.30    1.91
   2  -8   6   15.98    1.45
  -2  -8  -6   15.47    2.08
  -2   8  -6   17.01    1.82
  -2   8  -6   16.52    2.24
   4  -8   6    1.28    0.47
  -4  -8  -6    2.32    0.78
  -4   8  -6    2.50    1.22
   5  -9  -6    0.29    1.45
  -5  -9   6    0.22    0.34
   5   9  -6    0.17    0.81
  -3  -9   6   -0.14    0.30
   3  -9  -6   -1.12    1.36
   3   9  -6    0.17    0.57
   1  -9  -6   -1.10    1.39
  -1  -9   6    0.60    0.35
   1   9  -6    0.12    0.48
  14   0  -7   19.74    2.73
  14   0  -7   14.53    1.69
  12   0  -7    1.39    0.52
  12   0  -7    3.82    1.44
  10   0  -7    1.41    0.36
  10   0  -7    1.33    1.16
   8   0  -7   49.65    5.20
  -8   0   7   47.74    3.68
   6   0  -7   95.57    8.22
  -6   0   7   78.45    6.29
  -4   0   7    4.03    0.51
   4   0  -7    5.11    1.19
   2   0  -7  116.55    9.93
   2   0  -7  101.21   11.50
  -2   0   7  107.91    8.09
   0   0  -7   50.58    4.68
   0   0   7   49.50    3.82
   0   0  -7   51.23    5.80
   2   0   7    6.49    0.74
  -2   0  -7    8.95    1.79
  -4   0  -7    7.52    1.58
   4   0   7    4.43    0.68
  -6   0  -7    9.44    1.72
   6   0   7    5.18    0.87
   8   0   7    4.04    0.90
  -8   0  -7    8.06    1.59
  13  -1  -7   20.17    2.72
  13   1  -7   24.93    3.05
  13   1  -7   17.53    1.83
  11  -1  -7   11.14    1.99
  11   1  -7   11.95    2.22
  11   1  -7    7.68    0.91
   9  -1  -7   -0.23    1.03
  -9  -1   7    0.38    0.25
   9   1  -7    0.44    1.11
   7  -1  -7   25.09    3.52
  -7  -1   7   31.00    2.35
   7   1  -7   32.26    3.62
  -5  -1   7  226.66   16.61
   5  -1  -7  209.25   20.30
   5   1  -7  238.86   20.27
   3  -1  -7  200.58   17.34
   3  -1  -7  195.26   19.44
  -3  -1   7  190.05   14.22
   3   1  -7  209.49   17.25
   3   1  -7  167.93   19.41
   1  -1  -7   22.67    2.20
   1  -1  -7   16.86    2.69
  -1  -1   7   18.10    1.54
   1   1  -7   16.22    2.91
  -1   1   7   17.49    1.52
   1   1  -7   22.04    2.09
  -1  -1  -7   -0.01    0.85
   1  -1   7    0.83    0.29
   1   1   7   -0.17    0.24
  -1   1  -7    0.20    0.38
  -1   1  -7    0.78    1.11
   3  -1   7    1.41    0.38
  -3  -1  -7    1.99    1.04
  -3   1  -7    3.65    1.34
   3   1   7    1.23    0.40
   5  -1   7    3.78    0.63
  -5  -1  -7    3.99    1.20
  -5   1  -7    5.41    1.57
   5   1   7    2.34    0.62
   7  -1   7    1.23    0.60
  -7  -1  -7    1.70    0.98
   7   1   7    2.08    0.69
  -7   1  -7    2.00    1.18
  14  -2  -7   14.64    2.25
  14   2  -7   11.20    1.48
  14   2  -7   14.46    2.53
  12  -2  -7    1.78    1.13
  12   2  -7    1.90    0.54
  12   2  -7    1.53    1.33
  10  -2  -7    4.73    1.45
  10   2  -7    3.61    1.54
   8  -2  -7   51.62    4.89
  -8  -2   7   41.54    3.30
   8   2  -7   38.74    4.68
   6  -2  -7   32.49    4.55
  -6  -2   7   45.40    3.29
   6   2  -7   47.49    4.54
   4  -2  -7    3.85    1.09
   4  -2  -7    3.44    1.21
  -4  -2   7    2.72    0.40
   4   2  -7    2.01    0.88
   2  -2  -7   69.88    7.46
   2  -2  -7   70.66    6.77
  -2  -2   7   73.97    5.35
   2   2  -7   65.14    7.63
   2   2  -7   73.94    6.58
   0  -2  -7   50.94    5.36
   0  -2   7   48.96    3.74
   0  -2  -7   47.82    4.66
   0   2  -7   50.51    4.55
   0   2  -7   44.97    5.72
   2  -2   7    9.18    0.92
  -2  -2  -7    9.52    1.71
  -2   2  -7   11.54    2.34
   4  -2   7    3.68    0.61
  -4  -2  -7    5.94    1.34
  -4   2  -7    7.28    1.87
  -6  -2  -7    8.09    1.71
  -6   2  -7   10.61    2.26
  -8  -2  -7    5.22    1.29
   8  -2   7    4.54    0.89
  -8   2  -7    9.21    1.95
  13  -3  -7   10.05    1.98
  13   3  -7   11.50    1.32
  13   3  -7   15.43    2.67
  11  -3  -7    6.42    1.64
  11   3  -7    7.94    0.88
  11   3  -7    6.70    1.96
   9  -3  -7    0.63    1.12
  -9  -3   7    0.82    0.32
   9   3  -7   -0.69    1.03
  -7  -3   7   28.07    2.22
   7  -3  -7   31.22    3.66
   7   3  -7   25.00    3.28
   5  -3  -7  175.84   16.73
  -5  -3   7  159.82   12.35
   5   3  -7  165.13   15.09
   3  -3  -7  141.11   13.52
   3  -3  -7  113.38   12.40
  -3  -3   7  135.59    9.94
   3   3  -7  141.06   12.08
   1  -3  -7   17.61    2.32
  -1  -3   7   16.10    1.44
   1  -3  -7   18.00    2.26
   1   3  -7   18.08    1.83
   1   3  -7   15.92    2.42
  -1  -3  -7    0.42    0.65
   1  -3   7    0.55    0.27
  -1   3  -7   -0.34    0.99
  -1   3  -7    0.89    0.37
   3  -3   7    1.38    0.37
  -3  -3  -7    2.60    0.92
  -3   3  -7    2.37    1.54
  -5  -3  -7    1.77    0.93
   5  -3   7    1.77    0.49
  -5   3  -7    5.09    1.91
   7  -3   7    0.68    0.52
  -7  -3  -7    0.91    0.86
  -7   3  -7    2.35    1.60
  12  -4  -7    4.50    1.47
  12   4  -7    2.59    1.67
  12   4  -7    2.02    0.59
 -10  -4   7    2.99    0.51
  10  -4  -7    1.46    1.28
  10   4  -7    0.15    1.39
  -8  -4   7   23.62    2.01
   8  -4  -7   31.84    3.50
   8   4  -7   22.95    3.17
  -6  -4   7   33.95    2.64
   6  -4  -7   32.49    4.16
   6   4  -7   33.71    3.63
   4  -4  -7    3.24    1.53
   4  -4  -7    3.14    0.87
  -4  -4   7    1.44    0.35
   4   4  -7    2.31    0.76
   2  -4  -7   51.08    5.35
   2  -4  -7   47.84    5.39
  -2  -4   7   50.32    3.85
   2   4  -7   51.19    4.74
   0  -4   7   30.31    2.45
   0  -4  -7   31.80    3.47
   0  -4  -7   28.87    3.48
   0   4  -7   35.14    3.80
   0   4  -7   30.73    2.99
  -2  -4  -7    6.18    1.26
   2  -4   7    7.07    0.77
  -2   4  -7    7.46    1.90
  -4  -4  -7    3.30    1.00
   4  -4   7    3.63    0.57
  -4   4  -7    2.86    1.74
   6  -4   7    3.23    0.63
  -6  -4  -7    3.48    1.05
  -6   4  -7    3.80    2.09
 -11  -5   7    3.82    0.64
  11  -5  -7    4.60    1.62
  11   5  -7    1.87    1.46
  -9  -5   7    0.94    0.34
   9  -5  -7   -0.21    1.25
   9   5  -7    0.45    1.13
  -7  -5   7   20.78    1.74
   7  -5  -7   21.27    3.18
   7   5  -7   20.65    2.71
  -5  -5   7   99.93    7.42
   5  -5  -7   86.70    9.79
   5   5  -7  106.29    9.20
  -3  -5   7   80.24    6.33
   3  -5  -7   86.47    8.64
   3   5  -7   86.90    7.75
   1  -5  -7    6.93    2.02
  -1  -5   7    9.51    1.01
   1  -5  -7   11.80    1.61
   1   5  -7   12.81    1.65
   1   5  -7   11.55    1.32
   1  -5   7    0.52    0.30
  -1  -5  -7   -0.19    0.61
  -1   5  -7    0.52    0.86
  -1   5  -7    0.70    0.38
   3  -5   7    1.24    0.37
  -3  -5  -7    0.45    0.69
  -3   5  -7    1.89    1.43
   5  -5   7    3.03    0.57
  -5  -5  -7    2.22    0.88
  -5   5  -7   -0.37    1.69
 -10  -6   7    1.02    0.40
  10  -6  -7    1.94    1.40
  10   6  -7   -1.07    1.31
  -8  -6   7   13.86    1.22
   8  -6  -7   10.78    2.46
   8   6  -7   11.87    2.31
  -6  -6   7   15.87    1.35
   6  -6  -7   12.20    2.71
   6   6  -7   15.67    2.10
   4  -6  -7    0.56    1.55
  -4  -6   7    0.87    0.32
   4   6  -7    1.45    0.67
   2  -6  -7   14.23    3.31
  -2  -6   7   23.69    1.93
   2  -6  -7   25.43    2.79
   2   6  -7   25.11    2.48
   0  -6  -7   18.12    2.25
   0  -6   7   16.36    1.54
   0   6  -7   18.40    1.95
   0   6  -7   21.66    2.42
  -2  -6  -7    3.03    0.92
   2  -6   7    2.88    0.52
  -2   6  -7    3.40    1.24
  -2   6  -7    4.44    0.74
  -4  -6  -7    1.79    0.81
   4  -6   7    1.93    0.48
  -4   6  -7    0.92    1.47
   9  -7  -7    0.83    1.51
  -9  -7   7    1.96    0.46
   9   7  -7   -0.10    1.39
   7  -7  -7    5.33    2.01
  -7  -7   7   10.36    0.99
   7   7  -7   11.48    2.03
   5  -7  -7   52.40    5.92
  -5  -7   7   47.57    3.87
   5   7  -7   52.90    5.00
  -3  -7   7   41.49    3.13
   3  -7  -7   26.97    4.74
   3   7  -7   43.20    3.96
  -1  -7   7    5.31    0.70
   1  -7  -7    3.10    1.84
   1  -7  -7    5.50    1.12
   1   7  -7    7.18    1.07
   1  -7   7    0.30    0.30
  -1  -7  -7   -0.06    0.65
  -1   7  -7    1.01    0.47
  -1   7  -7    1.17    0.80
   3  -7   7    0.81    0.38
  -3  -7  -7    0.35    0.70
  -3   7  -7    0.58    1.10
  -6  -8   7    4.55    0.65
   6  -8  -7    3.10    1.87
   6   8  -7    6.25    1.50
  -4  -8   7    0.31    0.35
   4  -8  -7    1.30    1.77
   4   8  -7    0.71    0.65
   2  -8  -7    3.85    2.05
   2  -8  -7    7.83    1.41
  -2  -8   7    8.87    0.89
   2   8  -7    8.58    1.25
   0  -8  -7    6.50    1.26
   0  -8   7    6.69    0.80
   0   8  -7    7.01    1.12
  14   0  -8    0.80    1.27
  12   0  -8   45.06    5.15
  10   0  -8   86.08    8.61
   8   0  -8   22.12    3.02
   6   0  -8   16.64    2.39
   4   0  -8   37.66    3.81
  -4   0   8   35.00    2.76
   2   0  -8   18.72    3.03
  -2   0   8   18.40    1.54
   2   0  -8   19.91    2.15
   0   0  -8    3.11    1.45
   0   0   8    2.13    0.39
  -2   0  -8    7.95    1.74
   2   0   8    4.71    0.67
  -4   0  -8   18.89    2.54
   4   0   8   11.87    1.36
   6   0   8    2.43    0.73
  -6   0  -8    5.00    1.46
  13  -1  -8   39.13    3.91
  13   1  -8   26.64    2.52
 -11  -1   8   10.82    1.17
  11  -1  -8   14.43    2.42
  11   1  -8   18.65    2.89
   9  -1  -8   -0.24    1.18
  -9  -1   8    0.29    0.27
   9   1  -8    1.67    1.36
   7  -1  -8    1.75    1.20
  -7  -1   8    2.99    0.43
   7   1  -8    2.85    1.21
   5  -1  -8    0.72    0.89
  -5  -1   8    0.11    0.20
   5   1  -8    0.54    0.73
  -3  -1   8    4.47    0.52
   3  -1  -8    4.04    1.06
   3  -1  -8    3.37    1.43
   3   1  -8    3.52    0.93
   1  -1  -8   11.69    2.23
   1  -1  -8   10.39    1.43
  -1  -1   8   10.93    0.99
   1   1  -8   10.66    2.23
   1   1  -8   10.97    1.38
   1  -1   8    2.82    0.47
  -1  -1  -8    2.99    1.33
  -1   1  -8    3.21    1.46
   3  -1   8    0.57    0.42
  -3  -1  -8    2.18    1.13
  -3   1  -8    2.58    1.36
  -5  -1  -8    7.09    1.65
   5  -1   8    5.40    0.89
  -5   1  -8   11.36    2.16
 -12  -2   8   22.98    2.24
  12  -2  -8   32.01    3.55
  12   2  -8   35.97    4.08
 -10  -2   8   51.82    3.96
  10   2  -8   49.03    5.71
  -8  -2   8   29.44    2.34
   8  -2  -8   34.06    3.76
   8   2  -8   25.20    3.55
   6  -2  -8   11.33    2.29
  -6  -2   8   13.71    1.17
   6   2  -8   13.29    2.11
   4  -2  -8   22.94    3.04
  -4  -2   8   24.36    2.00
   4   2  -8   27.95    2.79
  -2  -2   8   20.62    1.77
   2  -2  -8   21.01    2.52
   2  -2  -8   22.68    2.95
   2   2  -8   23.87    2.35
   0  -2  -8    5.30    1.41
   0  -2   8    3.49    0.53
   0   2  -8    4.62    0.78
   0   2  -8    4.66    1.66
   2  -2   8    3.98    0.59
  -2  -2  -8    4.07    1.27
  -2   2  -8    6.65    1.96
  -4  -2  -8   12.04    2.16
   4  -2   8   10.98    1.25
  -4   2  -8   21.30    3.25
  -6  -2  -8    3.99    1.30
   6  -2   8    3.41    0.76
  -6   2  -8    7.89    2.12
 -13  -3   8   19.31    1.83
  11  -3  -8   13.97    2.40
 -11  -3   8   11.58    1.21
  11   3  -8   12.35    2.65
   9  -3  -8    0.74    1.11
  -9  -3   8    0.21    0.31
   9   3  -8    0.10    1.33
   7  -3  -8    1.08    1.34
  -7  -3   8    3.02    0.47
   7   3  -8    3.64    1.19
  -5  -3   8    0.16    0.23
   5  -3  -8    0.22    1.11
   5   3  -8    0.30    0.63
  -3  -3   8    1.53    0.35
   3  -3  -8    1.69    1.08
   3  -3  -8    2.02    0.97
   3   3  -8    2.51    0.69
  -1  -3   8    8.16    0.79
   1  -3  -8    5.80    1.28
   1  -3  -8    6.93    1.47
   1   3  -8    7.66    1.05
   1   3  -8    7.21    1.69
  -1  -3  -8    2.40    1.04
   1  -3   8    2.38    0.44
  -1   3  -8    0.00    1.36
   3  -3   8    1.10    0.44
  -3  -3  -8    1.49    0.98
  -3   3  -8   -0.54    1.70
  -5  -3  -8    6.16    1.51
   5  -3   8    5.77    0.88
  -5   3  -8   11.36    2.62
 -12  -4   8   13.93    1.47
  12  -4  -8   15.66    2.56
  12   4  -8   19.55    3.19
  10  -4  -8   48.11    4.60
 -10  -4   8   36.45    2.91
  10   4  -8   25.23    4.35
   8  -4  -8   23.23    3.20
  -8  -4   8   20.70    1.75
   8   4  -8   18.82    2.86
   6  -4  -8    9.85    2.36
  -6  -4   8   11.55    1.04
   6   4  -8   10.85    1.88
   4  -4  -8   19.88    2.56
   4  -4  -8   15.39    2.91
  -4  -4   8   17.90    1.58
   4   4  -8   21.41    2.21
   2  -4  -8   10.59    1.82
   2  -4  -8   10.27    2.07
  -2  -4   8   11.95    1.07
   2   4  -8   11.98    1.44
   0  -4  -8    3.42    1.08
   0  -4   8    3.61    0.53
   0   4  -8    3.95    1.34
   0   4  -8    3.45    0.72
  -2  -4  -8    4.93    1.22
   2  -4   8    4.33    0.62
  -2   4  -8    2.58    1.77
   4  -4   8    7.30    0.87
  -4  -4  -8    4.95    1.30
  -4   4  -8    4.51    2.23
 -11  -5   8    6.41    0.83
  11  -5  -8    8.62    2.09
  11   5  -8    0.34    1.79
   9  -5  -8    0.19    1.23
  -9  -5   8    0.04    0.32
   9   5  -8   -1.56    1.15
  -7  -5   8    1.35    0.37
   7  -5  -8    1.34    1.47
   7   5  -8   -0.24    0.83
   5  -5  -8   -0.05    0.75
  -5  -5   8    0.23    0.25
   5  -5  -8   -0.53    1.37
   5   5  -8    0.04    0.57
   3  -5  -8    1.84    0.91
   3  -5  -8    0.22    1.34
  -3  -5   8    1.93    0.39
   3   5  -8    1.85    0.64
  -1  -5   8    5.29    0.63
   1  -5  -8    3.58    1.11
   1   5  -8    5.37    0.90
  -1  -5  -8    0.77    0.83
   1  -5   8    1.81    0.43
  -1   5  -8    2.43    1.30
  -3  -5  -8    1.36    0.79
   3  -5   8    0.35    0.38
  -3   5  -8    1.64    1.74
 -10  -6   8   15.91    1.48
  10  -6  -8   17.92    2.91
  10   6  -8   12.46    2.75
  -8  -6   8   12.40    1.18
   8  -6  -8   13.80    2.76
   8   6  -8   11.78    2.27
   6  -6  -8    5.69    2.21
  -6  -6   8    8.55    0.87
   6   6  -8    8.55    1.57
   4  -6  -8   11.02    2.71
   4  -6  -8   11.91    1.93
  -4  -6   8   12.11    1.14
   4   6  -8   13.10    1.68
   2  -6  -8    7.46    2.15
   2  -6  -8    8.98    1.55
  -2  -6   8    7.93    0.88
   2   6  -8    9.48    1.25
   0  -6  -8    1.15    0.84
   0  -6   8    2.12    0.47
   0   6  -8    2.81    0.68
  -2  -6  -8    3.36    1.01
   2  -6   8    3.27    0.56
  -2   6  -8    1.38    1.37
  -7  -7   8   -0.17    0.29
   7  -7  -8    1.32    1.72
   7   7  -8    0.32    0.94
  -5  -7   8   -0.02    0.28
   5  -7  -8    0.60    1.80
   5  -7  -8   -0.75    0.73
   5   7  -8    0.38    0.68
   3  -7  -8    0.46    0.78
  -3  -7   8    0.85    0.36
   3  -7  -8    1.34    1.84
   3   7  -8    2.11    0.73
  -1  -7   8    2.17    0.46
   1  -7  -8    1.34    0.81
   1   7  -8    3.27    0.75
  12   0  -9   19.20    3.31
  10   0  -9    1.83    1.65
   8   0  -9    8.23    2.04
   6   0  -9    2.99    1.20
   4   0  -9    6.78    1.41
   2   0  -9    6.00    1.09
   0   0  -9    8.42    2.11
  -2   0  -9   32.29    4.36
  -4   0  -9   20.03    3.18
  11  -1  -9   34.01    4.21
  11   1  -9   31.66    4.38
   9  -1  -9   36.56    4.33
   9   1  -9   33.49    4.29
   7  -1  -9    7.20    1.73
   7   1  -9    9.00    1.88
   5  -1  -9    0.90    0.96
  -5  -1   9   -0.04    0.25
   5   1  -9    0.17    0.76
  -3  -1   9   12.77    1.17
   3  -1  -9   14.64    1.89
   3   1  -9   12.96    1.73
  -1  -1   9   47.50    3.90
   1  -1  -9   57.83    6.18
   1   1  -9   51.18    6.19
  -1  -1  -9   32.77    3.91
   1  -1   9   24.73    2.22
   3  -1   9    1.75    0.57
  -3  -1  -9    3.57    1.50
  -3   1  -9    4.92    1.83
 -12  -2   9    9.89    1.19
  12  -2  -9   14.64    2.54
  12   2  -9   18.85    3.10
  10  -2  -9    1.94    1.45
 -10  -2   9    2.46    0.51
  10   2  -9    1.92    1.64
  -8  -2   9    6.52    0.77
   8  -2  -9    6.39    1.88
   8   2  -9    5.17    1.68
  -6  -2   9    3.46    0.52
   6  -2  -9    3.78    1.37
   6   2  -9    5.48    1.38
  -4  -2   9    7.80    0.85
   4  -2  -9    8.25    1.68
   4   2  -9    9.80    1.53
  -2  -2   9    5.87    0.69
   2  -2  -9    4.26    1.09
   2  -2  -9    5.49    1.60
   2   2  -9    5.62    1.04
   0  -2  -9    9.87    2.09
   0  -2   9    6.64    0.84
   0   2  -9    6.90    2.15
   2  -2   9   21.70    2.05
  -2  -2  -9   25.24    3.49
  -2   2  -9   31.93    4.34
   4  -2   9   12.92    1.49
  -4  -2  -9   14.52    2.57
  -4   2  -9   24.43    3.51
  11  -3  -9   28.50    3.32
 -11  -3   9   16.99    1.66
  11   3  -9   15.20    3.20
   9  -3  -9   37.48    4.22
  -9  -3   9   29.57    2.55
   9   3  -9   32.97    4.09
  -7  -3   9    4.63    0.62
   7  -3  -9    2.33    1.41
   7   3  -9    5.73    1.45
  -5  -3   9    0.16    0.28
   5  -3  -9    1.48    1.19
   5   3  -9   -0.05    0.64
   3  -3  -9    8.59    1.81
   3  -3  -9   10.96    2.09
  -3  -3   9   12.48    1.09
   3   3  -9   11.18    1.53
   1  -3  -9   44.83    5.02
  -1  -3   9   42.25    3.34
   1   3  -9   41.38    4.08
  -1  -3  -9   21.96    3.12
   1  -3   9   22.97    1.93
  -1   3  -9   20.01    3.71
  -3  -3  -9    3.06    1.34
   3  -3   9    1.23    0.55
  -3   3  -9    2.88    2.06
  10  -4  -9    0.73    1.29
 -10  -4   9    0.41    0.44
  10   4  -9    1.88    1.70
   8  -4  -9    3.38    1.59
  -8  -4   9    3.46    0.59
   8   4  -9    4.52    1.47
  -6  -4   9    1.38    0.38
   6  -4  -9    0.61    1.37
   6   4  -9    1.30    0.89
  -4  -4   9    3.27    0.52
   4  -4  -9    3.42    1.39
   4   4  -9    3.63    0.94
   2  -4  -9    1.67    1.11
  -2  -4   9    1.92    0.42
   2   4  -9    2.52    0.72
   0  -4  -9    3.63    1.28
   0  -4   9    4.01    0.62
   2  -4   9   14.47    1.40
  -2  -4  -9   15.10    2.34
  -2   4  -9   11.97    2.95
  -9  -5   9   17.78    1.61
   9  -5  -9   23.99    3.34
   9   5  -9   13.98    2.79
   7  -5  -9    2.26    1.78
  -7  -5   9    3.93    0.60
   7   5  -9    5.77    1.43
  -5  -5   9    0.98    0.35
   5  -5  -9    1.08    1.52
   5   5  -9   -0.05    0.67
  -3  -5   9    8.68    0.88
   3  -5  -9    7.78    1.67
   3  -5  -9    4.71    1.80
   3   5  -9    8.39    1.33
  -1  -5   9   22.59    1.99
   1  -5  -9   25.07    3.11
   1   5  -9   24.33    2.50
   1  -5   9   15.01    1.38
  -1  -5  -9   13.04    2.19
   6  -6  -9    0.47    1.71
  -6  -6   9    0.60    0.36
   6   6  -9   -0.09    0.75
   4  -6  -9    1.04    0.98
   4  -6  -9    1.11    1.82
  -4  -6   9    0.49    0.34
   4   6  -9    0.28    0.65
   2  -6  -9   -0.11    0.78
  -2  -6   9    0.37    0.33
   2   6  -9   -0.02    0.52
  10   0 -10    1.60    1.48
   8   0 -10   32.81    4.10
   6   0 -10   52.66    5.53
   4   0 -10   24.84    2.89
   0   0 -10    7.55    2.19
   9  -1 -10   19.38    3.22
   9   1 -10   18.30    3.19
   7  -1 -10    1.57    1.38
   7   1 -10    3.55    1.48
   5  -1 -10    3.15    1.22
   5   1 -10    2.99    1.19
   3  -1 -10    7.60    1.44
   3   1 -10    7.77    1.40
  -1  -1 -10   11.86    2.51
  -1   1 -10   11.94    2.73
  10  -2 -10    0.52    1.37
  10   2 -10    2.50    1.55
   8  -2 -10   26.40    3.68
   8   2 -10   28.64    3.62
  -6  -2  10   38.34    3.16
   6  -2 -10   40.13    4.57
   6   2 -10   43.95    4.43
  -4  -2  10   18.23    1.62
   4  -2 -10   16.69    2.49
   4   2 -10   20.45    2.36
  -2  -2  10    9.94    1.06
   0  -2  10    3.19    0.62
   0  -2 -10    6.36    1.90
   9  -3 -10   13.67    2.67
  -9  -3  10   11.94    1.20
   9   3 -10   10.71    2.47
  -7  -3  10    1.33    0.41
   7  -3 -10    0.68    1.47
   7   3 -10    1.21    1.22
   5  -3 -10    2.36    1.42
  -5  -3  10    2.31    0.49
   5   3 -10    2.61    1.06
  -3  -3  10    3.95    0.63
   3   3 -10    4.84    1.08
   1  -3 -10    7.49    1.99
  -1  -3  10    5.89    0.81
  -6  -4  10   27.44    2.30
   6  -4 -10   28.03    3.91
   6   4 -10   27.97    3.26
  -4  -4  10   15.41    1.40
   4  -4 -10   15.37    2.58
   4   4 -10   13.15    1.89
  -2  -4  10    6.57    0.87
   2  -4 -10    7.71    1.87
   2   4 -10    8.49    1.27
   0   0   0    0.00    0.00
;
_shelx_hkl_checksum              15322
#END Tags that were not found in dictionaries
loop_
_space_group_symop_operation_xyz
'x, y, z'
'-x, y, -z'
'x+1/2, y+1/2, z'
'-x+1/2, y+1/2, -z'
'-x, -y, -z'
'x, -y, z'
'-x+1/2, -y+1/2, -z'
'x+1/2, -y+1/2, z'
loop_
_atom_site_label
_atom_site_type_symbol
_atom_site_fract_x
_atom_site_fract_y
_atom_site_fract_z
_atom_site_U_iso_or_equiv
_atom_site_adp_type
_atom_site_occupancy
_atom_site_site_symmetry_order
_atom_site_calc_flag
_atom_site_refinement_flags_posn
_atom_site_refinement_flags_adp
_atom_site_refinement_flags_occupancy
Re1 Re 0.23217(4) 0.5000 0.23767(6) 0.0376(2) Uani 1 2 d S T P
I1 I 0.17540(12) 0.5000 -0.08024(11) 0.0699(4) Uani 1 2 d S T P
I2 I 0.13664(12) 0.5000 0.46692(14) 0.0798(5) Uani 1 2 d S T P
O1 O 0.0912(7) 0.2321(10) 0.1598(10) 0.076(3) Uani 1 1 d . . .
C1 C 0.1378(9) 0.3320(12) 0.1839(12) 0.051(3) Uani 1 1 d . . .
C3A C 0.3937(18) 0.5000 0.201(3) 0.117(11) Uani 1 2 d S T P
H3A H 0.4026 0.5000 0.1040 0.140 Uiso 1 2 calc R U P
C4A C 0.3854(10) 0.3805(16) 0.290(2) 0.105(7) Uani 1 1 d . . .
H4A H 0.3866 0.2844 0.2622 0.126 Uiso 1 1 calc R U .
C5A C 0.3755(13) 0.4298(15) 0.4232(19) 0.098(5) Uani 1 1 d . . .
H5A H 0.3695 0.3723 0.5035 0.117 Uiso 1 1 calc R U .
loop_
_atom_site_aniso_label
_atom_site_aniso_U_11
_atom_site_aniso_U_22
_atom_site_aniso_U_33
_atom_site_aniso_U_23
_atom_site_aniso_U_13
_atom_site_aniso_U_12
Re1 0.0380(4) 0.0392(4) 0.0403(4) 0.000 0.0190(3) 0.000
I1 0.1034(11) 0.0677(7) 0.0422(6) 0.000 0.0277(6) 0.000
I2 0.1137(12) 0.0814(8) 0.0699(8) 0.000 0.0663(8) 0.000
O1 0.074(6) 0.061(5) 0.104(7) -0.012(5) 0.043(5) -0.021(5)
C1 0.049(7) 0.050(6) 0.057(6) 0.005(5) 0.020(6) 0.002(5)
C3A 0.053(15) 0.23(4) 0.080(16) 0.000 0.043(12) 0.000
C4A 0.032(8) 0.073(10) 0.19(2) -0.049(11) 0.011(10) -0.006(6)
C5A 0.078(11) 0.111(12) 0.088(9) 0.040(9) 0.000(8) 0.017(9)
loop_
_atom_type_symbol
_atom_type_description
_atom_type_scat_dispersion_real
_atom_type_scat_dispersion_imag
_atom_type_scat_source
C C 0.0033 0.0016 'International Tables Vol C Tables 4.2.6.8 and 6.1.1.4'
H H 0.0000 0.0000 'International Tables Vol C Tables 4.2.6.8 and 6.1.1.4'
I I -0.4742 1.8119 'International Tables Vol C Tables 4.2.6.8 and 6.1.1.4'
O O 0.0106 0.0060 'International Tables Vol C Tables 4.2.6.8 and 6.1.1.4'
Re Re -1.0185 7.2310 'International Tables Vol C Tables 4.2.6.8 and 6.1.1.4'
loop_
_geom_angle_atom_site_label_1
_geom_angle_atom_site_label_2
_geom_angle_atom_site_label_3
_geom_angle
_geom_angle_site_symmetry_1
_geom_angle_site_symmetry_3
C1 Re1 C1 104.5(6) 6_565 .
C1 Re1 C5A 107.2(5) 6_565 6_565
C1 Re1 C5A 139.1(5) . 6_565
C1 Re1 C5A 139.1(5) 6_565 .
C1 Re1 C5A 107.2(5) . .
C5A Re1 C5A 33.9(8) 6_565 .
C1 Re1 C4A 97.8(5) 6_565 6_565
C1 Re1 C4A 156.3(5) . 6_565
C5A Re1 C4A 34.8(6) 6_565 6_565
C5A Re1 C4A 57.7(6) . 6_565
C1 Re1 C4A 156.3(5) 6_565 .
C1 Re1 C4A 97.8(5) . .
C5A Re1 C4A 57.7(6) 6_565 .
C5A Re1 C4A 34.8(6) . .
C4A Re1 C4A 59.0(7) 6_565 .
C1 Re1 C3A 121.7(4) 6_565 .
C1 Re1 C3A 121.7(4) . .
C5A Re1 C3A 58.6(7) 6_565 .
C5A Re1 C3A 58.6(7) . .
C4A Re1 C3A 35.9(5) 6_565 .
C4A Re1 C3A 35.9(5) . .
C1 Re1 I2 77.3(3) 6_565 .
C1 Re1 I2 77.3(3) . .
C5A Re1 I2 85.1(5) 6_565 .
C5A Re1 I2 85.1(5) . .
C4A Re1 I2 116.1(5) 6_565 .
C4A Re1 I2 116.1(5) . .
C3A Re1 I2 141.8(6) . .
C1 Re1 I1 77.8(3) 6_565 .
C1 Re1 I1 77.8(3) . .
C5A Re1 I1 133.9(5) 6_565 .
C5A Re1 I1 133.9(5) . .
C4A Re1 I1 99.5(5) 6_565 .
C4A Re1 I1 99.5(5) . .
C3A Re1 I1 79.5(6) . .
I2 Re1 I1 138.67(5) . .
O1 C1 Re1 174.8(11) . .
C4A C3A C4A 105(2) 6_565 .
C4A C3A Re1 70.8(10) 6_565 .
C4A C3A Re1 70.8(10) . .
C4A C3A H3A 127.5 6_565 .
C4A C3A H3A 127.5 . .
Re1 C3A H3A 122.7 . .
C5A C4A C3A 107.6(14) . .
C5A C4A Re1 72.0(9) . .
C3A C4A Re1 73.3(11) . .
C5A C4A H4A 126.2 . .
C3A C4A H4A 126.2 . .
Re1 C4A H4A 120.3 . .
C5A C5A C4A 110.0(10) 6_565 .
C5A C5A Re1 73.0(4) 6_565 .
C4A C5A Re1 73.3(9) . .
C5A C5A H5A 125.0 6_565 .
C4A C5A H5A 125.0 . .
Re1 C5A H5A 120.3 . .
loop_
_geom_bond_atom_site_label_1
_geom_bond_atom_site_label_2
_geom_bond_distance
_geom_bond_site_symmetry_2
Re1 C1 1.974(11) 6_565
Re1 C1 1.974(11) .
Re1 C5A 2.237(14) 6_565
Re1 C5A 2.237(14) .
Re1 C4A 2.253(14) 6_565
Re1 C4A 2.253(14) .
Re1 C3A 2.29(2) .
Re1 I2 2.7640(15) .
Re1 I1 2.7676(16) .
O1 C1 1.102(13) .
C3A C4A 1.40(2) 6_565
C3A C4A 1.40(2) .
C3A H3A 0.9300 .
C4A C5A 1.34(3) .
C4A H4A 0.9300 .
C5A C5A 1.30(3) 6_565
C5A H5A 0.9300 .
loop_
_geom_torsion_atom_site_label_1
_geom_torsion_atom_site_label_2
_geom_torsion_atom_site_label_3
_geom_torsion_atom_site_label_4
_geom_torsion
_geom_torsion_site_symmetry_1
_geom_torsion_site_symmetry_4
C4A C3A C4A C5A -1(2) 6_565 .
Re1 C3A C4A C5A -64.3(12) . .
C4A C3A C4A Re1 63.0(14) 6_565 .
C3A C4A C5A C5A 0.8(15) . 6_565
Re1 C4A C5A C5A -64.3(4) . 6_565
C3A C4A C5A Re1 65.2(14) . .
